MODEL 1
REMARK VINA RESULT:     -10.8      0.000      0.000
REMARK SMILES O=C(CNc1ccccc1C(=O)N1CCCC1)OCCOCCOCCOC(=O)c1ccc(-c2c3nc(c(-c4c(F)cccc4F)c4ccc([nH]4)c(-c4c(F)cccc4F)c4nc(c(-c5c(F)cccc5F)c5ccc2[nH]5)C=C4)C=C3)cc1
REMARK SMILES IDX 22 1 21 2 20 3 19 4 18 5 2 6 1 7 3 8 4 9 5 11 6 12 10 13
REMARK SMILES IDX 7 14 9 15 8 16 11 17 12 18 13 19 14 20 17 21 15 22 16 23
REMARK SMILES IDX 23 24 24 25 25 26 26 27 27 28 28 29 29 30 30 31 31 32 83 33
REMARK SMILES IDX 32 34 82 35 33 36 34 37 35 38 76 39 36 40 81 41 75 42 77 43
REMARK SMILES IDX 37 44 80 45 74 46 73 47 38 49 64 50 47 51 63 52 48 53 51 54
REMARK SMILES IDX 62 55 78 56 49 57 50 58 61 60 79 61 52 62 39 63 40 64 45 65
REMARK SMILES IDX 41 66 42 67 44 68 46 69 43 70 65 71 66 72 71 73 67 74 68 75
REMARK SMILES IDX 70 76 72 77 69 78 53 79 54 80 59 81 55 82 56 83 58 84 60 85
REMARK SMILES IDX 57 86
REMARK H PARENT 4 10 77 48 51 59
REMARK Flexibility Score: inf
ROOT
ATOM      1  C   UNL A   1      41.601  19.902  26.103  1.00  0.00     0.188 C 
ENDROOT
BRANCH   1   2
ATOM      2  O   UNL A   1      41.339  21.296  26.250  1.00  0.00    -0.376 OA
BRANCH   2   3
ATOM      3  C   UNL A   1      40.138  21.690  26.905  1.00  0.00     0.202 C 
BRANCH   3   4
ATOM      4  C   UNL A   1      39.076  22.493  26.140  1.00  0.00     0.261 C 
BRANCH   4   5
ATOM      5  O   UNL A   1      38.338  21.821  25.110  1.00  0.00    -0.462 OA
BRANCH   5   6
ATOM      6  C   UNL A   1      36.996  21.666  25.165  1.00  0.00     0.325 C 
ATOM      7  O   UNL A   1      36.501  20.557  25.364  1.00  0.00    -0.250 OA
BRANCH   6   8
ATOM      8  C   UNL A   1      36.132  22.872  24.863  1.00  0.00     0.236 C 
BRANCH   8   9
ATOM      9  N   UNL A   1      34.745  22.685  25.261  1.00  0.00    -0.374 N 
ATOM     10  H   UNL A   1      34.475  22.862  26.191  1.00  0.00     0.161 HD
BRANCH   9  11
ATOM     11  C   UNL A   1      33.796  22.256  24.337  1.00  0.00     0.047 A 
ATOM     12  C   UNL A   1      33.659  23.094  23.206  1.00  0.00     0.026 A 
ATOM     13  C   UNL A   1      33.082  21.032  24.344  1.00  0.00     0.063 A 
ATOM     14  C   UNL A   1      32.876  22.748  22.105  1.00  0.00     0.002 A 
ATOM     15  C   UNL A   1      32.255  20.727  23.232  1.00  0.00     0.016 A 
ATOM     16  C   UNL A   1      32.164  21.563  22.120  1.00  0.00     0.001 A 
BRANCH  13  17
ATOM     17  C   UNL A   1      33.198  19.888  25.318  1.00  0.00     0.255 C 
ATOM     18  O   UNL A   1      33.040  20.132  26.518  1.00  0.00    -0.269 OA
ATOM     19  N   UNL A   1      33.327  18.577  24.904  1.00  0.00    -0.339 N 
ATOM     20  C   UNL A   1      34.383  18.031  24.077  1.00  0.00     0.120 C 
ATOM     21  C   UNL A   1      32.757  17.543  25.730  1.00  0.00     0.120 C 
ATOM     22  C   UNL A   1      34.000  16.563  23.886  1.00  0.00     0.023 C 
ATOM     23  C   UNL A   1      32.903  16.271  24.915  1.00  0.00     0.023 C 
ENDBRANCH  13  17
ENDBRANCH   9  11
ENDBRANCH   8   9
ENDBRANCH   6   8
ENDBRANCH   5   6
ENDBRANCH   4   5
ENDBRANCH   3   4
ENDBRANCH   2   3
ENDBRANCH   1   2
BRANCH   1  24
ATOM     24  C   UNL A   1      43.099  19.667  25.904  1.00  0.00     0.188 C 
BRANCH  24  25
ATOM     25  O   UNL A   1      43.636  20.201  24.692  1.00  0.00    -0.376 OA
BRANCH  25  26
ATOM     26  C   UNL A   1      44.658  21.180  24.826  1.00  0.00     0.202 C 
BRANCH  26  27
ATOM     27  C   UNL A   1      44.516  22.457  23.987  1.00  0.00     0.261 C 
BRANCH  27  28
ATOM     28  O   UNL A   1      43.662  23.473  24.539  1.00  0.00    -0.460 OA
BRANCH  28  29
ATOM     29  C   UNL A   1      44.310  24.588  24.947  1.00  0.00     0.338 C 
ATOM     30  O   UNL A   1      45.431  24.959  24.611  1.00  0.00    -0.246 OA
BRANCH  29  31
ATOM     31  C   UNL A   1      43.469  25.401  25.845  1.00  0.00     0.060 A 
ATOM     32  C   UNL A   1      43.837  26.732  26.074  1.00  0.00     0.016 A 
ATOM     33  C   UNL A   1      42.422  24.829  26.575  1.00  0.00     0.016 A 
ATOM     34  C   UNL A   1      43.184  27.482  27.056  1.00  0.00     0.010 A 
ATOM     35  C   UNL A   1      41.776  25.580  27.570  1.00  0.00     0.010 A 
ATOM     36  C   UNL A   1      42.170  26.904  27.837  1.00  0.00    -0.014 A 
BRANCH  36  37
ATOM     37  C   UNL A   1      41.641  27.648  29.013  1.00  0.00     0.031 A 
ATOM     38  C   UNL A   1      42.336  27.510  30.338  1.00  0.00     0.074 A 
ATOM     39  C   UNL A   1      40.585  28.477  28.912  1.00  0.00     0.049 A 
ATOM     40  N   UNL A   1      42.095  28.128  31.467  1.00  0.00    -0.248 NA
ATOM     41  C   UNL A   1      43.445  26.546  30.400  1.00  0.00     0.031 C 
ATOM     42  C   UNL A   1      39.805  28.696  27.705  1.00  0.00     0.029 A 
ATOM     43  N   UNL A   1      39.984  29.293  29.841  1.00  0.00    -0.354 N 
ATOM     44  C   UNL A   1      43.039  27.653  32.365  1.00  0.00     0.074 A 
ATOM     45  C   UNL A   1      43.826  26.658  31.665  1.00  0.00     0.031 C 
ATOM     46  C   UNL A   1      38.835  29.588  27.948  1.00  0.00     0.029 A 
ATOM     47  C   UNL A   1      38.904  29.987  29.348  1.00  0.00     0.049 A 
ATOM     48  H   UNL A   1      40.297  29.372  30.771  1.00  0.00     0.167 HD
ATOM     49  C   UNL A   1      43.244  28.022  33.652  1.00  0.00     0.037 A 
ATOM     50  C   UNL A   1      38.053  30.837  29.955  1.00  0.00     0.037 A 
ATOM     51  C   UNL A   1      42.441  28.980  34.367  1.00  0.00     0.049 A 
ATOM     52  C   UNL A   1      38.261  31.181  31.401  1.00  0.00     0.074 A 
ATOM     53  C   UNL A   1      42.576  29.412  35.676  1.00  0.00     0.029 A 
ATOM     54  N   UNL A   1      41.342  29.641  33.842  1.00  0.00    -0.354 N 
ATOM     55  N   UNL A   1      39.196  30.768  32.221  1.00  0.00    -0.248 NA
ATOM     56  C   UNL A   1      37.305  32.120  32.004  1.00  0.00     0.031 C 
ATOM     57  C   UNL A   1      41.534  30.302  35.956  1.00  0.00     0.029 A 
ATOM     58  C   UNL A   1      40.778  30.463  34.807  1.00  0.00     0.049 A 
ATOM     59  H   UNL A   1      41.010  29.543  32.921  1.00  0.00     0.167 HD
ATOM     60  C   UNL A   1      38.954  31.411  33.428  1.00  0.00     0.074 A 
ATOM     61  C   UNL A   1      37.801  32.262  33.224  1.00  0.00     0.031 C 
ATOM     62  C   UNL A   1      39.627  31.303  34.600  1.00  0.00     0.037 A 
BRANCH  49  63
ATOM     63  C   UNL A   1      44.391  27.378  34.371  1.00  0.00     0.057 A 
ATOM     64  C   UNL A   1      44.251  26.138  35.008  1.00  0.00     0.134 A 
ATOM     65  C   UNL A   1      45.655  27.980  34.395  1.00  0.00     0.134 A 
ATOM     66  F   UNL A   1      43.061  25.516  35.031  1.00  0.00    -0.206 F 
ATOM     67  C   UNL A   1      45.322  25.528  35.661  1.00  0.00     0.040 A 
ATOM     68  C   UNL A   1      46.740  27.368  35.027  1.00  0.00     0.040 A 
ATOM     69  F   UNL A   1      45.857  29.166  33.802  1.00  0.00    -0.206 F 
ATOM     70  C   UNL A   1      46.574  26.141  35.665  1.00  0.00     0.006 A 
ENDBRANCH  49  63
BRANCH  50  71
ATOM     71  C   UNL A   1      36.911  31.418  29.200  1.00  0.00     0.057 A 
ATOM     72  C   UNL A   1      35.787  30.653  28.872  1.00  0.00     0.134 A 
ATOM     73  C   UNL A   1      36.939  32.747  28.755  1.00  0.00     0.134 A 
ATOM     74  F   UNL A   1      35.710  29.368  29.249  1.00  0.00    -0.206 F 
ATOM     75  C   UNL A   1      34.745  31.177  28.104  1.00  0.00     0.040 A 
ATOM     76  C   UNL A   1      35.891  33.291  28.011  1.00  0.00     0.040 A 
ATOM     77  F   UNL A   1      37.985  33.536  29.041  1.00  0.00    -0.206 F 
ATOM     78  C   UNL A   1      34.794  32.500  27.675  1.00  0.00     0.006 A 
ENDBRANCH  50  71
BRANCH  62  79
ATOM     79  C   UNL A   1      39.142  32.148  35.742  1.00  0.00     0.057 A 
ATOM     80  C   UNL A   1      38.247  31.656  36.701  1.00  0.00     0.134 A 
ATOM     81  C   UNL A   1      39.574  33.473  35.883  1.00  0.00     0.134 A 
ATOM     82  F   UNL A   1      37.782  30.400  36.615  1.00  0.00    -0.206 F 
ATOM     83  C   UNL A   1      37.772  32.460  37.738  1.00  0.00     0.040 A 
ATOM     84  C   UNL A   1      39.128  34.279  36.932  1.00  0.00     0.040 A 
ATOM     85  F   UNL A   1      40.435  34.007  35.003  1.00  0.00    -0.206 F 
ATOM     86  C   UNL A   1      38.216  33.775  37.857  1.00  0.00     0.006 A 
ENDBRANCH  62  79
ENDBRANCH  36  37
ENDBRANCH  29  31
ENDBRANCH  28  29
ENDBRANCH  27  28
ENDBRANCH  26  27
ENDBRANCH  25  26
ENDBRANCH  24  25
ENDBRANCH   1  24
TORSDOF 20
ENDMDL
MODEL 2
REMARK VINA RESULT:     -10.5      2.024      3.203
REMARK SMILES O=C(CNc1ccccc1C(=O)N1CCCC1)OCCOCCOCCOC(=O)c1ccc(-c2c3nc(c(-c4c(F)cccc4F)c4ccc([nH]4)c(-c4c(F)cccc4F)c4nc(c(-c5c(F)cccc5F)c5ccc2[nH]5)C=C4)C=C3)cc1
REMARK SMILES IDX 22 1 21 2 20 3 19 4 18 5 2 6 1 7 3 8 4 9 5 11 6 12 10 13
REMARK SMILES IDX 7 14 9 15 8 16 11 17 12 18 13 19 14 20 17 21 15 22 16 23
REMARK SMILES IDX 23 24 24 25 25 26 26 27 27 28 28 29 29 30 30 31 31 32 83 33
REMARK SMILES IDX 32 34 82 35 33 36 34 37 35 38 76 39 36 40 81 41 75 42 77 43
REMARK SMILES IDX 37 44 80 45 74 46 73 47 38 49 64 50 47 51 63 52 48 53 51 54
REMARK SMILES IDX 62 55 78 56 49 57 50 58 61 60 79 61 52 62 39 63 40 64 45 65
REMARK SMILES IDX 41 66 42 67 44 68 46 69 43 70 65 71 66 72 71 73 67 74 68 75
REMARK SMILES IDX 70 76 72 77 69 78 53 79 54 80 59 81 55 82 56 83 58 84 60 85
REMARK SMILES IDX 57 86
REMARK H PARENT 4 10 77 48 51 59
REMARK Flexibility Score: inf
ROOT
ATOM      1  C   UNL A   1      42.015  19.718  26.102  1.00  0.00     0.188 C 
ENDROOT
BRANCH   1   2
ATOM      2  O   UNL A   1      42.058  20.530  27.273  1.00  0.00    -0.376 OA
BRANCH   2   3
ATOM      3  C   UNL A   1      41.028  21.493  27.463  1.00  0.00     0.202 C 
BRANCH   3   4
ATOM      4  C   UNL A   1      39.810  21.507  26.527  1.00  0.00     0.261 C 
BRANCH   4   5
ATOM      5  O   UNL A   1      39.185  22.769  26.257  1.00  0.00    -0.462 OA
BRANCH   5   6
ATOM      6  C   UNL A   1      37.941  22.863  25.733  1.00  0.00     0.325 C 
ATOM      7  O   UNL A   1      37.629  22.205  24.742  1.00  0.00    -0.250 OA
BRANCH   6   8
ATOM      8  C   UNL A   1      36.996  23.880  26.335  1.00  0.00     0.236 C 
BRANCH   8   9
ATOM      9  N   UNL A   1      35.879  24.199  25.457  1.00  0.00    -0.374 N 
ATOM     10  H   UNL A   1      36.051  24.592  24.572  1.00  0.00     0.161 HD
BRANCH   9  11
ATOM     11  C   UNL A   1      34.570  23.952  25.861  1.00  0.00     0.047 A 
ATOM     12  C   UNL A   1      34.424  22.847  26.732  1.00  0.00     0.026 A 
ATOM     13  C   UNL A   1      33.428  24.754  25.613  1.00  0.00     0.063 A 
ATOM     14  C   UNL A   1      33.218  22.542  27.362  1.00  0.00     0.002 A 
ATOM     15  C   UNL A   1      32.203  24.393  26.230  1.00  0.00     0.016 A 
ATOM     16  C   UNL A   1      32.100  23.313  27.105  1.00  0.00     0.001 A 
BRANCH  13  17
ATOM     17  C   UNL A   1      33.354  26.076  24.894  1.00  0.00     0.255 C 
ATOM     18  O   UNL A   1      33.645  26.100  23.695  1.00  0.00    -0.269 OA
ATOM     19  N   UNL A   1      32.840  27.212  25.489  1.00  0.00    -0.339 N 
ATOM     20  C   UNL A   1      33.323  27.851  26.696  1.00  0.00     0.120 C 
ATOM     21  C   UNL A   1      32.165  28.173  24.653  1.00  0.00     0.120 C 
ATOM     22  C   UNL A   1      32.359  29.017  26.923  1.00  0.00     0.023 C 
ATOM     23  C   UNL A   1      31.570  29.178  25.620  1.00  0.00     0.023 C 
ENDBRANCH  13  17
ENDBRANCH   9  11
ENDBRANCH   8   9
ENDBRANCH   6   8
ENDBRANCH   5   6
ENDBRANCH   4   5
ENDBRANCH   3   4
ENDBRANCH   2   3
ENDBRANCH   1   2
BRANCH   1  24
ATOM     24  C   UNL A   1      43.385  19.704  25.422  1.00  0.00     0.188 C 
BRANCH  24  25
ATOM     25  O   UNL A   1      44.181  20.870  25.646  1.00  0.00    -0.376 OA
BRANCH  25  26
ATOM     26  C   UNL A   1      45.025  21.279  24.577  1.00  0.00     0.202 C 
BRANCH  26  27
ATOM     27  C   UNL A   1      44.617  22.543  23.809  1.00  0.00     0.261 C 
BRANCH  27  28
ATOM     28  O   UNL A   1      43.805  23.479  24.538  1.00  0.00    -0.460 OA
BRANCH  28  29
ATOM     29  C   UNL A   1      44.469  24.573  24.978  1.00  0.00     0.338 C 
ATOM     30  O   UNL A   1      45.604  24.924  24.670  1.00  0.00    -0.246 OA
BRANCH  29  31
ATOM     31  C   UNL A   1      43.628  25.389  25.873  1.00  0.00     0.060 A 
ATOM     32  C   UNL A   1      44.025  26.704  26.140  1.00  0.00     0.016 A 
ATOM     33  C   UNL A   1      42.549  24.829  26.566  1.00  0.00     0.016 A 
ATOM     34  C   UNL A   1      43.368  27.450  27.123  1.00  0.00     0.010 A 
ATOM     35  C   UNL A   1      41.899  25.577  27.562  1.00  0.00     0.010 A 
ATOM     36  C   UNL A   1      42.322  26.883  27.866  1.00  0.00    -0.014 A 
BRANCH  36  37
ATOM     37  C   UNL A   1      41.783  27.616  29.046  1.00  0.00     0.031 A 
ATOM     38  C   UNL A   1      42.474  27.472  30.372  1.00  0.00     0.074 A 
ATOM     39  C   UNL A   1      40.724  28.441  28.947  1.00  0.00     0.049 A 
ATOM     40  N   UNL A   1      42.225  28.081  31.504  1.00  0.00    -0.248 NA
ATOM     41  C   UNL A   1      43.588  26.514  30.432  1.00  0.00     0.031 C 
ATOM     42  C   UNL A   1      39.948  28.664  27.738  1.00  0.00     0.029 A 
ATOM     43  N   UNL A   1      40.115  29.247  29.879  1.00  0.00    -0.354 N 
ATOM     44  C   UNL A   1      43.169  27.604  32.403  1.00  0.00     0.074 A 
ATOM     45  C   UNL A   1      43.963  26.618  31.699  1.00  0.00     0.031 C 
ATOM     46  C   UNL A   1      38.972  29.550  27.983  1.00  0.00     0.029 A 
ATOM     47  C   UNL A   1      39.033  29.939  29.387  1.00  0.00     0.049 A 
ATOM     48  H   UNL A   1      40.424  29.321  30.811  1.00  0.00     0.167 HD
ATOM     49  C   UNL A   1      43.367  27.965  33.693  1.00  0.00     0.037 A 
ATOM     50  C   UNL A   1      38.176  30.780  29.995  1.00  0.00     0.037 A 
ATOM     51  C   UNL A   1      42.556  28.914  34.412  1.00  0.00     0.049 A 
ATOM     52  C   UNL A   1      38.377  31.115  31.445  1.00  0.00     0.074 A 
ATOM     53  C   UNL A   1      42.684  29.337  35.724  1.00  0.00     0.029 A 
ATOM     54  N   UNL A   1      41.455  29.573  33.888  1.00  0.00    -0.354 N 
ATOM     55  N   UNL A   1      39.311  30.701  32.266  1.00  0.00    -0.248 NA
ATOM     56  C   UNL A   1      37.413  32.045  32.051  1.00  0.00     0.031 C 
ATOM     57  C   UNL A   1      41.636  30.220  36.007  1.00  0.00     0.029 A 
ATOM     58  C   UNL A   1      40.884  30.386  34.856  1.00  0.00     0.049 A 
ATOM     59  H   UNL A   1      41.128  29.480  32.964  1.00  0.00     0.167 HD
ATOM     60  C   UNL A   1      39.060  31.335  33.476  1.00  0.00     0.074 A 
ATOM     61  C   UNL A   1      37.903  32.180  33.274  1.00  0.00     0.031 C 
ATOM     62  C   UNL A   1      39.729  31.221  34.650  1.00  0.00     0.037 A 
BRANCH  49  63
ATOM     63  C   UNL A   1      44.515  27.322  34.412  1.00  0.00     0.057 A 
ATOM     64  C   UNL A   1      44.339  26.162  35.178  1.00  0.00     0.134 A 
ATOM     65  C   UNL A   1      45.810  27.841  34.310  1.00  0.00     0.134 A 
ATOM     66  F   UNL A   1      43.119  25.623  35.326  1.00  0.00    -0.206 F 
ATOM     67  C   UNL A   1      45.409  25.551  35.832  1.00  0.00     0.040 A 
ATOM     68  C   UNL A   1      46.893  27.226  34.941  1.00  0.00     0.040 A 
ATOM     69  F   UNL A   1      46.047  28.948  33.590  1.00  0.00    -0.206 F 
ATOM     70  C   UNL A   1      46.693  26.080  35.708  1.00  0.00     0.006 A 
ENDBRANCH  49  63
BRANCH  50  71
ATOM     71  C   UNL A   1      37.034  31.361  29.241  1.00  0.00     0.057 A 
ATOM     72  C   UNL A   1      35.878  30.617  28.977  1.00  0.00     0.134 A 
ATOM     73  C   UNL A   1      37.092  32.664  28.730  1.00  0.00     0.134 A 
ATOM     74  F   UNL A   1      35.771  29.356  29.420  1.00  0.00    -0.206 F 
ATOM     75  C   UNL A   1      34.834  31.137  28.209  1.00  0.00     0.040 A 
ATOM     76  C   UNL A   1      36.043  33.206  27.985  1.00  0.00     0.040 A 
ATOM     77  F   UNL A   1      38.169  33.432  28.951  1.00  0.00    -0.206 F 
ATOM     78  C   UNL A   1      34.914  32.436  27.714  1.00  0.00     0.006 A 
ENDBRANCH  50  71
BRANCH  62  79
ATOM     79  C   UNL A   1      39.235  32.056  35.796  1.00  0.00     0.057 A 
ATOM     80  C   UNL A   1      38.331  31.555  36.742  1.00  0.00     0.134 A 
ATOM     81  C   UNL A   1      39.668  33.379  35.955  1.00  0.00     0.134 A 
ATOM     82  F   UNL A   1      37.864  30.302  36.639  1.00  0.00    -0.206 F 
ATOM     83  C   UNL A   1      37.847  32.350  37.782  1.00  0.00     0.040 A 
ATOM     84  C   UNL A   1      39.215  34.174  37.007  1.00  0.00     0.040 A 
ATOM     85  F   UNL A   1      40.539  33.919  35.088  1.00  0.00    -0.206 F 
ATOM     86  C   UNL A   1      38.293  33.663  37.919  1.00  0.00     0.006 A 
ENDBRANCH  62  79
ENDBRANCH  36  37
ENDBRANCH  29  31
ENDBRANCH  28  29
ENDBRANCH  27  28
ENDBRANCH  26  27
ENDBRANCH  25  26
ENDBRANCH  24  25
ENDBRANCH   1  24
TORSDOF 20
ENDMDL
MODEL 3
REMARK VINA RESULT:     -10.3      5.256     10.225
REMARK SMILES O=C(CNc1ccccc1C(=O)N1CCCC1)OCCOCCOCCOC(=O)c1ccc(-c2c3nc(c(-c4c(F)cccc4F)c4ccc([nH]4)c(-c4c(F)cccc4F)c4nc(c(-c5c(F)cccc5F)c5ccc2[nH]5)C=C4)C=C3)cc1
REMARK SMILES IDX 22 1 21 2 20 3 19 4 18 5 2 6 1 7 3 8 4 9 5 11 6 12 10 13
REMARK SMILES IDX 7 14 9 15 8 16 11 17 12 18 13 19 14 20 17 21 15 22 16 23
REMARK SMILES IDX 23 24 24 25 25 26 26 27 27 28 28 29 29 30 30 31 31 32 83 33
REMARK SMILES IDX 32 34 82 35 33 36 34 37 35 38 76 39 36 40 81 41 75 42 77 43
REMARK SMILES IDX 37 44 80 45 74 46 73 47 38 49 64 50 47 51 63 52 48 53 51 54
REMARK SMILES IDX 62 55 78 56 49 57 50 58 61 60 79 61 52 62 39 63 40 64 45 65
REMARK SMILES IDX 41 66 42 67 44 68 46 69 43 70 65 71 66 72 71 73 67 74 68 75
REMARK SMILES IDX 70 76 72 77 69 78 53 79 54 80 59 81 55 82 56 83 58 84 60 85
REMARK SMILES IDX 57 86
REMARK H PARENT 4 10 77 48 51 59
REMARK Flexibility Score: inf
ROOT
ATOM      1  C   UNL A   1      34.719  33.725  28.160  1.00  0.00     0.188 C 
ENDROOT
BRANCH   1   2
ATOM      2  O   UNL A   1      34.709  32.359  28.568  1.00  0.00    -0.376 OA
BRANCH   2   3
ATOM      3  C   UNL A   1      35.049  31.366  27.606  1.00  0.00     0.202 C 
BRANCH   3   4
ATOM      4  C   UNL A   1      34.987  29.879  27.985  1.00  0.00     0.261 C 
BRANCH   4   5
ATOM      5  O   UNL A   1      34.024  29.053  27.315  1.00  0.00    -0.462 OA
BRANCH   5   6
ATOM      6  C   UNL A   1      32.992  29.571  26.612  1.00  0.00     0.325 C 
ATOM      7  O   UNL A   1      32.013  30.040  27.191  1.00  0.00    -0.250 OA
BRANCH   6   8
ATOM      8  C   UNL A   1      33.033  29.450  25.103  1.00  0.00     0.236 C 
BRANCH   8   9
ATOM      9  N   UNL A   1      32.795  28.090  24.642  1.00  0.00    -0.374 N 
ATOM     10  H   UNL A   1      33.558  27.506  24.430  1.00  0.00     0.161 HD
BRANCH   9  11
ATOM     11  C   UNL A   1      31.497  27.610  24.496  1.00  0.00     0.047 A 
ATOM     12  C   UNL A   1      30.653  28.431  23.711  1.00  0.00     0.026 A 
ATOM     13  C   UNL A   1      30.992  26.355  24.919  1.00  0.00     0.063 A 
ATOM     14  C   UNL A   1      29.372  28.039  23.325  1.00  0.00     0.002 A 
ATOM     15  C   UNL A   1      29.668  26.003  24.553  1.00  0.00     0.016 A 
ATOM     16  C   UNL A   1      28.873  26.823  23.754  1.00  0.00     0.001 A 
BRANCH  13  17
ATOM     17  C   UNL A   1      31.734  25.228  25.588  1.00  0.00     0.255 C 
ATOM     18  O   UNL A   1      31.448  24.961  26.759  1.00  0.00    -0.269 OA
ATOM     19  N   UNL A   1      32.604  24.405  24.899  1.00  0.00    -0.339 N 
ATOM     20  C   UNL A   1      33.792  24.812  24.178  1.00  0.00     0.120 C 
ATOM     21  C   UNL A   1      32.724  23.033  25.323  1.00  0.00     0.120 C 
ATOM     22  C   UNL A   1      34.330  23.519  23.565  1.00  0.00     0.023 C 
ATOM     23  C   UNL A   1      33.590  22.375  24.266  1.00  0.00     0.023 C 
ENDBRANCH  13  17
ENDBRANCH   9  11
ENDBRANCH   8   9
ENDBRANCH   6   8
ENDBRANCH   5   6
ENDBRANCH   4   5
ENDBRANCH   3   4
ENDBRANCH   2   3
ENDBRANCH   1   2
BRANCH   1  24
ATOM     24  C   UNL A   1      33.887  34.568  29.127  1.00  0.00     0.188 C 
BRANCH  24  25
ATOM     25  O   UNL A   1      33.703  33.993  30.422  1.00  0.00    -0.376 OA
BRANCH  25  26
ATOM     26  C   UNL A   1      34.130  34.775  31.532  1.00  0.00     0.202 C 
BRANCH  26  27
ATOM     27  C   UNL A   1      34.613  34.017  32.775  1.00  0.00     0.261 C 
BRANCH  27  28
ATOM     28  O   UNL A   1      35.044  32.665  32.551  1.00  0.00    -0.460 OA
BRANCH  28  29
ATOM     29  C   UNL A   1      36.158  32.311  33.234  1.00  0.00     0.338 C 
ATOM     30  O   UNL A   1      36.412  32.551  34.411  1.00  0.00    -0.246 OA
BRANCH  29  31
ATOM     31  C   UNL A   1      37.069  31.507  32.399  1.00  0.00     0.060 A 
ATOM     32  C   UNL A   1      38.159  30.885  33.017  1.00  0.00     0.016 A 
ATOM     33  C   UNL A   1      36.949  31.488  31.005  1.00  0.00     0.016 A 
ATOM     34  C   UNL A   1      39.149  30.272  32.243  1.00  0.00     0.010 A 
ATOM     35  C   UNL A   1      37.952  30.883  30.229  1.00  0.00     0.010 A 
ATOM     36  C   UNL A   1      39.073  30.295  30.841  1.00  0.00    -0.014 A 
BRANCH  36  37
ATOM     37  C   UNL A   1      40.239  29.829  30.039  1.00  0.00     0.031 A 
ATOM     38  C   UNL A   1      41.372  30.780  29.779  1.00  0.00     0.074 A 
ATOM     39  C   UNL A   1      40.326  28.566  29.582  1.00  0.00     0.049 A 
ATOM     40  N   UNL A   1      42.515  30.559  29.178  1.00  0.00    -0.248 NA
ATOM     41  C   UNL A   1      41.194  32.160  30.252  1.00  0.00     0.031 C 
ATOM     42  C   UNL A   1      39.303  27.546  29.741  1.00  0.00     0.029 A 
ATOM     43  N   UNL A   1      41.324  27.922  28.888  1.00  0.00    -0.354 N 
ATOM     44  C   UNL A   1      43.204  31.762  29.228  1.00  0.00     0.074 A 
ATOM     45  C   UNL A   1      42.332  32.723  29.873  1.00  0.00     0.031 C 
ATOM     46  C   UNL A   1      39.714  26.400  29.177  1.00  0.00     0.029 A 
ATOM     47  C   UNL A   1      41.028  26.614  28.584  1.00  0.00     0.049 A 
ATOM     48  H   UNL A   1      42.169  28.358  28.633  1.00  0.00     0.167 HD
ATOM     49  C   UNL A   1      44.456  32.039  28.792  1.00  0.00     0.037 A 
ATOM     50  C   UNL A   1      41.726  25.692  27.894  1.00  0.00     0.037 A 
ATOM     51  C   UNL A   1      45.313  31.101  28.113  1.00  0.00     0.049 A 
ATOM     52  C   UNL A   1      43.085  26.043  27.363  1.00  0.00     0.074 A 
ATOM     53  C   UNL A   1      46.597  31.298  27.633  1.00  0.00     0.029 A 
ATOM     54  N   UNL A   1      44.969  29.795  27.801  1.00  0.00    -0.354 N 
ATOM     55  N   UNL A   1      43.748  27.168  27.470  1.00  0.00    -0.248 NA
ATOM     56  C   UNL A   1      43.800  24.992  26.624  1.00  0.00     0.031 C 
ATOM     57  C   UNL A   1      47.013  30.125  26.993  1.00  0.00     0.029 A 
ATOM     58  C   UNL A   1      46.008  29.180  27.119  1.00  0.00     0.049 A 
ATOM     59  H   UNL A   1      44.113  29.366  28.031  1.00  0.00     0.167 HD
ATOM     60  C   UNL A   1      44.964  26.954  26.834  1.00  0.00     0.074 A 
ATOM     61  C   UNL A   1      44.957  25.584  26.367  1.00  0.00     0.031 C 
ATOM     62  C   UNL A   1      45.992  27.818  26.652  1.00  0.00     0.037 A 
BRANCH  49  63
ATOM     63  C   UNL A   1      44.972  33.425  29.037  1.00  0.00     0.057 A 
ATOM     64  C   UNL A   1      45.780  33.718  30.144  1.00  0.00     0.134 A 
ATOM     65  C   UNL A   1      44.693  34.466  28.144  1.00  0.00     0.134 A 
ATOM     66  F   UNL A   1      46.072  32.766  31.044  1.00  0.00    -0.206 F 
ATOM     67  C   UNL A   1      46.277  35.003  30.364  1.00  0.00     0.040 A 
ATOM     68  C   UNL A   1      45.203  35.751  28.342  1.00  0.00     0.040 A 
ATOM     69  F   UNL A   1      43.928  34.251  27.063  1.00  0.00    -0.206 F 
ATOM     70  C   UNL A   1      45.994  36.022  29.456  1.00  0.00     0.006 A 
ENDBRANCH  49  63
BRANCH  50  71
ATOM     71  C   UNL A   1      41.148  24.344  27.651  1.00  0.00     0.057 A 
ATOM     72  C   UNL A   1      41.617  23.214  28.330  1.00  0.00     0.134 A 
ATOM     73  C   UNL A   1      40.137  24.150  26.699  1.00  0.00     0.134 A 
ATOM     74  F   UNL A   1      42.599  23.330  29.236  1.00  0.00    -0.206 F 
ATOM     75  C   UNL A   1      41.124  21.937  28.053  1.00  0.00     0.040 A 
ATOM     76  C   UNL A   1      39.616  22.884  26.433  1.00  0.00     0.040 A 
ATOM     77  F   UNL A   1      39.640  25.192  26.018  1.00  0.00    -0.206 F 
ATOM     78  C   UNL A   1      40.118  21.771  27.104  1.00  0.00     0.006 A 
ENDBRANCH  50  71
BRANCH  62  79
ATOM     79  C   UNL A   1      47.203  27.292  25.937  1.00  0.00     0.057 A 
ATOM     80  C   UNL A   1      47.354  27.408  24.549  1.00  0.00     0.134 A 
ATOM     81  C   UNL A   1      48.232  26.659  26.647  1.00  0.00     0.134 A 
ATOM     82  F   UNL A   1      46.398  27.989  23.808  1.00  0.00    -0.206 F 
ATOM     83  C   UNL A   1      48.465  26.882  23.888  1.00  0.00     0.040 A 
ATOM     84  C   UNL A   1      49.361  26.155  26.001  1.00  0.00     0.040 A 
ATOM     85  F   UNL A   1      48.155  26.520  27.979  1.00  0.00    -0.206 F 
ATOM     86  C   UNL A   1      49.475  26.257  24.616  1.00  0.00     0.006 A 
ENDBRANCH  62  79
ENDBRANCH  36  37
ENDBRANCH  29  31
ENDBRANCH  28  29
ENDBRANCH  27  28
ENDBRANCH  26  27
ENDBRANCH  25  26
ENDBRANCH  24  25
ENDBRANCH   1  24
TORSDOF 20
ENDMDL
