MODEL 1
REMARK VINA RESULT:      -9.6      0.000      0.000
REMARK SMILES C[C@@H](C(=O)OCCOCCOCCOC(=O)c1ccc(-c2c3nc(c(-c4c(F)cccc4F)c4ccc([nH]4)c(-c4c(F)cccc4F)c4nc(c(-c5c(F)cccc5F)c5ccc2[nH]5)C=C4)C=C3)cc1)c1ccc(OC2CCCC2)cc1F
REMARK SMILES IDX 9 1 8 2 7 3 6 4 5 5 3 6 4 7 2 8 1 9 71 10 72 11 82 12 73 13
REMARK SMILES IDX 81 14 83 15 74 16 75 17 76 18 77 19 80 20 78 21 79 22 10 23
REMARK SMILES IDX 11 24 12 25 13 26 14 27 15 28 16 29 17 30 18 31 70 32 19 33
REMARK SMILES IDX 69 34 20 35 21 36 22 37 63 38 23 39 68 40 62 41 64 42 24 43
REMARK SMILES IDX 67 44 61 45 60 46 25 48 51 49 34 50 50 51 35 52 38 53 49 54
REMARK SMILES IDX 65 55 36 56 37 57 48 59 66 60 39 61 26 62 27 63 32 64 28 65
REMARK SMILES IDX 29 66 31 67 33 68 30 69 52 70 53 71 58 72 54 73 55 74 57 75
REMARK SMILES IDX 59 76 56 77 40 78 41 79 46 80 42 81 43 82 45 83 47 84 44 85
REMARK H PARENT 64 47 38 58
REMARK Flexibility Score: inf
ROOT
ATOM      1  C   UNL A   1      31.953  27.065  26.384  1.00  0.00     0.188 C 
ENDROOT
BRANCH   1   2
ATOM      2  O   UNL A   1      31.532  25.959  27.171  1.00  0.00    -0.376 OA
BRANCH   2   3
ATOM      3  C   UNL A   1      30.983  24.825  26.508  1.00  0.00     0.202 C 
BRANCH   3   4
ATOM      4  C   UNL A   1      31.736  23.481  26.549  1.00  0.00     0.261 C 
BRANCH   4   5
ATOM      5  O   UNL A   1      32.057  22.891  25.267  1.00  0.00    -0.463 OA
BRANCH   5   6
ATOM      6  C   UNL A   1      32.974  23.557  24.513  1.00  0.00     0.313 C 
ATOM      7  O   UNL A   1      34.056  23.944  24.948  1.00  0.00    -0.252 OA
BRANCH   6   8
ATOM      8  C   UNL A   1      32.572  23.772  23.040  1.00  0.00     0.129 C 
ATOM      9  C   UNL A   1      33.537  23.346  21.928  1.00  0.00     0.025 C 
BRANCH   8  10
ATOM     10  C   UNL A   1      32.061  25.194  22.852  1.00  0.00     0.002 A 
ATOM     11  C   UNL A   1      32.905  26.264  22.533  1.00  0.00     0.011 A 
ATOM     12  C   UNL A   1      30.722  25.489  23.118  1.00  0.00     0.130 A 
ATOM     13  C   UNL A   1      32.429  27.577  22.541  1.00  0.00     0.047 A 
ATOM     14  C   UNL A   1      30.238  26.797  23.100  1.00  0.00     0.086 A 
ATOM     15  F   UNL A   1      29.866  24.497  23.403  1.00  0.00    -0.207 F 
ATOM     16  C   UNL A   1      31.094  27.854  22.817  1.00  0.00     0.122 A 
BRANCH  16  17
ATOM     17  O   UNL A   1      30.790  29.182  22.787  1.00  0.00    -0.490 OA
BRANCH  17  18
ATOM     18  C   UNL A   1      29.501  29.670  23.133  1.00  0.00     0.173 C 
ATOM     19  C   UNL A   1      29.471  30.988  23.901  1.00  0.00     0.045 C 
ATOM     20  C   UNL A   1      28.529  29.790  21.964  1.00  0.00     0.045 C 
ATOM     21  C   UNL A   1      28.094  31.559  23.621  1.00  0.00     0.004 C 
ATOM     22  C   UNL A   1      27.660  31.006  22.265  1.00  0.00     0.004 C 
ENDBRANCH  17  18
ENDBRANCH  16  17
ENDBRANCH   8  10
ENDBRANCH   6   8
ENDBRANCH   5   6
ENDBRANCH   4   5
ENDBRANCH   3   4
ENDBRANCH   2   3
ENDBRANCH   1   2
BRANCH   1  23
ATOM     23  C   UNL A   1      33.456  27.230  26.088  1.00  0.00     0.188 C 
BRANCH  23  24
ATOM     24  O   UNL A   1      33.873  28.569  25.973  1.00  0.00    -0.376 OA
BRANCH  24  25
ATOM     25  C   UNL A   1      32.902  29.570  25.747  1.00  0.00     0.202 C 
BRANCH  25  26
ATOM     26  C   UNL A   1      32.754  30.760  26.711  1.00  0.00     0.261 C 
BRANCH  26  27
ATOM     27  O   UNL A   1      33.500  30.722  27.939  1.00  0.00    -0.460 OA
BRANCH  27  28
ATOM     28  C   UNL A   1      34.528  31.589  28.071  1.00  0.00     0.338 C 
ATOM     29  O   UNL A   1      34.460  32.809  28.092  1.00  0.00    -0.246 OA
BRANCH  28  30
ATOM     30  C   UNL A   1      35.744  30.813  28.412  1.00  0.00     0.060 A 
ATOM     31  C   UNL A   1      35.718  29.969  29.529  1.00  0.00     0.016 A 
ATOM     32  C   UNL A   1      36.902  30.913  27.636  1.00  0.00     0.016 A 
ATOM     33  C   UNL A   1      36.857  29.237  29.883  1.00  0.00     0.010 A 
ATOM     34  C   UNL A   1      38.047  30.192  28.002  1.00  0.00     0.010 A 
ATOM     35  C   UNL A   1      38.037  29.363  29.136  1.00  0.00    -0.014 A 
BRANCH  35  36
ATOM     36  C   UNL A   1      39.303  28.772  29.645  1.00  0.00     0.031 A 
ATOM     37  C   UNL A   1      39.937  29.381  30.865  1.00  0.00     0.074 A 
ATOM     38  C   UNL A   1      39.879  27.708  29.057  1.00  0.00     0.049 A 
ATOM     39  N   UNL A   1      41.064  29.081  31.456  1.00  0.00    -0.248 NA
ATOM     40  C   UNL A   1      39.195  30.482  31.499  1.00  0.00     0.031 C 
ATOM     41  C   UNL A   1      39.353  26.992  27.899  1.00  0.00     0.029 A 
ATOM     42  N   UNL A   1      41.045  27.045  29.361  1.00  0.00    -0.354 N 
ATOM     43  C   UNL A   1      41.171  29.958  32.528  1.00  0.00     0.074 A 
ATOM     44  C   UNL A   1      40.005  30.814  32.493  1.00  0.00     0.031 C 
ATOM     45  C   UNL A   1      40.188  25.984  27.593  1.00  0.00     0.029 A 
ATOM     46  C   UNL A   1      41.337  26.015  28.498  1.00  0.00     0.049 A 
ATOM     47  H   UNL A   1      41.617  27.285  30.126  1.00  0.00     0.167 HD
ATOM     48  C   UNL A   1      42.152  30.045  33.458  1.00  0.00     0.037 A 
ATOM     49  C   UNL A   1      42.420  25.215  28.429  1.00  0.00     0.037 A 
ATOM     50  C   UNL A   1      43.327  29.214  33.482  1.00  0.00     0.049 A 
ATOM     51  C   UNL A   1      43.546  25.393  29.418  1.00  0.00     0.074 A 
ATOM     52  C   UNL A   1      44.384  29.242  34.375  1.00  0.00     0.029 A 
ATOM     53  N   UNL A   1      43.608  28.216  32.563  1.00  0.00    -0.354 N 
ATOM     54  N   UNL A   1      43.637  26.221  30.432  1.00  0.00    -0.248 NA
ATOM     55  C   UNL A   1      44.725  24.531  29.248  1.00  0.00     0.031 C 
ATOM     56  C   UNL A   1      45.331  28.300  33.964  1.00  0.00     0.029 A 
ATOM     57  C   UNL A   1      44.834  27.638  32.853  1.00  0.00     0.049 A 
ATOM     58  H   UNL A   1      43.024  27.955  31.815  1.00  0.00     0.167 HD
ATOM     59  C   UNL A   1      44.865  25.960  31.032  1.00  0.00     0.074 A 
ATOM     60  C   UNL A   1      45.476  24.886  30.281  1.00  0.00     0.031 C 
ATOM     61  C   UNL A   1      45.433  26.559  32.108  1.00  0.00     0.037 A 
BRANCH  48  62
ATOM     62  C   UNL A   1      42.012  31.115  34.502  1.00  0.00     0.057 A 
ATOM     63  C   UNL A   1      41.341  30.888  35.711  1.00  0.00     0.134 A 
ATOM     64  C   UNL A   1      42.567  32.384  34.298  1.00  0.00     0.134 A 
ATOM     65  F   UNL A   1      40.772  29.700  35.961  1.00  0.00    -0.206 F 
ATOM     66  C   UNL A   1      41.204  31.896  36.668  1.00  0.00     0.040 A 
ATOM     67  C   UNL A   1      42.462  33.390  35.260  1.00  0.00     0.040 A 
ATOM     68  F   UNL A   1      43.225  32.667  33.164  1.00  0.00    -0.206 F 
ATOM     69  C   UNL A   1      41.771  33.150  36.445  1.00  0.00     0.006 A 
ENDBRANCH  48  62
BRANCH  49  70
ATOM     70  C   UNL A   1      42.529  24.191  27.354  1.00  0.00     0.057 A 
ATOM     71  C   UNL A   1      42.119  22.868  27.561  1.00  0.00     0.134 A 
ATOM     72  C   UNL A   1      43.099  24.498  26.112  1.00  0.00     0.134 A 
ATOM     73  F   UNL A   1      41.591  22.500  28.738  1.00  0.00    -0.206 F 
ATOM     74  C   UNL A   1      42.293  21.885  26.583  1.00  0.00     0.040 A 
ATOM     75  C   UNL A   1      43.248  23.534  25.114  1.00  0.00     0.040 A 
ATOM     76  F   UNL A   1      43.522  25.744  25.849  1.00  0.00    -0.206 F 
ATOM     77  C   UNL A   1      42.855  22.219  25.352  1.00  0.00     0.006 A 
ENDBRANCH  49  70
BRANCH  61  78
ATOM     78  C   UNL A   1      46.766  26.039  32.574  1.00  0.00     0.057 A 
ATOM     79  C   UNL A   1      46.878  25.043  33.553  1.00  0.00     0.134 A 
ATOM     80  C   UNL A   1      47.953  26.510  31.996  1.00  0.00     0.134 A 
ATOM     81  F   UNL A   1      45.783  24.554  34.155  1.00  0.00    -0.206 F 
ATOM     82  C   UNL A   1      48.122  24.552  33.955  1.00  0.00     0.040 A 
ATOM     83  C   UNL A   1      49.199  26.004  32.368  1.00  0.00     0.040 A 
ATOM     84  F   UNL A   1      47.920  27.455  31.045  1.00  0.00    -0.206 F 
ATOM     85  C   UNL A   1      49.287  25.027  33.356  1.00  0.00     0.006 A 
ENDBRANCH  61  78
ENDBRANCH  35  36
ENDBRANCH  28  30
ENDBRANCH  27  28
ENDBRANCH  26  27
ENDBRANCH  25  26
ENDBRANCH  24  25
ENDBRANCH  23  24
ENDBRANCH   1  23
TORSDOF 20
ENDMDL
MODEL 2
REMARK VINA RESULT:      -9.4      3.563      7.896
REMARK SMILES C[C@@H](C(=O)OCCOCCOCCOC(=O)c1ccc(-c2c3nc(c(-c4c(F)cccc4F)c4ccc([nH]4)c(-c4c(F)cccc4F)c4nc(c(-c5c(F)cccc5F)c5ccc2[nH]5)C=C4)C=C3)cc1)c1ccc(OC2CCCC2)cc1F
REMARK SMILES IDX 9 1 8 2 7 3 6 4 5 5 3 6 4 7 2 8 1 9 71 10 72 11 82 12 73 13
REMARK SMILES IDX 81 14 83 15 74 16 75 17 76 18 77 19 80 20 78 21 79 22 10 23
REMARK SMILES IDX 11 24 12 25 13 26 14 27 15 28 16 29 17 30 18 31 70 32 19 33
REMARK SMILES IDX 69 34 20 35 21 36 22 37 63 38 23 39 68 40 62 41 64 42 24 43
REMARK SMILES IDX 67 44 61 45 60 46 25 48 51 49 34 50 50 51 35 52 38 53 49 54
REMARK SMILES IDX 65 55 36 56 37 57 48 59 66 60 39 61 26 62 27 63 32 64 28 65
REMARK SMILES IDX 29 66 31 67 33 68 30 69 52 70 53 71 58 72 54 73 55 74 57 75
REMARK SMILES IDX 59 76 56 77 40 78 41 79 46 80 42 81 43 82 45 83 47 84 44 85
REMARK H PARENT 64 47 38 58
REMARK Flexibility Score: inf
ROOT
ATOM      1  C   UNL A   1      33.055  20.535  25.328  1.00  0.00     0.188 C 
ENDROOT
BRANCH   1   2
ATOM      2  O   UNL A   1      33.197  20.477  23.915  1.00  0.00    -0.376 OA
BRANCH   2   3
ATOM      3  C   UNL A   1      32.217  21.125  23.109  1.00  0.00     0.202 C 
BRANCH   3   4
ATOM      4  C   UNL A   1      32.532  22.497  22.484  1.00  0.00     0.261 C 
BRANCH   4   5
ATOM      5  O   UNL A   1      32.795  23.575  23.412  1.00  0.00    -0.463 OA
BRANCH   5   6
ATOM      6  C   UNL A   1      33.388  24.685  22.892  1.00  0.00     0.313 C 
ATOM      7  O   UNL A   1      33.383  24.957  21.694  1.00  0.00    -0.252 OA
BRANCH   6   8
ATOM      8  C   UNL A   1      34.055  25.612  23.929  1.00  0.00     0.129 C 
ATOM      9  C   UNL A   1      34.541  25.026  25.258  1.00  0.00     0.025 C 
BRANCH   8  10
ATOM     10  C   UNL A   1      33.203  26.859  24.120  1.00  0.00     0.002 A 
ATOM     11  C   UNL A   1      32.141  26.915  25.030  1.00  0.00     0.011 A 
ATOM     12  C   UNL A   1      33.394  27.963  23.286  1.00  0.00     0.130 A 
ATOM     13  C   UNL A   1      31.276  28.012  25.053  1.00  0.00     0.047 A 
ATOM     14  C   UNL A   1      32.548  29.072  23.326  1.00  0.00     0.086 A 
ATOM     15  F   UNL A   1      34.413  27.970  22.414  1.00  0.00    -0.207 F 
ATOM     16  C   UNL A   1      31.476  29.100  24.208  1.00  0.00     0.122 A 
BRANCH  16  17
ATOM     17  O   UNL A   1      30.546  30.085  24.352  1.00  0.00    -0.490 OA
BRANCH  17  18
ATOM     18  C   UNL A   1      29.365  30.130  23.562  1.00  0.00     0.173 C 
ATOM     19  C   UNL A   1      28.563  31.426  23.635  1.00  0.00     0.045 C 
ATOM     20  C   UNL A   1      29.568  29.790  22.090  1.00  0.00     0.045 C 
ATOM     21  C   UNL A   1      27.772  31.456  22.340  1.00  0.00     0.004 C 
ATOM     22  C   UNL A   1      28.577  30.655  21.319  1.00  0.00     0.004 C 
ENDBRANCH  17  18
ENDBRANCH  16  17
ENDBRANCH   8  10
ENDBRANCH   6   8
ENDBRANCH   5   6
ENDBRANCH   4   5
ENDBRANCH   3   4
ENDBRANCH   2   3
ENDBRANCH   1   2
BRANCH   1  23
ATOM     23  C   UNL A   1      33.906  21.552  26.113  1.00  0.00     0.188 C 
BRANCH  23  24
ATOM     24  O   UNL A   1      35.228  21.132  26.349  1.00  0.00    -0.376 OA
BRANCH  24  25
ATOM     25  C   UNL A   1      36.241  21.525  25.446  1.00  0.00     0.202 C 
BRANCH  25  26
ATOM     26  C   UNL A   1      37.200  22.679  25.787  1.00  0.00     0.261 C 
BRANCH  26  27
ATOM     27  O   UNL A   1      38.605  22.465  25.571  1.00  0.00    -0.460 OA
BRANCH  27  28
ATOM     28  C   UNL A   1      39.413  22.487  26.654  1.00  0.00     0.338 C 
ATOM     29  O   UNL A   1      40.032  21.544  27.127  1.00  0.00    -0.246 OA
BRANCH  28  30
ATOM     30  C   UNL A   1      39.607  23.900  27.056  1.00  0.00     0.060 A 
ATOM     31  C   UNL A   1      40.123  24.805  26.121  1.00  0.00     0.016 A 
ATOM     32  C   UNL A   1      39.280  24.333  28.344  1.00  0.00     0.016 A 
ATOM     33  C   UNL A   1      40.331  26.142  26.477  1.00  0.00     0.010 A 
ATOM     34  C   UNL A   1      39.505  25.668  28.705  1.00  0.00     0.010 A 
ATOM     35  C   UNL A   1      40.047  26.577  27.779  1.00  0.00    -0.014 A 
BRANCH  35  36
ATOM     36  C   UNL A   1      40.485  27.927  28.222  1.00  0.00     0.031 A 
ATOM     37  C   UNL A   1      41.955  28.241  28.215  1.00  0.00     0.074 A 
ATOM     38  C   UNL A   1      39.605  28.870  28.608  1.00  0.00     0.049 A 
ATOM     39  N   UNL A   1      42.579  29.320  28.610  1.00  0.00    -0.248 NA
ATOM     40  C   UNL A   1      42.839  27.188  27.692  1.00  0.00     0.031 C 
ATOM     41  C   UNL A   1      38.154  28.719  28.622  1.00  0.00     0.029 A 
ATOM     42  N   UNL A   1      39.816  30.150  29.067  1.00  0.00    -0.354 N 
ATOM     43  C   UNL A   1      43.929  29.076  28.390  1.00  0.00     0.074 A 
ATOM     44  C   UNL A   1      44.034  27.739  27.847  1.00  0.00     0.031 C 
ATOM     45  C   UNL A   1      37.601  29.864  29.060  1.00  0.00     0.029 A 
ATOM     46  C   UNL A   1      38.660  30.810  29.410  1.00  0.00     0.049 A 
ATOM     47  H   UNL A   1      40.710  30.554  29.142  1.00  0.00     0.167 HD
ATOM     48  C   UNL A   1      44.987  29.889  28.621  1.00  0.00     0.037 A 
ATOM     49  C   UNL A   1      38.481  32.023  29.971  1.00  0.00     0.037 A 
ATOM     50  C   UNL A   1      44.891  31.209  29.186  1.00  0.00     0.049 A 
ATOM     51  C   UNL A   1      39.682  32.875  30.308  1.00  0.00     0.074 A 
ATOM     52  C   UNL A   1      45.910  32.100  29.473  1.00  0.00     0.029 A 
ATOM     53  N   UNL A   1      43.707  31.823  29.565  1.00  0.00    -0.354 N 
ATOM     54  N   UNL A   1      40.954  32.639  30.092  1.00  0.00    -0.248 NA
ATOM     55  C   UNL A   1      39.421  34.159  30.976  1.00  0.00     0.031 C 
ATOM     56  C   UNL A   1      45.349  33.229  30.078  1.00  0.00     0.029 A 
ATOM     57  C   UNL A   1      43.973  33.071  30.106  1.00  0.00     0.049 A 
ATOM     58  H   UNL A   1      42.809  31.431  29.464  1.00  0.00     0.167 HD
ATOM     59  C   UNL A   1      41.638  33.751  30.571  1.00  0.00     0.074 A 
ATOM     60  C   UNL A   1      40.640  34.671  31.072  1.00  0.00     0.031 C 
ATOM     61  C   UNL A   1      42.973  33.987  30.593  1.00  0.00     0.037 A 
BRANCH  48  62
ATOM     62  C   UNL A   1      46.349  29.346  28.301  1.00  0.00     0.057 A 
ATOM     63  C   UNL A   1      47.102  28.630  29.241  1.00  0.00     0.134 A 
ATOM     64  C   UNL A   1      46.908  29.532  27.031  1.00  0.00     0.134 A 
ATOM     65  F   UNL A   1      46.632  28.432  30.482  1.00  0.00    -0.206 F 
ATOM     66  C   UNL A   1      48.374  28.142  28.937  1.00  0.00     0.040 A 
ATOM     67  C   UNL A   1      48.167  29.024  26.706  1.00  0.00     0.040 A 
ATOM     68  F   UNL A   1      46.240  30.207  26.084  1.00  0.00    -0.206 F 
ATOM     69  C   UNL A   1      48.907  28.334  27.662  1.00  0.00     0.006 A 
ENDBRANCH  48  62
BRANCH  49  70
ATOM     70  C   UNL A   1      37.112  32.504  30.301  1.00  0.00     0.057 A 
ATOM     71  C   UNL A   1      36.524  32.235  31.544  1.00  0.00     0.134 A 
ATOM     72  C   UNL A   1      36.337  33.195  29.361  1.00  0.00     0.134 A 
ATOM     73  F   UNL A   1      37.200  31.552  32.479  1.00  0.00    -0.206 F 
ATOM     74  C   UNL A   1      35.210  32.614  31.830  1.00  0.00     0.040 A 
ATOM     75  C   UNL A   1      35.035  33.609  29.646  1.00  0.00     0.040 A 
ATOM     76  F   UNL A   1      36.835  33.477  28.148  1.00  0.00    -0.206 F 
ATOM     77  C   UNL A   1      34.463  33.309  30.880  1.00  0.00     0.006 A 
ENDBRANCH  49  70
BRANCH  61  78
ATOM     78  C   UNL A   1      43.440  35.312  31.135  1.00  0.00     0.057 A 
ATOM     79  C   UNL A   1      43.665  36.419  30.307  1.00  0.00     0.134 A 
ATOM     80  C   UNL A   1      43.617  35.493  32.514  1.00  0.00     0.134 A 
ATOM     81  F   UNL A   1      43.524  36.314  28.977  1.00  0.00    -0.206 F 
ATOM     82  C   UNL A   1      44.072  37.649  30.828  1.00  0.00     0.040 A 
ATOM     83  C   UNL A   1      43.993  36.725  33.048  1.00  0.00     0.040 A 
ATOM     84  F   UNL A   1      43.409  34.478  33.366  1.00  0.00    -0.206 F 
ATOM     85  C   UNL A   1      44.229  37.807  32.204  1.00  0.00     0.006 A 
ENDBRANCH  61  78
ENDBRANCH  35  36
ENDBRANCH  28  30
ENDBRANCH  27  28
ENDBRANCH  26  27
ENDBRANCH  25  26
ENDBRANCH  24  25
ENDBRANCH  23  24
ENDBRANCH   1  23
TORSDOF 20
ENDMDL
MODEL 3
REMARK VINA RESULT:      -9.2      3.731      7.309
REMARK SMILES C[C@@H](C(=O)OCCOCCOCCOC(=O)c1ccc(-c2c3nc(c(-c4c(F)cccc4F)c4ccc([nH]4)c(-c4c(F)cccc4F)c4nc(c(-c5c(F)cccc5F)c5ccc2[nH]5)C=C4)C=C3)cc1)c1ccc(OC2CCCC2)cc1F
REMARK SMILES IDX 9 1 8 2 7 3 6 4 5 5 3 6 4 7 2 8 1 9 71 10 72 11 82 12 73 13
REMARK SMILES IDX 81 14 83 15 74 16 75 17 76 18 77 19 80 20 78 21 79 22 10 23
REMARK SMILES IDX 11 24 12 25 13 26 14 27 15 28 16 29 17 30 18 31 70 32 19 33
REMARK SMILES IDX 69 34 20 35 21 36 22 37 63 38 23 39 68 40 62 41 64 42 24 43
REMARK SMILES IDX 67 44 61 45 60 46 25 48 51 49 34 50 50 51 35 52 38 53 49 54
REMARK SMILES IDX 65 55 36 56 37 57 48 59 66 60 39 61 26 62 27 63 32 64 28 65
REMARK SMILES IDX 29 66 31 67 33 68 30 69 52 70 53 71 58 72 54 73 55 74 57 75
REMARK SMILES IDX 59 76 56 77 40 78 41 79 46 80 42 81 43 82 45 83 47 84 44 85
REMARK H PARENT 64 47 38 58
REMARK Flexibility Score: inf
ROOT
ATOM      1  C   UNL A   1      33.330  34.120  28.456  1.00  0.00     0.188 C 
ENDROOT
BRANCH   1   2
ATOM      2  O   UNL A   1      32.652  33.120  27.709  1.00  0.00    -0.376 OA
BRANCH   2   3
ATOM      3  C   UNL A   1      33.298  31.864  27.517  1.00  0.00     0.202 C 
BRANCH   3   4
ATOM      4  C   UNL A   1      32.604  30.772  26.681  1.00  0.00     0.261 C 
BRANCH   4   5
ATOM      5  O   UNL A   1      32.625  29.436  27.235  1.00  0.00    -0.463 OA
BRANCH   5   6
ATOM      6  C   UNL A   1      33.580  28.598  26.746  1.00  0.00     0.313 C 
ATOM      7  O   UNL A   1      34.785  28.828  26.820  1.00  0.00    -0.252 OA
BRANCH   6   8
ATOM      8  C   UNL A   1      33.043  27.302  26.106  1.00  0.00     0.129 C 
ATOM      9  C   UNL A   1      34.021  26.177  25.753  1.00  0.00     0.025 C 
BRANCH   8  10
ATOM     10  C   UNL A   1      32.116  27.650  24.949  1.00  0.00     0.002 A 
ATOM     11  C   UNL A   1      32.496  28.506  23.909  1.00  0.00     0.011 A 
ATOM     12  C   UNL A   1      30.793  27.205  24.964  1.00  0.00     0.130 A 
ATOM     13  C   UNL A   1      31.565  28.939  22.962  1.00  0.00     0.047 A 
ATOM     14  C   UNL A   1      29.867  27.614  24.004  1.00  0.00     0.086 A 
ATOM     15  F   UNL A   1      30.385  26.364  25.925  1.00  0.00    -0.207 F 
ATOM     16  C   UNL A   1      30.247  28.492  22.997  1.00  0.00     0.122 A 
BRANCH  16  17
ATOM     17  O   UNL A   1      29.465  29.008  22.008  1.00  0.00    -0.490 OA
BRANCH  17  18
ATOM     18  C   UNL A   1      29.299  30.408  21.828  1.00  0.00     0.173 C 
ATOM     19  C   UNL A   1      28.221  30.830  20.835  1.00  0.00     0.045 C 
ATOM     20  C   UNL A   1      29.081  31.195  23.116  1.00  0.00     0.045 C 
ATOM     21  C   UNL A   1      27.846  32.238  21.258  1.00  0.00     0.004 C 
ATOM     22  C   UNL A   1      28.135  32.335  22.754  1.00  0.00     0.004 C 
ENDBRANCH  17  18
ENDBRANCH  16  17
ENDBRANCH   8  10
ENDBRANCH   6   8
ENDBRANCH   5   6
ENDBRANCH   4   5
ENDBRANCH   3   4
ENDBRANCH   2   3
ENDBRANCH   1   2
BRANCH   1  23
ATOM     23  C   UNL A   1      34.693  34.625  27.946  1.00  0.00     0.188 C 
BRANCH  23  24
ATOM     24  O   UNL A   1      35.770  34.330  28.802  1.00  0.00    -0.376 OA
BRANCH  24  25
ATOM     25  C   UNL A   1      35.531  33.557  29.960  1.00  0.00     0.202 C 
BRANCH  25  26
ATOM     26  C   UNL A   1      36.695  32.926  30.745  1.00  0.00     0.261 C 
BRANCH  26  27
ATOM     27  O   UNL A   1      36.559  31.554  31.152  1.00  0.00    -0.460 OA
BRANCH  27  28
ATOM     28  C   UNL A   1      36.317  30.639  30.187  1.00  0.00     0.338 C 
ATOM     29  O   UNL A   1      35.250  30.425  29.630  1.00  0.00    -0.246 OA
BRANCH  28  30
ATOM     30  C   UNL A   1      37.616  30.078  29.748  1.00  0.00     0.060 A 
ATOM     31  C   UNL A   1      38.545  29.680  30.718  1.00  0.00     0.016 A 
ATOM     32  C   UNL A   1      37.919  29.940  28.390  1.00  0.00     0.016 A 
ATOM     33  C   UNL A   1      39.786  29.161  30.332  1.00  0.00     0.010 A 
ATOM     34  C   UNL A   1      39.168  29.436  28.006  1.00  0.00     0.010 A 
ATOM     35  C   UNL A   1      40.115  29.059  28.973  1.00  0.00    -0.014 A 
BRANCH  35  36
ATOM     36  C   UNL A   1      41.509  28.731  28.571  1.00  0.00     0.031 A 
ATOM     37  C   UNL A   1      41.828  27.314  28.184  1.00  0.00     0.074 A 
ATOM     38  C   UNL A   1      42.477  29.666  28.530  1.00  0.00     0.049 A 
ATOM     39  N   UNL A   1      42.975  26.777  27.857  1.00  0.00    -0.248 NA
ATOM     40  C   UNL A   1      40.694  26.376  28.168  1.00  0.00     0.031 C 
ATOM     41  C   UNL A   1      42.299  31.082  28.834  1.00  0.00     0.029 A 
ATOM     42  N   UNL A   1      43.810  29.553  28.212  1.00  0.00    -0.354 N 
ATOM     43  C   UNL A   1      42.704  25.438  27.601  1.00  0.00     0.074 A 
ATOM     44  C   UNL A   1      41.289  25.242  27.832  1.00  0.00     0.031 C 
ATOM     45  C   UNL A   1      43.478  31.711  28.682  1.00  0.00     0.029 A 
ATOM     46  C   UNL A   1      44.506  30.734  28.322  1.00  0.00     0.049 A 
ATOM     47  H   UNL A   1      44.227  28.707  27.930  1.00  0.00     0.167 HD
ATOM     48  C   UNL A   1      43.556  24.459  27.212  1.00  0.00     0.037 A 
ATOM     49  C   UNL A   1      45.823  30.988  28.183  1.00  0.00     0.037 A 
ATOM     50  C   UNL A   1      44.968  24.644  27.007  1.00  0.00     0.049 A 
ATOM     51  C   UNL A   1      46.768  29.862  27.842  1.00  0.00     0.074 A 
ATOM     52  C   UNL A   1      45.913  23.706  26.631  1.00  0.00     0.029 A 
ATOM     53  N   UNL A   1      45.642  25.843  27.177  1.00  0.00    -0.354 N 
ATOM     54  N   UNL A   1      46.504  28.601  27.597  1.00  0.00    -0.248 NA
ATOM     55  C   UNL A   1      48.200  30.194  27.766  1.00  0.00     0.031 C 
ATOM     56  C   UNL A   1      47.167  24.324  26.628  1.00  0.00     0.029 A 
ATOM     57  C   UNL A   1      46.995  25.664  26.937  1.00  0.00     0.049 A 
ATOM     58  H   UNL A   1      45.222  26.697  27.430  1.00  0.00     0.167 HD
ATOM     59  C   UNL A   1      47.726  27.999  27.314  1.00  0.00     0.074 A 
ATOM     60  C   UNL A   1      48.731  29.036  27.398  1.00  0.00     0.031 C 
ATOM     61  C   UNL A   1      47.990  26.704  27.012  1.00  0.00     0.037 A 
BRANCH  48  62
ATOM     62  C   UNL A   1      42.980  23.086  27.029  1.00  0.00     0.057 A 
ATOM     63  C   UNL A   1      42.749  22.542  25.759  1.00  0.00     0.134 A 
ATOM     64  C   UNL A   1      42.665  22.292  28.140  1.00  0.00     0.134 A 
ATOM     65  F   UNL A   1      43.012  23.256  24.654  1.00  0.00    -0.206 F 
ATOM     66  C   UNL A   1      42.199  21.268  25.601  1.00  0.00     0.040 A 
ATOM     67  C   UNL A   1      42.142  21.007  27.994  1.00  0.00     0.040 A 
ATOM     68  F   UNL A   1      42.865  22.752  29.384  1.00  0.00    -0.206 F 
ATOM     69  C   UNL A   1      41.900  20.494  26.722  1.00  0.00     0.006 A 
ENDBRANCH  48  62
BRANCH  49  70
ATOM     70  C   UNL A   1      46.351  32.361  28.409  1.00  0.00     0.057 A 
ATOM     71  C   UNL A   1      46.750  32.789  29.682  1.00  0.00     0.134 A 
ATOM     72  C   UNL A   1      46.417  33.296  27.369  1.00  0.00     0.134 A 
ATOM     73  F   UNL A   1      46.684  31.953  30.728  1.00  0.00    -0.206 F 
ATOM     74  C   UNL A   1      47.170  34.101  29.915  1.00  0.00     0.040 A 
ATOM     75  C   UNL A   1      46.868  34.600  27.581  1.00  0.00     0.040 A 
ATOM     76  F   UNL A   1      46.042  32.956  26.126  1.00  0.00    -0.206 F 
ATOM     77  C   UNL A   1      47.235  35.010  28.860  1.00  0.00     0.006 A 
ENDBRANCH  49  70
BRANCH  61  78
ATOM     78  C   UNL A   1      49.415  26.334  26.702  1.00  0.00     0.057 A 
ATOM     79  C   UNL A   1      50.313  25.920  27.695  1.00  0.00     0.134 A 
ATOM     80  C   UNL A   1      49.880  26.344  25.379  1.00  0.00     0.134 A 
ATOM     81  F   UNL A   1      49.938  25.896  28.983  1.00  0.00    -0.206 F 
ATOM     82  C   UNL A   1      51.624  25.554  27.387  1.00  0.00     0.040 A 
ATOM     83  C   UNL A   1      51.178  25.950  25.056  1.00  0.00     0.040 A 
ATOM     84  F   UNL A   1      49.072  26.719  24.376  1.00  0.00    -0.206 F 
ATOM     85  C   UNL A   1      52.058  25.560  26.062  1.00  0.00     0.006 A 
ENDBRANCH  61  78
ENDBRANCH  35  36
ENDBRANCH  28  30
ENDBRANCH  27  28
ENDBRANCH  26  27
ENDBRANCH  25  26
ENDBRANCH  24  25
ENDBRANCH  23  24
ENDBRANCH   1  23
TORSDOF 20
ENDMDL
