MODEL 1
REMARK VINA RESULT:     -11.0      0.000      0.000
REMARK SMILES Cc1cc(N(C)[C@H]2CC[C@@H](C)CC2)cc(C(=O)OCCOCCOCCOC(=O)c2ccc(-c3c4nc(c(-c5c(F)cccc5F)c5ccc([nH]5)c(-c5c(F)cccc5F)c5nc(c(-c6c(F)cccc6F)c6ccc3[nH]6)C=C5)C=C4)cc2)c1N
REMARK SMILES IDX 22 1 21 2 20 3 19 4 18 5 16 6 17 7 15 8 1 9 2 10 3 11 84 12
REMARK SMILES IDX 4 13 14 14 85 15 5 18 6 19 7 20 8 21 13 22 9 23 12 24 10 25
REMARK SMILES IDX 11 26 23 27 24 28 25 29 26 30 27 31 28 32 29 33 30 34 31 35
REMARK SMILES IDX 83 36 32 37 82 38 33 39 34 40 35 41 76 42 36 43 81 44 75 45
REMARK SMILES IDX 77 46 37 47 80 48 74 49 73 50 38 52 64 53 47 54 63 55 48 56
REMARK SMILES IDX 51 57 62 58 78 59 49 60 50 61 61 63 79 64 52 65 39 66 40 67
REMARK SMILES IDX 45 68 41 69 42 70 44 71 46 72 43 73 65 74 66 75 71 76 67 77
REMARK SMILES IDX 68 78 70 79 72 80 69 81 53 82 54 83 59 84 55 85 56 86 58 87
REMARK SMILES IDX 60 88 57 89
REMARK H PARENT 85 16 85 17 77 51 51 62
REMARK Flexibility Score: inf
ROOT
ATOM      1  C   UNL A   1      40.008  21.635  26.204  1.00  0.00     0.188 C 
ENDROOT
BRANCH   1   2
ATOM      2  O   UNL A   1      38.709  21.192  25.854  1.00  0.00    -0.376 OA
BRANCH   2   3
ATOM      3  C   UNL A   1      37.784  22.193  25.459  1.00  0.00     0.202 C 
BRANCH   3   4
ATOM      4  C   UNL A   1      36.284  21.836  25.403  1.00  0.00     0.261 C 
BRANCH   4   5
ATOM      5  O   UNL A   1      35.605  22.082  24.160  1.00  0.00    -0.460 OA
BRANCH   5   6
ATOM      6  C   UNL A   1      34.263  22.231  24.234  1.00  0.00     0.340 C 
ATOM      7  O   UNL A   1      33.476  21.353  24.558  1.00  0.00    -0.246 OA
BRANCH   6   8
ATOM      8  C   UNL A   1      33.868  23.654  24.031  1.00  0.00     0.085 A 
ATOM      9  C   UNL A   1      32.675  25.946  21.254  1.00  0.00     0.047 C 
ATOM     10  C   UNL A   1      33.294  25.389  22.507  1.00  0.00    -0.025 A 
ATOM     11  C   UNL A   1      33.683  26.293  23.503  1.00  0.00     0.031 A 
ATOM     12  C   UNL A   1      33.394  24.028  22.762  1.00  0.00     0.049 A 
ATOM     13  C   UNL A   1      33.664  25.972  24.853  1.00  0.00     0.038 A 
ATOM     14  C   UNL A   1      33.907  24.607  25.085  1.00  0.00     0.043 A 
BRANCH  12  15
ATOM     15  N   UNL A   1      32.875  23.104  21.854  1.00  0.00    -0.398 N 
ATOM     16  H   UNL A   1      32.666  22.188  22.149  1.00  0.00     0.156 HD
ATOM     17  H   UNL A   1      32.716  23.369  20.919  1.00  0.00     0.156 HD
ENDBRANCH  12  15
BRANCH  13  18
ATOM     18  N   UNL A   1      33.326  26.918  25.837  1.00  0.00    -0.372 N 
ATOM     19  C   UNL A   1      34.397  27.845  26.236  1.00  0.00     0.144 C 
BRANCH  18  20
ATOM     20  C   UNL A   1      31.918  27.298  26.297  1.00  0.00     0.082 C 
ATOM     21  C   UNL A   1      30.769  26.420  25.710  1.00  0.00     0.025 C 
ATOM     22  C   UNL A   1      31.405  28.723  26.038  1.00  0.00     0.025 C 
ATOM     23  C   UNL A   1      30.183  26.813  24.328  1.00  0.00     0.005 C 
ATOM     24  C   UNL A   1      31.412  29.024  24.546  1.00  0.00     0.005 C 
ATOM     25  C   UNL A   1      30.250  28.294  23.899  1.00  0.00    -0.014 C 
ATOM     26  C   UNL A   1      30.329  28.444  22.376  1.00  0.00     0.007 C 
ENDBRANCH  18  20
ENDBRANCH  13  18
ENDBRANCH   6   8
ENDBRANCH   5   6
ENDBRANCH   4   5
ENDBRANCH   3   4
ENDBRANCH   2   3
ENDBRANCH   1   2
BRANCH   1  27
ATOM     27  C   UNL A   1      40.808  20.616  27.044  1.00  0.00     0.188 C 
BRANCH  27  28
ATOM     28  O   UNL A   1      42.229  20.648  27.045  1.00  0.00    -0.376 OA
BRANCH  28  29
ATOM     29  C   UNL A   1      42.928  20.500  25.818  1.00  0.00     0.202 C 
BRANCH  29  30
ATOM     30  C   UNL A   1      43.763  21.661  25.239  1.00  0.00     0.261 C 
BRANCH  30  31
ATOM     31  O   UNL A   1      43.054  22.867  24.904  1.00  0.00    -0.460 OA
BRANCH  31  32
ATOM     32  C   UNL A   1      43.762  24.021  25.014  1.00  0.00     0.338 C 
ATOM     33  O   UNL A   1      44.756  24.340  24.392  1.00  0.00    -0.246 OA
BRANCH  32  34
ATOM     34  C   UNL A   1      43.060  24.949  25.928  1.00  0.00     0.060 A 
ATOM     35  C   UNL A   1      43.450  26.296  25.953  1.00  0.00     0.016 A 
ATOM     36  C   UNL A   1      42.081  24.485  26.808  1.00  0.00     0.016 A 
ATOM     37  C   UNL A   1      42.878  27.179  26.869  1.00  0.00     0.010 A 
ATOM     38  C   UNL A   1      41.526  25.367  27.744  1.00  0.00     0.010 A 
ATOM     39  C   UNL A   1      41.943  26.712  27.801  1.00  0.00    -0.014 A 
BRANCH  39  40
ATOM     40  C   UNL A   1      41.526  27.577  28.933  1.00  0.00     0.031 A 
ATOM     41  C   UNL A   1      42.271  27.475  30.236  1.00  0.00     0.074 A 
ATOM     42  C   UNL A   1      40.511  28.452  28.808  1.00  0.00     0.049 A 
ATOM     43  N   UNL A   1      42.038  28.070  31.378  1.00  0.00    -0.248 NA
ATOM     44  C   UNL A   1      43.436  26.575  30.253  1.00  0.00     0.031 C 
ATOM     45  C   UNL A   1      39.735  28.682  27.591  1.00  0.00     0.029 A 
ATOM     46  N   UNL A   1      39.949  29.301  29.731  1.00  0.00    -0.354 N 
ATOM     47  C   UNL A   1      43.019  27.615  32.250  1.00  0.00     0.074 A 
ATOM     48  C   UNL A   1      43.832  26.669  31.514  1.00  0.00     0.031 C 
ATOM     49  C   UNL A   1      38.783  29.595  27.849  1.00  0.00     0.029 A 
ATOM     50  C   UNL A   1      38.859  29.988  29.256  1.00  0.00     0.049 A 
ATOM     51  H   UNL A   1      40.295  29.406  30.647  1.00  0.00     0.167 HD
ATOM     52  C   UNL A   1      43.232  27.960  33.542  1.00  0.00     0.037 A 
ATOM     53  C   UNL A   1      38.004  30.814  29.891  1.00  0.00     0.037 A 
ATOM     54  C   UNL A   1      42.422  28.896  34.277  1.00  0.00     0.049 A 
ATOM     55  C   UNL A   1      38.211  31.115  31.355  1.00  0.00     0.074 A 
ATOM     56  C   UNL A   1      42.566  29.316  35.588  1.00  0.00     0.029 A 
ATOM     57  N   UNL A   1      41.314  29.553  33.765  1.00  0.00    -0.354 N 
ATOM     58  N   UNL A   1      39.155  30.698  32.164  1.00  0.00    -0.248 NA
ATOM     59  C   UNL A   1      37.233  32.009  31.994  1.00  0.00     0.031 C 
ATOM     60  C   UNL A   1      41.512  30.184  35.887  1.00  0.00     0.029 A 
ATOM     61  C   UNL A   1      40.749  30.355  34.744  1.00  0.00     0.049 A 
ATOM     62  H   UNL A   1      40.978  29.463  32.844  1.00  0.00     0.167 HD
ATOM     63  C   UNL A   1      38.904  31.302  33.390  1.00  0.00     0.074 A 
ATOM     64  C   UNL A   1      37.728  32.127  33.217  1.00  0.00     0.031 C 
ATOM     65  C   UNL A   1      39.587  31.186  34.556  1.00  0.00     0.037 A 
BRANCH  52  66
ATOM     66  C   UNL A   1      44.377  27.301  34.257  1.00  0.00     0.057 A 
ATOM     67  C   UNL A   1      44.255  26.032  34.838  1.00  0.00     0.134 A 
ATOM     68  C   UNL A   1      45.630  27.924  34.323  1.00  0.00     0.134 A 
ATOM     69  F   UNL A   1      43.079  25.386  34.821  1.00  0.00    -0.206 F 
ATOM     70  C   UNL A   1      45.333  25.415  35.476  1.00  0.00     0.040 A 
ATOM     71  C   UNL A   1      46.721  27.305  34.933  1.00  0.00     0.040 A 
ATOM     72  F   UNL A   1      45.817  29.137  33.782  1.00  0.00    -0.206 F 
ATOM     73  C   UNL A   1      46.573  26.049  35.516  1.00  0.00     0.006 A 
ENDBRANCH  52  66
BRANCH  53  74
ATOM     74  C   UNL A   1      36.849  31.403  29.165  1.00  0.00     0.057 A 
ATOM     75  C   UNL A   1      35.721  30.637  28.847  1.00  0.00     0.134 A 
ATOM     76  C   UNL A   1      36.866  32.733  28.726  1.00  0.00     0.134 A 
ATOM     77  F   UNL A   1      35.653  29.349  29.216  1.00  0.00    -0.206 F 
ATOM     78  C   UNL A   1      34.665  31.162  28.098  1.00  0.00     0.040 A 
ATOM     79  C   UNL A   1      35.806  33.280  28.002  1.00  0.00     0.040 A 
ATOM     80  F   UNL A   1      37.917  33.522  28.995  1.00  0.00    -0.206 F 
ATOM     81  C   UNL A   1      34.705  32.489  27.677  1.00  0.00     0.006 A 
ENDBRANCH  53  74
BRANCH  65  82
ATOM     82  C   UNL A   1      39.116  32.007  35.724  1.00  0.00     0.057 A 
ATOM     83  C   UNL A   1      39.507  33.341  35.904  1.00  0.00     0.134 A 
ATOM     84  C   UNL A   1      38.223  31.467  36.659  1.00  0.00     0.134 A 
ATOM     85  F   UNL A   1      40.369  33.918  35.053  1.00  0.00    -0.206 F 
ATOM     86  C   UNL A   1      39.049  34.096  36.985  1.00  0.00     0.040 A 
ATOM     87  C   UNL A   1      37.733  32.221  37.726  1.00  0.00     0.040 A 
ATOM     88  F   UNL A   1      37.798  30.200  36.541  1.00  0.00    -0.206 F 
ATOM     89  C   UNL A   1      38.153  33.539  37.896  1.00  0.00     0.006 A 
ENDBRANCH  65  82
ENDBRANCH  39  40
ENDBRANCH  32  34
ENDBRANCH  31  32
ENDBRANCH  30  31
ENDBRANCH  29  30
ENDBRANCH  28  29
ENDBRANCH  27  28
ENDBRANCH   1  27
TORSDOF 20
ENDMDL
MODEL 2
REMARK VINA RESULT:     -11.0      1.152      2.386
REMARK SMILES Cc1cc(N(C)[C@H]2CC[C@@H](C)CC2)cc(C(=O)OCCOCCOCCOC(=O)c2ccc(-c3c4nc(c(-c5c(F)cccc5F)c5ccc([nH]5)c(-c5c(F)cccc5F)c5nc(c(-c6c(F)cccc6F)c6ccc3[nH]6)C=C5)C=C4)cc2)c1N
REMARK SMILES IDX 22 1 21 2 20 3 19 4 18 5 16 6 17 7 15 8 1 9 2 10 3 11 84 12
REMARK SMILES IDX 4 13 14 14 85 15 5 18 6 19 7 20 8 21 13 22 9 23 12 24 10 25
REMARK SMILES IDX 11 26 23 27 24 28 25 29 26 30 27 31 28 32 29 33 30 34 31 35
REMARK SMILES IDX 83 36 32 37 82 38 33 39 34 40 35 41 76 42 36 43 81 44 75 45
REMARK SMILES IDX 77 46 37 47 80 48 74 49 73 50 38 52 64 53 47 54 63 55 48 56
REMARK SMILES IDX 51 57 62 58 78 59 49 60 50 61 61 63 79 64 52 65 39 66 40 67
REMARK SMILES IDX 45 68 41 69 42 70 44 71 46 72 43 73 65 74 66 75 71 76 67 77
REMARK SMILES IDX 68 78 70 79 72 80 69 81 53 82 54 83 59 84 55 85 56 86 58 87
REMARK SMILES IDX 60 88 57 89
REMARK H PARENT 85 16 85 17 77 51 51 62
REMARK Flexibility Score: inf
ROOT
ATOM      1  C   UNL A   1      41.447  20.961  26.935  1.00  0.00     0.188 C 
ENDROOT
BRANCH   1   2
ATOM      2  O   UNL A   1      40.637  21.849  26.187  1.00  0.00    -0.376 OA
BRANCH   2   3
ATOM      3  C   UNL A   1      39.558  22.459  26.878  1.00  0.00     0.202 C 
BRANCH   3   4
ATOM      4  C   UNL A   1      38.576  23.346  26.086  1.00  0.00     0.261 C 
BRANCH   4   5
ATOM      5  O   UNL A   1      37.226  22.869  25.962  1.00  0.00    -0.460 OA
BRANCH   5   6
ATOM      6  C   UNL A   1      36.936  22.188  24.830  1.00  0.00     0.340 C 
ATOM      7  O   UNL A   1      37.668  21.363  24.300  1.00  0.00    -0.246 OA
BRANCH   6   8
ATOM      8  C   UNL A   1      35.535  22.444  24.392  1.00  0.00     0.085 A 
ATOM      9  C   UNL A   1      32.156  20.720  24.386  1.00  0.00     0.047 C 
ATOM     10  C   UNL A   1      33.339  21.590  24.058  1.00  0.00    -0.025 A 
ATOM     11  C   UNL A   1      33.153  22.631  23.140  1.00  0.00     0.031 A 
ATOM     12  C   UNL A   1      34.564  21.476  24.701  1.00  0.00     0.049 A 
ATOM     13  C   UNL A   1      33.867  23.819  23.200  1.00  0.00     0.038 A 
ATOM     14  C   UNL A   1      35.158  23.645  23.731  1.00  0.00     0.043 A 
BRANCH  12  15
ATOM     15  N   UNL A   1      34.733  20.549  25.730  1.00  0.00    -0.398 N 
ATOM     16  H   UNL A   1      34.000  19.935  25.965  1.00  0.00     0.156 HD
ATOM     17  H   UNL A   1      35.586  20.508  26.220  1.00  0.00     0.156 HD
ENDBRANCH  12  15
BRANCH  13  18
ATOM     18  N   UNL A   1      33.286  25.054  22.862  1.00  0.00    -0.372 N 
ATOM     19  C   UNL A   1      32.901  25.221  21.451  1.00  0.00     0.144 C 
BRANCH  18  20
ATOM     20  C   UNL A   1      32.722  26.096  23.828  1.00  0.00     0.082 C 
ATOM     21  C   UNL A   1      33.247  25.993  25.295  1.00  0.00     0.025 C 
ATOM     22  C   UNL A   1      31.202  26.185  24.031  1.00  0.00     0.025 C 
ATOM     23  C   UNL A   1      32.518  25.025  26.265  1.00  0.00     0.005 C 
ATOM     24  C   UNL A   1      30.659  24.859  24.544  1.00  0.00     0.005 C 
ATOM     25  C   UNL A   1      31.028  24.717  26.009  1.00  0.00    -0.014 C 
ATOM     26  C   UNL A   1      30.639  23.322  26.507  1.00  0.00     0.007 C 
ENDBRANCH  18  20
ENDBRANCH  13  18
ENDBRANCH   6   8
ENDBRANCH   5   6
ENDBRANCH   4   5
ENDBRANCH   3   4
ENDBRANCH   2   3
ENDBRANCH   1   2
BRANCH   1  27
ATOM     27  C   UNL A   1      41.926  19.730  26.136  1.00  0.00     0.188 C 
BRANCH  27  28
ATOM     28  O   UNL A   1      43.011  19.846  25.226  1.00  0.00    -0.376 OA
BRANCH  28  29
ATOM     29  C   UNL A   1      43.987  20.857  25.433  1.00  0.00     0.202 C 
BRANCH  29  30
ATOM     30  C   UNL A   1      44.154  22.012  24.424  1.00  0.00     0.261 C 
BRANCH  30  31
ATOM     31  O   UNL A   1      43.440  23.229  24.703  1.00  0.00    -0.460 OA
BRANCH  31  32
ATOM     32  C   UNL A   1      44.202  24.295  25.056  1.00  0.00     0.338 C 
ATOM     33  O   UNL A   1      45.295  24.599  24.621  1.00  0.00    -0.246 OA
BRANCH  32  34
ATOM     34  C   UNL A   1      43.440  25.166  25.981  1.00  0.00     0.060 A 
ATOM     35  C   UNL A   1      43.659  26.550  25.939  1.00  0.00     0.016 A 
ATOM     36  C   UNL A   1      42.576  24.620  26.931  1.00  0.00     0.016 A 
ATOM     37  C   UNL A   1      43.032  27.391  26.859  1.00  0.00     0.010 A 
ATOM     38  C   UNL A   1      41.967  25.462  27.870  1.00  0.00     0.010 A 
ATOM     39  C   UNL A   1      42.215  26.849  27.858  1.00  0.00    -0.014 A 
BRANCH  39  40
ATOM     40  C   UNL A   1      41.755  27.701  28.984  1.00  0.00     0.031 A 
ATOM     41  C   UNL A   1      42.470  27.603  30.306  1.00  0.00     0.074 A 
ATOM     42  C   UNL A   1      40.730  28.559  28.840  1.00  0.00     0.049 A 
ATOM     43  N   UNL A   1      42.198  28.187  31.445  1.00  0.00    -0.248 NA
ATOM     44  C   UNL A   1      43.649  26.723  30.346  1.00  0.00     0.031 C 
ATOM     45  C   UNL A   1      39.980  28.783  27.605  1.00  0.00     0.029 A 
ATOM     46  N   UNL A   1      40.130  29.392  29.753  1.00  0.00    -0.354 N 
ATOM     47  C   UNL A   1      43.165  27.743  32.338  1.00  0.00     0.074 A 
ATOM     48  C   UNL A   1      44.012  26.815  31.617  1.00  0.00     0.031 C 
ATOM     49  C   UNL A   1      39.006  29.679  27.844  1.00  0.00     0.029 A 
ATOM     50  C   UNL A   1      39.041  30.065  29.255  1.00  0.00     0.049 A 
ATOM     51  H   UNL A   1      40.452  29.498  30.678  1.00  0.00     0.167 HD
ATOM     52  C   UNL A   1      43.340  28.083  33.637  1.00  0.00     0.037 A 
ATOM     53  C   UNL A   1      38.157  30.872  29.873  1.00  0.00     0.037 A 
ATOM     54  C   UNL A   1      42.497  29.001  34.357  1.00  0.00     0.049 A 
ATOM     55  C   UNL A   1      38.323  31.168  31.344  1.00  0.00     0.074 A 
ATOM     56  C   UNL A   1      42.600  29.415  35.673  1.00  0.00     0.029 A 
ATOM     57  N   UNL A   1      41.391  29.643  33.821  1.00  0.00    -0.354 N 
ATOM     58  N   UNL A   1      39.253  30.761  32.173  1.00  0.00    -0.248 NA
ATOM     59  C   UNL A   1      37.314  32.041  31.963  1.00  0.00     0.031 C 
ATOM     60  C   UNL A   1      41.525  30.263  35.951  1.00  0.00     0.029 A 
ATOM     61  C   UNL A   1      40.788  30.429  34.791  1.00  0.00     0.049 A 
ATOM     62  H   UNL A   1      41.079  29.553  32.892  1.00  0.00     0.167 HD
ATOM     63  C   UNL A   1      38.962  31.354  33.397  1.00  0.00     0.074 A 
ATOM     64  C   UNL A   1      37.777  32.159  33.199  1.00  0.00     0.031 C 
ATOM     65  C   UNL A   1      39.617  31.241  34.578  1.00  0.00     0.037 A 
BRANCH  52  66
ATOM     66  C   UNL A   1      44.478  27.439  34.377  1.00  0.00     0.057 A 
ATOM     67  C   UNL A   1      45.741  28.037  34.458  1.00  0.00     0.134 A 
ATOM     68  C   UNL A   1      44.292  26.228  35.056  1.00  0.00     0.134 A 
ATOM     69  F   UNL A   1      45.989  29.192  33.819  1.00  0.00    -0.206 F 
ATOM     70  C   UNL A   1      46.785  27.445  35.172  1.00  0.00     0.040 A 
ATOM     71  C   UNL A   1      45.319  25.641  35.796  1.00  0.00     0.040 A 
ATOM     72  F   UNL A   1      43.105  25.604  35.026  1.00  0.00    -0.206 F 
ATOM     73  C   UNL A   1      46.572  26.248  35.851  1.00  0.00     0.006 A 
ENDBRANCH  52  66
BRANCH  53  74
ATOM     74  C   UNL A   1      37.010  31.446  29.122  1.00  0.00     0.057 A 
ATOM     75  C   UNL A   1      37.006  32.783  28.706  1.00  0.00     0.134 A 
ATOM     76  C   UNL A   1      35.868  30.685  28.844  1.00  0.00     0.134 A 
ATOM     77  F   UNL A   1      38.060  33.573  28.964  1.00  0.00    -0.206 F 
ATOM     78  C   UNL A   1      35.901  33.350  28.068  1.00  0.00     0.040 A 
ATOM     79  C   UNL A   1      34.767  31.229  28.181  1.00  0.00     0.040 A 
ATOM     80  F   UNL A   1      35.805  29.397  29.216  1.00  0.00    -0.206 F 
ATOM     81  C   UNL A   1      34.778  32.569  27.800  1.00  0.00     0.006 A 
ENDBRANCH  53  74
BRANCH  65  82
ATOM     82  C   UNL A   1      39.104  32.048  35.739  1.00  0.00     0.057 A 
ATOM     83  C   UNL A   1      39.476  33.383  35.942  1.00  0.00     0.134 A 
ATOM     84  C   UNL A   1      38.189  31.490  36.642  1.00  0.00     0.134 A 
ATOM     85  F   UNL A   1      40.356  33.976  35.122  1.00  0.00    -0.206 F 
ATOM     86  C   UNL A   1      38.978  34.124  37.016  1.00  0.00     0.040 A 
ATOM     87  C   UNL A   1      37.660  32.229  37.701  1.00  0.00     0.040 A 
ATOM     88  F   UNL A   1      37.780  30.220  36.501  1.00  0.00    -0.206 F 
ATOM     89  C   UNL A   1      38.061  33.550  37.895  1.00  0.00     0.006 A 
ENDBRANCH  65  82
ENDBRANCH  39  40
ENDBRANCH  32  34
ENDBRANCH  31  32
ENDBRANCH  30  31
ENDBRANCH  29  30
ENDBRANCH  28  29
ENDBRANCH  27  28
ENDBRANCH   1  27
TORSDOF 20
ENDMDL
MODEL 3
REMARK VINA RESULT:     -10.8      4.974      9.821
REMARK SMILES Cc1cc(N(C)[C@H]2CC[C@@H](C)CC2)cc(C(=O)OCCOCCOCCOC(=O)c2ccc(-c3c4nc(c(-c5c(F)cccc5F)c5ccc([nH]5)c(-c5c(F)cccc5F)c5nc(c(-c6c(F)cccc6F)c6ccc3[nH]6)C=C5)C=C4)cc2)c1N
REMARK SMILES IDX 22 1 21 2 20 3 19 4 18 5 16 6 17 7 15 8 1 9 2 10 3 11 84 12
REMARK SMILES IDX 4 13 14 14 85 15 5 18 6 19 7 20 8 21 13 22 9 23 12 24 10 25
REMARK SMILES IDX 11 26 23 27 24 28 25 29 26 30 27 31 28 32 29 33 30 34 31 35
REMARK SMILES IDX 83 36 32 37 82 38 33 39 34 40 35 41 76 42 36 43 81 44 75 45
REMARK SMILES IDX 77 46 37 47 80 48 74 49 73 50 38 52 64 53 47 54 63 55 48 56
REMARK SMILES IDX 51 57 62 58 78 59 49 60 50 61 61 63 79 64 52 65 39 66 40 67
REMARK SMILES IDX 45 68 41 69 42 70 44 71 46 72 43 73 65 74 66 75 71 76 67 77
REMARK SMILES IDX 68 78 70 79 72 80 69 81 53 82 54 83 59 84 55 85 56 86 58 87
REMARK SMILES IDX 60 88 57 89
REMARK H PARENT 85 16 85 17 77 51 51 62
REMARK Flexibility Score: inf
ROOT
ATOM      1  C   UNL A   1      34.989  32.804  28.155  1.00  0.00     0.188 C 
ENDROOT
BRANCH   1   2
ATOM      2  O   UNL A   1      34.898  31.524  28.755  1.00  0.00    -0.376 OA
BRANCH   2   3
ATOM      3  C   UNL A   1      35.505  30.451  28.053  1.00  0.00     0.202 C 
BRANCH   3   4
ATOM      4  C   UNL A   1      34.648  29.628  27.069  1.00  0.00     0.261 C 
BRANCH   4   5
ATOM      5  O   UNL A   1      33.486  28.976  27.611  1.00  0.00    -0.460 OA
BRANCH   5   6
ATOM      6  C   UNL A   1      32.304  29.287  27.033  1.00  0.00     0.340 C 
ATOM      7  O   UNL A   1      31.777  30.390  27.063  1.00  0.00    -0.246 OA
BRANCH   6   8
ATOM      8  C   UNL A   1      31.795  28.156  26.207  1.00  0.00     0.085 A 
ATOM      9  C   UNL A   1      30.101  27.562  22.865  1.00  0.00     0.047 C 
ATOM     10  C   UNL A   1      30.579  27.449  24.287  1.00  0.00    -0.025 A 
ATOM     11  C   UNL A   1      30.385  26.231  24.949  1.00  0.00     0.031 A 
ATOM     12  C   UNL A   1      31.294  28.452  24.927  1.00  0.00     0.049 A 
ATOM     13  C   UNL A   1      31.251  25.765  25.928  1.00  0.00     0.038 A 
ATOM     14  C   UNL A   1      31.856  26.808  26.652  1.00  0.00     0.043 A 
BRANCH  12  15
ATOM     15  N   UNL A   1      31.636  29.618  24.240  1.00  0.00    -0.398 N 
ATOM     16  H   UNL A   1      31.384  29.725  23.295  1.00  0.00     0.156 HD
ATOM     17  H   UNL A   1      32.128  30.335  24.703  1.00  0.00     0.156 HD
ENDBRANCH  12  15
BRANCH  13  18
ATOM     18  N   UNL A   1      31.545  24.397  26.071  1.00  0.00    -0.372 N 
ATOM     19  C   UNL A   1      30.439  23.544  26.535  1.00  0.00     0.144 C 
BRANCH  18  20
ATOM     20  C   UNL A   1      32.756  23.657  25.503  1.00  0.00     0.082 C 
ATOM     21  C   UNL A   1      33.968  24.563  25.120  1.00  0.00     0.025 C 
ATOM     22  C   UNL A   1      32.584  22.793  24.243  1.00  0.00     0.025 C 
ATOM     23  C   UNL A   1      33.981  25.208  23.708  1.00  0.00     0.005 C 
ATOM     24  C   UNL A   1      32.081  23.643  23.086  1.00  0.00     0.005 C 
ATOM     25  C   UNL A   1      33.230  24.488  22.569  1.00  0.00    -0.014 C 
ATOM     26  C   UNL A   1      32.715  25.472  21.513  1.00  0.00     0.007 C 
ENDBRANCH  18  20
ENDBRANCH  13  18
ENDBRANCH   6   8
ENDBRANCH   5   6
ENDBRANCH   4   5
ENDBRANCH   3   4
ENDBRANCH   2   3
ENDBRANCH   1   2
BRANCH   1  27
ATOM     27  C   UNL A   1      34.379  33.937  29.008  1.00  0.00     0.188 C 
BRANCH  27  28
ATOM     28  O   UNL A   1      33.970  33.685  30.346  1.00  0.00    -0.376 OA
BRANCH  28  29
ATOM     29  C   UNL A   1      34.828  34.058  31.415  1.00  0.00     0.202 C 
BRANCH  29  30
ATOM     30  C   UNL A   1      34.818  33.276  32.745  1.00  0.00     0.261 C 
BRANCH  30  31
ATOM     31  O   UNL A   1      35.430  31.974  32.738  1.00  0.00    -0.460 OA
BRANCH  31  32
ATOM     32  C   UNL A   1      36.641  31.886  33.346  1.00  0.00     0.338 C 
ATOM     33  O   UNL A   1      36.912  32.169  34.496  1.00  0.00    -0.246 OA
BRANCH  32  34
ATOM     34  C   UNL A   1      37.609  31.236  32.434  1.00  0.00     0.060 A 
ATOM     35  C   UNL A   1      38.681  30.521  32.986  1.00  0.00     0.016 A 
ATOM     36  C   UNL A   1      37.507  31.393  31.051  1.00  0.00     0.016 A 
ATOM     37  C   UNL A   1      39.666  29.978  32.160  1.00  0.00     0.010 A 
ATOM     38  C   UNL A   1      38.509  30.869  30.225  1.00  0.00     0.010 A 
ATOM     39  C   UNL A   1      39.610  30.184  30.776  1.00  0.00    -0.014 A 
BRANCH  39  40
ATOM     40  C   UNL A   1      40.776  29.834  29.925  1.00  0.00     0.031 A 
ATOM     41  C   UNL A   1      40.857  28.449  29.342  1.00  0.00     0.074 A 
ATOM     42  C   UNL A   1      41.743  30.731  29.659  1.00  0.00     0.049 A 
ATOM     43  N   UNL A   1      41.813  27.896  28.639  1.00  0.00    -0.248 NA
ATOM     44  C   UNL A   1      39.705  27.567  29.591  1.00  0.00     0.031 C 
ATOM     45  C   UNL A   1      41.764  32.116  30.124  1.00  0.00     0.029 A 
ATOM     46  N   UNL A   1      42.907  30.598  28.943  1.00  0.00    -0.354 N 
ATOM     47  C   UNL A   1      41.383  26.603  28.366  1.00  0.00     0.074 A 
ATOM     48  C   UNL A   1      40.094  26.443  29.007  1.00  0.00     0.031 C 
ATOM     49  C   UNL A   1      42.898  32.700  29.698  1.00  0.00     0.029 A 
ATOM     50  C   UNL A   1      43.698  31.722  28.962  1.00  0.00     0.049 A 
ATOM     51  H   UNL A   1      43.152  29.775  28.460  1.00  0.00     0.167 HD
ATOM     52  C   UNL A   1      41.999  25.640  27.640  1.00  0.00     0.037 A 
ATOM     53  C   UNL A   1      44.935  31.925  28.469  1.00  0.00     0.037 A 
ATOM     54  C   UNL A   1      43.282  25.796  27.007  1.00  0.00     0.049 A 
ATOM     55  C   UNL A   1      45.638  30.807  27.738  1.00  0.00     0.074 A 
ATOM     56  C   UNL A   1      43.982  24.880  26.242  1.00  0.00     0.029 A 
ATOM     57  N   UNL A   1      44.059  26.942  27.070  1.00  0.00    -0.354 N 
ATOM     58  N   UNL A   1      45.213  29.597  27.466  1.00  0.00    -0.248 NA
ATOM     59  C   UNL A   1      46.994  31.088  27.241  1.00  0.00     0.031 C 
ATOM     60  C   UNL A   1      45.208  25.450  25.890  1.00  0.00     0.029 A 
ATOM     61  C   UNL A   1      45.245  26.745  26.379  1.00  0.00     0.049 A 
ATOM     62  H   UNL A   1      43.808  27.772  27.536  1.00  0.00     0.167 HD
ATOM     63  C   UNL A   1      46.231  28.988  26.740  1.00  0.00     0.074 A 
ATOM     64  C   UNL A   1      47.288  29.965  26.602  1.00  0.00     0.031 C 
ATOM     65  C   UNL A   1      46.285  27.732  26.233  1.00  0.00     0.037 A 
BRANCH  52  66
ATOM     66  C   UNL A   1      41.301  24.316  27.509  1.00  0.00     0.057 A 
ATOM     67  C   UNL A   1      40.215  24.134  26.645  1.00  0.00     0.134 A 
ATOM     68  C   UNL A   1      41.753  23.199  28.223  1.00  0.00     0.134 A 
ATOM     69  F   UNL A   1      39.725  25.167  25.942  1.00  0.00    -0.206 F 
ATOM     70  C   UNL A   1      39.591  22.893  26.508  1.00  0.00     0.040 A 
ATOM     71  C   UNL A   1      41.156  21.947  28.073  1.00  0.00     0.040 A 
ATOM     72  F   UNL A   1      42.793  23.301  29.064  1.00  0.00    -0.206 F 
ATOM     73  C   UNL A   1      40.068  21.793  27.217  1.00  0.00     0.006 A 
ENDBRANCH  52  66
BRANCH  53  74
ATOM     74  C   UNL A   1      45.618  33.231  28.668  1.00  0.00     0.057 A 
ATOM     75  C   UNL A   1      45.477  34.274  27.745  1.00  0.00     0.134 A 
ATOM     76  C   UNL A   1      46.467  33.449  29.760  1.00  0.00     0.134 A 
ATOM     77  F   UNL A   1      44.699  34.119  26.663  1.00  0.00    -0.206 F 
ATOM     78  C   UNL A   1      46.176  35.475  27.884  1.00  0.00     0.040 A 
ATOM     79  C   UNL A   1      47.149  34.655  29.928  1.00  0.00     0.040 A 
ATOM     80  F   UNL A   1      46.648  32.491  30.680  1.00  0.00    -0.206 F 
ATOM     81  C   UNL A   1      47.012  35.670  28.982  1.00  0.00     0.006 A 
ENDBRANCH  53  74
BRANCH  65  82
ATOM     82  C   UNL A   1      47.502  27.354  25.435  1.00  0.00     0.057 A 
ATOM     83  C   UNL A   1      47.602  27.610  24.061  1.00  0.00     0.134 A 
ATOM     84  C   UNL A   1      48.607  26.764  26.062  1.00  0.00     0.134 A 
ATOM     85  F   UNL A   1      46.576  28.163  23.396  1.00  0.00    -0.206 F 
ATOM     86  C   UNL A   1      48.745  27.269  23.336  1.00  0.00     0.040 A 
ATOM     87  C   UNL A   1      49.768  26.446  25.355  1.00  0.00     0.040 A 
ATOM     88  F   UNL A   1      48.585  26.501  27.377  1.00  0.00    -0.206 F 
ATOM     89  C   UNL A   1      49.836  26.692  23.984  1.00  0.00     0.006 A 
ENDBRANCH  65  82
ENDBRANCH  39  40
ENDBRANCH  32  34
ENDBRANCH  31  32
ENDBRANCH  30  31
ENDBRANCH  29  30
ENDBRANCH  28  29
ENDBRANCH  27  28
ENDBRANCH   1  27
TORSDOF 20
ENDMDL
