MODEL 1
REMARK VINA RESULT:      -9.7      0.000      0.000
REMARK SMILES O=C(OCCOCCOCCOC(=O)[C@H]1CS[C@H](c2cc(F)ccc2F)[NH2+]1)c1ccc(-c2c3nc(c(-c4c(F)cccc4F)c4ccc([nH]4)c(-c4c(F)cccc4F)c4nc(c(-c5c(F)cccc5F)c5ccc2[nH]5)C=C4)C=C3)cc1
REMARK SMILES IDX 7 1 6 2 5 3 4 4 3 5 2 6 1 7 28 8 29 9 81 10 30 11 80 12
REMARK SMILES IDX 31 13 32 14 33 15 74 16 34 17 79 18 73 19 75 20 35 21 78 22
REMARK SMILES IDX 72 23 71 24 36 26 62 27 45 28 61 29 46 30 49 31 60 32 76 33
REMARK SMILES IDX 47 34 48 35 59 37 77 38 50 39 37 40 38 41 43 42 39 43 40 44
REMARK SMILES IDX 42 45 44 46 41 47 63 48 64 49 69 50 65 51 66 52 68 53 70 54
REMARK SMILES IDX 67 55 51 56 52 57 57 58 53 59 54 60 56 61 58 62 55 63 8 64
REMARK SMILES IDX 9 65 10 66 11 67 12 68 13 69 14 70 15 71 16 72 27 73 17 74
REMARK SMILES IDX 18 75 19 78 20 79 25 80 21 81 24 82 26 83 22 84 23 85
REMARK H PARENT 75 25 49 36 27 76 27 77
REMARK Flexibility Score: inf
ROOT
ATOM      1  C   UNL A   1      33.256  28.410  24.004  1.00  0.00     0.188 C 
ENDROOT
BRANCH   1   2
ATOM      2  O   UNL A   1      33.076  29.689  24.631  1.00  0.00    -0.376 OA
BRANCH   2   3
ATOM      3  C   UNL A   1      31.942  29.738  25.506  1.00  0.00     0.202 C 
BRANCH   3   4
ATOM      4  C   UNL A   1      32.092  30.659  26.727  1.00  0.00     0.261 C 
BRANCH   4   5
ATOM      5  O   UNL A   1      33.123  30.247  27.635  1.00  0.00    -0.460 OA
BRANCH   5   6
ATOM      6  C   UNL A   1      34.238  30.914  28.021  1.00  0.00     0.338 C 
ATOM      7  O   UNL A   1      34.165  32.138  28.124  1.00  0.00    -0.246 OA
BRANCH   6   8
ATOM      8  C   UNL A   1      35.566  30.274  28.307  1.00  0.00     0.060 A 
ATOM      9  C   UNL A   1      36.020  29.831  29.552  1.00  0.00     0.016 A 
ATOM     10  C   UNL A   1      36.417  30.073  27.203  1.00  0.00     0.016 A 
ATOM     11  C   UNL A   1      37.282  29.270  29.721  1.00  0.00     0.010 A 
ATOM     12  C   UNL A   1      37.685  29.502  27.358  1.00  0.00     0.010 A 
ATOM     13  C   UNL A   1      38.133  29.131  28.632  1.00  0.00    -0.014 A 
BRANCH  13  14
ATOM     14  C   UNL A   1      39.557  28.842  28.879  1.00  0.00     0.031 A 
ATOM     15  C   UNL A   1      40.392  29.953  29.437  1.00  0.00     0.074 A 
ATOM     16  C   UNL A   1      40.073  27.612  28.727  1.00  0.00     0.049 A 
ATOM     17  N   UNL A   1      41.680  30.006  29.631  1.00  0.00    -0.248 NA
ATOM     18  C   UNL A   1      39.662  31.156  29.873  1.00  0.00     0.031 C 
ATOM     19  C   UNL A   1      39.313  26.408  28.412  1.00  0.00     0.029 A 
ATOM     20  N   UNL A   1      41.370  27.175  28.803  1.00  0.00    -0.354 N 
ATOM     21  C   UNL A   1      41.914  31.241  30.217  1.00  0.00     0.074 A 
ATOM     22  C   UNL A   1      40.645  31.925  30.310  1.00  0.00     0.031 C 
ATOM     23  C   UNL A   1      40.166  25.385  28.230  1.00  0.00     0.029 A 
ATOM     24  C   UNL A   1      41.523  25.878  28.374  1.00  0.00     0.049 A 
ATOM     25  H   UNL A   1      42.113  27.732  29.129  1.00  0.00     0.167 HD
ATOM     26  C   UNL A   1      43.090  31.748  30.649  1.00  0.00     0.037 A 
ATOM     27  C   UNL A   1      42.641  25.200  28.063  1.00  0.00     0.037 A 
ATOM     28  C   UNL A   1      44.338  31.048  30.514  1.00  0.00     0.049 A 
ATOM     29  C   UNL A   1      43.957  25.871  28.289  1.00  0.00     0.074 A 
ATOM     30  C   UNL A   1      45.605  31.456  30.882  1.00  0.00     0.029 A 
ATOM     31  N   UNL A   1      44.468  29.791  29.937  1.00  0.00    -0.354 N 
ATOM     32  N   UNL A   1      44.193  27.065  28.774  1.00  0.00    -0.248 NA
ATOM     33  C   UNL A   1      45.156  25.097  27.954  1.00  0.00     0.031 C 
ATOM     34  C   UNL A   1      46.510  30.474  30.464  1.00  0.00     0.029 A 
ATOM     35  C   UNL A   1      45.801  29.424  29.898  1.00  0.00     0.049 A 
ATOM     36  H   UNL A   1      43.722  29.242  29.605  1.00  0.00     0.167 HD
ATOM     37  C   UNL A   1      45.570  27.172  28.856  1.00  0.00     0.074 A 
ATOM     38  C   UNL A   1      46.115  25.933  28.331  1.00  0.00     0.031 C 
ATOM     39  C   UNL A   1      46.310  28.186  29.362  1.00  0.00     0.037 A 
BRANCH  26  40
ATOM     40  C   UNL A   1      43.059  33.136  31.213  1.00  0.00     0.057 A 
ATOM     41  C   UNL A   1      43.267  34.274  30.420  1.00  0.00     0.134 A 
ATOM     42  C   UNL A   1      42.900  33.331  32.590  1.00  0.00     0.134 A 
ATOM     43  F   UNL A   1      43.459  34.156  29.097  1.00  0.00    -0.206 F 
ATOM     44  C   UNL A   1      43.363  35.549  30.984  1.00  0.00     0.040 A 
ATOM     45  C   UNL A   1      42.964  34.602  33.161  1.00  0.00     0.040 A 
ATOM     46  F   UNL A   1      42.705  32.285  33.408  1.00  0.00    -0.206 F 
ATOM     47  C   UNL A   1      43.210  35.714  32.359  1.00  0.00     0.006 A 
ENDBRANCH  26  40
BRANCH  27  48
ATOM     48  C   UNL A   1      42.559  23.879  27.401  1.00  0.00     0.057 A 
ATOM     49  C   UNL A   1      42.644  23.726  26.016  1.00  0.00     0.134 A 
ATOM     50  C   UNL A   1      42.385  22.724  28.171  1.00  0.00     0.134 A 
ATOM     51  F   UNL A   1      42.773  24.800  25.224  1.00  0.00    -0.206 F 
ATOM     52  C   UNL A   1      42.582  22.464  25.419  1.00  0.00     0.040 A 
ATOM     53  C   UNL A   1      42.324  21.456  27.589  1.00  0.00     0.040 A 
ATOM     54  F   UNL A   1      42.277  22.813  29.505  1.00  0.00    -0.206 F 
ATOM     55  C   UNL A   1      42.432  21.323  26.209  1.00  0.00     0.006 A 
ENDBRANCH  27  48
BRANCH  39  56
ATOM     56  C   UNL A   1      47.786  27.964  29.440  1.00  0.00     0.057 A 
ATOM     57  C   UNL A   1      48.658  28.383  28.431  1.00  0.00     0.134 A 
ATOM     58  C   UNL A   1      48.338  27.367  30.581  1.00  0.00     0.134 A 
ATOM     59  F   UNL A   1      48.182  28.936  27.305  1.00  0.00    -0.206 F 
ATOM     60  C   UNL A   1      50.037  28.212  28.554  1.00  0.00     0.040 A 
ATOM     61  C   UNL A   1      49.714  27.218  30.727  1.00  0.00     0.040 A 
ATOM     62  F   UNL A   1      47.547  26.945  31.579  1.00  0.00    -0.206 F 
ATOM     63  C   UNL A   1      50.567  27.639  29.710  1.00  0.00     0.006 A 
ENDBRANCH  39  56
ENDBRANCH  13  14
ENDBRANCH   6   8
ENDBRANCH   5   6
ENDBRANCH   4   5
ENDBRANCH   3   4
ENDBRANCH   2   3
ENDBRANCH   1   2
BRANCH   1  64
ATOM     64  C   UNL A   1      32.526  27.291  24.744  1.00  0.00     0.188 C 
BRANCH  64  65
ATOM     65  O   UNL A   1      32.493  26.005  24.128  1.00  0.00    -0.376 OA
BRANCH  65  66
ATOM     66  C   UNL A   1      31.230  25.367  23.986  1.00  0.00     0.202 C 
BRANCH  66  67
ATOM     67  C   UNL A   1      30.622  24.675  25.216  1.00  0.00     0.261 C 
BRANCH  67  68
ATOM     68  O   UNL A   1      31.099  23.345  25.464  1.00  0.00    -0.459 OA
BRANCH  68  69
ATOM     69  C   UNL A   1      32.063  23.257  26.420  1.00  0.00     0.365 C 
ATOM     70  O   UNL A   1      31.858  23.372  27.630  1.00  0.00    -0.245 OA
BRANCH  69  71
ATOM     71  C   UNL A   1      33.457  22.969  25.871  1.00  0.00     0.304 C 
ATOM     72  C   UNL A   1      33.352  22.091  24.623  1.00  0.00     0.153 C 
ATOM     73  N   UNL A   1      34.298  24.181  25.620  1.00  0.00    -0.319 N 
ATOM     74  S   UNL A   1      34.284  22.955  23.340  1.00  0.00    -0.087 SA
ATOM     75  C   UNL A   1      35.269  23.858  24.567  1.00  0.00     0.277 C 
ATOM     76  H   UNL A   1      34.790  24.442  26.474  1.00  0.00     0.348 HD
ATOM     77  H   UNL A   1      33.711  24.964  25.330  1.00  0.00     0.348 HD
BRANCH  75  78
ATOM     78  C   UNL A   1      36.510  23.067  24.955  1.00  0.00     0.059 A 
ATOM     79  C   UNL A   1      36.627  21.728  24.516  1.00  0.00     0.053 A 
ATOM     80  C   UNL A   1      37.550  23.552  25.756  1.00  0.00     0.133 A 
ATOM     81  C   UNL A   1      37.703  20.933  24.912  1.00  0.00     0.123 A 
ATOM     82  C   UNL A   1      38.607  22.746  26.173  1.00  0.00     0.043 A 
ATOM     83  F   UNL A   1      37.604  24.830  26.149  1.00  0.00    -0.206 F 
ATOM     84  F   UNL A   1      37.776  19.663  24.493  1.00  0.00    -0.207 F 
ATOM     85  C   UNL A   1      38.689  21.426  25.750  1.00  0.00     0.042 A 
ENDBRANCH  75  78
ENDBRANCH  69  71
ENDBRANCH  68  69
ENDBRANCH  67  68
ENDBRANCH  66  67
ENDBRANCH  65  66
ENDBRANCH  64  65
ENDBRANCH   1  64
TORSDOF 18
ENDMDL
MODEL 2
REMARK VINA RESULT:      -9.5      8.733     14.422
REMARK SMILES O=C(OCCOCCOCCOC(=O)[C@H]1CS[C@H](c2cc(F)ccc2F)[NH2+]1)c1ccc(-c2c3nc(c(-c4c(F)cccc4F)c4ccc([nH]4)c(-c4c(F)cccc4F)c4nc(c(-c5c(F)cccc5F)c5ccc2[nH]5)C=C4)C=C3)cc1
REMARK SMILES IDX 7 1 6 2 5 3 4 4 3 5 2 6 1 7 28 8 29 9 81 10 30 11 80 12
REMARK SMILES IDX 31 13 32 14 33 15 74 16 34 17 79 18 73 19 75 20 35 21 78 22
REMARK SMILES IDX 72 23 71 24 36 26 62 27 45 28 61 29 46 30 49 31 60 32 76 33
REMARK SMILES IDX 47 34 48 35 59 37 77 38 50 39 37 40 38 41 43 42 39 43 40 44
REMARK SMILES IDX 42 45 44 46 41 47 63 48 64 49 69 50 65 51 66 52 68 53 70 54
REMARK SMILES IDX 67 55 51 56 52 57 57 58 53 59 54 60 56 61 58 62 55 63 8 64
REMARK SMILES IDX 9 65 10 66 11 67 12 68 13 69 14 70 15 71 16 72 27 73 17 74
REMARK SMILES IDX 18 75 19 78 20 79 25 80 21 81 24 82 26 83 22 84 23 85
REMARK H PARENT 75 25 49 36 27 76 27 77
REMARK Flexibility Score: inf
ROOT
ATOM      1  C   UNL A   1      41.975  41.021  25.834  1.00  0.00     0.188 C 
ENDROOT
BRANCH   1   2
ATOM      2  O   UNL A   1      42.048  39.662  26.291  1.00  0.00    -0.376 OA
BRANCH   2   3
ATOM      3  C   UNL A   1      43.388  39.215  26.534  1.00  0.00     0.202 C 
BRANCH   3   4
ATOM      4  C   UNL A   1      43.698  38.821  27.986  1.00  0.00     0.261 C 
BRANCH   4   5
ATOM      5  O   UNL A   1      44.999  38.244  28.160  1.00  0.00    -0.460 OA
BRANCH   5   6
ATOM      6  C   UNL A   1      45.379  37.218  28.960  1.00  0.00     0.338 C 
ATOM      7  O   UNL A   1      46.026  37.490  29.971  1.00  0.00    -0.246 OA
BRANCH   6   8
ATOM      8  C   UNL A   1      45.092  35.768  28.692  1.00  0.00     0.060 A 
ATOM      9  C   UNL A   1      44.286  35.259  27.671  1.00  0.00     0.016 A 
ATOM     10  C   UNL A   1      45.729  34.836  29.535  1.00  0.00     0.016 A 
ATOM     11  C   UNL A   1      44.061  33.894  27.518  1.00  0.00     0.010 A 
ATOM     12  C   UNL A   1      45.517  33.461  29.386  1.00  0.00     0.010 A 
ATOM     13  C   UNL A   1      44.650  32.991  28.393  1.00  0.00    -0.014 A 
BRANCH  13  14
ATOM     14  C   UNL A   1      44.151  31.603  28.418  1.00  0.00     0.031 A 
ATOM     15  C   UNL A   1      44.952  30.576  27.680  1.00  0.00     0.074 A 
ATOM     16  C   UNL A   1      43.094  31.239  29.162  1.00  0.00     0.049 A 
ATOM     17  N   UNL A   1      44.679  29.325  27.442  1.00  0.00    -0.248 NA
ATOM     18  C   UNL A   1      46.263  31.019  27.174  1.00  0.00     0.031 C 
ATOM     19  C   UNL A   1      42.378  32.098  30.097  1.00  0.00     0.029 A 
ATOM     20  N   UNL A   1      42.427  30.043  29.234  1.00  0.00    -0.354 N 
ATOM     21  C   UNL A   1      45.784  28.828  26.767  1.00  0.00     0.074 A 
ATOM     22  C   UNL A   1      46.714  29.919  26.595  1.00  0.00     0.031 C 
ATOM     23  C   UNL A   1      41.315  31.434  30.580  1.00  0.00     0.029 A 
ATOM     24  C   UNL A   1      41.260  30.125  29.954  1.00  0.00     0.049 A 
ATOM     25  H   UNL A   1      42.750  29.214  28.813  1.00  0.00     0.167 HD
ATOM     26  C   UNL A   1      46.000  27.562  26.342  1.00  0.00     0.037 A 
ATOM     27  C   UNL A   1      40.233  29.262  30.032  1.00  0.00     0.037 A 
ATOM     28  C   UNL A   1      45.037  26.509  26.507  1.00  0.00     0.049 A 
ATOM     29  C   UNL A   1      40.360  27.951  29.326  1.00  0.00     0.074 A 
ATOM     30  C   UNL A   1      45.115  25.191  26.100  1.00  0.00     0.029 A 
ATOM     31  N   UNL A   1      43.799  26.672  27.117  1.00  0.00    -0.354 N 
ATOM     32  N   UNL A   1      41.369  27.496  28.624  1.00  0.00    -0.248 NA
ATOM     33  C   UNL A   1      39.228  27.027  29.445  1.00  0.00     0.031 C 
ATOM     34  C   UNL A   1      43.895  24.576  26.402  1.00  0.00     0.029 A 
ATOM     35  C   UNL A   1      43.084  25.490  27.059  1.00  0.00     0.049 A 
ATOM     36  H   UNL A   1      43.479  27.506  27.530  1.00  0.00     0.167 HD
ATOM     37  C   UNL A   1      41.020  26.208  28.258  1.00  0.00     0.074 A 
ATOM     38  C   UNL A   1      39.688  25.972  28.784  1.00  0.00     0.031 C 
ATOM     39  C   UNL A   1      41.756  25.292  27.586  1.00  0.00     0.037 A 
BRANCH  26  40
ATOM     40  C   UNL A   1      47.277  27.311  25.600  1.00  0.00     0.057 A 
ATOM     41  C   UNL A   1      47.418  27.588  24.232  1.00  0.00     0.134 A 
ATOM     42  C   UNL A   1      48.358  26.702  26.248  1.00  0.00     0.134 A 
ATOM     43  F   UNL A   1      46.409  28.142  23.541  1.00  0.00    -0.206 F 
ATOM     44  C   UNL A   1      48.570  27.227  23.529  1.00  0.00     0.040 A 
ATOM     45  C   UNL A   1      49.525  26.363  25.563  1.00  0.00     0.040 A 
ATOM     46  F   UNL A   1      48.287  26.402  27.554  1.00  0.00    -0.206 F 
ATOM     47  C   UNL A   1      49.628  26.613  24.196  1.00  0.00     0.006 A 
ENDBRANCH  26  40
BRANCH  27  48
ATOM     48  C   UNL A   1      38.969  29.656  30.692  1.00  0.00     0.057 A 
ATOM     49  C   UNL A   1      37.974  30.384  30.037  1.00  0.00     0.134 A 
ATOM     50  C   UNL A   1      38.740  29.300  32.026  1.00  0.00     0.134 A 
ATOM     51  F   UNL A   1      38.153  30.785  28.772  1.00  0.00    -0.206 F 
ATOM     52  C   UNL A   1      36.781  30.726  30.681  1.00  0.00     0.040 A 
ATOM     53  C   UNL A   1      37.552  29.632  32.681  1.00  0.00     0.040 A 
ATOM     54  F   UNL A   1      39.669  28.618  32.711  1.00  0.00    -0.206 F 
ATOM     55  C   UNL A   1      36.564  30.340  32.004  1.00  0.00     0.006 A 
ENDBRANCH  27  48
BRANCH  39  56
ATOM     56  C   UNL A   1      41.164  23.927  27.449  1.00  0.00     0.057 A 
ATOM     57  C   UNL A   1      40.145  23.643  26.536  1.00  0.00     0.134 A 
ATOM     58  C   UNL A   1      41.674  22.870  28.216  1.00  0.00     0.134 A 
ATOM     59  F   UNL A   1      39.602  24.621  25.796  1.00  0.00    -0.206 F 
ATOM     60  C   UNL A   1      39.648  22.348  26.390  1.00  0.00     0.040 A 
ATOM     61  C   UNL A   1      41.205  21.569  28.058  1.00  0.00     0.040 A 
ATOM     62  F   UNL A   1      42.651  23.086  29.109  1.00  0.00    -0.206 F 
ATOM     63  C   UNL A   1      40.188  21.306  27.144  1.00  0.00     0.006 A 
ENDBRANCH  39  56
ENDBRANCH  13  14
ENDBRANCH   6   8
ENDBRANCH   5   6
ENDBRANCH   4   5
ENDBRANCH   3   4
ENDBRANCH   2   3
ENDBRANCH   1   2
BRANCH   1  64
ATOM     64  C   UNL A   1      43.324  41.546  25.350  1.00  0.00     0.188 C 
BRANCH  64  65
ATOM     65  O   UNL A   1      43.350  42.834  24.736  1.00  0.00    -0.376 OA
BRANCH  65  66
ATOM     66  C   UNL A   1      43.058  42.915  23.347  1.00  0.00     0.202 C 
BRANCH  66  67
ATOM     67  C   UNL A   1      41.625  43.271  22.923  1.00  0.00     0.261 C 
BRANCH  67  68
ATOM     68  O   UNL A   1      41.310  42.994  21.551  1.00  0.00    -0.459 OA
BRANCH  68  69
ATOM     69  C   UNL A   1      42.373  42.621  20.788  1.00  0.00     0.365 C 
ATOM     70  O   UNL A   1      42.960  41.542  20.890  1.00  0.00    -0.245 OA
BRANCH  69  71
ATOM     71  C   UNL A   1      42.782  43.656  19.745  1.00  0.00     0.304 C 
ATOM     72  C   UNL A   1      44.112  44.299  20.144  1.00  0.00     0.153 C 
ATOM     73  N   UNL A   1      42.817  43.152  18.336  1.00  0.00    -0.319 N 
ATOM     74  S   UNL A   1      45.189  44.120  18.707  1.00  0.00    -0.087 SA
ATOM     75  C   UNL A   1      43.777  43.967  17.580  1.00  0.00     0.277 C 
ATOM     76  H   UNL A   1      41.891  43.233  17.918  1.00  0.00     0.348 HD
ATOM     77  H   UNL A   1      43.098  42.171  18.320  1.00  0.00     0.348 HD
BRANCH  75  78
ATOM     78  C   UNL A   1      43.325  45.334  17.087  1.00  0.00     0.059 A 
ATOM     79  C   UNL A   1      44.240  46.410  17.136  1.00  0.00     0.053 A 
ATOM     80  C   UNL A   1      42.041  45.630  16.616  1.00  0.00     0.133 A 
ATOM     81  C   UNL A   1      43.853  47.701  16.775  1.00  0.00     0.123 A 
ATOM     82  C   UNL A   1      41.649  46.926  16.285  1.00  0.00     0.043 A 
ATOM     83  F   UNL A   1      41.118  44.679  16.429  1.00  0.00    -0.206 F 
ATOM     84  F   UNL A   1      44.739  48.702  16.848  1.00  0.00    -0.207 F 
ATOM     85  C   UNL A   1      42.558  47.972  16.363  1.00  0.00     0.042 A 
ENDBRANCH  75  78
ENDBRANCH  69  71
ENDBRANCH  68  69
ENDBRANCH  67  68
ENDBRANCH  66  67
ENDBRANCH  65  66
ENDBRANCH  64  65
ENDBRANCH   1  64
TORSDOF 18
ENDMDL
MODEL 3
REMARK VINA RESULT:      -9.4      2.839      7.743
REMARK SMILES O=C(OCCOCCOCCOC(=O)[C@H]1CS[C@H](c2cc(F)ccc2F)[NH2+]1)c1ccc(-c2c3nc(c(-c4c(F)cccc4F)c4ccc([nH]4)c(-c4c(F)cccc4F)c4nc(c(-c5c(F)cccc5F)c5ccc2[nH]5)C=C4)C=C3)cc1
REMARK SMILES IDX 7 1 6 2 5 3 4 4 3 5 2 6 1 7 28 8 29 9 81 10 30 11 80 12
REMARK SMILES IDX 31 13 32 14 33 15 74 16 34 17 79 18 73 19 75 20 35 21 78 22
REMARK SMILES IDX 72 23 71 24 36 26 62 27 45 28 61 29 46 30 49 31 60 32 76 33
REMARK SMILES IDX 47 34 48 35 59 37 77 38 50 39 37 40 38 41 43 42 39 43 40 44
REMARK SMILES IDX 42 45 44 46 41 47 63 48 64 49 69 50 65 51 66 52 68 53 70 54
REMARK SMILES IDX 67 55 51 56 52 57 57 58 53 59 54 60 56 61 58 62 55 63 8 64
REMARK SMILES IDX 9 65 10 66 11 67 12 68 13 69 14 70 15 71 16 72 27 73 17 74
REMARK SMILES IDX 18 75 19 78 20 79 25 80 21 81 24 82 26 83 22 84 23 85
REMARK H PARENT 75 25 49 36 27 76 27 77
REMARK Flexibility Score: inf
ROOT
ATOM      1  C   UNL A   1      36.564  22.585  24.095  1.00  0.00     0.188 C 
ENDROOT
BRANCH   1   2
ATOM      2  O   UNL A   1      37.710  22.645  24.958  1.00  0.00    -0.376 OA
BRANCH   2   3
ATOM      3  C   UNL A   1      37.886  21.464  25.751  1.00  0.00     0.202 C 
BRANCH   3   4
ATOM      4  C   UNL A   1      38.434  20.242  24.998  1.00  0.00     0.261 C 
BRANCH   4   5
ATOM      5  O   UNL A   1      39.315  19.429  25.785  1.00  0.00    -0.460 OA
BRANCH   5   6
ATOM      6  C   UNL A   1      40.633  19.607  26.051  1.00  0.00     0.338 C 
ATOM      7  O   UNL A   1      41.381  18.642  25.905  1.00  0.00    -0.246 OA
BRANCH   6   8
ATOM      8  C   UNL A   1      41.245  20.889  26.539  1.00  0.00     0.060 A 
ATOM      9  C   UNL A   1      41.201  21.383  27.845  1.00  0.00     0.016 A 
ATOM     10  C   UNL A   1      41.960  21.644  25.589  1.00  0.00     0.016 A 
ATOM     11  C   UNL A   1      41.781  22.599  28.195  1.00  0.00     0.010 A 
ATOM     12  C   UNL A   1      42.555  22.864  25.930  1.00  0.00     0.010 A 
ATOM     13  C   UNL A   1      42.433  23.360  27.234  1.00  0.00    -0.014 A 
BRANCH  13  14
ATOM     14  C   UNL A   1      42.751  24.766  27.542  1.00  0.00     0.031 A 
ATOM     15  C   UNL A   1      44.199  25.141  27.605  1.00  0.00     0.074 A 
ATOM     16  C   UNL A   1      41.798  25.706  27.646  1.00  0.00     0.049 A 
ATOM     17  N   UNL A   1      44.750  26.264  27.971  1.00  0.00    -0.248 NA
ATOM     18  C   UNL A   1      45.154  24.114  27.155  1.00  0.00     0.031 C 
ATOM     19  C   UNL A   1      40.378  25.508  27.378  1.00  0.00     0.029 A 
ATOM     20  N   UNL A   1      41.883  27.021  28.024  1.00  0.00    -0.354 N 
ATOM     21  C   UNL A   1      46.113  26.083  27.788  1.00  0.00     0.074 A 
ATOM     22  C   UNL A   1      46.312  24.731  27.320  1.00  0.00     0.031 C 
ATOM     23  C   UNL A   1      39.711  26.632  27.688  1.00  0.00     0.029 A 
ATOM     24  C   UNL A   1      40.653  27.604  28.214  1.00  0.00     0.049 A 
ATOM     25  H   UNL A   1      42.735  27.498  28.148  1.00  0.00     0.167 HD
ATOM     26  C   UNL A   1      47.105  26.979  27.985  1.00  0.00     0.037 A 
ATOM     27  C   UNL A   1      40.331  28.761  28.815  1.00  0.00     0.037 A 
ATOM     28  C   UNL A   1      46.870  28.308  28.479  1.00  0.00     0.049 A 
ATOM     29  C   UNL A   1      41.442  29.642  29.286  1.00  0.00     0.074 A 
ATOM     30  C   UNL A   1      47.785  29.306  28.752  1.00  0.00     0.029 A 
ATOM     31  N   UNL A   1      45.615  28.810  28.799  1.00  0.00    -0.354 N 
ATOM     32  N   UNL A   1      42.735  29.452  29.185  1.00  0.00    -0.248 NA
ATOM     33  C   UNL A   1      41.056  30.905  29.923  1.00  0.00     0.031 C 
ATOM     34  C   UNL A   1      47.088  30.388  29.301  1.00  0.00     0.029 A 
ATOM     35  C   UNL A   1      45.733  30.090  29.308  1.00  0.00     0.049 A 
ATOM     36  H   UNL A   1      44.766  28.326  28.681  1.00  0.00     0.167 HD
ATOM     37  C   UNL A   1      43.323  30.594  29.698  1.00  0.00     0.074 A 
ATOM     38  C   UNL A   1      42.243  31.455  30.145  1.00  0.00     0.031 C 
ATOM     39  C   UNL A   1      44.637  30.917  29.751  1.00  0.00     0.037 A 
BRANCH  26  40
ATOM     40  C   UNL A   1      48.504  26.499  27.744  1.00  0.00     0.057 A 
ATOM     41  C   UNL A   1      49.137  26.622  26.498  1.00  0.00     0.134 A 
ATOM     42  C   UNL A   1      49.199  25.825  28.755  1.00  0.00     0.134 A 
ATOM     43  F   UNL A   1      48.514  27.227  25.474  1.00  0.00    -0.206 F 
ATOM     44  C   UNL A   1      50.390  26.053  26.256  1.00  0.00     0.040 A 
ATOM     45  C   UNL A   1      50.464  25.279  28.534  1.00  0.00     0.040 A 
ATOM     46  F   UNL A   1      48.650  25.665  29.969  1.00  0.00    -0.206 F 
ATOM     47  C   UNL A   1      51.056  25.380  27.277  1.00  0.00     0.006 A 
ENDBRANCH  26  40
BRANCH  27  48
ATOM     48  C   UNL A   1      38.918  29.087  29.111  1.00  0.00     0.057 A 
ATOM     49  C   UNL A   1      38.051  29.612  28.151  1.00  0.00     0.134 A 
ATOM     50  C   UNL A   1      38.409  28.874  30.397  1.00  0.00     0.134 A 
ATOM     51  F   UNL A   1      38.492  29.872  26.913  1.00  0.00    -0.206 F 
ATOM     52  C   UNL A   1      36.715  29.892  28.454  1.00  0.00     0.040 A 
ATOM     53  C   UNL A   1      37.076  29.146  30.713  1.00  0.00     0.040 A 
ATOM     54  F   UNL A   1      39.201  28.390  31.364  1.00  0.00    -0.206 F 
ATOM     55  C   UNL A   1      36.222  29.649  29.736  1.00  0.00     0.006 A 
ENDBRANCH  27  48
BRANCH  39  56
ATOM     56  C   UNL A   1      44.971  32.288  30.243  1.00  0.00     0.057 A 
ATOM     57  C   UNL A   1      45.378  32.531  31.557  1.00  0.00     0.134 A 
ATOM     58  C   UNL A   1      44.935  33.370  29.354  1.00  0.00     0.134 A 
ATOM     59  F   UNL A   1      45.405  31.536  32.457  1.00  0.00    -0.206 F 
ATOM     60  C   UNL A   1      45.735  33.812  31.976  1.00  0.00     0.040 A 
ATOM     61  C   UNL A   1      45.319  34.648  29.753  1.00  0.00     0.040 A 
ATOM     62  F   UNL A   1      44.551  33.195  28.081  1.00  0.00    -0.206 F 
ATOM     63  C   UNL A   1      45.718  34.871  31.068  1.00  0.00     0.006 A 
ENDBRANCH  39  56
ENDBRANCH  13  14
ENDBRANCH   6   8
ENDBRANCH   5   6
ENDBRANCH   4   5
ENDBRANCH   3   4
ENDBRANCH   2   3
ENDBRANCH   1   2
BRANCH   1  64
ATOM     64  C   UNL A   1      35.269  22.327  24.863  1.00  0.00     0.188 C 
BRANCH  64  65
ATOM     65  O   UNL A   1      34.611  21.080  24.645  1.00  0.00    -0.376 OA
BRANCH  65  66
ATOM     66  C   UNL A   1      33.233  21.107  24.296  1.00  0.00     0.202 C 
BRANCH  66  67
ATOM     67  C   UNL A   1      32.194  20.969  25.419  1.00  0.00     0.261 C 
BRANCH  67  68
ATOM     68  O   UNL A   1      31.411  22.144  25.673  1.00  0.00    -0.459 OA
BRANCH  68  69
ATOM     69  C   UNL A   1      31.940  22.990  26.599  1.00  0.00     0.365 C 
ATOM     70  O   UNL A   1      32.419  22.632  27.676  1.00  0.00    -0.245 OA
BRANCH  69  71
ATOM     71  C   UNL A   1      31.921  24.457  26.182  1.00  0.00     0.304 C 
ATOM     72  C   UNL A   1      31.935  24.563  24.655  1.00  0.00     0.153 C 
ATOM     73  N   UNL A   1      30.813  25.267  26.778  1.00  0.00    -0.319 N 
ATOM     74  S   UNL A   1      30.534  25.619  24.228  1.00  0.00    -0.087 SA
ATOM     75  C   UNL A   1      30.522  26.386  25.872  1.00  0.00     0.277 C 
ATOM     76  H   UNL A   1      31.100  25.626  27.688  1.00  0.00     0.348 HD
ATOM     77  H   UNL A   1      29.982  24.689  26.903  1.00  0.00     0.348 HD
BRANCH  75  78
ATOM     78  C   UNL A   1      31.441  27.598  25.912  1.00  0.00     0.059 A 
ATOM     79  C   UNL A   1      32.026  28.047  24.706  1.00  0.00     0.053 A 
ATOM     80  C   UNL A   1      31.793  28.298  27.072  1.00  0.00     0.133 A 
ATOM     81  C   UNL A   1      32.940  29.101  24.698  1.00  0.00     0.123 A 
ATOM     82  C   UNL A   1      32.729  29.331  27.065  1.00  0.00     0.043 A 
ATOM     83  F   UNL A   1      31.230  28.033  28.257  1.00  0.00    -0.206 F 
ATOM     84  F   UNL A   1      33.489  29.492  23.541  1.00  0.00    -0.207 F 
ATOM     85  C   UNL A   1      33.309  29.740  25.872  1.00  0.00     0.042 A 
ENDBRANCH  75  78
ENDBRANCH  69  71
ENDBRANCH  68  69
ENDBRANCH  67  68
ENDBRANCH  66  67
ENDBRANCH  65  66
ENDBRANCH  64  65
ENDBRANCH   1  64
TORSDOF 18
ENDMDL
