MODEL 1
REMARK VINA RESULT:     -11.2      0.000      0.000
REMARK SMILES Cc1ccccc1-n1c(S[C@@H](C)C(=O)OCCOCCOCCOC(=O)c2ccc(-c3c4nc(c(-c5c(F)cccc5F)c5ccc([nH]5)c(-c5c(F)cccc5F)c5nc(c(-c6c(F)cccc6F)c6ccc3[nH]6)C=C5)C=C4)cc2)nc2sc3c(c2c1=O)C[C@@H](C(C)C)OC3
REMARK SMILES IDX 19 1 18 2 17 3 16 4 15 5 13 6 14 7 11 8 12 9 10 10 9 11 8 12
REMARK SMILES IDX 87 13 81 14 86 15 88 16 82 17 85 18 83 19 84 20 89 21 95 22
REMARK SMILES IDX 90 23 94 24 7 25 1 26 2 27 3 28 4 29 6 30 5 31 91 32 92 33
REMARK SMILES IDX 93 34 20 35 21 36 22 37 23 38 24 39 25 40 26 41 27 42 28 43
REMARK SMILES IDX 80 44 29 45 79 46 30 47 31 48 32 49 73 50 33 51 78 52 72 53
REMARK SMILES IDX 74 54 34 55 77 56 71 57 70 58 35 60 61 61 44 62 60 63 45 64
REMARK SMILES IDX 48 65 59 66 75 67 46 68 47 69 58 71 76 72 49 73 36 74 37 75
REMARK SMILES IDX 42 76 38 77 39 78 41 79 43 80 40 81 62 82 63 83 68 84 64 85
REMARK SMILES IDX 65 86 67 87 69 88 66 89 50 90 51 91 56 92 52 93 53 94 55 95
REMARK SMILES IDX 57 96 54 97
REMARK H PARENT 74 59 48 70
REMARK Flexibility Score: inf
ROOT
ATOM      1  C   UNL A   1      35.587  32.608  28.522  1.00  0.00     0.188 C 
ENDROOT
BRANCH   1   2
ATOM      2  O   UNL A   1      34.785  32.219  27.420  1.00  0.00    -0.376 OA
BRANCH   2   3
ATOM      3  C   UNL A   1      33.514  31.640  27.673  1.00  0.00     0.202 C 
BRANCH   3   4
ATOM      4  C   UNL A   1      33.152  30.364  26.911  1.00  0.00     0.261 C 
BRANCH   4   5
ATOM      5  O   UNL A   1      31.720  30.261  26.772  1.00  0.00    -0.462 OA
BRANCH   5   6
ATOM      6  C   UNL A   1      30.999  30.401  25.480  1.00  0.00     0.319 C 
ATOM      7  O   UNL A   1      30.800  31.651  25.418  1.00  0.00    -0.251 OA
BRANCH   6   8
ATOM      8  C   UNL A   1      30.492  28.716  24.189  1.00  0.00     0.161 C 
ATOM      9  C   UNL A   1      29.814  28.555  22.689  1.00  0.00     0.032 C 
BRANCH   8  10
ATOM     10  S   UNL A   1      30.376  26.484  24.713  1.00  0.00    -0.072 SA
BRANCH  10  11
ATOM     11  C   UNL A   1      31.685  25.139  24.566  1.00  0.00     0.177 A 
ATOM     12  N   UNL A   1      32.977  25.390  24.141  1.00  0.00    -0.255 N 
ATOM     13  C   UNL A   1      34.085  24.587  24.296  1.00  0.00     0.267 A 
ATOM     14  N   UNL A   1      31.418  23.913  25.009  1.00  0.00    -0.212 NA
ATOM     15  C   UNL A   1      33.739  23.252  24.452  1.00  0.00     0.081 A 
ATOM     16  O   UNL A   1      35.259  24.953  24.295  1.00  0.00    -0.268 OA
ATOM     17  C   UNL A   1      32.470  22.986  24.905  1.00  0.00     0.132 A 
ATOM     18  C   UNL A   1      34.620  22.196  24.208  1.00  0.00    -0.014 A 
ATOM     19  S   UNL A   1      32.545  21.343  25.467  1.00  0.00    -0.117 S 
ATOM     20  C   UNL A   1      34.193  21.131  24.944  1.00  0.00     0.037 A 
ATOM     21  C   UNL A   1      35.966  22.231  23.546  1.00  0.00     0.070 C 
ATOM     22  C   UNL A   1      35.126  20.022  25.323  1.00  0.00     0.207 C 
ATOM     23  C   UNL A   1      36.965  21.439  24.388  1.00  0.00     0.125 C 
ATOM     24  O   UNL A   1      36.401  20.119  24.616  1.00  0.00    -0.372 OA
BRANCH  12  25
ATOM     25  C   UNL A   1      33.407  26.508  23.558  1.00  0.00     0.054 A 
ATOM     26  C   UNL A   1      32.430  25.690  21.314  1.00  0.00     0.046 C 
ATOM     27  C   UNL A   1      33.126  26.636  22.233  1.00  0.00    -0.027 A 
ATOM     28  C   UNL A   1      33.716  27.737  21.790  1.00  0.00     0.005 A 
ATOM     29  C   UNL A   1      34.183  28.746  22.649  1.00  0.00     0.000 A 
ATOM     30  C   UNL A   1      33.791  27.528  24.486  1.00  0.00     0.027 A 
ATOM     31  C   UNL A   1      34.093  28.746  24.011  1.00  0.00     0.002 A 
ENDBRANCH  12  25
BRANCH  23  32
ATOM     32  C   UNL A   1      37.460  22.143  25.685  1.00  0.00     0.012 C 
ATOM     33  C   UNL A   1      38.880  21.678  26.021  1.00  0.00     0.010 C 
ATOM     34  C   UNL A   1      37.479  23.679  25.611  1.00  0.00     0.010 C 
ENDBRANCH  23  32
ENDBRANCH  10  11
ENDBRANCH   8  10
ENDBRANCH   6   8
ENDBRANCH   5   6
ENDBRANCH   4   5
ENDBRANCH   3   4
ENDBRANCH   2   3
ENDBRANCH   1   2
BRANCH   1  35
ATOM     35  C   UNL A   1      35.324  31.990  29.890  1.00  0.00     0.188 C 
BRANCH  35  36
ATOM     36  O   UNL A   1      34.610  32.724  30.875  1.00  0.00    -0.376 OA
BRANCH  36  37
ATOM     37  C   UNL A   1      35.287  32.727  32.161  1.00  0.00     0.202 C 
BRANCH  37  38
ATOM     38  C   UNL A   1      36.093  31.451  32.530  1.00  0.00     0.261 C 
BRANCH  38  39
ATOM     39  O   UNL A   1      37.441  31.874  32.880  1.00  0.00    -0.460 OA
BRANCH  39  40
ATOM     40  C   UNL A   1      37.937  31.698  34.132  1.00  0.00     0.338 C 
ATOM     41  O   UNL A   1      37.366  31.867  35.190  1.00  0.00    -0.246 OA
BRANCH  40  42
ATOM     42  C   UNL A   1      39.411  31.459  33.973  1.00  0.00     0.060 A 
ATOM     43  C   UNL A   1      40.634  32.778  33.770  1.00  0.00     0.016 A 
ATOM     44  C   UNL A   1      40.016  29.744  33.954  1.00  0.00     0.016 A 
ATOM     45  C   UNL A   1      42.412  32.375  33.562  1.00  0.00     0.010 A 
ATOM     46  C   UNL A   1      41.808  29.442  33.626  1.00  0.00     0.010 A 
ATOM     47  C   UNL A   1      43.061  30.695  33.410  1.00  0.00    -0.014 A 
BRANCH  47  48
ATOM     48  C   UNL A   1      44.773  30.340  33.144  1.00  0.00     0.031 A 
ATOM     49  C   UNL A   1      45.475  29.111  33.992  1.00  0.00     0.074 A 
ATOM     50  C   UNL A   1      45.679  30.298  32.041  1.00  0.00     0.049 A 
ATOM     51  N   UNL A   1      45.707  28.006  33.352  1.00  0.00    -0.248 NA
ATOM     52  C   UNL A   1      45.936  28.877  35.383  1.00  0.00     0.031 C 
ATOM     53  C   UNL A   1      47.152  30.331  32.316  1.00  0.00     0.029 A 
ATOM     54  N   UNL A   1      45.720  29.832  30.669  1.00  0.00    -0.354 N 
ATOM     55  C   UNL A   1      45.900  26.882  34.131  1.00  0.00     0.074 A 
ATOM     56  C   UNL A   1      46.167  27.518  35.423  1.00  0.00     0.031 C 
ATOM     57  C   UNL A   1      47.866  29.682  31.372  1.00  0.00     0.029 A 
ATOM     58  C   UNL A   1      46.987  29.158  30.323  1.00  0.00     0.049 A 
ATOM     59  H   UNL A   1      44.978  29.951  30.033  1.00  0.00     0.167 HD
ATOM     60  C   UNL A   1      45.575  25.623  33.581  1.00  0.00     0.037 A 
ATOM     61  C   UNL A   1      47.383  28.097  29.490  1.00  0.00     0.037 A 
ATOM     62  C   UNL A   1      45.063  25.722  32.165  1.00  0.00     0.049 A 
ATOM     63  C   UNL A   1      46.406  27.354  28.581  1.00  0.00     0.074 A 
ATOM     64  C   UNL A   1      45.270  26.794  31.344  1.00  0.00     0.029 A 
ATOM     65  N   UNL A   1      44.236  24.962  31.301  1.00  0.00    -0.354 N 
ATOM     66  N   UNL A   1      45.943  26.163  28.850  1.00  0.00    -0.248 NA
ATOM     67  C   UNL A   1      45.982  27.770  27.244  1.00  0.00     0.031 C 
ATOM     68  C   UNL A   1      44.067  27.090  30.724  1.00  0.00     0.029 A 
ATOM     69  C   UNL A   1      43.807  25.827  30.249  1.00  0.00     0.049 A 
ATOM     70  H   UNL A   1      43.999  24.012  31.408  1.00  0.00     0.167 HD
ATOM     71  C   UNL A   1      44.777  26.011  28.129  1.00  0.00     0.074 A 
ATOM     72  C   UNL A   1      45.060  26.824  26.961  1.00  0.00     0.031 C 
ATOM     73  C   UNL A   1      43.604  25.656  28.789  1.00  0.00     0.037 A 
BRANCH  60  74
ATOM     74  C   UNL A   1      45.496  24.302  34.276  1.00  0.00     0.057 A 
ATOM     75  C   UNL A   1      46.689  23.573  34.434  1.00  0.00     0.134 A 
ATOM     76  C   UNL A   1      44.316  23.622  34.609  1.00  0.00     0.134 A 
ATOM     77  F   UNL A   1      47.867  24.127  34.114  1.00  0.00    -0.206 F 
ATOM     78  C   UNL A   1      46.715  22.251  34.892  1.00  0.00     0.040 A 
ATOM     79  C   UNL A   1      44.328  22.290  35.065  1.00  0.00     0.040 A 
ATOM     80  F   UNL A   1      43.119  24.205  34.475  1.00  0.00    -0.206 F 
ATOM     81  C   UNL A   1      45.530  21.601  35.207  1.00  0.00     0.006 A 
ENDBRANCH  60  74
BRANCH  61  82
ATOM     82  C   UNL A   1      48.620  27.181  29.769  1.00  0.00     0.057 A 
ATOM     83  C   UNL A   1      49.557  26.822  28.798  1.00  0.00     0.134 A 
ATOM     84  C   UNL A   1      48.792  26.484  31.001  1.00  0.00     0.134 A 
ATOM     85  F   UNL A   1      49.500  27.364  27.575  1.00  0.00    -0.206 F 
ATOM     86  C   UNL A   1      50.571  25.856  29.037  1.00  0.00     0.040 A 
ATOM     87  C   UNL A   1      49.773  25.513  31.245  1.00  0.00     0.040 A 
ATOM     88  F   UNL A   1      47.993  26.675  32.047  1.00  0.00    -0.206 F 
ATOM     89  C   UNL A   1      50.677  25.192  30.259  1.00  0.00     0.006 A 
ENDBRANCH  61  82
BRANCH  73  90
ATOM     90  C   UNL A   1      42.176  25.856  28.274  1.00  0.00     0.057 A 
ATOM     91  C   UNL A   1      41.558  27.073  27.938  1.00  0.00     0.134 A 
ATOM     92  C   UNL A   1      41.307  24.740  28.219  1.00  0.00     0.134 A 
ATOM     93  F   UNL A   1      42.203  28.239  27.956  1.00  0.00    -0.206 F 
ATOM     94  C   UNL A   1      40.202  27.179  27.592  1.00  0.00     0.040 A 
ATOM     95  C   UNL A   1      39.947  24.833  27.887  1.00  0.00     0.040 A 
ATOM     96  F   UNL A   1      41.745  23.504  28.512  1.00  0.00    -0.206 F 
ATOM     97  C   UNL A   1      39.388  26.060  27.564  1.00  0.00     0.006 A 
ENDBRANCH  73  90
ENDBRANCH  47  48
ENDBRANCH  40  42
ENDBRANCH  39  40
ENDBRANCH  38  39
ENDBRANCH  37  38
ENDBRANCH  36  37
ENDBRANCH  35  36
ENDBRANCH   1  35
TORSDOF 21
ENDMDL
MODEL 2
REMARK VINA RESULT:     -10.4      1.826      2.941
REMARK SMILES Cc1ccccc1-n1c(S[C@@H](C)C(=O)OCCOCCOCCOC(=O)c2ccc(-c3c4nc(c(-c5c(F)cccc5F)c5ccc([nH]5)c(-c5c(F)cccc5F)c5nc(c(-c6c(F)cccc6F)c6ccc3[nH]6)C=C5)C=C4)cc2)nc2sc3c(c2c1=O)C[C@@H](C(C)C)OC3
REMARK SMILES IDX 19 1 18 2 17 3 16 4 15 5 13 6 14 7 11 8 12 9 10 10 9 11 8 12
REMARK SMILES IDX 87 13 81 14 86 15 88 16 82 17 85 18 83 19 84 20 89 21 95 22
REMARK SMILES IDX 90 23 94 24 7 25 1 26 2 27 3 28 4 29 6 30 5 31 91 32 92 33
REMARK SMILES IDX 93 34 20 35 21 36 22 37 23 38 24 39 25 40 26 41 27 42 28 43
REMARK SMILES IDX 80 44 29 45 79 46 30 47 31 48 32 49 73 50 33 51 78 52 72 53
REMARK SMILES IDX 74 54 34 55 77 56 71 57 70 58 35 60 61 61 44 62 60 63 45 64
REMARK SMILES IDX 48 65 59 66 75 67 46 68 47 69 58 71 76 72 49 73 36 74 37 75
REMARK SMILES IDX 42 76 38 77 39 78 41 79 43 80 40 81 62 82 63 83 68 84 64 85
REMARK SMILES IDX 65 86 67 87 69 88 66 89 50 90 51 91 56 92 52 93 53 94 55 95
REMARK SMILES IDX 57 96 54 97
REMARK H PARENT 74 59 48 70
REMARK Flexibility Score: inf
ROOT
ATOM      1  C   UNL A   1      34.063  29.177  27.414  1.00  0.00     0.188 C 
ENDROOT
BRANCH   1   2
ATOM      2  O   UNL A   1      32.693  28.819  27.382  1.00  0.00    -0.376 OA
BRANCH   2   3
ATOM      3  C   UNL A   1      31.722  29.847  27.259  1.00  0.00     0.202 C 
BRANCH   3   4
ATOM      4  C   UNL A   1      31.711  30.661  25.964  1.00  0.00     0.261 C 
BRANCH   4   5
ATOM      5  O   UNL A   1      30.767  30.093  25.033  1.00  0.00    -0.462 OA
BRANCH   5   6
ATOM      6  C   UNL A   1      31.155  29.376  23.790  1.00  0.00     0.319 C 
ATOM      7  O   UNL A   1      30.090  29.431  23.105  1.00  0.00    -0.251 OA
BRANCH   6   8
ATOM      8  C   UNL A   1      33.128  28.501  23.464  1.00  0.00     0.161 C 
ATOM      9  C   UNL A   1      34.157  28.387  22.175  1.00  0.00     0.032 C 
BRANCH   8  10
ATOM     10  S   UNL A   1      34.289  27.033  24.792  1.00  0.00    -0.072 SA
BRANCH  10  11
ATOM     11  C   UNL A   1      34.175  25.158  24.907  1.00  0.00     0.177 A 
ATOM     12  N   UNL A   1      32.992  24.464  24.728  1.00  0.00    -0.255 N 
ATOM     13  C   UNL A   1      32.835  23.121  24.469  1.00  0.00     0.267 A 
ATOM     14  N   UNL A   1      35.288  24.440  25.034  1.00  0.00    -0.212 NA
ATOM     15  C   UNL A   1      33.921  22.378  24.910  1.00  0.00     0.081 A 
ATOM     16  O   UNL A   1      31.869  22.590  23.924  1.00  0.00    -0.268 OA
ATOM     17  C   UNL A   1      35.112  23.045  25.062  1.00  0.00     0.132 A 
ATOM     18  C   UNL A   1      33.861  21.006  25.166  1.00  0.00    -0.014 A 
ATOM     19  S   UNL A   1      36.312  21.788  25.104  1.00  0.00    -0.117 S 
ATOM     20  C   UNL A   1      35.126  20.513  25.040  1.00  0.00     0.037 A 
ATOM     21  C   UNL A   1      32.655  20.119  25.246  1.00  0.00     0.070 C 
ATOM     22  C   UNL A   1      35.373  19.063  24.752  1.00  0.00     0.207 C 
ATOM     23  C   UNL A   1      32.900  18.854  24.425  1.00  0.00     0.125 C 
ATOM     24  O   UNL A   1      34.152  18.270  24.877  1.00  0.00    -0.372 OA
BRANCH  12  25
ATOM     25  C   UNL A   1      31.770  24.992  24.701  1.00  0.00     0.054 A 
ATOM     26  C   UNL A   1      31.958  25.246  22.140  1.00  0.00     0.046 C 
ATOM     27  C   UNL A   1      31.297  25.338  23.473  1.00  0.00    -0.027 A 
ATOM     28  C   UNL A   1      30.129  25.945  23.636  1.00  0.00     0.005 A 
ATOM     29  C   UNL A   1      29.387  25.857  24.825  1.00  0.00     0.000 A 
ATOM     30  C   UNL A   1      31.032  24.797  25.912  1.00  0.00     0.027 A 
ATOM     31  C   UNL A   1      29.740  25.152  25.941  1.00  0.00     0.002 A 
ENDBRANCH  12  25
BRANCH  23  32
ATOM     32  C   UNL A   1      32.809  19.026  22.881  1.00  0.00     0.012 C 
ATOM     33  C   UNL A   1      32.339  17.717  22.238  1.00  0.00     0.010 C 
ATOM     34  C   UNL A   1      31.855  20.139  22.417  1.00  0.00     0.010 C 
ENDBRANCH  23  32
ENDBRANCH  10  11
ENDBRANCH   8  10
ENDBRANCH   6   8
ENDBRANCH   5   6
ENDBRANCH   4   5
ENDBRANCH   3   4
ENDBRANCH   2   3
ENDBRANCH   1   2
BRANCH   1  35
ATOM     35  C   UNL A   1      34.450  30.614  27.744  1.00  0.00     0.188 C 
BRANCH  35  36
ATOM     36  O   UNL A   1      35.807  31.023  27.651  1.00  0.00    -0.376 OA
BRANCH  36  37
ATOM     37  C   UNL A   1      36.474  31.027  28.942  1.00  0.00     0.202 C 
BRANCH  37  38
ATOM     38  C   UNL A   1      35.936  32.025  30.005  1.00  0.00     0.261 C 
BRANCH  38  39
ATOM     39  O   UNL A   1      36.817  31.946  31.160  1.00  0.00    -0.460 OA
BRANCH  39  40
ATOM     40  C   UNL A   1      37.095  30.760  31.760  1.00  0.00     0.338 C 
ATOM     41  O   UNL A   1      36.339  30.050  32.391  1.00  0.00    -0.246 OA
BRANCH  40  42
ATOM     42  C   UNL A   1      38.585  30.588  31.685  1.00  0.00     0.060 A 
ATOM     43  C   UNL A   1      39.772  31.659  32.533  1.00  0.00     0.016 A 
ATOM     44  C   UNL A   1      39.253  29.240  30.664  1.00  0.00     0.016 A 
ATOM     45  C   UNL A   1      41.576  31.373  32.358  1.00  0.00     0.010 A 
ATOM     46  C   UNL A   1      41.084  29.106  30.463  1.00  0.00     0.010 A 
ATOM     47  C   UNL A   1      42.305  30.133  31.262  1.00  0.00    -0.014 A 
BRANCH  47  48
ATOM     48  C   UNL A   1      44.050  29.924  31.064  1.00  0.00     0.031 A 
ATOM     49  C   UNL A   1      44.885  29.065  32.199  1.00  0.00     0.074 A 
ATOM     50  C   UNL A   1      44.966  29.691  29.995  1.00  0.00     0.049 A 
ATOM     51  N   UNL A   1      45.255  27.863  31.878  1.00  0.00    -0.248 NA
ATOM     52  C   UNL A   1      45.356  29.274  33.590  1.00  0.00     0.031 C 
ATOM     53  C   UNL A   1      46.422  29.971  30.217  1.00  0.00     0.029 A 
ATOM     54  N   UNL A   1      45.078  28.877  28.801  1.00  0.00    -0.354 N 
ATOM     55  C   UNL A   1      45.573  27.025  32.928  1.00  0.00     0.074 A 
ATOM     56  C   UNL A   1      45.748  28.015  33.992  1.00  0.00     0.031 C 
ATOM     57  C   UNL A   1      47.219  29.179  29.469  1.00  0.00     0.029 A 
ATOM     58  C   UNL A   1      46.420  28.290  28.622  1.00  0.00     0.049 A 
ATOM     59  H   UNL A   1      44.334  28.730  28.173  1.00  0.00     0.167 HD
ATOM     60  C   UNL A   1      45.407  25.634  32.748  1.00  0.00     0.037 A 
ATOM     61  C   UNL A   1      46.950  27.097  28.100  1.00  0.00     0.037 A 
ATOM     62  C   UNL A   1      44.902  25.282  31.371  1.00  0.00     0.049 A 
ATOM     63  C   UNL A   1      46.079  26.024  27.449  1.00  0.00     0.074 A 
ATOM     64  C   UNL A   1      44.988  26.107  30.285  1.00  0.00     0.029 A 
ATOM     65  N   UNL A   1      44.181  24.223  30.765  1.00  0.00    -0.354 N 
ATOM     66  N   UNL A   1      45.758  24.905  28.041  1.00  0.00    -0.248 NA
ATOM     67  C   UNL A   1      45.622  26.006  26.059  1.00  0.00     0.031 C 
ATOM     68  C   UNL A   1      43.765  26.078  29.635  1.00  0.00     0.029 A 
ATOM     69  C   UNL A   1      43.664  24.712  29.526  1.00  0.00     0.049 A 
ATOM     70  H   UNL A   1      44.059  23.317  31.130  1.00  0.00     0.167 HD
ATOM     71  C   UNL A   1      44.627  24.425  27.415  1.00  0.00     0.074 A 
ATOM     72  C   UNL A   1      44.823  24.918  26.064  1.00  0.00     0.031 C 
ATOM     73  C   UNL A   1      43.498  24.127  28.173  1.00  0.00     0.037 A 
BRANCH  60  74
ATOM     74  C   UNL A   1      45.480  24.553  33.778  1.00  0.00     0.057 A 
ATOM     75  C   UNL A   1      44.300  24.228  34.470  1.00  0.00     0.134 A 
ATOM     76  C   UNL A   1      46.656  23.966  34.266  1.00  0.00     0.134 A 
ATOM     77  F   UNL A   1      43.128  24.762  34.097  1.00  0.00    -0.206 F 
ATOM     78  C   UNL A   1      44.281  23.376  35.580  1.00  0.00     0.040 A 
ATOM     79  C   UNL A   1      46.653  23.112  35.386  1.00  0.00     0.040 A 
ATOM     80  F   UNL A   1      47.843  24.222  33.704  1.00  0.00    -0.206 F 
ATOM     81  C   UNL A   1      45.462  22.815  36.045  1.00  0.00     0.006 A 
ENDBRANCH  60  74
BRANCH  61  82
ATOM     82  C   UNL A   1      48.284  26.444  28.589  1.00  0.00     0.057 A 
ATOM     83  C   UNL A   1      49.217  25.849  27.738  1.00  0.00     0.134 A 
ATOM     84  C   UNL A   1      48.572  26.239  29.970  1.00  0.00     0.134 A 
ATOM     85  F   UNL A   1      49.059  25.921  26.410  1.00  0.00    -0.206 F 
ATOM     86  C   UNL A   1      50.334  25.116  28.223  1.00  0.00     0.040 A 
ATOM     87  C   UNL A   1      49.657  25.502  30.465  1.00  0.00     0.040 A 
ATOM     88  F   UNL A   1      47.797  26.716  30.940  1.00  0.00    -0.206 F 
ATOM     89  C   UNL A   1      50.553  24.933  29.588  1.00  0.00     0.006 A 
ENDBRANCH  61  82
BRANCH  73  90
ATOM     90  C   UNL A   1      42.062  24.009  27.655  1.00  0.00     0.057 A 
ATOM     91  C   UNL A   1      41.103  25.034  27.570  1.00  0.00     0.134 A 
ATOM     92  C   UNL A   1      41.561  22.729  27.318  1.00  0.00     0.134 A 
ATOM     93  F   UNL A   1      41.375  26.303  27.872  1.00  0.00    -0.206 F 
ATOM     94  C   UNL A   1      39.768  24.811  27.199  1.00  0.00     0.040 A 
ATOM     95  C   UNL A   1      40.226  22.490  26.958  1.00  0.00     0.040 A 
ATOM     96  F   UNL A   1      42.351  21.644  27.349  1.00  0.00    -0.206 F 
ATOM     97  C   UNL A   1      39.321  23.538  26.890  1.00  0.00     0.006 A 
ENDBRANCH  73  90
ENDBRANCH  47  48
ENDBRANCH  40  42
ENDBRANCH  39  40
ENDBRANCH  38  39
ENDBRANCH  37  38
ENDBRANCH  36  37
ENDBRANCH  35  36
ENDBRANCH   1  35
TORSDOF 21
ENDMDL
MODEL 3
REMARK VINA RESULT:     -10.1      3.130      8.832
REMARK SMILES Cc1ccccc1-n1c(S[C@@H](C)C(=O)OCCOCCOCCOC(=O)c2ccc(-c3c4nc(c(-c5c(F)cccc5F)c5ccc([nH]5)c(-c5c(F)cccc5F)c5nc(c(-c6c(F)cccc6F)c6ccc3[nH]6)C=C5)C=C4)cc2)nc2sc3c(c2c1=O)C[C@@H](C(C)C)OC3
REMARK SMILES IDX 19 1 18 2 17 3 16 4 15 5 13 6 14 7 11 8 12 9 10 10 9 11 8 12
REMARK SMILES IDX 87 13 81 14 86 15 88 16 82 17 85 18 83 19 84 20 89 21 95 22
REMARK SMILES IDX 90 23 94 24 7 25 1 26 2 27 3 28 4 29 6 30 5 31 91 32 92 33
REMARK SMILES IDX 93 34 20 35 21 36 22 37 23 38 24 39 25 40 26 41 27 42 28 43
REMARK SMILES IDX 80 44 29 45 79 46 30 47 31 48 32 49 73 50 33 51 78 52 72 53
REMARK SMILES IDX 74 54 34 55 77 56 71 57 70 58 35 60 61 61 44 62 60 63 45 64
REMARK SMILES IDX 48 65 59 66 75 67 46 68 47 69 58 71 76 72 49 73 36 74 37 75
REMARK SMILES IDX 42 76 38 77 39 78 41 79 43 80 40 81 62 82 63 83 68 84 64 85
REMARK SMILES IDX 65 86 67 87 69 88 66 89 50 90 51 91 56 92 52 93 53 94 55 95
REMARK SMILES IDX 57 96 54 97
REMARK H PARENT 74 59 48 70
REMARK Flexibility Score: inf
ROOT
ATOM      1  C   UNL A   1      34.646  23.189  23.766  1.00  0.00     0.188 C 
ENDROOT
BRANCH   1   2
ATOM      2  O   UNL A   1      34.032  22.973  25.025  1.00  0.00    -0.376 OA
BRANCH   2   3
ATOM      3  C   UNL A   1      33.821  24.086  25.880  1.00  0.00     0.202 C 
BRANCH   3   4
ATOM      4  C   UNL A   1      34.435  25.425  25.466  1.00  0.00     0.261 C 
BRANCH   4   5
ATOM      5  O   UNL A   1      33.651  26.512  25.997  1.00  0.00    -0.462 OA
BRANCH   5   6
ATOM      6  C   UNL A   1      33.718  27.908  25.491  1.00  0.00     0.319 C 
ATOM      7  O   UNL A   1      34.029  27.737  24.274  1.00  0.00    -0.251 OA
BRANCH   6   8
ATOM      8  C   UNL A   1      33.360  29.665  26.736  1.00  0.00     0.161 C 
ATOM      9  C   UNL A   1      32.065  30.654  27.017  1.00  0.00     0.032 C 
BRANCH   8  10
ATOM     10  S   UNL A   1      34.884  31.002  27.813  1.00  0.00    -0.072 SA
BRANCH  10  11
ATOM     11  C   UNL A   1      36.651  30.633  28.346  1.00  0.00     0.177 A 
ATOM     12  N   UNL A   1      37.194  31.103  29.528  1.00  0.00    -0.255 N 
ATOM     13  C   UNL A   1      38.324  30.652  30.173  1.00  0.00     0.267 A 
ATOM     14  N   UNL A   1      37.384  29.778  27.637  1.00  0.00    -0.212 NA
ATOM     15  C   UNL A   1      39.203  30.026  29.300  1.00  0.00     0.081 A 
ATOM     16  O   UNL A   1      38.578  30.771  31.370  1.00  0.00    -0.268 OA
ATOM     17  C   UNL A   1      38.674  29.525  28.136  1.00  0.00     0.132 A 
ATOM     18  C   UNL A   1      40.564  29.859  29.569  1.00  0.00    -0.014 A 
ATOM     19  S   UNL A   1      39.872  28.402  27.563  1.00  0.00    -0.117 S 
ATOM     20  C   UNL A   1      40.994  28.791  28.838  1.00  0.00     0.037 A 
ATOM     21  C   UNL A   1      41.386  30.470  30.664  1.00  0.00     0.070 C 
ATOM     22  C   UNL A   1      42.220  28.022  29.229  1.00  0.00     0.207 C 
ATOM     23  C   UNL A   1      42.231  29.385  31.328  1.00  0.00     0.125 C 
ATOM     24  O   UNL A   1      42.972  28.700  30.282  1.00  0.00    -0.372 OA
BRANCH  12  25
ATOM     25  C   UNL A   1      36.672  32.046  30.310  1.00  0.00     0.054 A 
ATOM     26  C   UNL A   1      38.055  33.825  29.052  1.00  0.00     0.046 C 
ATOM     27  C   UNL A   1      37.078  33.321  30.059  1.00  0.00    -0.027 A 
ATOM     28  C   UNL A   1      36.557  34.111  30.988  1.00  0.00     0.005 A 
ATOM     29  C   UNL A   1      35.481  33.719  31.801  1.00  0.00     0.000 A 
ATOM     30  C   UNL A   1      35.527  31.610  31.050  1.00  0.00     0.027 A 
ATOM     31  C   UNL A   1      34.832  32.518  31.750  1.00  0.00     0.002 A 
ENDBRANCH  12  25
BRANCH  23  32
ATOM     32  C   UNL A   1      41.466  28.426  32.286  1.00  0.00     0.012 C 
ATOM     33  C   UNL A   1      42.453  27.478  32.973  1.00  0.00     0.010 C 
ATOM     34  C   UNL A   1      40.659  29.134  33.387  1.00  0.00     0.010 C 
ENDBRANCH  23  32
ENDBRANCH  10  11
ENDBRANCH   8  10
ENDBRANCH   6   8
ENDBRANCH   5   6
ENDBRANCH   4   5
ENDBRANCH   3   4
ENDBRANCH   2   3
ENDBRANCH   1   2
BRANCH   1  35
ATOM     35  C   UNL A   1      36.108  22.804  23.574  1.00  0.00     0.188 C 
BRANCH  35  36
ATOM     36  O   UNL A   1      37.079  23.204  24.530  1.00  0.00    -0.376 OA
BRANCH  36  37
ATOM     37  C   UNL A   1      37.673  22.073  25.222  1.00  0.00     0.202 C 
BRANCH  37  38
ATOM     38  C   UNL A   1      38.818  22.389  26.224  1.00  0.00     0.261 C 
BRANCH  38  39
ATOM     39  O   UNL A   1      40.010  21.700  25.753  1.00  0.00    -0.460 OA
BRANCH  39  40
ATOM     40  C   UNL A   1      40.870  21.099  26.616  1.00  0.00     0.338 C 
ATOM     41  O   UNL A   1      40.632  20.206  27.403  1.00  0.00    -0.246 OA
BRANCH  40  42
ATOM     42  C   UNL A   1      42.139  21.900  26.574  1.00  0.00     0.060 A 
ATOM     43  C   UNL A   1      42.397  23.438  27.492  1.00  0.00     0.016 A 
ATOM     44  C   UNL A   1      43.500  21.314  25.520  1.00  0.00     0.016 A 
ATOM     45  C   UNL A   1      43.983  24.351  27.353  1.00  0.00     0.010 A 
ATOM     46  C   UNL A   1      45.012  22.364  25.362  1.00  0.00     0.010 A 
ATOM     47  C   UNL A   1      45.324  23.891  26.231  1.00  0.00    -0.014 A 
BRANCH  47  48
ATOM     48  C   UNL A   1      46.815  24.829  26.071  1.00  0.00     0.031 A 
ATOM     49  C   UNL A   1      46.712  26.452  25.796  1.00  0.00     0.074 A 
ATOM     50  C   UNL A   1      48.106  24.860  26.678  1.00  0.00     0.049 A 
ATOM     51  N   UNL A   1      46.968  27.240  26.796  1.00  0.00    -0.248 NA
ATOM     52  C   UNL A   1      46.368  27.341  24.659  1.00  0.00     0.031 C 
ATOM     53  C   UNL A   1      49.221  25.567  25.966  1.00  0.00     0.029 A 
ATOM     54  N   UNL A   1      48.705  24.776  27.995  1.00  0.00    -0.354 N 
ATOM     55  C   UNL A   1      46.495  28.533  26.687  1.00  0.00     0.074 A 
ATOM     56  C   UNL A   1      46.233  28.582  25.247  1.00  0.00     0.031 C 
ATOM     57  C   UNL A   1      50.136  26.075  26.819  1.00  0.00     0.029 A 
ATOM     58  C   UNL A   1      49.787  25.756  28.206  1.00  0.00     0.049 A 
ATOM     59  H   UNL A   1      48.418  24.130  28.681  1.00  0.00     0.167 HD
ATOM     60  C   UNL A   1      46.202  29.240  27.873  1.00  0.00     0.037 A 
ATOM     61  C   UNL A   1      50.286  26.509  29.283  1.00  0.00     0.037 A 
ATOM     62  C   UNL A   1      46.484  28.432  29.116  1.00  0.00     0.049 A 
ATOM     63  C   UNL A   1      49.738  26.380  30.702  1.00  0.00     0.074 A 
ATOM     64  C   UNL A   1      47.304  27.340  29.155  1.00  0.00     0.029 A 
ATOM     65  N   UNL A   1      46.036  28.398  30.460  1.00  0.00    -0.354 N 
ATOM     66  N   UNL A   1      48.945  27.263  31.247  1.00  0.00    -0.248 NA
ATOM     67  C   UNL A   1      50.128  25.375  31.693  1.00  0.00     0.031 C 
ATOM     68  C   UNL A   1      46.660  26.355  29.887  1.00  0.00     0.029 A 
ATOM     69  C   UNL A   1      46.386  27.121  30.995  1.00  0.00     0.049 A 
ATOM     70  H   UNL A   1      45.568  29.121  30.937  1.00  0.00     0.167 HD
ATOM     71  C   UNL A   1      48.280  26.630  32.276  1.00  0.00     0.074 A 
ATOM     72  C   UNL A   1      49.273  25.660  32.699  1.00  0.00     0.031 C 
ATOM     73  C   UNL A   1      46.888  26.654  32.311  1.00  0.00     0.037 A 
BRANCH  60  74
ATOM     74  C   UNL A   1      45.495  30.549  28.020  1.00  0.00     0.057 A 
ATOM     75  C   UNL A   1      46.142  31.564  28.747  1.00  0.00     0.134 A 
ATOM     76  C   UNL A   1      44.159  30.800  27.676  1.00  0.00     0.134 A 
ATOM     77  F   UNL A   1      47.411  31.405  29.147  1.00  0.00    -0.206 F 
ATOM     78  C   UNL A   1      45.508  32.756  29.114  1.00  0.00     0.040 A 
ATOM     79  C   UNL A   1      43.507  31.992  28.045  1.00  0.00     0.040 A 
ATOM     80  F   UNL A   1      43.434  29.896  27.007  1.00  0.00    -0.206 F 
ATOM     81  C   UNL A   1      44.182  32.975  28.765  1.00  0.00     0.006 A 
ENDBRANCH  60  74
BRANCH  61  82
ATOM     82  C   UNL A   1      50.983  27.901  29.129  1.00  0.00     0.057 A 
ATOM     83  C   UNL A   1      50.498  28.929  28.319  1.00  0.00     0.134 A 
ATOM     84  C   UNL A   1      52.277  28.171  29.664  1.00  0.00     0.134 A 
ATOM     85  F   UNL A   1      49.311  28.804  27.712  1.00  0.00    -0.206 F 
ATOM     86  C   UNL A   1      51.238  30.116  28.067  1.00  0.00     0.040 A 
ATOM     87  C   UNL A   1      53.028  29.326  29.408  1.00  0.00     0.040 A 
ATOM     88  F   UNL A   1      52.918  27.310  30.451  1.00  0.00    -0.206 F 
ATOM     89  C   UNL A   1      52.509  30.314  28.603  1.00  0.00     0.006 A 
ENDBRANCH  61  82
BRANCH  73  90
ATOM     90  C   UNL A   1      45.983  25.688  33.081  1.00  0.00     0.057 A 
ATOM     91  C   UNL A   1      45.028  24.808  32.542  1.00  0.00     0.134 A 
ATOM     92  C   UNL A   1      45.988  25.730  34.496  1.00  0.00     0.134 A 
ATOM     93  F   UNL A   1      44.852  24.649  31.231  1.00  0.00    -0.206 F 
ATOM     94  C   UNL A   1      44.151  24.046  33.330  1.00  0.00     0.040 A 
ATOM     95  C   UNL A   1      45.108  24.984  35.295  1.00  0.00     0.040 A 
ATOM     96  F   UNL A   1      46.842  26.522  35.164  1.00  0.00    -0.206 F 
ATOM     97  C   UNL A   1      44.186  24.130  34.711  1.00  0.00     0.006 A 
ENDBRANCH  73  90
ENDBRANCH  47  48
ENDBRANCH  40  42
ENDBRANCH  39  40
ENDBRANCH  38  39
ENDBRANCH  37  38
ENDBRANCH  36  37
ENDBRANCH  35  36
ENDBRANCH   1  35
TORSDOF 21
ENDMDL
