MODEL 1
REMARK VINA RESULT:     -11.2      0.000      0.000
REMARK SMILES CC1CCN(C(=O)Nc2nccnc2C(=O)OCCOCCOCCOC(=O)c2ccc(-c3c4nc(c(-c5c(F)cccc5F)c5ccc([nH]5)c(-c5c(F)cccc5F)c5nc(c(-c6c(F)cccc6F)c6ccc3[nH]6)C=C5)C=C4)cc2)CC1
REMARK SMILES IDX 22 1 21 2 20 3 19 4 18 5 17 6 15 7 16 8 14 9 9 10 10 11
REMARK SMILES IDX 11 12 13 13 12 14 8 15 1 16 2 17 3 18 84 19 4 20 83 21 5 22
REMARK SMILES IDX 6 23 7 24 23 26 24 27 25 28 26 29 27 30 28 31 29 32 30 33
REMARK SMILES IDX 82 34 31 35 81 36 32 37 33 38 34 39 75 40 35 41 80 42 74 43
REMARK SMILES IDX 76 44 36 45 79 46 73 47 72 48 37 50 63 51 46 52 62 53 47 54
REMARK SMILES IDX 50 55 61 56 77 57 48 58 49 59 60 61 78 62 51 63 38 64 39 65
REMARK SMILES IDX 44 66 40 67 41 68 43 69 45 70 42 71 64 72 65 73 70 74 66 75
REMARK SMILES IDX 67 76 69 77 71 78 68 79 52 80 53 81 58 82 54 83 55 84 57 85
REMARK SMILES IDX 59 86 56 87
REMARK H PARENT 8 25 76 49 50 60
REMARK Flexibility Score: inf
ROOT
ATOM      1  C   UNL A   1      41.904  20.928  26.130  1.00  0.00     0.188 C 
ENDROOT
BRANCH   1   2
ATOM      2  C   UNL A   1      40.559  21.129  26.855  1.00  0.00     0.188 C 
BRANCH   2   3
ATOM      3  O   UNL A   1      39.643  22.120  26.409  1.00  0.00    -0.376 OA
BRANCH   3   4
ATOM      4  C   UNL A   1      38.485  21.739  25.676  1.00  0.00     0.202 C 
BRANCH   4   5
ATOM      5  C   UNL A   1      37.283  22.694  25.645  1.00  0.00     0.261 C 
BRANCH   5   6
ATOM      6  O   UNL A   1      36.102  22.187  26.299  1.00  0.00    -0.458 OA
BRANCH   6   7
ATOM      7  C   UNL A   1      34.927  22.480  25.682  1.00  0.00     0.360 C 
ATOM      8  O   UNL A   1      34.600  23.590  25.287  1.00  0.00    -0.244 OA
BRANCH   7   9
ATOM      9  C   UNL A   1      34.100  21.262  25.416  1.00  0.00     0.191 A 
ATOM     10  C   UNL A   1      32.736  21.112  25.724  1.00  0.00     0.167 A 
ATOM     11  N   UNL A   1      32.085  20.007  25.293  1.00  0.00    -0.235 NA
ATOM     12  C   UNL A   1      32.808  19.026  24.706  1.00  0.00     0.133 A 
ATOM     13  N   UNL A   1      34.830  20.253  24.836  1.00  0.00    -0.244 NA
ATOM     14  C   UNL A   1      34.164  19.133  24.513  1.00  0.00     0.132 A 
BRANCH  10  15
ATOM     15  N   UNL A   1      32.037  22.064  26.481  1.00  0.00    -0.290 N 
ATOM     16  C   UNL A   1      33.028  25.924  21.789  1.00  0.00     0.008 C 
ATOM     17  C   UNL A   1      31.920  25.267  22.611  1.00  0.00    -0.011 C 
ATOM     18  C   UNL A   1      31.768  25.975  23.972  1.00  0.00     0.025 C 
ATOM     19  C   UNL A   1      32.195  23.764  22.798  1.00  0.00     0.025 C 
ATOM     20  C   UNL A   1      30.838  25.224  24.929  1.00  0.00     0.121 C 
ATOM     21  C   UNL A   1      31.156  23.146  23.735  1.00  0.00     0.121 C 
ATOM     22  N   UNL A   1      31.228  23.815  25.029  1.00  0.00    -0.324 N 
ATOM     23  C   UNL A   1      31.541  23.303  26.259  1.00  0.00     0.323 C 
ATOM     24  O   UNL A   1      31.309  23.951  27.289  1.00  0.00    -0.248 OA
ATOM     25  H   UNL A   1      31.864  21.755  27.398  1.00  0.00     0.173 HD
ENDBRANCH  10  15
ENDBRANCH   7   9
ENDBRANCH   6   7
ENDBRANCH   5   6
ENDBRANCH   4   5
ENDBRANCH   3   4
ENDBRANCH   2   3
ENDBRANCH   1   2
BRANCH   1  26
ATOM     26  O   UNL A   1      43.000  21.593  26.725  1.00  0.00    -0.376 OA
BRANCH  26  27
ATOM     27  C   UNL A   1      44.187  21.653  25.943  1.00  0.00     0.202 C 
BRANCH  27  28
ATOM     28  C   UNL A   1      44.047  22.300  24.555  1.00  0.00     0.261 C 
BRANCH  28  29
ATOM     29  O   UNL A   1      43.531  23.645  24.543  1.00  0.00    -0.460 OA
BRANCH  29  30
ATOM     30  C   UNL A   1      44.325  24.613  25.044  1.00  0.00     0.338 C 
ATOM     31  O   UNL A   1      45.471  24.877  24.701  1.00  0.00    -0.246 OA
BRANCH  30  32
ATOM     32  C   UNL A   1      43.518  25.455  25.950  1.00  0.00     0.060 A 
ATOM     33  C   UNL A   1      43.947  26.762  26.216  1.00  0.00     0.016 A 
ATOM     34  C   UNL A   1      42.356  24.959  26.549  1.00  0.00     0.016 A 
ATOM     35  C   UNL A   1      43.239  27.561  27.117  1.00  0.00     0.010 A 
ATOM     36  C   UNL A   1      41.658  25.755  27.465  1.00  0.00     0.010 A 
ATOM     37  C   UNL A   1      42.118  27.045  27.782  1.00  0.00    -0.014 A 
BRANCH  37  38
ATOM     38  C   UNL A   1      41.570  27.778  28.953  1.00  0.00     0.031 A 
ATOM     39  C   UNL A   1      42.283  27.654  30.273  1.00  0.00     0.074 A 
ATOM     40  C   UNL A   1      40.498  28.581  28.845  1.00  0.00     0.049 A 
ATOM     41  N   UNL A   1      42.030  28.238  31.416  1.00  0.00    -0.248 NA
ATOM     42  C   UNL A   1      43.440  26.745  30.303  1.00  0.00     0.031 C 
ATOM     43  C   UNL A   1      39.733  28.816  27.623  1.00  0.00     0.029 A 
ATOM     44  N   UNL A   1      39.872  29.355  29.791  1.00  0.00    -0.354 N 
ATOM     45  C   UNL A   1      42.995  27.769  32.300  1.00  0.00     0.074 A 
ATOM     46  C   UNL A   1      43.813  26.825  31.571  1.00  0.00     0.031 C 
ATOM     47  C   UNL A   1      38.741  29.684  27.892  1.00  0.00     0.029 A 
ATOM     48  C   UNL A   1      38.789  30.050  29.307  1.00  0.00     0.049 A 
ATOM     49  H   UNL A   1      40.170  29.408  30.727  1.00  0.00     0.167 HD
ATOM     50  C   UNL A   1      43.192  28.102  33.598  1.00  0.00     0.037 A 
ATOM     51  C   UNL A   1      37.938  30.882  29.938  1.00  0.00     0.037 A 
ATOM     52  C   UNL A   1      42.375  29.031  34.332  1.00  0.00     0.049 A 
ATOM     53  C   UNL A   1      38.135  31.187  31.399  1.00  0.00     0.074 A 
ATOM     54  C   UNL A   1      42.506  29.445  35.646  1.00  0.00     0.029 A 
ATOM     55  N   UNL A   1      41.263  29.678  33.818  1.00  0.00    -0.354 N 
ATOM     56  N   UNL A   1      39.077  30.773  32.214  1.00  0.00    -0.248 NA
ATOM     57  C   UNL A   1      37.153  32.084  32.026  1.00  0.00     0.031 C 
ATOM     58  C   UNL A   1      41.443  30.306  35.941  1.00  0.00     0.029 A 
ATOM     59  C   UNL A   1      40.682  30.471  34.793  1.00  0.00     0.049 A 
ATOM     60  H   UNL A   1      40.933  29.587  32.894  1.00  0.00     0.167 HD
ATOM     61  C   UNL A   1      38.824  31.389  33.434  1.00  0.00     0.074 A 
ATOM     62  C   UNL A   1      37.643  32.207  33.252  1.00  0.00     0.031 C 
ATOM     63  C   UNL A   1      39.512  31.291  34.599  1.00  0.00     0.037 A 
BRANCH  50  64
ATOM     64  C   UNL A   1      44.325  27.419  34.309  1.00  0.00     0.057 A 
ATOM     65  C   UNL A   1      44.176  26.158  34.902  1.00  0.00     0.134 A 
ATOM     66  C   UNL A   1      45.576  28.037  34.413  1.00  0.00     0.134 A 
ATOM     67  F   UNL A   1      42.997  25.519  34.855  1.00  0.00    -0.206 F 
ATOM     68  C   UNL A   1      45.221  25.554  35.606  1.00  0.00     0.040 A 
ATOM     69  C   UNL A   1      46.636  27.431  35.090  1.00  0.00     0.040 A 
ATOM     70  F   UNL A   1      45.789  29.244  33.865  1.00  0.00    -0.206 F 
ATOM     71  C   UNL A   1      46.456  26.190  35.698  1.00  0.00     0.006 A 
ENDBRANCH  50  64
BRANCH  51  72
ATOM     72  C   UNL A   1      36.826  31.515  29.183  1.00  0.00     0.057 A 
ATOM     73  C   UNL A   1      36.900  32.851  28.775  1.00  0.00     0.134 A 
ATOM     74  C   UNL A   1      35.661  30.807  28.869  1.00  0.00     0.134 A 
ATOM     75  F   UNL A   1      37.980  33.590  29.070  1.00  0.00    -0.206 F 
ATOM     76  C   UNL A   1      35.849  33.466  28.091  1.00  0.00     0.040 A 
ATOM     77  C   UNL A   1      34.612  31.401  28.165  1.00  0.00     0.040 A 
ATOM     78  F   UNL A   1      35.528  29.524  29.238  1.00  0.00    -0.206 F 
ATOM     79  C   UNL A   1      34.703  32.737  27.778  1.00  0.00     0.006 A 
ENDBRANCH  51  72
BRANCH  63  80
ATOM     80  C   UNL A   1      39.040  32.130  35.753  1.00  0.00     0.057 A 
ATOM     81  C   UNL A   1      38.198  31.621  36.751  1.00  0.00     0.134 A 
ATOM     82  C   UNL A   1      39.458  33.462  35.880  1.00  0.00     0.134 A 
ATOM     83  F   UNL A   1      37.752  30.358  36.685  1.00  0.00    -0.206 F 
ATOM     84  C   UNL A   1      37.765  32.416  37.815  1.00  0.00     0.040 A 
ATOM     85  C   UNL A   1      39.055  34.256  36.954  1.00  0.00     0.040 A 
ATOM     86  F   UNL A   1      40.274  34.009  34.967  1.00  0.00    -0.206 F 
ATOM     87  C   UNL A   1      38.199  33.736  37.921  1.00  0.00     0.006 A 
ENDBRANCH  63  80
ENDBRANCH  37  38
ENDBRANCH  30  32
ENDBRANCH  29  30
ENDBRANCH  28  29
ENDBRANCH  27  28
ENDBRANCH  26  27
ENDBRANCH   1  26
TORSDOF 18
ENDMDL
MODEL 2
REMARK VINA RESULT:     -11.0      4.605      9.948
REMARK SMILES CC1CCN(C(=O)Nc2nccnc2C(=O)OCCOCCOCCOC(=O)c2ccc(-c3c4nc(c(-c5c(F)cccc5F)c5ccc([nH]5)c(-c5c(F)cccc5F)c5nc(c(-c6c(F)cccc6F)c6ccc3[nH]6)C=C5)C=C4)cc2)CC1
REMARK SMILES IDX 22 1 21 2 20 3 19 4 18 5 17 6 15 7 16 8 14 9 9 10 10 11
REMARK SMILES IDX 11 12 13 13 12 14 8 15 1 16 2 17 3 18 84 19 4 20 83 21 5 22
REMARK SMILES IDX 6 23 7 24 23 26 24 27 25 28 26 29 27 30 28 31 29 32 30 33
REMARK SMILES IDX 82 34 31 35 81 36 32 37 33 38 34 39 75 40 35 41 80 42 74 43
REMARK SMILES IDX 76 44 36 45 79 46 73 47 72 48 37 50 63 51 46 52 62 53 47 54
REMARK SMILES IDX 50 55 61 56 77 57 48 58 49 59 60 61 78 62 51 63 38 64 39 65
REMARK SMILES IDX 44 66 40 67 41 68 43 69 45 70 42 71 64 72 65 73 70 74 66 75
REMARK SMILES IDX 67 76 69 77 71 78 68 79 52 80 53 81 58 82 54 83 55 84 57 85
REMARK SMILES IDX 59 86 56 87
REMARK H PARENT 8 25 76 49 50 60
REMARK Flexibility Score: inf
ROOT
ATOM      1  C   UNL A   1      34.853  33.171  28.718  1.00  0.00     0.188 C 
ENDROOT
BRANCH   1   2
ATOM      2  C   UNL A   1      34.515  32.029  27.740  1.00  0.00     0.188 C 
BRANCH   2   3
ATOM      3  O   UNL A   1      34.730  30.674  28.116  1.00  0.00    -0.376 OA
BRANCH   3   4
ATOM      4  C   UNL A   1      33.917  29.647  27.563  1.00  0.00     0.202 C 
BRANCH   4   5
ATOM      5  C   UNL A   1      33.259  29.882  26.196  1.00  0.00     0.261 C 
BRANCH   5   6
ATOM      6  O   UNL A   1      32.840  28.679  25.521  1.00  0.00    -0.458 OA
BRANCH   6   7
ATOM      7  C   UNL A   1      32.918  28.717  24.165  1.00  0.00     0.360 C 
ATOM      8  O   UNL A   1      33.949  28.601  23.518  1.00  0.00    -0.244 OA
BRANCH   7   9
ATOM      9  C   UNL A   1      31.573  28.795  23.515  1.00  0.00     0.191 A 
ATOM     10  C   UNL A   1      31.126  27.989  22.452  1.00  0.00     0.167 A 
ATOM     11  N   UNL A   1      29.834  28.077  22.062  1.00  0.00    -0.235 NA
ATOM     12  C   UNL A   1      29.061  29.039  22.617  1.00  0.00     0.133 A 
ATOM     13  N   UNL A   1      30.787  29.781  24.059  1.00  0.00    -0.244 NA
ATOM     14  C   UNL A   1      29.540  29.899  23.574  1.00  0.00     0.132 A 
BRANCH  10  15
ATOM     15  N   UNL A   1      31.986  27.113  21.773  1.00  0.00    -0.290 N 
ATOM     16  C   UNL A   1      31.752  23.612  26.831  1.00  0.00     0.008 C 
ATOM     17  C   UNL A   1      31.458  23.605  25.331  1.00  0.00    -0.011 C 
ATOM     18  C   UNL A   1      32.763  23.443  24.528  1.00  0.00     0.025 C 
ATOM     19  C   UNL A   1      30.707  24.884  24.915  1.00  0.00     0.025 C 
ATOM     20  C   UNL A   1      32.564  23.659  23.025  1.00  0.00     0.121 C 
ATOM     21  C   UNL A   1      30.541  24.930  23.395  1.00  0.00     0.121 C 
ATOM     22  N   UNL A   1      31.860  24.919  22.773  1.00  0.00    -0.324 N 
ATOM     23  C   UNL A   1      32.460  25.863  21.984  1.00  0.00     0.323 C 
ATOM     24  O   UNL A   1      33.477  25.587  21.333  1.00  0.00    -0.248 OA
ATOM     25  H   UNL A   1      32.330  27.503  20.938  1.00  0.00     0.173 HD
ENDBRANCH  10  15
ENDBRANCH   7   9
ENDBRANCH   6   7
ENDBRANCH   5   6
ENDBRANCH   4   5
ENDBRANCH   3   4
ENDBRANCH   2   3
ENDBRANCH   1   2
BRANCH   1  26
ATOM     26  O   UNL A   1      34.024  33.235  29.861  1.00  0.00    -0.376 OA
BRANCH  26  27
ATOM     27  C   UNL A   1      34.402  34.188  30.848  1.00  0.00     0.202 C 
BRANCH  27  28
ATOM     28  C   UNL A   1      34.468  33.671  32.294  1.00  0.00     0.261 C 
BRANCH  28  29
ATOM     29  O   UNL A   1      34.984  32.335  32.456  1.00  0.00    -0.460 OA
BRANCH  29  30
ATOM     30  C   UNL A   1      36.131  32.200  33.151  1.00  0.00     0.338 C 
ATOM     31  O   UNL A   1      36.326  32.508  34.320  1.00  0.00    -0.246 OA
BRANCH  30  32
ATOM     32  C   UNL A   1      37.083  31.421  32.332  1.00  0.00     0.060 A 
ATOM     33  C   UNL A   1      38.186  30.829  32.960  1.00  0.00     0.016 A 
ATOM     34  C   UNL A   1      36.902  31.288  30.951  1.00  0.00     0.016 A 
ATOM     35  C   UNL A   1      39.135  30.140  32.202  1.00  0.00     0.010 A 
ATOM     36  C   UNL A   1      37.864  30.612  30.192  1.00  0.00     0.010 A 
ATOM     37  C   UNL A   1      39.005  30.069  30.808  1.00  0.00    -0.014 A 
BRANCH  37  38
ATOM     38  C   UNL A   1      40.162  29.616  29.995  1.00  0.00     0.031 A 
ATOM     39  C   UNL A   1      41.292  30.584  29.756  1.00  0.00     0.074 A 
ATOM     40  C   UNL A   1      40.246  28.362  29.520  1.00  0.00     0.049 A 
ATOM     41  N   UNL A   1      42.426  30.404  29.130  1.00  0.00    -0.248 NA
ATOM     42  C   UNL A   1      41.112  31.939  30.303  1.00  0.00     0.031 C 
ATOM     43  C   UNL A   1      39.241  27.317  29.701  1.00  0.00     0.029 A 
ATOM     44  N   UNL A   1      41.235  27.756  28.785  1.00  0.00    -0.354 N 
ATOM     45  C   UNL A   1      43.095  31.620  29.207  1.00  0.00     0.074 A 
ATOM     46  C   UNL A   1      42.224  32.538  29.906  1.00  0.00     0.031 C 
ATOM     47  C   UNL A   1      39.669  26.193  29.099  1.00  0.00     0.029 A 
ATOM     48  C   UNL A   1      40.968  26.445  28.474  1.00  0.00     0.049 A 
ATOM     49  H   UNL A   1      42.059  28.217  28.508  1.00  0.00     0.167 HD
ATOM     50  C   UNL A   1      44.328  31.942  28.748  1.00  0.00     0.037 A 
ATOM     51  C   UNL A   1      41.689  25.555  27.766  1.00  0.00     0.037 A 
ATOM     52  C   UNL A   1      45.194  31.037  28.041  1.00  0.00     0.049 A 
ATOM     53  C   UNL A   1      43.029  25.954  27.207  1.00  0.00     0.074 A 
ATOM     54  C   UNL A   1      46.468  31.267  27.551  1.00  0.00     0.029 A 
ATOM     55  N   UNL A   1      44.867  29.732  27.708  1.00  0.00    -0.354 N 
ATOM     56  N   UNL A   1      43.671  27.091  27.323  1.00  0.00    -0.248 NA
ATOM     57  C   UNL A   1      43.748  24.938  26.423  1.00  0.00     0.031 C 
ATOM     58  C   UNL A   1      46.892  30.115  26.879  1.00  0.00     0.029 A 
ATOM     59  C   UNL A   1      45.904  29.149  26.999  1.00  0.00     0.049 A 
ATOM     60  H   UNL A   1      44.021  29.285  27.942  1.00  0.00     0.167 HD
ATOM     61  C   UNL A   1      44.883  26.916  26.664  1.00  0.00     0.074 A 
ATOM     62  C   UNL A   1      44.888  25.561  26.154  1.00  0.00     0.031 C 
ATOM     63  C   UNL A   1      45.903  27.795  26.504  1.00  0.00     0.037 A 
BRANCH  50  64
ATOM     64  C   UNL A   1      44.789  33.354  28.975  1.00  0.00     0.057 A 
ATOM     65  C   UNL A   1      44.511  34.380  28.062  1.00  0.00     0.134 A 
ATOM     66  C   UNL A   1      45.531  33.686  30.114  1.00  0.00     0.134 A 
ATOM     67  F   UNL A   1      43.820  34.125  26.941  1.00  0.00    -0.206 F 
ATOM     68  C   UNL A   1      44.989  35.678  28.256  1.00  0.00     0.040 A 
ATOM     69  C   UNL A   1      45.990  34.986  30.333  1.00  0.00     0.040 A 
ATOM     70  F   UNL A   1      45.830  32.752  31.030  1.00  0.00    -0.206 F 
ATOM     71  C   UNL A   1      45.728  35.984  29.396  1.00  0.00     0.006 A 
ENDBRANCH  50  64
BRANCH  51  72
ATOM     72  C   UNL A   1      41.172  24.177  27.562  1.00  0.00     0.057 A 
ATOM     73  C   UNL A   1      41.689  23.097  28.286  1.00  0.00     0.134 A 
ATOM     74  C   UNL A   1      40.165  23.906  26.629  1.00  0.00     0.134 A 
ATOM     75  F   UNL A   1      42.675  23.290  29.175  1.00  0.00    -0.206 F 
ATOM     76  C   UNL A   1      41.232  21.794  28.083  1.00  0.00     0.040 A 
ATOM     77  C   UNL A   1      39.681  22.611  26.432  1.00  0.00     0.040 A 
ATOM     78  F   UNL A   1      39.632  24.898  25.900  1.00  0.00    -0.206 F 
ATOM     79  C   UNL A   1      40.219  21.550  27.157  1.00  0.00     0.006 A 
ENDBRANCH  51  72
BRANCH  63  80
ATOM     80  C   UNL A   1      47.133  27.305  25.792  1.00  0.00     0.057 A 
ATOM     81  C   UNL A   1      47.338  27.515  24.423  1.00  0.00     0.134 A 
ATOM     82  C   UNL A   1      48.140  26.633  26.499  1.00  0.00     0.134 A 
ATOM     83  F   UNL A   1      46.408  28.141  23.684  1.00  0.00    -0.206 F 
ATOM     84  C   UNL A   1      48.484  27.048  23.776  1.00  0.00     0.040 A 
ATOM     85  C   UNL A   1      49.303  26.188  25.870  1.00  0.00     0.040 A 
ATOM     86  F   UNL A   1      48.014  26.408  27.815  1.00  0.00    -0.206 F 
ATOM     87  C   UNL A   1      49.474  26.387  24.502  1.00  0.00     0.006 A 
ENDBRANCH  63  80
ENDBRANCH  37  38
ENDBRANCH  30  32
ENDBRANCH  29  30
ENDBRANCH  28  29
ENDBRANCH  27  28
ENDBRANCH  26  27
ENDBRANCH   1  26
TORSDOF 18
ENDMDL
MODEL 3
REMARK VINA RESULT:     -10.9      3.297      8.089
REMARK SMILES CC1CCN(C(=O)Nc2nccnc2C(=O)OCCOCCOCCOC(=O)c2ccc(-c3c4nc(c(-c5c(F)cccc5F)c5ccc([nH]5)c(-c5c(F)cccc5F)c5nc(c(-c6c(F)cccc6F)c6ccc3[nH]6)C=C5)C=C4)cc2)CC1
REMARK SMILES IDX 22 1 21 2 20 3 19 4 18 5 17 6 15 7 16 8 14 9 9 10 10 11
REMARK SMILES IDX 11 12 13 13 12 14 8 15 1 16 2 17 3 18 84 19 4 20 83 21 5 22
REMARK SMILES IDX 6 23 7 24 23 26 24 27 25 28 26 29 27 30 28 31 29 32 30 33
REMARK SMILES IDX 82 34 31 35 81 36 32 37 33 38 34 39 75 40 35 41 80 42 74 43
REMARK SMILES IDX 76 44 36 45 79 46 73 47 72 48 37 50 63 51 46 52 62 53 47 54
REMARK SMILES IDX 50 55 61 56 77 57 48 58 49 59 60 61 78 62 51 63 38 64 39 65
REMARK SMILES IDX 44 66 40 67 41 68 43 69 45 70 42 71 64 72 65 73 70 74 66 75
REMARK SMILES IDX 67 76 69 77 71 78 68 79 52 80 53 81 58 82 54 83 55 84 57 85
REMARK SMILES IDX 59 86 56 87
REMARK H PARENT 8 25 76 49 50 60
REMARK Flexibility Score: inf
ROOT
ATOM      1  C   UNL A   1      32.366  30.478  26.538  1.00  0.00     0.188 C 
ENDROOT
BRANCH   1   2
ATOM      2  C   UNL A   1      31.805  29.236  27.258  1.00  0.00     0.188 C 
BRANCH   2   3
ATOM      3  O   UNL A   1      31.702  27.994  26.574  1.00  0.00    -0.376 OA
BRANCH   3   4
ATOM      4  C   UNL A   1      32.879  27.274  26.231  1.00  0.00     0.202 C 
BRANCH   4   5
ATOM      5  C   UNL A   1      32.818  25.741  26.181  1.00  0.00     0.261 C 
BRANCH   5   6
ATOM      6  O   UNL A   1      31.545  25.182  26.564  1.00  0.00    -0.458 OA
BRANCH   6   7
ATOM      7  C   UNL A   1      31.506  23.826  26.639  1.00  0.00     0.360 C 
ATOM      8  O   UNL A   1      31.198  23.187  27.635  1.00  0.00    -0.244 OA
BRANCH   7   9
ATOM      9  C   UNL A   1      31.764  23.170  25.320  1.00  0.00     0.191 A 
ATOM     10  C   UNL A   1      31.153  23.510  24.099  1.00  0.00     0.167 A 
ATOM     11  N   UNL A   1      31.592  22.925  22.961  1.00  0.00    -0.235 NA
ATOM     12  C   UNL A   1      32.505  21.931  23.063  1.00  0.00     0.133 A 
ATOM     13  N   UNL A   1      32.676  22.147  25.415  1.00  0.00    -0.244 NA
ATOM     14  C   UNL A   1      33.012  21.526  24.273  1.00  0.00     0.132 A 
BRANCH  10  15
ATOM     15  N   UNL A   1      30.090  24.423  24.031  1.00  0.00    -0.290 N 
ATOM     16  C   UNL A   1      34.379  28.723  23.032  1.00  0.00     0.008 C 
ATOM     17  C   UNL A   1      33.138  28.076  22.418  1.00  0.00    -0.011 C 
ATOM     18  C   UNL A   1      31.860  28.622  23.087  1.00  0.00     0.025 C 
ATOM     19  C   UNL A   1      33.208  26.542  22.529  1.00  0.00     0.025 C 
ATOM     20  C   UNL A   1      30.603  27.849  22.679  1.00  0.00     0.121 C 
ATOM     21  C   UNL A   1      31.902  25.914  22.038  1.00  0.00     0.121 C 
ATOM     22  N   UNL A   1      30.802  26.408  22.857  1.00  0.00    -0.324 N 
ATOM     23  C   UNL A   1      29.949  25.721  23.677  1.00  0.00     0.323 C 
ATOM     24  O   UNL A   1      28.914  26.255  24.100  1.00  0.00    -0.248 OA
ATOM     25  H   UNL A   1      29.236  24.020  24.309  1.00  0.00     0.173 HD
ENDBRANCH  10  15
ENDBRANCH   7   9
ENDBRANCH   6   7
ENDBRANCH   5   6
ENDBRANCH   4   5
ENDBRANCH   3   4
ENDBRANCH   2   3
ENDBRANCH   1   2
BRANCH   1  26
ATOM     26  O   UNL A   1      31.386  31.338  25.993  1.00  0.00    -0.376 OA
BRANCH  26  27
ATOM     27  C   UNL A   1      31.364  32.662  26.515  1.00  0.00     0.202 C 
BRANCH  27  28
ATOM     28  C   UNL A   1      32.484  33.012  27.508  1.00  0.00     0.261 C 
BRANCH  28  29
ATOM     29  O   UNL A   1      32.637  34.414  27.808  1.00  0.00    -0.460 OA
BRANCH  29  30
ATOM     30  C   UNL A   1      33.191  34.732  28.995  1.00  0.00     0.338 C 
ATOM     31  O   UNL A   1      32.729  35.481  29.847  1.00  0.00    -0.246 OA
BRANCH  30  32
ATOM     32  C   UNL A   1      34.370  33.867  29.205  1.00  0.00     0.060 A 
ATOM     33  C   UNL A   1      34.206  32.660  29.897  1.00  0.00     0.016 A 
ATOM     34  C   UNL A   1      35.633  34.247  28.742  1.00  0.00     0.016 A 
ATOM     35  C   UNL A   1      35.312  31.851  30.166  1.00  0.00     0.010 A 
ATOM     36  C   UNL A   1      36.744  33.444  29.028  1.00  0.00     0.010 A 
ATOM     37  C   UNL A   1      36.594  32.263  29.775  1.00  0.00    -0.014 A 
BRANCH  37  38
ATOM     38  C   UNL A   1      37.780  31.564  30.333  1.00  0.00     0.031 A 
ATOM     39  C   UNL A   1      38.172  31.847  31.759  1.00  0.00     0.074 A 
ATOM     40  C   UNL A   1      38.469  30.657  29.618  1.00  0.00     0.049 A 
ATOM     41  N   UNL A   1      39.128  31.322  32.482  1.00  0.00    -0.248 NA
ATOM     42  C   UNL A   1      37.370  32.860  32.464  1.00  0.00     0.031 C 
ATOM     43  C   UNL A   1      38.181  30.267  28.240  1.00  0.00     0.029 A 
ATOM     44  N   UNL A   1      39.557  29.895  29.966  1.00  0.00    -0.354 N 
ATOM     45  C   UNL A   1      39.043  31.940  33.724  1.00  0.00     0.074 A 
ATOM     46  C   UNL A   1      37.968  32.905  33.644  1.00  0.00     0.031 C 
ATOM     47  C   UNL A   1      39.068  29.331  27.860  1.00  0.00     0.029 A 
ATOM     48  C   UNL A   1      39.997  29.070  28.960  1.00  0.00     0.049 A 
ATOM     49  H   UNL A   1      39.982  29.936  30.853  1.00  0.00     0.167 HD
ATOM     50  C   UNL A   1      39.784  31.719  34.836  1.00  0.00     0.037 A 
ATOM     51  C   UNL A   1      41.031  28.207  28.933  1.00  0.00     0.037 A 
ATOM     52  C   UNL A   1      40.862  30.770  34.918  1.00  0.00     0.049 A 
ATOM     53  C   UNL A   1      41.885  28.024  30.160  1.00  0.00     0.074 A 
ATOM     54  C   UNL A   1      41.661  30.462  36.006  1.00  0.00     0.029 A 
ATOM     55  N   UNL A   1      41.304  29.986  33.864  1.00  0.00    -0.354 N 
ATOM     56  N   UNL A   1      41.768  28.581  31.342  1.00  0.00    -0.248 NA
ATOM     57  C   UNL A   1      43.010  27.084  30.049  1.00  0.00     0.031 C 
ATOM     58  C   UNL A   1      42.618  29.527  35.596  1.00  0.00     0.029 A 
ATOM     59  C   UNL A   1      42.379  29.211  34.267  1.00  0.00     0.049 A 
ATOM     60  H   UNL A   1      40.911  29.981  32.961  1.00  0.00     0.167 HD
ATOM     61  C   UNL A   1      42.778  28.031  32.124  1.00  0.00     0.074 A 
ATOM     62  C   UNL A   1      43.493  27.094  31.284  1.00  0.00     0.031 C 
ATOM     63  C   UNL A   1      43.079  28.273  33.425  1.00  0.00     0.037 A 
BRANCH  50  64
ATOM     64  C   UNL A   1      39.463  32.553  36.043  1.00  0.00     0.057 A 
ATOM     65  C   UNL A   1      38.530  32.139  37.004  1.00  0.00     0.134 A 
ATOM     66  C   UNL A   1      40.083  33.792  36.237  1.00  0.00     0.134 A 
ATOM     67  F   UNL A   1      37.886  30.971  36.868  1.00  0.00    -0.206 F 
ATOM     68  C   UNL A   1      38.200  32.947  38.095  1.00  0.00     0.040 A 
ATOM     69  C   UNL A   1      39.782  34.596  37.338  1.00  0.00     0.040 A 
ATOM     70  F   UNL A   1      40.988  34.247  35.356  1.00  0.00    -0.206 F 
ATOM     71  C   UNL A   1      38.830  34.177  38.265  1.00  0.00     0.006 A 
ENDBRANCH  50  64
BRANCH  51  72
ATOM     72  C   UNL A   1      41.308  27.421  27.704  1.00  0.00     0.057 A 
ATOM     73  C   UNL A   1      40.799  26.128  27.543  1.00  0.00     0.134 A 
ATOM     74  C   UNL A   1      42.100  27.936  26.671  1.00  0.00     0.134 A 
ATOM     75  F   UNL A   1      40.055  25.570  28.510  1.00  0.00    -0.206 F 
ATOM     76  C   UNL A   1      41.076  25.368  26.405  1.00  0.00     0.040 A 
ATOM     77  C   UNL A   1      42.366  27.197  25.517  1.00  0.00     0.040 A 
ATOM     78  F   UNL A   1      42.622  29.167  26.767  1.00  0.00    -0.206 F 
ATOM     79  C   UNL A   1      41.857  25.906  25.384  1.00  0.00     0.006 A 
ENDBRANCH  51  72
BRANCH  63  80
ATOM     80  C   UNL A   1      44.197  27.476  34.035  1.00  0.00     0.057 A 
ATOM     81  C   UNL A   1      45.524  27.925  34.030  1.00  0.00     0.134 A 
ATOM     82  C   UNL A   1      43.933  26.250  34.662  1.00  0.00     0.134 A 
ATOM     83  F   UNL A   1      45.847  29.085  33.438  1.00  0.00    -0.206 F 
ATOM     84  C   UNL A   1      46.552  27.170  34.599  1.00  0.00     0.040 A 
ATOM     85  C   UNL A   1      44.948  25.501  35.259  1.00  0.00     0.040 A 
ATOM     86  F   UNL A   1      42.684  25.767  34.714  1.00  0.00    -0.206 F 
ATOM     87  C   UNL A   1      46.264  25.956  35.221  1.00  0.00     0.006 A 
ENDBRANCH  63  80
ENDBRANCH  37  38
ENDBRANCH  30  32
ENDBRANCH  29  30
ENDBRANCH  28  29
ENDBRANCH  27  28
ENDBRANCH  26  27
ENDBRANCH   1  26
TORSDOF 18
ENDMDL
