MODEL 1
REMARK VINA RESULT:     -10.6      0.000      0.000
REMARK SMILES C[C@@H](C(=O)OCCOCCOCCOC(=O)c1ccc(-c2c3nc(c(-c4c(F)cccc4F)c4ccc([nH]4)c(-c4c(F)cccc4F)c4nc(c(-c5c(F)cccc5F)c5ccc2[nH]5)C=C4)C=C3)cc1)c1ccc(-c2cccc(OC(=O)NCCC3CCCCC3)c2)c(F)c1
REMARK SMILES IDX 7 1 6 2 5 3 3 4 4 5 2 6 1 7 71 8 72 9 95 10 73 11 93 12
REMARK SMILES IDX 74 13 94 14 75 15 76 16 92 17 77 18 79 19 78 20 80 21 81 22
REMARK SMILES IDX 82 23 83 24 84 26 85 27 86 28 87 29 91 30 88 31 90 32 89 33
REMARK SMILES IDX 8 34 9 35 10 36 11 37 12 38 13 39 14 40 15 41 16 42 17 43
REMARK SMILES IDX 18 44 70 45 19 46 69 47 20 48 21 49 22 50 63 51 23 52 68 53
REMARK SMILES IDX 62 54 64 55 24 56 67 57 61 58 60 59 25 61 51 62 34 63 50 64
REMARK SMILES IDX 35 65 38 66 49 67 65 68 36 69 37 70 48 72 66 73 39 74 26 75
REMARK SMILES IDX 27 76 32 77 28 78 29 79 31 80 33 81 30 82 52 83 53 84 58 85
REMARK SMILES IDX 54 86 55 87 57 88 59 89 56 90 40 91 41 92 46 93 42 94 43 95
REMARK SMILES IDX 45 96 47 97 44 98
REMARK H PARENT 83 25 64 60 38 71
REMARK Flexibility Score: inf
ROOT
ATOM      1  C   UNL A   1      34.704  24.975  25.669  1.00  0.00     0.202 C 
ENDROOT
BRANCH   1   2
ATOM      2  C   UNL A   1      33.317  24.437  26.033  1.00  0.00     0.261 C 
BRANCH   2   3
ATOM      3  O   UNL A   1      32.261  25.035  25.254  1.00  0.00    -0.463 OA
BRANCH   3   4
ATOM      4  C   UNL A   1      31.632  26.098  25.821  1.00  0.00     0.313 C 
ATOM      5  O   UNL A   1      31.011  26.037  26.877  1.00  0.00    -0.252 OA
BRANCH   4   6
ATOM      6  C   UNL A   1      31.819  27.413  25.051  1.00  0.00     0.126 C 
ATOM      7  C   UNL A   1      32.567  27.276  23.716  1.00  0.00     0.025 C 
BRANCH   6   8
ATOM      8  C   UNL A   1      32.313  28.599  25.892  1.00  0.00    -0.031 A 
ATOM      9  C   UNL A   1      33.546  28.511  26.561  1.00  0.00     0.005 A 
ATOM     10  C   UNL A   1      31.634  29.826  25.968  1.00  0.00     0.044 A 
ATOM     11  C   UNL A   1      34.094  29.612  27.240  1.00  0.00     0.012 A 
ATOM     12  C   UNL A   1      32.184  30.920  26.655  1.00  0.00     0.131 A 
ATOM     13  C   UNL A   1      33.434  30.849  27.279  1.00  0.00     0.018 A 
ATOM     14  F   UNL A   1      31.500  32.075  26.643  1.00  0.00    -0.206 F 
BRANCH  13  15
ATOM     15  C   UNL A   1      34.108  32.040  27.828  1.00  0.00    -0.012 A 
ATOM     16  C   UNL A   1      35.515  32.102  27.784  1.00  0.00     0.009 A 
ATOM     17  C   UNL A   1      33.414  33.133  28.377  1.00  0.00     0.056 A 
ATOM     18  C   UNL A   1      36.211  33.207  28.281  1.00  0.00     0.004 A 
ATOM     19  C   UNL A   1      34.120  34.238  28.878  1.00  0.00     0.133 A 
ATOM     20  C   UNL A   1      35.512  34.274  28.834  1.00  0.00     0.047 A 
BRANCH  19  21
ATOM     21  O   UNL A   1      33.485  35.444  29.279  1.00  0.00    -0.410 OA
BRANCH  21  22
ATOM     22  C   UNL A   1      32.994  35.591  30.561  1.00  0.00     0.412 C 
ATOM     23  O   UNL A   1      32.228  36.507  30.876  1.00  0.00    -0.224 OA
ATOM     24  N   UNL A   1      33.414  34.748  31.574  1.00  0.00    -0.321 N 
ATOM     25  H   UNL A   1      33.036  35.204  32.362  1.00  0.00     0.167 HD
BRANCH  24  26
ATOM     26  C   UNL A   1      34.126  33.497  32.268  1.00  0.00     0.119 C 
BRANCH  26  27
ATOM     27  C   UNL A   1      35.178  33.328  33.365  1.00  0.00     0.025 C 
BRANCH  27  28
ATOM     28  C   UNL A   1      36.514  32.686  32.903  1.00  0.00    -0.009 C 
ATOM     29  C   UNL A   1      37.317  33.510  31.865  1.00  0.00     0.003 C 
ATOM     30  C   UNL A   1      37.396  32.480  34.142  1.00  0.00     0.003 C 
ATOM     31  C   UNL A   1      38.658  32.877  31.513  1.00  0.00     0.000 C 
ATOM     32  C   UNL A   1      38.729  31.832  33.789  1.00  0.00     0.000 C 
ATOM     33  C   UNL A   1      39.498  32.643  32.753  1.00  0.00     0.000 C 
ENDBRANCH  27  28
ENDBRANCH  26  27
ENDBRANCH  24  26
ENDBRANCH  21  22
ENDBRANCH  19  21
ENDBRANCH  13  15
ENDBRANCH   6   8
ENDBRANCH   4   6
ENDBRANCH   3   4
ENDBRANCH   2   3
ENDBRANCH   1   2
BRANCH   1  34
ATOM     34  O   UNL A   1      35.587  24.080  24.994  1.00  0.00    -0.376 OA
BRANCH  34  35
ATOM     35  C   UNL A   1      36.473  23.275  25.768  1.00  0.00     0.188 C 
BRANCH  35  36
ATOM     36  C   UNL A   1      36.415  21.748  25.601  1.00  0.00     0.188 C 
BRANCH  36  37
ATOM     37  O   UNL A   1      37.658  21.172  25.254  1.00  0.00    -0.376 OA
BRANCH  37  38
ATOM     38  C   UNL A   1      37.684  19.779  25.001  1.00  0.00     0.202 C 
BRANCH  38  39
ATOM     39  C   UNL A   1      38.988  19.049  25.345  1.00  0.00     0.261 C 
BRANCH  39  40
ATOM     40  O   UNL A   1      39.815  19.666  26.346  1.00  0.00    -0.460 OA
BRANCH  40  41
ATOM     41  C   UNL A   1      41.157  19.572  26.189  1.00  0.00     0.338 C 
ATOM     42  O   UNL A   1      41.782  18.630  25.749  1.00  0.00    -0.246 OA
BRANCH  41  43
ATOM     43  C   UNL A   1      41.732  20.902  26.491  1.00  0.00     0.060 A 
ATOM     44  C   UNL A   1      42.227  21.153  27.774  1.00  0.00     0.016 A 
ATOM     45  C   UNL A   1      41.778  21.895  25.506  1.00  0.00     0.016 A 
ATOM     46  C   UNL A   1      42.753  22.411  28.079  1.00  0.00     0.010 A 
ATOM     47  C   UNL A   1      42.284  23.160  25.819  1.00  0.00     0.010 A 
ATOM     48  C   UNL A   1      42.757  23.429  27.111  1.00  0.00    -0.014 A 
BRANCH  48  49
ATOM     49  C   UNL A   1      43.152  24.803  27.514  1.00  0.00     0.031 A 
ATOM     50  C   UNL A   1      44.560  25.259  26.959  1.00  0.00     0.074 A 
ATOM     51  C   UNL A   1      42.213  25.553  28.184  1.00  0.00     0.049 A 
ATOM     52  N   UNL A   1      45.131  26.430  27.027  1.00  0.00    -0.248 NA
ATOM     53  C   UNL A   1      45.424  24.352  26.184  1.00  0.00     0.031 C 
ATOM     54  C   UNL A   1      40.839  25.193  28.569  1.00  0.00     0.029 A 
ATOM     55  N   UNL A   1      42.228  26.866  28.587  1.00  0.00    -0.354 N 
ATOM     56  C   UNL A   1      46.260  26.533  26.233  1.00  0.00     0.074 A 
ATOM     57  C   UNL A   1      46.435  25.149  25.797  1.00  0.00     0.031 C 
ATOM     58  C   UNL A   1      40.184  26.286  29.050  1.00  0.00     0.029 A 
ATOM     59  C   UNL A   1      41.069  27.463  29.044  1.00  0.00     0.049 A 
ATOM     60  H   UNL A   1      43.065  27.383  28.552  1.00  0.00     0.167 HD
ATOM     61  C   UNL A   1      47.008  27.667  25.933  1.00  0.00     0.037 A 
ATOM     62  C   UNL A   1      40.783  28.784  29.330  1.00  0.00     0.037 A 
ATOM     63  C   UNL A   1      46.807  29.121  26.382  1.00  0.00     0.049 A 
ATOM     64  C   UNL A   1      41.761  30.030  29.135  1.00  0.00     0.074 A 
ATOM     65  C   UNL A   1      47.755  30.013  26.882  1.00  0.00     0.029 A 
ATOM     66  N   UNL A   1      45.617  29.940  26.381  1.00  0.00    -0.354 N 
ATOM     67  N   UNL A   1      42.656  30.280  28.207  1.00  0.00    -0.248 NA
ATOM     68  C   UNL A   1      41.640  31.194  30.030  1.00  0.00     0.031 C 
ATOM     69  C   UNL A   1      47.105  31.139  27.466  1.00  0.00     0.029 A 
ATOM     70  C   UNL A   1      45.722  31.037  27.302  1.00  0.00     0.049 A 
ATOM     71  H   UNL A   1      44.828  29.767  25.817  1.00  0.00     0.167 HD
ATOM     72  C   UNL A   1      43.361  31.447  28.476  1.00  0.00     0.074 A 
ATOM     73  C   UNL A   1      42.544  32.053  29.531  1.00  0.00     0.031 C 
ATOM     74  C   UNL A   1      44.639  31.831  28.065  1.00  0.00     0.037 A 
BRANCH  61  75
ATOM     75  C   UNL A   1      48.362  27.287  25.370  1.00  0.00     0.057 A 
ATOM     76  C   UNL A   1      49.446  26.935  26.180  1.00  0.00     0.134 A 
ATOM     77  C   UNL A   1      48.619  27.421  23.994  1.00  0.00     0.134 A 
ATOM     78  F   UNL A   1      49.297  26.847  27.510  1.00  0.00    -0.206 F 
ATOM     79  C   UNL A   1      50.729  26.753  25.647  1.00  0.00     0.040 A 
ATOM     80  C   UNL A   1      49.886  27.215  23.446  1.00  0.00     0.040 A 
ATOM     81  F   UNL A   1      47.647  27.790  23.149  1.00  0.00    -0.206 F 
ATOM     82  C   UNL A   1      50.952  26.891  24.277  1.00  0.00     0.006 A 
ENDBRANCH  61  75
BRANCH  62  83
ATOM     83  C   UNL A   1      39.405  29.150  29.802  1.00  0.00     0.057 A 
ATOM     84  C   UNL A   1      39.045  28.981  31.149  1.00  0.00     0.134 A 
ATOM     85  C   UNL A   1      38.393  29.599  28.942  1.00  0.00     0.134 A 
ATOM     86  F   UNL A   1      39.919  28.471  32.026  1.00  0.00    -0.206 F 
ATOM     87  C   UNL A   1      37.763  29.270  31.624  1.00  0.00     0.040 A 
ATOM     88  C   UNL A   1      37.107  29.904  29.406  1.00  0.00     0.040 A 
ATOM     89  F   UNL A   1      38.624  29.730  27.628  1.00  0.00    -0.206 F 
ATOM     90  C   UNL A   1      36.790  29.741  30.752  1.00  0.00     0.006 A 
ENDBRANCH  62  83
BRANCH  74  91
ATOM     91  C   UNL A   1      45.141  33.100  28.725  1.00  0.00     0.057 A 
ATOM     92  C   UNL A   1      44.974  34.381  28.163  1.00  0.00     0.134 A 
ATOM     93  C   UNL A   1      45.746  33.035  29.982  1.00  0.00     0.134 A 
ATOM     94  F   UNL A   1      44.363  34.536  26.978  1.00  0.00    -0.206 F 
ATOM     95  C   UNL A   1      45.461  35.532  28.792  1.00  0.00     0.040 A 
ATOM     96  C   UNL A   1      46.204  34.182  30.637  1.00  0.00     0.040 A 
ATOM     97  F   UNL A   1      45.891  31.855  30.602  1.00  0.00    -0.206 F 
ATOM     98  C   UNL A   1      46.079  35.432  30.035  1.00  0.00     0.006 A 
ENDBRANCH  74  91
ENDBRANCH  48  49
ENDBRANCH  41  43
ENDBRANCH  40  41
ENDBRANCH  39  40
ENDBRANCH  38  39
ENDBRANCH  37  38
ENDBRANCH  36  37
ENDBRANCH  35  36
ENDBRANCH  34  35
ENDBRANCH   1  34
TORSDOF 24
ENDMDL
MODEL 2
REMARK VINA RESULT:      -9.5      1.443      2.124
REMARK SMILES C[C@@H](C(=O)OCCOCCOCCOC(=O)c1ccc(-c2c3nc(c(-c4c(F)cccc4F)c4ccc([nH]4)c(-c4c(F)cccc4F)c4nc(c(-c5c(F)cccc5F)c5ccc2[nH]5)C=C4)C=C3)cc1)c1ccc(-c2cccc(OC(=O)NCCC3CCCCC3)c2)c(F)c1
REMARK SMILES IDX 7 1 6 2 5 3 3 4 4 5 2 6 1 7 71 8 72 9 95 10 73 11 93 12
REMARK SMILES IDX 74 13 94 14 75 15 76 16 92 17 77 18 79 19 78 20 80 21 81 22
REMARK SMILES IDX 82 23 83 24 84 26 85 27 86 28 87 29 91 30 88 31 90 32 89 33
REMARK SMILES IDX 8 34 9 35 10 36 11 37 12 38 13 39 14 40 15 41 16 42 17 43
REMARK SMILES IDX 18 44 70 45 19 46 69 47 20 48 21 49 22 50 63 51 23 52 68 53
REMARK SMILES IDX 62 54 64 55 24 56 67 57 61 58 60 59 25 61 51 62 34 63 50 64
REMARK SMILES IDX 35 65 38 66 49 67 65 68 36 69 37 70 48 72 66 73 39 74 26 75
REMARK SMILES IDX 27 76 32 77 28 78 29 79 31 80 33 81 30 82 52 83 53 84 58 85
REMARK SMILES IDX 54 86 55 87 57 88 59 89 56 90 40 91 41 92 46 93 42 94 43 95
REMARK SMILES IDX 45 96 47 97 44 98
REMARK H PARENT 83 25 64 60 38 71
REMARK Flexibility Score: inf
ROOT
ATOM      1  C   UNL A   1      34.784  24.872  25.079  1.00  0.00     0.202 C 
ENDROOT
BRANCH   1   2
ATOM      2  C   UNL A   1      33.306  24.483  25.179  1.00  0.00     0.261 C 
BRANCH   2   3
ATOM      3  O   UNL A   1      32.426  25.471  24.606  1.00  0.00    -0.463 OA
BRANCH   3   4
ATOM      4  C   UNL A   1      32.096  26.515  25.412  1.00  0.00     0.313 C 
ATOM      5  O   UNL A   1      31.632  26.383  26.540  1.00  0.00    -0.252 OA
BRANCH   4   6
ATOM      6  C   UNL A   1      32.415  27.890  24.809  1.00  0.00     0.126 C 
ATOM      7  C   UNL A   1      33.394  27.863  23.625  1.00  0.00     0.025 C 
BRANCH   6   8
ATOM      8  C   UNL A   1      32.742  28.991  25.828  1.00  0.00    -0.031 A 
ATOM      9  C   UNL A   1      33.948  28.934  26.549  1.00  0.00     0.005 A 
ATOM     10  C   UNL A   1      31.935  30.122  26.028  1.00  0.00     0.044 A 
ATOM     11  C   UNL A   1      34.346  29.980  27.399  1.00  0.00     0.012 A 
ATOM     12  C   UNL A   1      32.334  31.159  26.885  1.00  0.00     0.131 A 
ATOM     13  C   UNL A   1      33.557  31.127  27.565  1.00  0.00     0.018 A 
ATOM     14  F   UNL A   1      31.533  32.231  26.989  1.00  0.00    -0.206 F 
BRANCH  13  15
ATOM     15  C   UNL A   1      34.076  32.292  28.306  1.00  0.00    -0.012 A 
ATOM     16  C   UNL A   1      34.222  33.517  27.626  1.00  0.00     0.009 A 
ATOM     17  C   UNL A   1      34.413  32.248  29.671  1.00  0.00     0.056 A 
ATOM     18  C   UNL A   1      34.701  34.658  28.275  1.00  0.00     0.004 A 
ATOM     19  C   UNL A   1      34.898  33.396  30.315  1.00  0.00     0.133 A 
ATOM     20  C   UNL A   1      35.045  34.595  29.621  1.00  0.00     0.047 A 
BRANCH  19  21
ATOM     21  O   UNL A   1      35.088  33.471  31.721  1.00  0.00    -0.410 OA
BRANCH  21  22
ATOM     22  C   UNL A   1      36.275  33.066  32.297  1.00  0.00     0.412 C 
ATOM     23  O   UNL A   1      36.331  32.591  33.435  1.00  0.00    -0.224 OA
ATOM     24  N   UNL A   1      37.475  33.252  31.635  1.00  0.00    -0.321 N 
ATOM     25  H   UNL A   1      38.116  33.031  32.350  1.00  0.00     0.167 HD
BRANCH  24  26
ATOM     26  C   UNL A   1      38.474  33.599  30.436  1.00  0.00     0.119 C 
BRANCH  26  27
ATOM     27  C   UNL A   1      39.153  34.875  29.936  1.00  0.00     0.025 C 
BRANCH  27  28
ATOM     28  C   UNL A   1      40.655  34.721  29.572  1.00  0.00    -0.009 C 
ATOM     29  C   UNL A   1      41.146  35.615  28.406  1.00  0.00     0.003 C 
ATOM     30  C   UNL A   1      41.483  35.059  30.820  1.00  0.00     0.003 C 
ATOM     31  C   UNL A   1      42.643  35.489  28.149  1.00  0.00     0.000 C 
ATOM     32  C   UNL A   1      42.979  34.915  30.566  1.00  0.00     0.000 C 
ATOM     33  C   UNL A   1      43.443  35.784  29.403  1.00  0.00     0.000 C 
ENDBRANCH  27  28
ENDBRANCH  26  27
ENDBRANCH  24  26
ENDBRANCH  21  22
ENDBRANCH  19  21
ENDBRANCH  13  15
ENDBRANCH   6   8
ENDBRANCH   4   6
ENDBRANCH   3   4
ENDBRANCH   2   3
ENDBRANCH   1   2
BRANCH   1  34
ATOM     34  O   UNL A   1      35.685  23.868  24.614  1.00  0.00    -0.376 OA
BRANCH  34  35
ATOM     35  C   UNL A   1      36.115  22.857  25.522  1.00  0.00     0.188 C 
BRANCH  35  36
ATOM     36  C   UNL A   1      36.221  21.409  25.014  1.00  0.00     0.188 C 
BRANCH  36  37
ATOM     37  O   UNL A   1      37.527  20.876  25.102  1.00  0.00    -0.376 OA
BRANCH  37  38
ATOM     38  C   UNL A   1      37.670  19.474  24.970  1.00  0.00     0.202 C 
BRANCH  38  39
ATOM     39  C   UNL A   1      39.027  18.887  25.378  1.00  0.00     0.261 C 
BRANCH  39  40
ATOM     40  O   UNL A   1      39.859  19.723  26.199  1.00  0.00    -0.460 OA
BRANCH  40  41
ATOM     41  C   UNL A   1      41.196  19.521  26.140  1.00  0.00     0.338 C 
ATOM     42  O   UNL A   1      41.773  18.526  25.751  1.00  0.00    -0.246 OA
BRANCH  41  43
ATOM     43  C   UNL A   1      41.854  20.803  26.475  1.00  0.00     0.060 A 
ATOM     44  C   UNL A   1      42.102  21.110  27.817  1.00  0.00     0.016 A 
ATOM     45  C   UNL A   1      42.220  21.698  25.464  1.00  0.00     0.016 A 
ATOM     46  C   UNL A   1      42.702  22.327  28.148  1.00  0.00     0.010 A 
ATOM     47  C   UNL A   1      42.801  22.925  25.799  1.00  0.00     0.010 A 
ATOM     48  C   UNL A   1      43.028  23.252  27.143  1.00  0.00    -0.014 A 
BRANCH  48  49
ATOM     49  C   UNL A   1      43.495  24.607  27.536  1.00  0.00     0.031 A 
ATOM     50  C   UNL A   1      45.002  24.903  27.162  1.00  0.00     0.074 A 
ATOM     51  C   UNL A   1      42.551  25.474  28.034  1.00  0.00     0.049 A 
ATOM     52  N   UNL A   1      45.668  26.021  27.256  1.00  0.00    -0.248 NA
ATOM     53  C   UNL A   1      45.871  23.880  26.555  1.00  0.00     0.031 C 
ATOM     54  C   UNL A   1      41.109  25.260  28.240  1.00  0.00     0.029 A 
ATOM     55  N   UNL A   1      42.637  26.801  28.377  1.00  0.00    -0.354 N 
ATOM     56  C   UNL A   1      46.898  25.978  26.623  1.00  0.00     0.074 A 
ATOM     57  C   UNL A   1      46.997  24.560  26.278  1.00  0.00     0.031 C 
ATOM     58  C   UNL A   1      40.504  26.433  28.576  1.00  0.00     0.029 A 
ATOM     59  C   UNL A   1      41.490  27.524  28.641  1.00  0.00     0.049 A 
ATOM     60  H   UNL A   1      43.517  27.239  28.435  1.00  0.00     0.167 HD
ATOM     61  C   UNL A   1      47.785  27.022  26.379  1.00  0.00     0.037 A 
ATOM     62  C   UNL A   1      41.296  28.879  28.826  1.00  0.00     0.037 A 
ATOM     63  C   UNL A   1      47.666  28.511  26.731  1.00  0.00     0.049 A 
ATOM     64  C   UNL A   1      42.406  30.020  28.714  1.00  0.00     0.074 A 
ATOM     65  C   UNL A   1      48.620  29.342  27.319  1.00  0.00     0.029 A 
ATOM     66  N   UNL A   1      46.570  29.431  26.528  1.00  0.00    -0.354 N 
ATOM     67  N   UNL A   1      43.438  30.136  27.909  1.00  0.00    -0.248 NA
ATOM     68  C   UNL A   1      42.278  31.240  29.531  1.00  0.00     0.031 C 
ATOM     69  C   UNL A   1      48.007  30.553  27.755  1.00  0.00     0.029 A 
ATOM     70  C   UNL A   1      46.656  30.565  27.406  1.00  0.00     0.049 A 
ATOM     71  H   UNL A   1      45.852  29.297  25.869  1.00  0.00     0.167 HD
ATOM     72  C   UNL A   1      44.209  31.250  28.220  1.00  0.00     0.074 A 
ATOM     73  C   UNL A   1      43.319  31.985  29.124  1.00  0.00     0.031 C 
ATOM     74  C   UNL A   1      45.561  31.494  27.975  1.00  0.00     0.037 A 
BRANCH  61  75
ATOM     75  C   UNL A   1      49.159  26.491  26.028  1.00  0.00     0.057 A 
ATOM     76  C   UNL A   1      50.024  25.941  26.979  1.00  0.00     0.134 A 
ATOM     77  C   UNL A   1      49.678  26.673  24.733  1.00  0.00     0.134 A 
ATOM     78  F   UNL A   1      49.626  25.793  28.251  1.00  0.00    -0.206 F 
ATOM     79  C   UNL A   1      51.349  25.615  26.661  1.00  0.00     0.040 A 
ATOM     80  C   UNL A   1      50.988  26.325  24.397  1.00  0.00     0.040 A 
ATOM     81  F   UNL A   1      48.931  27.227  23.769  1.00  0.00    -0.206 F 
ATOM     82  C   UNL A   1      51.834  25.805  25.368  1.00  0.00     0.006 A 
ENDBRANCH  61  75
BRANCH  62  83
ATOM     83  C   UNL A   1      39.909  29.393  29.085  1.00  0.00     0.057 A 
ATOM     84  C   UNL A   1      39.430  29.518  30.399  1.00  0.00     0.134 A 
ATOM     85  C   UNL A   1      39.000  29.700  28.063  1.00  0.00     0.134 A 
ATOM     86  F   UNL A   1      40.196  29.161  31.438  1.00  0.00    -0.206 F 
ATOM     87  C   UNL A   1      38.133  29.953  30.686  1.00  0.00     0.040 A 
ATOM     88  C   UNL A   1      37.702  30.147  28.334  1.00  0.00     0.040 A 
ATOM     89  F   UNL A   1      39.346  29.548  26.776  1.00  0.00    -0.206 F 
ATOM     90  C   UNL A   1      37.265  30.277  29.651  1.00  0.00     0.006 A 
ENDBRANCH  62  83
BRANCH  74  91
ATOM     91  C   UNL A   1      46.090  32.749  28.641  1.00  0.00     0.057 A 
ATOM     92  C   UNL A   1      46.250  33.974  27.965  1.00  0.00     0.134 A 
ATOM     93  C   UNL A   1      46.379  32.739  30.007  1.00  0.00     0.134 A 
ATOM     94  F   UNL A   1      45.952  34.082  26.660  1.00  0.00    -0.206 F 
ATOM     95  C   UNL A   1      46.753  35.112  28.605  1.00  0.00     0.040 A 
ATOM     96  C   UNL A   1      46.848  33.880  30.667  1.00  0.00     0.040 A 
ATOM     97  F   UNL A   1      46.200  31.623  30.728  1.00  0.00    -0.206 F 
ATOM     98  C   UNL A   1      47.054  35.064  29.963  1.00  0.00     0.006 A 
ENDBRANCH  74  91
ENDBRANCH  48  49
ENDBRANCH  41  43
ENDBRANCH  40  41
ENDBRANCH  39  40
ENDBRANCH  38  39
ENDBRANCH  37  38
ENDBRANCH  36  37
ENDBRANCH  35  36
ENDBRANCH  34  35
ENDBRANCH   1  34
TORSDOF 24
ENDMDL
MODEL 3
REMARK VINA RESULT:      -9.4      3.146      7.366
REMARK SMILES C[C@@H](C(=O)OCCOCCOCCOC(=O)c1ccc(-c2c3nc(c(-c4c(F)cccc4F)c4ccc([nH]4)c(-c4c(F)cccc4F)c4nc(c(-c5c(F)cccc5F)c5ccc2[nH]5)C=C4)C=C3)cc1)c1ccc(-c2cccc(OC(=O)NCCC3CCCCC3)c2)c(F)c1
REMARK SMILES IDX 7 1 6 2 5 3 3 4 4 5 2 6 1 7 71 8 72 9 95 10 73 11 93 12
REMARK SMILES IDX 74 13 94 14 75 15 76 16 92 17 77 18 79 19 78 20 80 21 81 22
REMARK SMILES IDX 82 23 83 24 84 26 85 27 86 28 87 29 91 30 88 31 90 32 89 33
REMARK SMILES IDX 8 34 9 35 10 36 11 37 12 38 13 39 14 40 15 41 16 42 17 43
REMARK SMILES IDX 18 44 70 45 19 46 69 47 20 48 21 49 22 50 63 51 23 52 68 53
REMARK SMILES IDX 62 54 64 55 24 56 67 57 61 58 60 59 25 61 51 62 34 63 50 64
REMARK SMILES IDX 35 65 38 66 49 67 65 68 36 69 37 70 48 72 66 73 39 74 26 75
REMARK SMILES IDX 27 76 32 77 28 78 29 79 31 80 33 81 30 82 52 83 53 84 58 85
REMARK SMILES IDX 54 86 55 87 57 88 59 89 56 90 40 91 41 92 46 93 42 94 43 95
REMARK SMILES IDX 45 96 47 97 44 98
REMARK H PARENT 83 25 64 60 38 71
REMARK Flexibility Score: inf
ROOT
ATOM      1  C   UNL A   1      34.776  24.208  25.363  1.00  0.00     0.202 C 
ENDROOT
BRANCH   1   2
ATOM      2  C   UNL A   1      33.294  24.594  25.377  1.00  0.00     0.261 C 
BRANCH   2   3
ATOM      3  O   UNL A   1      32.916  25.412  24.252  1.00  0.00    -0.463 OA
BRANCH   3   4
ATOM      4  C   UNL A   1      32.996  26.756  24.437  1.00  0.00     0.313 C 
ATOM      5  O   UNL A   1      33.368  27.542  23.571  1.00  0.00    -0.252 OA
BRANCH   4   6
ATOM      6  C   UNL A   1      32.515  27.221  25.819  1.00  0.00     0.126 C 
ATOM      7  C   UNL A   1      30.989  27.310  25.973  1.00  0.00     0.025 C 
BRANCH   6   8
ATOM      8  C   UNL A   1      33.244  28.448  26.387  1.00  0.00    -0.031 A 
ATOM      9  C   UNL A   1      32.519  29.619  26.666  1.00  0.00     0.005 A 
ATOM     10  C   UNL A   1      34.605  28.445  26.731  1.00  0.00     0.044 A 
ATOM     11  C   UNL A   1      33.118  30.722  27.299  1.00  0.00     0.012 A 
ATOM     12  C   UNL A   1      35.200  29.553  27.356  1.00  0.00     0.131 A 
ATOM     13  C   UNL A   1      34.468  30.700  27.680  1.00  0.00     0.018 A 
ATOM     14  F   UNL A   1      36.494  29.459  27.699  1.00  0.00    -0.206 F 
BRANCH  13  15
ATOM     15  C   UNL A   1      35.028  31.783  28.510  1.00  0.00    -0.012 A 
ATOM     16  C   UNL A   1      36.234  32.390  28.107  1.00  0.00     0.009 A 
ATOM     17  C   UNL A   1      34.405  32.259  29.677  1.00  0.00     0.056 A 
ATOM     18  C   UNL A   1      36.811  33.426  28.846  1.00  0.00     0.004 A 
ATOM     19  C   UNL A   1      34.992  33.297  30.418  1.00  0.00     0.133 A 
ATOM     20  C   UNL A   1      36.191  33.876  30.007  1.00  0.00     0.047 A 
BRANCH  19  21
ATOM     21  O   UNL A   1      34.334  33.943  31.498  1.00  0.00    -0.410 OA
BRANCH  21  22
ATOM     22  C   UNL A   1      34.225  33.327  32.729  1.00  0.00     0.412 C 
ATOM     23  O   UNL A   1      33.134  33.030  33.227  1.00  0.00    -0.224 OA
ATOM     24  N   UNL A   1      35.351  33.086  33.496  1.00  0.00    -0.321 N 
ATOM     25  H   UNL A   1      34.938  32.812  34.348  1.00  0.00     0.167 HD
BRANCH  24  26
ATOM     26  C   UNL A   1      36.901  32.972  33.865  1.00  0.00     0.119 C 
BRANCH  26  27
ATOM     27  C   UNL A   1      38.137  32.406  33.163  1.00  0.00     0.025 C 
BRANCH  27  28
ATOM     28  C   UNL A   1      37.844  31.583  31.879  1.00  0.00    -0.009 C 
ATOM     29  C   UNL A   1      39.096  31.030  31.151  1.00  0.00     0.003 C 
ATOM     30  C   UNL A   1      36.949  30.398  32.268  1.00  0.00     0.003 C 
ATOM     31  C   UNL A   1      38.748  30.159  29.950  1.00  0.00     0.000 C 
ATOM     32  C   UNL A   1      36.589  29.539  31.062  1.00  0.00     0.000 C 
ATOM     33  C   UNL A   1      37.830  29.019  30.345  1.00  0.00     0.000 C 
ENDBRANCH  27  28
ENDBRANCH  26  27
ENDBRANCH  24  26
ENDBRANCH  21  22
ENDBRANCH  19  21
ENDBRANCH  13  15
ENDBRANCH   6   8
ENDBRANCH   4   6
ENDBRANCH   3   4
ENDBRANCH   2   3
ENDBRANCH   1   2
BRANCH   1  34
ATOM     34  O   UNL A   1      35.181  23.172  26.255  1.00  0.00    -0.376 OA
BRANCH  34  35
ATOM     35  C   UNL A   1      36.017  22.127  25.762  1.00  0.00     0.188 C 
BRANCH  35  36
ATOM     36  C   UNL A   1      37.390  22.499  25.177  1.00  0.00     0.188 C 
BRANCH  36  37
ATOM     37  O   UNL A   1      38.387  22.688  26.161  1.00  0.00    -0.376 OA
BRANCH  37  38
ATOM     38  C   UNL A   1      38.511  23.982  26.723  1.00  0.00     0.202 C 
BRANCH  38  39
ATOM     39  C   UNL A   1      39.870  24.673  26.547  1.00  0.00     0.261 C 
BRANCH  39  40
ATOM     40  O   UNL A   1      40.632  24.890  27.746  1.00  0.00    -0.460 OA
BRANCH  40  41
ATOM     41  C   UNL A   1      41.766  24.168  27.902  1.00  0.00     0.338 C 
ATOM     42  O   UNL A   1      41.856  22.996  28.204  1.00  0.00    -0.246 OA
BRANCH  41  43
ATOM     43  C   UNL A   1      42.896  25.019  27.469  1.00  0.00     0.060 A 
ATOM     44  C   UNL A   1      43.709  25.616  28.439  1.00  0.00     0.016 A 
ATOM     45  C   UNL A   1      43.148  25.226  26.109  1.00  0.00     0.016 A 
ATOM     46  C   UNL A   1      44.766  26.439  28.044  1.00  0.00     0.010 A 
ATOM     47  C   UNL A   1      44.193  26.068  25.716  1.00  0.00     0.010 A 
ATOM     48  C   UNL A   1      44.995  26.692  26.682  1.00  0.00    -0.014 A 
BRANCH  48  49
ATOM     49  C   UNL A   1      46.006  27.711  26.299  1.00  0.00     0.031 A 
ATOM     50  C   UNL A   1      45.482  29.200  26.376  1.00  0.00     0.074 A 
ATOM     51  C   UNL A   1      47.286  27.265  26.067  1.00  0.00     0.049 A 
ATOM     52  N   UNL A   1      46.147  30.314  26.227  1.00  0.00    -0.248 NA
ATOM     53  C   UNL A   1      44.086  29.520  26.719  1.00  0.00     0.031 C 
ATOM     54  C   UNL A   1      47.823  25.896  26.146  1.00  0.00     0.029 A 
ATOM     55  N   UNL A   1      48.448  27.952  25.809  1.00  0.00    -0.354 N 
ATOM     56  C   UNL A   1      45.420  31.434  26.590  1.00  0.00     0.074 A 
ATOM     57  C   UNL A   1      44.092  30.861  26.807  1.00  0.00     0.031 C 
ATOM     58  C   UNL A   1      49.179  25.915  26.025  1.00  0.00     0.029 A 
ATOM     59  C   UNL A   1      49.662  27.293  25.837  1.00  0.00     0.049 A 
ATOM     60  H   UNL A   1      48.416  28.914  25.603  1.00  0.00     0.167 HD
ATOM     61  C   UNL A   1      45.859  32.748  26.721  1.00  0.00     0.037 A 
ATOM     62  C   UNL A   1      50.955  27.777  25.793  1.00  0.00     0.037 A 
ATOM     63  C   UNL A   1      47.259  33.339  26.507  1.00  0.00     0.049 A 
ATOM     64  C   UNL A   1      51.393  29.311  25.756  1.00  0.00     0.074 A 
ATOM     65  C   UNL A   1      47.618  34.484  25.798  1.00  0.00     0.029 A 
ATOM     66  N   UNL A   1      48.543  32.890  26.995  1.00  0.00    -0.354 N 
ATOM     67  N   UNL A   1      50.871  30.366  26.339  1.00  0.00    -0.248 NA
ATOM     68  C   UNL A   1      52.641  29.694  25.071  1.00  0.00     0.031 C 
ATOM     69  C   UNL A   1      49.027  34.502  25.582  1.00  0.00     0.029 A 
ATOM     70  C   UNL A   1      49.625  33.403  26.201  1.00  0.00     0.049 A 
ATOM     71  H   UNL A   1      48.663  32.303  27.777  1.00  0.00     0.167 HD
ATOM     72  C   UNL A   1      51.516  31.536  25.956  1.00  0.00     0.074 A 
ATOM     73  C   UNL A   1      52.722  31.013  25.307  1.00  0.00     0.031 C 
ATOM     74  C   UNL A   1      51.043  32.850  25.936  1.00  0.00     0.037 A 
BRANCH  61  75
ATOM     75  C   UNL A   1      44.689  33.708  26.745  1.00  0.00     0.057 A 
ATOM     76  C   UNL A   1      43.997  34.087  25.591  1.00  0.00     0.134 A 
ATOM     77  C   UNL A   1      44.346  34.378  27.934  1.00  0.00     0.134 A 
ATOM     78  F   UNL A   1      44.306  33.541  24.406  1.00  0.00    -0.206 F 
ATOM     79  C   UNL A   1      43.032  35.103  25.616  1.00  0.00     0.040 A 
ATOM     80  C   UNL A   1      43.367  35.371  27.978  1.00  0.00     0.040 A 
ATOM     81  F   UNL A   1      44.983  34.103  29.080  1.00  0.00    -0.206 F 
ATOM     82  C   UNL A   1      42.713  35.747  26.811  1.00  0.00     0.006 A 
ENDBRANCH  61  75
BRANCH  62  83
ATOM     83  C   UNL A   1      52.103  26.810  25.860  1.00  0.00     0.057 A 
ATOM     84  C   UNL A   1      52.746  26.552  27.081  1.00  0.00     0.134 A 
ATOM     85  C   UNL A   1      52.640  26.177  24.730  1.00  0.00     0.134 A 
ATOM     86  F   UNL A   1      52.360  27.181  28.198  1.00  0.00    -0.206 F 
ATOM     87  C   UNL A   1      53.842  25.690  27.183  1.00  0.00     0.040 A 
ATOM     88  C   UNL A   1      53.731  25.304  24.818  1.00  0.00     0.040 A 
ATOM     89  F   UNL A   1      52.133  26.413  23.511  1.00  0.00    -0.206 F 
ATOM     90  C   UNL A   1      54.334  25.056  26.049  1.00  0.00     0.006 A 
ENDBRANCH  62  83
BRANCH  74  91
ATOM     91  C   UNL A   1      51.983  33.832  25.266  1.00  0.00     0.057 A 
ATOM     92  C   UNL A   1      52.710  34.809  25.973  1.00  0.00     0.134 A 
ATOM     93  C   UNL A   1      52.211  33.746  23.891  1.00  0.00     0.134 A 
ATOM     94  F   UNL A   1      52.584  34.930  27.304  1.00  0.00    -0.206 F 
ATOM     95  C   UNL A   1      53.561  35.710  25.323  1.00  0.00     0.040 A 
ATOM     96  C   UNL A   1      53.086  34.617  23.236  1.00  0.00     0.040 A 
ATOM     97  F   UNL A   1      51.594  32.806  23.161  1.00  0.00    -0.206 F 
ATOM     98  C   UNL A   1      53.750  35.614  23.948  1.00  0.00     0.006 A 
ENDBRANCH  74  91
ENDBRANCH  48  49
ENDBRANCH  41  43
ENDBRANCH  40  41
ENDBRANCH  39  40
ENDBRANCH  38  39
ENDBRANCH  37  38
ENDBRANCH  36  37
ENDBRANCH  35  36
ENDBRANCH  34  35
ENDBRANCH   1  34
TORSDOF 24
ENDMDL
