MODEL 1
REMARK VINA RESULT:     -10.0      0.000      0.000
REMARK SMILES O=C(OCCOCCOCCOC(=O)[C@H]1C[C@](O)(c2ccc(F)cc2)[C@@H](c2ccc(F)cc2)O1)c1ccc(-c2c3nc(c(-c4c(F)cccc4F)c4ccc([nH]4)c(-c4c(F)cccc4F)c4nc(c(-c5c(F)cccc5F)c5ccc2[nH]5)C=C4)C=C3)cc1
REMARK SMILES IDX 7 1 6 2 5 3 4 4 3 5 2 6 1 7 35 8 36 9 88 10 37 11 87 12
REMARK SMILES IDX 38 13 39 14 40 15 81 16 41 17 86 18 80 19 82 20 42 21 85 22
REMARK SMILES IDX 79 23 78 24 43 26 69 27 52 28 68 29 53 30 56 31 67 32 83 33
REMARK SMILES IDX 54 34 55 35 66 37 84 38 57 39 44 40 45 41 50 42 46 43 47 44
REMARK SMILES IDX 49 45 51 46 48 47 70 48 71 49 76 50 72 51 73 52 75 53 77 54
REMARK SMILES IDX 74 55 58 56 59 57 64 58 60 59 61 60 63 61 65 62 62 63 8 64
REMARK SMILES IDX 9 65 10 66 11 67 12 68 13 69 14 70 15 71 16 72 34 73 17 74
REMARK SMILES IDX 26 75 19 76 20 77 25 78 21 79 24 80 22 81 23 82 18 83 27 85
REMARK SMILES IDX 28 86 33 87 29 88 32 89 30 90 31 91
REMARK H PARENT 82 25 56 36 18 84
REMARK Flexibility Score: inf
ROOT
ATOM      1  C   UNL A   1      33.529  37.168  32.673  1.00  0.00     0.188 C 
ENDROOT
BRANCH   1   2
ATOM      2  O   UNL A   1      34.469  36.567  33.570  1.00  0.00    -0.376 OA
BRANCH   2   3
ATOM      3  C   UNL A   1      34.888  35.263  33.161  1.00  0.00     0.202 C 
BRANCH   3   4
ATOM      4  C   UNL A   1      35.314  34.324  34.304  1.00  0.00     0.261 C 
BRANCH   4   5
ATOM      5  O   UNL A   1      36.708  33.967  34.257  1.00  0.00    -0.460 OA
BRANCH   5   6
ATOM      6  C   UNL A   1      37.326  32.947  34.904  1.00  0.00     0.338 C 
ATOM      7  O   UNL A   1      36.939  32.630  36.027  1.00  0.00    -0.246 OA
BRANCH   6   8
ATOM      8  C   UNL A   1      38.452  32.165  34.307  1.00  0.00     0.060 A 
ATOM      9  C   UNL A   1      39.786  32.310  34.676  1.00  0.00     0.016 A 
ATOM     10  C   UNL A   1      38.140  31.178  33.353  1.00  0.00     0.016 A 
ATOM     11  C   UNL A   1      40.796  31.615  34.028  1.00  0.00     0.010 A 
ATOM     12  C   UNL A   1      39.148  30.412  32.749  1.00  0.00     0.010 A 
ATOM     13  C   UNL A   1      40.488  30.663  33.057  1.00  0.00    -0.014 A 
BRANCH  13  14
ATOM     14  C   UNL A   1      41.618  30.039  32.335  1.00  0.00     0.031 A 
ATOM     15  C   UNL A   1      42.298  30.816  31.246  1.00  0.00     0.074 A 
ATOM     16  C   UNL A   1      42.144  28.889  32.802  1.00  0.00     0.049 A 
ATOM     17  N   UNL A   1      43.364  30.510  30.556  1.00  0.00    -0.248 NA
ATOM     18  C   UNL A   1      41.716  32.125  30.903  1.00  0.00     0.031 C 
ATOM     19  C   UNL A   1      41.613  28.122  33.933  1.00  0.00     0.029 A 
ATOM     20  N   UNL A   1      43.272  28.203  32.437  1.00  0.00    -0.354 N 
ATOM     21  C   UNL A   1      43.574  31.579  29.695  1.00  0.00     0.074 A 
ATOM     22  C   UNL A   1      42.521  32.539  29.937  1.00  0.00     0.031 C 
ATOM     23  C   UNL A   1      42.454  27.115  34.213  1.00  0.00     0.029 A 
ATOM     24  C   UNL A   1      43.542  27.121  33.242  1.00  0.00     0.049 A 
ATOM     25  H   UNL A   1      43.835  28.460  31.671  1.00  0.00     0.167 HD
ATOM     26  C   UNL A   1      44.563  31.743  28.789  1.00  0.00     0.037 A 
ATOM     27  C   UNL A   1      44.554  26.233  33.189  1.00  0.00     0.037 A 
ATOM     28  C   UNL A   1      45.604  30.779  28.562  1.00  0.00     0.049 A 
ATOM     29  C   UNL A   1      45.583  26.390  32.103  1.00  0.00     0.074 A 
ATOM     30  C   UNL A   1      46.604  30.794  27.607  1.00  0.00     0.029 A 
ATOM     31  N   UNL A   1      45.780  29.628  29.315  1.00  0.00    -0.354 N 
ATOM     32  N   UNL A   1      45.722  27.364  31.235  1.00  0.00    -0.248 NA
ATOM     33  C   UNL A   1      46.575  25.315  31.969  1.00  0.00     0.031 C 
ATOM     34  C   UNL A   1      47.367  29.633  27.763  1.00  0.00     0.029 A 
ATOM     35  C   UNL A   1      46.865  28.915  28.839  1.00  0.00     0.049 A 
ATOM     36  H   UNL A   1      45.216  29.358  30.076  1.00  0.00     0.167 HD
ATOM     37  C   UNL A   1      46.812  27.019  30.448  1.00  0.00     0.074 A 
ATOM     38  C   UNL A   1      47.319  25.763  30.966  1.00  0.00     0.031 C 
ATOM     39  C   UNL A   1      47.340  27.669  29.383  1.00  0.00     0.037 A 
BRANCH  26  40
ATOM     40  C   UNL A   1      44.529  32.983  27.951  1.00  0.00     0.057 A 
ATOM     41  C   UNL A   1      44.054  32.938  26.635  1.00  0.00     0.134 A 
ATOM     42  C   UNL A   1      44.973  34.218  28.440  1.00  0.00     0.134 A 
ATOM     43  F   UNL A   1      43.607  31.787  26.112  1.00  0.00    -0.206 F 
ATOM     44  C   UNL A   1      44.027  34.078  25.830  1.00  0.00     0.040 A 
ATOM     45  C   UNL A   1      44.936  35.369  27.650  1.00  0.00     0.040 A 
ATOM     46  F   UNL A   1      45.414  34.330  29.701  1.00  0.00    -0.206 F 
ATOM     47  C   UNL A   1      44.468  35.299  26.339  1.00  0.00     0.006 A 
ENDBRANCH  26  40
BRANCH  27  48
ATOM     48  C   UNL A   1      44.623  25.106  34.157  1.00  0.00     0.057 A 
ATOM     49  C   UNL A   1      44.140  23.832  33.828  1.00  0.00     0.134 A 
ATOM     50  C   UNL A   1      45.190  25.267  35.427  1.00  0.00     0.134 A 
ATOM     51  F   UNL A   1      43.587  23.606  32.627  1.00  0.00    -0.206 F 
ATOM     52  C   UNL A   1      44.202  22.767  34.728  1.00  0.00     0.040 A 
ATOM     53  C   UNL A   1      45.283  24.203  36.328  1.00  0.00     0.040 A 
ATOM     54  F   UNL A   1      45.691  26.454  35.797  1.00  0.00    -0.206 F 
ATOM     55  C   UNL A   1      44.781  22.949  35.981  1.00  0.00     0.006 A 
ENDBRANCH  27  48
BRANCH  39  56
ATOM     56  C   UNL A   1      48.515  27.032  28.709  1.00  0.00     0.057 A 
ATOM     57  C   UNL A   1      49.822  27.384  29.067  1.00  0.00     0.134 A 
ATOM     58  C   UNL A   1      48.346  26.123  27.659  1.00  0.00     0.134 A 
ATOM     59  F   UNL A   1      50.045  28.259  30.059  1.00  0.00    -0.206 F 
ATOM     60  C   UNL A   1      50.924  26.860  28.392  1.00  0.00     0.040 A 
ATOM     61  C   UNL A   1      49.441  25.576  26.990  1.00  0.00     0.040 A 
ATOM     62  F   UNL A   1      47.117  25.742  27.281  1.00  0.00    -0.206 F 
ATOM     63  C   UNL A   1      50.734  25.952  27.351  1.00  0.00     0.006 A 
ENDBRANCH  39  56
ENDBRANCH  13  14
ENDBRANCH   6   8
ENDBRANCH   5   6
ENDBRANCH   4   5
ENDBRANCH   3   4
ENDBRANCH   2   3
ENDBRANCH   1   2
BRANCH   1  64
ATOM     64  C   UNL A   1      32.602  36.131  32.040  1.00  0.00     0.188 C 
BRANCH  64  65
ATOM     65  O   UNL A   1      32.088  36.476  30.751  1.00  0.00    -0.376 OA
BRANCH  65  66
ATOM     66  C   UNL A   1      32.949  36.245  29.633  1.00  0.00     0.202 C 
BRANCH  66  67
ATOM     67  C   UNL A   1      33.292  34.774  29.358  1.00  0.00     0.261 C 
BRANCH  67  68
ATOM     68  O   UNL A   1      34.694  34.525  29.521  1.00  0.00    -0.461 OA
BRANCH  68  69
ATOM     69  C   UNL A   1      35.021  33.248  29.887  1.00  0.00     0.335 C 
ATOM     70  O   UNL A   1      34.383  32.568  30.669  1.00  0.00    -0.249 OA
BRANCH  69  71
ATOM     71  C   UNL A   1      36.309  32.818  29.164  1.00  0.00     0.232 C 
ATOM     72  C   UNL A   1      37.142  31.804  29.923  1.00  0.00     0.087 C 
ATOM     73  O   UNL A   1      36.067  32.260  27.875  1.00  0.00    -0.355 OA
ATOM     74  C   UNL A   1      36.791  30.435  29.323  1.00  0.00     0.123 C 
ATOM     75  C   UNL A   1      36.161  30.818  27.943  1.00  0.00     0.186 C 
BRANCH  74  76
ATOM     76  C   UNL A   1      38.048  29.553  29.349  1.00  0.00    -0.013 A 
ATOM     77  C   UNL A   1      38.052  28.418  30.193  1.00  0.00     0.010 A 
ATOM     78  C   UNL A   1      39.228  29.833  28.637  1.00  0.00     0.010 A 
ATOM     79  C   UNL A   1      39.191  27.625  30.350  1.00  0.00     0.039 A 
ATOM     80  C   UNL A   1      40.371  29.038  28.796  1.00  0.00     0.039 A 
ATOM     81  C   UNL A   1      40.345  27.948  29.655  1.00  0.00     0.123 A 
ATOM     82  F   UNL A   1      41.447  27.205  29.816  1.00  0.00    -0.207 F 
ENDBRANCH  74  76
BRANCH  74  83
ATOM     83  O   UNL A   1      35.843  29.813  30.198  1.00  0.00    -0.382 OA
ATOM     84  H   UNL A   1      35.559  30.451  30.872  1.00  0.00     0.212 HD
ENDBRANCH  74  83
BRANCH  75  85
ATOM     85  C   UNL A   1      34.794  30.258  27.565  1.00  0.00    -0.016 A 
ATOM     86  C   UNL A   1      33.651  31.074  27.468  1.00  0.00     0.009 A 
ATOM     87  C   UNL A   1      34.671  28.908  27.185  1.00  0.00     0.009 A 
ATOM     88  C   UNL A   1      32.445  30.577  26.970  1.00  0.00     0.039 A 
ATOM     89  C   UNL A   1      33.460  28.407  26.697  1.00  0.00     0.039 A 
ATOM     90  C   UNL A   1      32.362  29.249  26.582  1.00  0.00     0.123 A 
ATOM     91  F   UNL A   1      31.216  28.778  26.073  1.00  0.00    -0.207 F 
ENDBRANCH  75  85
ENDBRANCH  69  71
ENDBRANCH  68  69
ENDBRANCH  67  68
ENDBRANCH  66  67
ENDBRANCH  65  66
ENDBRANCH  64  65
ENDBRANCH   1  64
TORSDOF 20
ENDMDL
MODEL 2
REMARK VINA RESULT:      -9.9      5.752     11.609
REMARK SMILES O=C(OCCOCCOCCOC(=O)[C@H]1C[C@](O)(c2ccc(F)cc2)[C@@H](c2ccc(F)cc2)O1)c1ccc(-c2c3nc(c(-c4c(F)cccc4F)c4ccc([nH]4)c(-c4c(F)cccc4F)c4nc(c(-c5c(F)cccc5F)c5ccc2[nH]5)C=C4)C=C3)cc1
REMARK SMILES IDX 7 1 6 2 5 3 4 4 3 5 2 6 1 7 35 8 36 9 88 10 37 11 87 12
REMARK SMILES IDX 38 13 39 14 40 15 81 16 41 17 86 18 80 19 82 20 42 21 85 22
REMARK SMILES IDX 79 23 78 24 43 26 69 27 52 28 68 29 53 30 56 31 67 32 83 33
REMARK SMILES IDX 54 34 55 35 66 37 84 38 57 39 44 40 45 41 50 42 46 43 47 44
REMARK SMILES IDX 49 45 51 46 48 47 70 48 71 49 76 50 72 51 73 52 75 53 77 54
REMARK SMILES IDX 74 55 58 56 59 57 64 58 60 59 61 60 63 61 65 62 62 63 8 64
REMARK SMILES IDX 9 65 10 66 11 67 12 68 13 69 14 70 15 71 16 72 34 73 17 74
REMARK SMILES IDX 26 75 19 76 20 77 25 78 21 79 24 80 22 81 23 82 18 83 27 85
REMARK SMILES IDX 28 86 33 87 29 88 32 89 30 90 31 91
REMARK H PARENT 82 25 56 36 18 84
REMARK Flexibility Score: inf
ROOT
ATOM      1  C   UNL A   1      42.646  20.943  25.859  1.00  0.00     0.188 C 
ENDROOT
BRANCH   1   2
ATOM      2  O   UNL A   1      43.677  20.219  25.178  1.00  0.00    -0.376 OA
BRANCH   2   3
ATOM      3  C   UNL A   1      44.624  21.065  24.520  1.00  0.00     0.202 C 
BRANCH   3   4
ATOM      4  C   UNL A   1      45.055  22.309  25.317  1.00  0.00     0.261 C 
BRANCH   4   5
ATOM      5  O   UNL A   1      44.410  23.518  24.877  1.00  0.00    -0.460 OA
BRANCH   5   6
ATOM      6  C   UNL A   1      44.708  24.795  25.229  1.00  0.00     0.338 C 
ATOM      7  O   UNL A   1      45.618  25.379  24.643  1.00  0.00    -0.246 OA
BRANCH   6   8
ATOM      8  C   UNL A   1      43.967  25.543  26.290  1.00  0.00     0.060 A 
ATOM      9  C   UNL A   1      44.103  26.908  26.524  1.00  0.00     0.016 A 
ATOM     10  C   UNL A   1      43.027  24.837  27.065  1.00  0.00     0.016 A 
ATOM     11  C   UNL A   1      43.450  27.531  27.576  1.00  0.00     0.010 A 
ATOM     12  C   UNL A   1      42.301  25.475  28.080  1.00  0.00     0.010 A 
ATOM     13  C   UNL A   1      42.546  26.821  28.367  1.00  0.00    -0.014 A 
BRANCH  13  14
ATOM     14  C   UNL A   1      41.969  27.522  29.534  1.00  0.00     0.031 A 
ATOM     15  C   UNL A   1      42.754  27.567  30.812  1.00  0.00     0.074 A 
ATOM     16  C   UNL A   1      40.863  28.275  29.370  1.00  0.00     0.049 A 
ATOM     17  N   UNL A   1      42.491  28.206  31.920  1.00  0.00    -0.248 NA
ATOM     18  C   UNL A   1      44.019  26.812  30.839  1.00  0.00     0.031 C 
ATOM     19  C   UNL A   1      40.097  28.379  28.124  1.00  0.00     0.029 A 
ATOM     20  N   UNL A   1      40.232  29.144  30.221  1.00  0.00    -0.354 N 
ATOM     21  C   UNL A   1      43.548  27.925  32.776  1.00  0.00     0.074 A 
ATOM     22  C   UNL A   1      44.453  27.048  32.068  1.00  0.00     0.031 C 
ATOM     23  C   UNL A   1      39.146  29.315  28.272  1.00  0.00     0.029 A 
ATOM     24  C   UNL A   1      39.189  29.824  29.638  1.00  0.00     0.049 A 
ATOM     25  H   UNL A   1      40.501  29.269  31.160  1.00  0.00     0.167 HD
ATOM     26  C   UNL A   1      43.744  28.366  34.038  1.00  0.00     0.037 A 
ATOM     27  C   UNL A   1      38.358  30.748  30.160  1.00  0.00     0.037 A 
ATOM     28  C   UNL A   1      42.835  29.240  34.727  1.00  0.00     0.049 A 
ATOM     29  C   UNL A   1      38.545  31.141  31.600  1.00  0.00     0.074 A 
ATOM     30  C   UNL A   1      42.882  29.677  36.037  1.00  0.00     0.029 A 
ATOM     31  N   UNL A   1      41.716  29.817  34.146  1.00  0.00    -0.354 N 
ATOM     32  N   UNL A   1      39.502  30.799  32.429  1.00  0.00    -0.248 NA
ATOM     33  C   UNL A   1      37.525  32.022  32.184  1.00  0.00     0.031 C 
ATOM     34  C   UNL A   1      41.771  30.496  36.259  1.00  0.00     0.029 A 
ATOM     35  C   UNL A   1      41.053  30.597  35.076  1.00  0.00     0.049 A 
ATOM     36  H   UNL A   1      41.435  29.690  33.211  1.00  0.00     0.167 HD
ATOM     37  C   UNL A   1      39.200  31.418  33.634  1.00  0.00     0.074 A 
ATOM     38  C   UNL A   1      37.988  32.185  33.417  1.00  0.00     0.031 C 
ATOM     39  C   UNL A   1      39.851  31.347  34.820  1.00  0.00     0.037 A 
BRANCH  26  40
ATOM     40  C   UNL A   1      44.959  27.869  34.759  1.00  0.00     0.057 A 
ATOM     41  C   UNL A   1      46.162  28.583  34.698  1.00  0.00     0.134 A 
ATOM     42  C   UNL A   1      44.943  26.684  35.503  1.00  0.00     0.134 A 
ATOM     43  F   UNL A   1      46.238  29.731  34.009  1.00  0.00    -0.206 F 
ATOM     44  C   UNL A   1      47.311  28.131  35.348  1.00  0.00     0.040 A 
ATOM     45  C   UNL A   1      46.082  26.229  36.171  1.00  0.00     0.040 A 
ATOM     46  F   UNL A   1      43.814  25.970  35.620  1.00  0.00    -0.206 F 
ATOM     47  C   UNL A   1      47.272  26.951  36.089  1.00  0.00     0.006 A 
ENDBRANCH  26  40
BRANCH  27  48
ATOM     48  C   UNL A   1      37.263  31.329  29.340  1.00  0.00     0.057 A 
ATOM     49  C   UNL A   1      36.095  30.604  29.063  1.00  0.00     0.134 A 
ATOM     50  C   UNL A   1      37.343  32.630  28.827  1.00  0.00     0.134 A 
ATOM     51  F   UNL A   1      35.950  29.352  29.524  1.00  0.00    -0.206 F 
ATOM     52  C   UNL A   1      35.060  31.140  28.296  1.00  0.00     0.040 A 
ATOM     53  C   UNL A   1      36.303  33.190  28.081  1.00  0.00     0.040 A 
ATOM     54  F   UNL A   1      38.422  33.386  29.074  1.00  0.00    -0.206 F 
ATOM     55  C   UNL A   1      35.159  32.441  27.808  1.00  0.00     0.006 A 
ENDBRANCH  27  48
BRANCH  39  56
ATOM     56  C   UNL A   1      39.264  32.112  35.967  1.00  0.00     0.057 A 
ATOM     57  C   UNL A   1      38.299  31.529  36.795  1.00  0.00     0.134 A 
ATOM     58  C   UNL A   1      39.609  33.448  36.201  1.00  0.00     0.134 A 
ATOM     59  F   UNL A   1      37.921  30.255  36.612  1.00  0.00    -0.206 F 
ATOM     60  C   UNL A   1      37.685  32.256  37.815  1.00  0.00     0.040 A 
ATOM     61  C   UNL A   1      39.017  34.179  37.231  1.00  0.00     0.040 A 
ATOM     62  F   UNL A   1      40.536  34.053  35.445  1.00  0.00    -0.206 F 
ATOM     63  C   UNL A   1      38.046  33.584  38.035  1.00  0.00     0.006 A 
ENDBRANCH  39  56
ENDBRANCH  13  14
ENDBRANCH   6   8
ENDBRANCH   5   6
ENDBRANCH   4   5
ENDBRANCH   3   4
ENDBRANCH   2   3
ENDBRANCH   1   2
BRANCH   1  64
ATOM     64  C   UNL A   1      41.903  20.064  26.864  1.00  0.00     0.188 C 
BRANCH  64  65
ATOM     65  O   UNL A   1      40.742  20.656  27.451  1.00  0.00    -0.376 OA
BRANCH  65  66
ATOM     66  C   UNL A   1      40.826  22.044  27.783  1.00  0.00     0.202 C 
BRANCH  66  67
ATOM     67  C   UNL A   1      39.838  22.960  27.049  1.00  0.00     0.261 C 
BRANCH  67  68
ATOM     68  O   UNL A   1      38.893  22.201  26.283  1.00  0.00    -0.461 OA
BRANCH  68  69
ATOM     69  C   UNL A   1      37.951  22.939  25.620  1.00  0.00     0.335 C 
ATOM     70  O   UNL A   1      37.682  24.100  25.870  1.00  0.00    -0.249 OA
BRANCH  69  71
ATOM     71  C   UNL A   1      37.294  22.078  24.528  1.00  0.00     0.232 C 
ATOM     72  C   UNL A   1      36.804  20.727  25.009  1.00  0.00     0.087 C 
ATOM     73  O   UNL A   1      36.180  22.717  23.909  1.00  0.00    -0.355 OA
ATOM     74  C   UNL A   1      35.299  20.890  25.264  1.00  0.00     0.123 C 
ATOM     75  C   UNL A   1      34.950  22.174  24.442  1.00  0.00     0.186 C 
BRANCH  74  76
ATOM     76  C   UNL A   1      34.598  19.569  24.914  1.00  0.00    -0.013 A 
ATOM     77  C   UNL A   1      33.192  19.499  25.056  1.00  0.00     0.010 A 
ATOM     78  C   UNL A   1      35.267  18.395  24.525  1.00  0.00     0.010 A 
ATOM     79  C   UNL A   1      32.493  18.305  24.857  1.00  0.00     0.039 A 
ATOM     80  C   UNL A   1      34.566  17.198  24.327  1.00  0.00     0.039 A 
ATOM     81  C   UNL A   1      33.190  17.162  24.501  1.00  0.00     0.123 A 
ATOM     82  F   UNL A   1      32.531  16.009  24.330  1.00  0.00    -0.207 F 
ENDBRANCH  74  76
BRANCH  74  83
ATOM     83  O   UNL A   1      35.121  21.081  26.672  1.00  0.00    -0.382 OA
ATOM     84  H   UNL A   1      34.396  20.519  26.985  1.00  0.00     0.212 HD
ENDBRANCH  74  83
BRANCH  75  85
ATOM     85  C   UNL A   1      34.210  23.320  25.126  1.00  0.00    -0.016 A 
ATOM     86  C   UNL A   1      34.556  24.668  24.910  1.00  0.00     0.009 A 
ATOM     87  C   UNL A   1      33.073  23.050  25.909  1.00  0.00     0.009 A 
ATOM     88  C   UNL A   1      33.772  25.707  25.418  1.00  0.00     0.039 A 
ATOM     89  C   UNL A   1      32.295  24.091  26.427  1.00  0.00     0.039 A 
ATOM     90  C   UNL A   1      32.644  25.409  26.166  1.00  0.00     0.123 A 
ATOM     91  F   UNL A   1      31.873  26.403  26.626  1.00  0.00    -0.207 F 
ENDBRANCH  75  85
ENDBRANCH  69  71
ENDBRANCH  68  69
ENDBRANCH  67  68
ENDBRANCH  66  67
ENDBRANCH  65  66
ENDBRANCH  64  65
ENDBRANCH   1  64
TORSDOF 20
ENDMDL
MODEL 3
REMARK VINA RESULT:      -9.9      3.408      7.597
REMARK SMILES O=C(OCCOCCOCCOC(=O)[C@H]1C[C@](O)(c2ccc(F)cc2)[C@@H](c2ccc(F)cc2)O1)c1ccc(-c2c3nc(c(-c4c(F)cccc4F)c4ccc([nH]4)c(-c4c(F)cccc4F)c4nc(c(-c5c(F)cccc5F)c5ccc2[nH]5)C=C4)C=C3)cc1
REMARK SMILES IDX 7 1 6 2 5 3 4 4 3 5 2 6 1 7 35 8 36 9 88 10 37 11 87 12
REMARK SMILES IDX 38 13 39 14 40 15 81 16 41 17 86 18 80 19 82 20 42 21 85 22
REMARK SMILES IDX 79 23 78 24 43 26 69 27 52 28 68 29 53 30 56 31 67 32 83 33
REMARK SMILES IDX 54 34 55 35 66 37 84 38 57 39 44 40 45 41 50 42 46 43 47 44
REMARK SMILES IDX 49 45 51 46 48 47 70 48 71 49 76 50 72 51 73 52 75 53 77 54
REMARK SMILES IDX 74 55 58 56 59 57 64 58 60 59 61 60 63 61 65 62 62 63 8 64
REMARK SMILES IDX 9 65 10 66 11 67 12 68 13 69 14 70 15 71 16 72 34 73 17 74
REMARK SMILES IDX 26 75 19 76 20 77 25 78 21 79 24 80 22 81 23 82 18 83 27 85
REMARK SMILES IDX 28 86 33 87 29 88 32 89 30 90 31 91
REMARK H PARENT 82 25 56 36 18 84
REMARK Flexibility Score: inf
ROOT
ATOM      1  C   UNL A   1      34.754  35.432  32.700  1.00  0.00     0.188 C 
ENDROOT
BRANCH   1   2
ATOM      2  O   UNL A   1      33.658  36.265  32.309  1.00  0.00    -0.376 OA
BRANCH   2   3
ATOM      3  C   UNL A   1      32.830  35.678  31.303  1.00  0.00     0.202 C 
BRANCH   3   4
ATOM      4  C   UNL A   1      32.689  36.500  30.009  1.00  0.00     0.261 C 
BRANCH   4   5
ATOM      5  O   UNL A   1      33.258  35.849  28.858  1.00  0.00    -0.460 OA
BRANCH   5   6
ATOM      6  C   UNL A   1      33.413  34.517  28.648  1.00  0.00     0.338 C 
ATOM      7  O   UNL A   1      32.490  33.881  28.142  1.00  0.00    -0.246 OA
BRANCH   6   8
ATOM      8  C   UNL A   1      34.669  33.779  28.983  1.00  0.00     0.060 A 
ATOM      9  C   UNL A   1      34.772  32.830  29.995  1.00  0.00     0.016 A 
ATOM     10  C   UNL A   1      35.807  34.013  28.187  1.00  0.00     0.016 A 
ATOM     11  C   UNL A   1      35.984  32.238  30.313  1.00  0.00     0.010 A 
ATOM     12  C   UNL A   1      37.020  33.359  28.450  1.00  0.00     0.010 A 
ATOM     13  C   UNL A   1      37.120  32.499  29.546  1.00  0.00    -0.014 A 
BRANCH  13  14
ATOM     14  C   UNL A   1      38.399  31.916  30.008  1.00  0.00     0.031 A 
ATOM     15  C   UNL A   1      38.832  30.591  29.454  1.00  0.00     0.074 A 
ATOM     16  C   UNL A   1      39.240  32.671  30.743  1.00  0.00     0.049 A 
ATOM     17  N   UNL A   1      39.953  29.946  29.638  1.00  0.00    -0.248 NA
ATOM     18  C   UNL A   1      37.887  29.908  28.552  1.00  0.00     0.031 C 
ATOM     19  C   UNL A   1      38.945  34.022  31.231  1.00  0.00     0.029 A 
ATOM     20  N   UNL A   1      40.529  32.447  31.148  1.00  0.00    -0.354 N 
ATOM     21  C   UNL A   1      39.846  28.784  28.885  1.00  0.00     0.074 A 
ATOM     22  C   UNL A   1      38.548  28.801  28.250  1.00  0.00     0.031 C 
ATOM     23  C   UNL A   1      40.046  34.531  31.805  1.00  0.00     0.029 A 
ATOM     24  C   UNL A   1      41.099  33.522  31.789  1.00  0.00     0.049 A 
ATOM     25  H   UNL A   1      41.002  31.597  30.995  1.00  0.00     0.167 HD
ATOM     26  C   UNL A   1      40.755  27.795  28.736  1.00  0.00     0.037 A 
ATOM     27  C   UNL A   1      42.333  33.665  32.311  1.00  0.00     0.037 A 
ATOM     28  C   UNL A   1      42.042  27.795  29.373  1.00  0.00     0.049 A 
ATOM     29  C   UNL A   1      43.285  32.504  32.213  1.00  0.00     0.074 A 
ATOM     30  C   UNL A   1      43.008  26.805  29.370  1.00  0.00     0.029 A 
ATOM     31  N   UNL A   1      42.544  28.849  30.120  1.00  0.00    -0.354 N 
ATOM     32  N   UNL A   1      43.139  31.370  31.571  1.00  0.00    -0.248 NA
ATOM     33  C   UNL A   1      44.558  32.629  32.935  1.00  0.00     0.031 C 
ATOM     34  C   UNL A   1      44.084  27.250  30.144  1.00  0.00     0.029 A 
ATOM     35  C   UNL A   1      43.803  28.530  30.598  1.00  0.00     0.049 A 
ATOM     36  H   UNL A   1      42.075  29.699  30.287  1.00  0.00     0.167 HD
ATOM     37  C   UNL A   1      44.297  30.644  31.812  1.00  0.00     0.074 A 
ATOM     38  C   UNL A   1      45.151  31.482  32.632  1.00  0.00     0.031 C 
ATOM     39  C   UNL A   1      44.622  29.392  31.410  1.00  0.00     0.037 A 
BRANCH  26  40
ATOM     40  C   UNL A   1      40.362  26.622  27.893  1.00  0.00     0.057 A 
ATOM     41  C   UNL A   1      39.524  25.626  28.409  1.00  0.00     0.134 A 
ATOM     42  C   UNL A   1      40.818  26.471  26.577  1.00  0.00     0.134 A 
ATOM     43  F   UNL A   1      39.048  25.718  29.659  1.00  0.00    -0.206 F 
ATOM     44  C   UNL A   1      39.158  24.515  27.647  1.00  0.00     0.040 A 
ATOM     45  C   UNL A   1      40.445  25.373  25.800  1.00  0.00     0.040 A 
ATOM     46  F   UNL A   1      41.602  27.405  26.019  1.00  0.00    -0.206 F 
ATOM     47  C   UNL A   1      39.617  24.388  26.337  1.00  0.00     0.006 A 
ENDBRANCH  26  40
BRANCH  27  48
ATOM     48  C   UNL A   1      42.722  34.923  33.000  1.00  0.00     0.057 A 
ATOM     49  C   UNL A   1      42.450  35.124  34.360  1.00  0.00     0.134 A 
ATOM     50  C   UNL A   1      43.392  35.950  32.324  1.00  0.00     0.134 A 
ATOM     51  F   UNL A   1      41.813  34.181  35.071  1.00  0.00    -0.206 F 
ATOM     52  C   UNL A   1      42.812  36.301  35.018  1.00  0.00     0.040 A 
ATOM     53  C   UNL A   1      43.785  37.122  32.975  1.00  0.00     0.040 A 
ATOM     54  F   UNL A   1      43.703  35.813  31.027  1.00  0.00    -0.206 F 
ATOM     55  C   UNL A   1      43.489  37.303  34.326  1.00  0.00     0.006 A 
ENDBRANCH  27  48
BRANCH  39  56
ATOM     56  C   UNL A   1      45.948  28.856  31.855  1.00  0.00     0.057 A 
ATOM     57  C   UNL A   1      46.038  27.995  32.955  1.00  0.00     0.134 A 
ATOM     58  C   UNL A   1      47.137  29.251  31.232  1.00  0.00     0.134 A 
ATOM     59  F   UNL A   1      44.933  27.591  33.598  1.00  0.00    -0.206 F 
ATOM     60  C   UNL A   1      47.273  27.555  33.430  1.00  0.00     0.040 A 
ATOM     61  C   UNL A   1      48.377  28.800  31.684  1.00  0.00     0.040 A 
ATOM     62  F   UNL A   1      47.109  30.065  30.167  1.00  0.00    -0.206 F 
ATOM     63  C   UNL A   1      48.446  27.956  32.792  1.00  0.00     0.006 A 
ENDBRANCH  39  56
ENDBRANCH  13  14
ENDBRANCH   6   8
ENDBRANCH   5   6
ENDBRANCH   4   5
ENDBRANCH   3   4
ENDBRANCH   2   3
ENDBRANCH   1   2
BRANCH   1  64
ATOM     64  C   UNL A   1      34.284  34.053  33.162  1.00  0.00     0.188 C 
BRANCH  64  65
ATOM     65  O   UNL A   1      34.968  33.525  34.301  1.00  0.00    -0.376 OA
BRANCH  65  66
ATOM     66  C   UNL A   1      35.951  34.368  34.909  1.00  0.00     0.202 C 
BRANCH  66  67
ATOM     67  C   UNL A   1      36.864  33.683  35.935  1.00  0.00     0.261 C 
BRANCH  67  68
ATOM     68  O   UNL A   1      36.952  32.272  35.696  1.00  0.00    -0.461 OA
BRANCH  68  69
ATOM     69  C   UNL A   1      37.969  31.632  36.350  1.00  0.00     0.335 C 
ATOM     70  O   UNL A   1      37.819  30.701  37.118  1.00  0.00    -0.249 OA
BRANCH  69  71
ATOM     71  C   UNL A   1      39.314  32.275  35.966  1.00  0.00     0.232 C 
ATOM     72  C   UNL A   1      40.502  31.749  36.747  1.00  0.00     0.087 C 
ATOM     73  O   UNL A   1      39.634  32.119  34.586  1.00  0.00    -0.355 OA
ATOM     74  C   UNL A   1      41.169  30.702  35.844  1.00  0.00     0.123 C 
ATOM     75  C   UNL A   1      40.610  31.062  34.429  1.00  0.00     0.186 C 
BRANCH  74  76
ATOM     76  C   UNL A   1      42.687  30.749  36.079  1.00  0.00    -0.013 A 
ATOM     77  C   UNL A   1      43.238  31.914  36.662  1.00  0.00     0.010 A 
ATOM     78  C   UNL A   1      43.581  29.736  35.692  1.00  0.00     0.010 A 
ATOM     79  C   UNL A   1      44.618  32.076  36.814  1.00  0.00     0.039 A 
ATOM     80  C   UNL A   1      44.964  29.899  35.843  1.00  0.00     0.039 A 
ATOM     81  C   UNL A   1      45.470  31.068  36.395  1.00  0.00     0.123 A 
ATOM     82  F   UNL A   1      46.794  31.224  36.518  1.00  0.00    -0.207 F 
ENDBRANCH  74  76
BRANCH  74  83
ATOM     83  O   UNL A   1      40.732  29.412  36.289  1.00  0.00    -0.382 OA
ATOM     84  H   UNL A   1      41.151  29.204  37.138  1.00  0.00     0.212 HD
ENDBRANCH  74  83
BRANCH  75  85
ATOM     85  C   UNL A   1      39.962  29.972  33.582  1.00  0.00    -0.016 A 
ATOM     86  C   UNL A   1      40.686  28.860  33.112  1.00  0.00     0.009 A 
ATOM     87  C   UNL A   1      38.574  29.999  33.348  1.00  0.00     0.009 A 
ATOM     88  C   UNL A   1      40.046  27.795  32.473  1.00  0.00     0.039 A 
ATOM     89  C   UNL A   1      37.935  28.938  32.698  1.00  0.00     0.039 A 
ATOM     90  C   UNL A   1      38.674  27.840  32.278  1.00  0.00     0.123 A 
ATOM     91  F   UNL A   1      38.053  26.807  31.696  1.00  0.00    -0.207 F 
ENDBRANCH  75  85
ENDBRANCH  69  71
ENDBRANCH  68  69
ENDBRANCH  67  68
ENDBRANCH  66  67
ENDBRANCH  65  66
ENDBRANCH  64  65
ENDBRANCH   1  64
TORSDOF 20
ENDMDL
