MODEL 1
REMARK VINA RESULT:     -10.0      0.000      0.000
REMARK SMILES CC[N@@H+](C)CCn1c(SCC(=O)OCCOCCOCCOC(=O)c2ccc(-c3c4nc(c(-c5c(F)cccc5F)c5ccc([nH]5)c(-c5c(F)cccc5F)c5nc(c(-c6c(F)cccc6F)c6ccc3[nH]6)C=C5)C=C4)cc2)nc2cnccc21
REMARK SMILES IDX 15 1 14 2 13 3 11 4 12 5 10 6 9 7 8 8 7 9 85 10 79 11 80 12
REMARK SMILES IDX 84 13 81 14 83 15 82 16 6 17 5 18 3 19 4 20 2 22 1 23 16 24
REMARK SMILES IDX 17 25 18 26 19 27 20 28 21 29 22 30 23 31 24 32 25 33 26 34
REMARK SMILES IDX 78 35 27 36 77 37 28 38 29 39 30 40 71 41 31 42 76 43 70 44
REMARK SMILES IDX 72 45 32 46 75 47 69 48 68 49 33 51 59 52 42 53 58 54 43 55
REMARK SMILES IDX 46 56 57 57 73 58 44 59 45 60 56 62 74 63 47 64 34 65 35 66
REMARK SMILES IDX 40 67 36 68 37 69 39 70 41 71 38 72 60 73 61 74 66 75 62 76
REMARK SMILES IDX 63 77 65 78 67 79 64 80 48 81 49 82 54 83 50 84 51 85 53 86
REMARK SMILES IDX 55 87 52 88
REMARK H PARENT 3 21 72 50 46 61
REMARK Flexibility Score: inf
ROOT
ATOM      1  C   UNL A   1      34.070  32.437  27.822  1.00  0.00     0.202 C 
ENDROOT
BRANCH   1   2
ATOM      2  C   UNL A   1      33.045  31.384  27.377  1.00  0.00     0.261 C 
BRANCH   2   3
ATOM      3  O   UNL A   1      33.664  30.240  26.718  1.00  0.00    -0.463 OA
BRANCH   3   4
ATOM      4  C   UNL A   1      32.853  29.485  25.934  1.00  0.00     0.316 C 
ATOM      5  O   UNL A   1      31.713  29.834  25.630  1.00  0.00    -0.251 OA
BRANCH   4   6
ATOM      6  C   UNL A   1      33.455  28.229  25.306  1.00  0.00     0.200 C 
BRANCH   6   7
ATOM      7  S   UNL A   1      33.540  28.081  23.523  1.00  0.00    -0.076 SA
BRANCH   7   8
ATOM      8  C   UNL A   1      31.958  28.203  22.758  1.00  0.00     0.169 A 
ATOM      9  N   UNL A   1      30.841  27.430  22.981  1.00  0.00    -0.313 N 
ATOM     10  C   UNL A   1      29.728  28.246  22.883  1.00  0.00     0.072 A 
ATOM     11  N   UNL A   1      31.590  29.327  22.165  1.00  0.00    -0.221 NA
ATOM     12  C   UNL A   1      30.212  29.383  22.256  1.00  0.00     0.108 A 
ATOM     13  C   UNL A   1      28.382  28.094  23.238  1.00  0.00     0.049 A 
ATOM     14  C   UNL A   1      29.290  30.367  21.882  1.00  0.00     0.141 A 
ATOM     15  C   UNL A   1      27.553  29.133  22.855  1.00  0.00     0.113 A 
ATOM     16  N   UNL A   1      27.965  30.227  22.179  1.00  0.00    -0.262 NA
BRANCH   9  17
ATOM     17  C   UNL A   1      30.714  26.040  23.282  1.00  0.00     0.186 C 
BRANCH  17  18
ATOM     18  C   UNL A   1      31.054  25.595  24.698  1.00  0.00     0.284 C 
BRANCH  18  19
ATOM     19  N   UNL A   1      31.488  24.318  25.242  1.00  0.00    -0.336 N 
ATOM     20  C   UNL A   1      31.262  23.263  24.251  1.00  0.00     0.332 C 
ATOM     21  H   UNL A   1      32.479  24.483  25.412  1.00  0.00     0.347 HD
BRANCH  19  22
ATOM     22  C   UNL A   1      31.132  23.922  26.588  1.00  0.00     0.258 C 
ATOM     23  C   UNL A   1      30.287  22.655  26.602  1.00  0.00     0.071 C 
ENDBRANCH  19  22
ENDBRANCH  18  19
ENDBRANCH  17  18
ENDBRANCH   9  17
ENDBRANCH   7   8
ENDBRANCH   6   7
ENDBRANCH   4   6
ENDBRANCH   3   4
ENDBRANCH   2   3
ENDBRANCH   1   2
BRANCH   1  24
ATOM     24  O   UNL A   1      33.539  33.741  28.026  1.00  0.00    -0.376 OA
BRANCH  24  25
ATOM     25  C   UNL A   1      34.453  34.702  28.511  1.00  0.00     0.188 C 
BRANCH  25  26
ATOM     26  C   UNL A   1      34.091  36.185  28.414  1.00  0.00     0.188 C 
BRANCH  26  27
ATOM     27  O   UNL A   1      32.912  36.571  29.065  1.00  0.00    -0.376 OA
BRANCH  27  28
ATOM     28  C   UNL A   1      32.958  36.839  30.453  1.00  0.00     0.202 C 
BRANCH  28  29
ATOM     29  C   UNL A   1      32.223  35.940  31.468  1.00  0.00     0.261 C 
BRANCH  29  30
ATOM     30  O   UNL A   1      32.392  36.331  32.852  1.00  0.00    -0.460 OA
BRANCH  30  31
ATOM     31  C   UNL A   1      33.704  36.539  33.209  1.00  0.00     0.338 C 
ATOM     32  O   UNL A   1      34.135  37.564  33.662  1.00  0.00    -0.246 OA
BRANCH  31  33
ATOM     33  C   UNL A   1      34.459  35.233  33.311  1.00  0.00     0.060 A 
ATOM     34  C   UNL A   1      35.262  34.821  34.384  1.00  0.00     0.016 A 
ATOM     35  C   UNL A   1      34.516  34.487  32.140  1.00  0.00     0.016 A 
ATOM     36  C   UNL A   1      36.313  33.879  34.189  1.00  0.00     0.010 A 
ATOM     37  C   UNL A   1      35.525  33.534  31.971  1.00  0.00     0.010 A 
ATOM     38  C   UNL A   1      36.528  33.301  32.938  1.00  0.00    -0.014 A 
BRANCH  38  39
ATOM     39  C   UNL A   1      37.688  32.415  32.555  1.00  0.00     0.031 A 
ATOM     40  C   UNL A   1      38.467  31.964  33.737  1.00  0.00     0.074 A 
ATOM     41  C   UNL A   1      38.015  31.772  31.391  1.00  0.00     0.049 A 
ATOM     42  N   UNL A   1      39.319  32.696  34.373  1.00  0.00    -0.248 NA
ATOM     43  C   UNL A   1      38.170  30.691  34.415  1.00  0.00     0.031 C 
ATOM     44  C   UNL A   1      37.274  31.718  30.125  1.00  0.00     0.029 A 
ATOM     45  N   UNL A   1      39.066  30.904  31.132  1.00  0.00    -0.354 N 
ATOM     46  C   UNL A   1      39.896  31.835  35.287  1.00  0.00     0.074 A 
ATOM     47  C   UNL A   1      38.927  30.800  35.513  1.00  0.00     0.031 C 
ATOM     48  C   UNL A   1      37.781  30.743  29.318  1.00  0.00     0.029 A 
ATOM     49  C   UNL A   1      39.006  30.220  29.904  1.00  0.00     0.049 A 
ATOM     50  H   UNL A   1      39.808  30.774  31.766  1.00  0.00     0.167 HD
ATOM     51  C   UNL A   1      41.249  31.786  35.435  1.00  0.00     0.037 A 
ATOM     52  C   UNL A   1      39.936  29.382  29.350  1.00  0.00     0.037 A 
ATOM     53  C   UNL A   1      41.893  32.784  34.597  1.00  0.00     0.049 A 
ATOM     54  C   UNL A   1      41.237  29.824  29.890  1.00  0.00     0.074 A 
ATOM     55  C   UNL A   1      41.743  34.141  34.382  1.00  0.00     0.029 A 
ATOM     56  N   UNL A   1      42.577  32.302  33.507  1.00  0.00    -0.354 N 
ATOM     57  N   UNL A   1      41.806  30.943  29.550  1.00  0.00    -0.248 NA
ATOM     58  C   UNL A   1      41.835  29.135  31.021  1.00  0.00     0.031 C 
ATOM     59  C   UNL A   1      41.985  34.341  32.990  1.00  0.00     0.029 A 
ATOM     60  C   UNL A   1      42.365  33.124  32.429  1.00  0.00     0.049 A 
ATOM     61  H   UNL A   1      43.134  31.490  33.500  1.00  0.00     0.167 HD
ATOM     62  C   UNL A   1      42.429  31.347  30.707  1.00  0.00     0.074 A 
ATOM     63  C   UNL A   1      42.607  30.124  31.478  1.00  0.00     0.031 C 
ATOM     64  C   UNL A   1      42.396  32.664  31.058  1.00  0.00     0.037 A 
BRANCH  51  65
ATOM     65  C   UNL A   1      42.027  30.610  35.973  1.00  0.00     0.057 A 
ATOM     66  C   UNL A   1      42.057  29.315  35.420  1.00  0.00     0.134 A 
ATOM     67  C   UNL A   1      42.982  30.857  36.974  1.00  0.00     0.134 A 
ATOM     68  F   UNL A   1      41.305  28.957  34.374  1.00  0.00    -0.206 F 
ATOM     69  C   UNL A   1      42.952  28.330  35.852  1.00  0.00     0.040 A 
ATOM     70  C   UNL A   1      43.923  29.900  37.367  1.00  0.00     0.040 A 
ATOM     71  F   UNL A   1      43.074  32.066  37.549  1.00  0.00    -0.206 F 
ATOM     72  C   UNL A   1      43.906  28.628  36.809  1.00  0.00     0.006 A 
ENDBRANCH  51  65
BRANCH  52  73
ATOM     73  C   UNL A   1      39.956  28.300  28.321  1.00  0.00     0.057 A 
ATOM     74  C   UNL A   1      39.590  26.988  28.648  1.00  0.00     0.134 A 
ATOM     75  C   UNL A   1      40.667  28.441  27.106  1.00  0.00     0.134 A 
ATOM     76  F   UNL A   1      38.956  26.731  29.802  1.00  0.00    -0.206 F 
ATOM     77  C   UNL A   1      39.955  25.884  27.853  1.00  0.00     0.040 A 
ATOM     78  C   UNL A   1      41.039  27.349  26.305  1.00  0.00     0.040 A 
ATOM     79  F   UNL A   1      41.093  29.644  26.694  1.00  0.00    -0.206 F 
ATOM     80  C   UNL A   1      40.700  26.060  26.689  1.00  0.00     0.006 A 
ENDBRANCH  52  73
BRANCH  64  81
ATOM     81  C   UNL A   1      42.147  33.674  29.959  1.00  0.00     0.057 A 
ATOM     82  C   UNL A   1      43.230  34.064  29.163  1.00  0.00     0.134 A 
ATOM     83  C   UNL A   1      40.926  34.317  29.698  1.00  0.00     0.134 A 
ATOM     84  F   UNL A   1      44.442  33.524  29.361  1.00  0.00    -0.206 F 
ATOM     85  C   UNL A   1      43.106  35.033  28.163  1.00  0.00     0.040 A 
ATOM     86  C   UNL A   1      40.778  35.260  28.676  1.00  0.00     0.040 A 
ATOM     87  F   UNL A   1      39.841  34.087  30.442  1.00  0.00    -0.206 F 
ATOM     88  C   UNL A   1      41.874  35.628  27.908  1.00  0.00     0.006 A 
ENDBRANCH  64  81
ENDBRANCH  38  39
ENDBRANCH  31  33
ENDBRANCH  30  31
ENDBRANCH  29  30
ENDBRANCH  28  29
ENDBRANCH  27  28
ENDBRANCH  26  27
ENDBRANCH  25  26
ENDBRANCH  24  25
ENDBRANCH   1  24
TORSDOF 23
ENDMDL
MODEL 2
REMARK VINA RESULT:      -9.7      3.454      5.991
REMARK SMILES CC[N@@H+](C)CCn1c(SCC(=O)OCCOCCOCCOC(=O)c2ccc(-c3c4nc(c(-c5c(F)cccc5F)c5ccc([nH]5)c(-c5c(F)cccc5F)c5nc(c(-c6c(F)cccc6F)c6ccc3[nH]6)C=C5)C=C4)cc2)nc2cnccc21
REMARK SMILES IDX 15 1 14 2 13 3 11 4 12 5 10 6 9 7 8 8 7 9 85 10 79 11 80 12
REMARK SMILES IDX 84 13 81 14 83 15 82 16 6 17 5 18 3 19 4 20 2 22 1 23 16 24
REMARK SMILES IDX 17 25 18 26 19 27 20 28 21 29 22 30 23 31 24 32 25 33 26 34
REMARK SMILES IDX 78 35 27 36 77 37 28 38 29 39 30 40 71 41 31 42 76 43 70 44
REMARK SMILES IDX 72 45 32 46 75 47 69 48 68 49 33 51 59 52 42 53 58 54 43 55
REMARK SMILES IDX 46 56 57 57 73 58 44 59 45 60 56 62 74 63 47 64 34 65 35 66
REMARK SMILES IDX 40 67 36 68 37 69 39 70 41 71 38 72 60 73 61 74 66 75 62 76
REMARK SMILES IDX 63 77 65 78 67 79 64 80 48 81 49 82 54 83 50 84 51 85 53 86
REMARK SMILES IDX 55 87 52 88
REMARK H PARENT 3 21 72 50 46 61
REMARK Flexibility Score: inf
ROOT
ATOM      1  C   UNL A   1      32.935  28.229  22.499  1.00  0.00     0.202 C 
ENDROOT
BRANCH   1   2
ATOM      2  C   UNL A   1      33.579  26.886  22.874  1.00  0.00     0.261 C 
BRANCH   2   3
ATOM      3  O   UNL A   1      33.657  25.965  21.747  1.00  0.00    -0.463 OA
BRANCH   3   4
ATOM      4  C   UNL A   1      32.926  24.826  21.849  1.00  0.00     0.316 C 
ATOM      5  O   UNL A   1      33.374  23.721  21.542  1.00  0.00    -0.251 OA
BRANCH   4   6
ATOM      6  C   UNL A   1      31.548  24.931  22.500  1.00  0.00     0.200 C 
BRANCH   6   7
ATOM      7  S   UNL A   1      31.050  23.720  23.724  1.00  0.00    -0.076 SA
BRANCH   7   8
ATOM      8  C   UNL A   1      32.417  23.067  24.623  1.00  0.00     0.169 A 
ATOM      9  N   UNL A   1      33.180  21.960  24.331  1.00  0.00    -0.313 N 
ATOM     10  C   UNL A   1      34.487  22.231  24.692  1.00  0.00     0.072 A 
ATOM     11  N   UNL A   1      33.082  23.833  25.472  1.00  0.00    -0.221 NA
ATOM     12  C   UNL A   1      34.375  23.345  25.508  1.00  0.00     0.108 A 
ATOM     13  C   UNL A   1      35.714  21.612  24.424  1.00  0.00     0.049 A 
ATOM     14  C   UNL A   1      35.527  23.799  26.159  1.00  0.00     0.141 A 
ATOM     15  C   UNL A   1      36.802  22.151  25.088  1.00  0.00     0.113 A 
ATOM     16  N   UNL A   1      36.730  23.190  25.948  1.00  0.00    -0.262 NA
BRANCH   9  17
ATOM     17  C   UNL A   1      32.819  20.707  23.747  1.00  0.00     0.186 C 
BRANCH  17  18
ATOM     18  C   UNL A   1      32.650  19.519  24.684  1.00  0.00     0.284 C 
BRANCH  18  19
ATOM     19  N   UNL A   1      32.348  18.118  24.439  1.00  0.00    -0.336 N 
ATOM     20  C   UNL A   1      32.669  17.333  25.634  1.00  0.00     0.332 C 
ATOM     21  H   UNL A   1      31.346  18.144  24.250  1.00  0.00     0.347 HD
BRANCH  19  22
ATOM     22  C   UNL A   1      32.752  17.473  23.208  1.00  0.00     0.258 C 
ATOM     23  C   UNL A   1      34.195  16.989  23.268  1.00  0.00     0.071 C 
ENDBRANCH  19  22
ENDBRANCH  18  19
ENDBRANCH  17  18
ENDBRANCH   9  17
ENDBRANCH   7   8
ENDBRANCH   6   7
ENDBRANCH   4   6
ENDBRANCH   3   4
ENDBRANCH   2   3
ENDBRANCH   1   2
BRANCH   1  24
ATOM     24  O   UNL A   1      31.515  28.253  22.575  1.00  0.00    -0.376 OA
BRANCH  24  25
ATOM     25  C   UNL A   1      30.963  29.339  23.290  1.00  0.00     0.188 C 
BRANCH  25  26
ATOM     26  C   UNL A   1      31.092  29.365  24.815  1.00  0.00     0.188 C 
BRANCH  26  27
ATOM     27  O   UNL A   1      32.046  30.250  25.333  1.00  0.00    -0.376 OA
BRANCH  27  28
ATOM     28  C   UNL A   1      32.997  29.760  26.259  1.00  0.00     0.202 C 
BRANCH  28  29
ATOM     29  C   UNL A   1      33.224  30.452  27.618  1.00  0.00     0.261 C 
BRANCH  29  30
ATOM     30  O   UNL A   1      33.882  31.739  27.535  1.00  0.00    -0.460 OA
BRANCH  30  31
ATOM     31  C   UNL A   1      34.785  31.963  28.548  1.00  0.00     0.338 C 
ATOM     32  O   UNL A   1      34.493  32.298  29.664  1.00  0.00    -0.246 OA
BRANCH  31  33
ATOM     33  C   UNL A   1      36.143  31.392  28.208  1.00  0.00     0.060 A 
ATOM     34  C   UNL A   1      36.393  30.263  27.416  1.00  0.00     0.016 A 
ATOM     35  C   UNL A   1      37.207  31.925  28.926  1.00  0.00     0.016 A 
ATOM     36  C   UNL A   1      37.592  29.511  27.576  1.00  0.00     0.010 A 
ATOM     37  C   UNL A   1      38.398  31.201  29.045  1.00  0.00     0.010 A 
ATOM     38  C   UNL A   1      38.571  29.916  28.484  1.00  0.00    -0.014 A 
BRANCH  38  39
ATOM     39  C   UNL A   1      39.808  29.139  28.863  1.00  0.00     0.031 A 
ATOM     40  C   UNL A   1      39.896  28.897  30.326  1.00  0.00     0.074 A 
ATOM     41  C   UNL A   1      40.717  28.431  28.123  1.00  0.00     0.049 A 
ATOM     42  N   UNL A   1      40.264  29.782  31.192  1.00  0.00    -0.248 NA
ATOM     43  C   UNL A   1      39.361  27.669  30.938  1.00  0.00     0.031 C 
ATOM     44  C   UNL A   1      40.732  28.169  26.679  1.00  0.00     0.029 A 
ATOM     45  N   UNL A   1      41.797  27.670  28.551  1.00  0.00    -0.354 N 
ATOM     46  C   UNL A   1      40.337  29.084  32.384  1.00  0.00     0.074 A 
ATOM     47  C   UNL A   1      39.444  27.970  32.238  1.00  0.00     0.031 C 
ATOM     48  C   UNL A   1      41.629  27.188  26.381  1.00  0.00     0.029 A 
ATOM     49  C   UNL A   1      42.408  26.870  27.568  1.00  0.00     0.049 A 
ATOM     50  H   UNL A   1      42.115  27.689  29.482  1.00  0.00     0.167 HD
ATOM     51  C   UNL A   1      41.424  29.209  33.193  1.00  0.00     0.037 A 
ATOM     52  C   UNL A   1      43.532  26.098  27.679  1.00  0.00     0.037 A 
ATOM     53  C   UNL A   1      42.354  30.190  32.658  1.00  0.00     0.049 A 
ATOM     54  C   UNL A   1      44.350  26.737  28.728  1.00  0.00     0.074 A 
ATOM     55  C   UNL A   1      42.264  31.493  32.207  1.00  0.00     0.029 A 
ATOM     56  N   UNL A   1      43.523  29.690  32.138  1.00  0.00    -0.354 N 
ATOM     57  N   UNL A   1      44.954  27.878  28.564  1.00  0.00    -0.248 NA
ATOM     58  C   UNL A   1      44.321  26.235  30.092  1.00  0.00     0.031 C 
ATOM     59  C   UNL A   1      43.172  31.587  31.111  1.00  0.00     0.029 A 
ATOM     60  C   UNL A   1      43.849  30.375  30.995  1.00  0.00     0.049 A 
ATOM     61  H   UNL A   1      44.046  28.951  32.525  1.00  0.00     0.167 HD
ATOM     62  C   UNL A   1      44.876  28.461  29.807  1.00  0.00     0.074 A 
ATOM     63  C   UNL A   1      44.698  27.346  30.728  1.00  0.00     0.031 C 
ATOM     64  C   UNL A   1      44.600  29.793  29.903  1.00  0.00     0.037 A 
BRANCH  51  65
ATOM     65  C   UNL A   1      41.879  28.189  34.209  1.00  0.00     0.057 A 
ATOM     66  C   UNL A   1      42.644  27.036  33.940  1.00  0.00     0.134 A 
ATOM     67  C   UNL A   1      41.732  28.506  35.570  1.00  0.00     0.134 A 
ATOM     68  F   UNL A   1      42.986  26.668  32.700  1.00  0.00    -0.206 F 
ATOM     69  C   UNL A   1      43.196  26.243  34.951  1.00  0.00     0.040 A 
ATOM     70  C   UNL A   1      42.334  27.756  36.585  1.00  0.00     0.040 A 
ATOM     71  F   UNL A   1      41.055  29.601  35.948  1.00  0.00    -0.206 F 
ATOM     72  C   UNL A   1      43.065  26.617  36.278  1.00  0.00     0.006 A 
ENDBRANCH  51  65
BRANCH  52  73
ATOM     73  C   UNL A   1      44.132  24.932  26.963  1.00  0.00     0.057 A 
ATOM     74  C   UNL A   1      44.828  25.106  25.759  1.00  0.00     0.134 A 
ATOM     75  C   UNL A   1      43.737  23.603  27.243  1.00  0.00     0.134 A 
ATOM     76  F   UNL A   1      45.207  26.332  25.369  1.00  0.00    -0.206 F 
ATOM     77  C   UNL A   1      45.064  24.042  24.867  1.00  0.00     0.040 A 
ATOM     78  C   UNL A   1      43.964  22.535  26.361  1.00  0.00     0.040 A 
ATOM     79  F   UNL A   1      43.044  23.311  28.353  1.00  0.00    -0.206 F 
ATOM     80  C   UNL A   1      44.613  22.757  25.155  1.00  0.00     0.006 A 
ENDBRANCH  52  73
BRANCH  64  81
ATOM     81  C   UNL A   1      44.895  30.656  28.697  1.00  0.00     0.057 A 
ATOM     82  C   UNL A   1      46.175  31.211  28.579  1.00  0.00     0.134 A 
ATOM     83  C   UNL A   1      43.973  31.015  27.700  1.00  0.00     0.134 A 
ATOM     84  F   UNL A   1      47.113  30.947  29.503  1.00  0.00    -0.206 F 
ATOM     85  C   UNL A   1      46.520  32.068  27.529  1.00  0.00     0.040 A 
ATOM     86  C   UNL A   1      44.315  31.840  26.623  1.00  0.00     0.040 A 
ATOM     87  F   UNL A   1      42.700  30.614  27.747  1.00  0.00    -0.206 F 
ATOM     88  C   UNL A   1      45.592  32.376  26.540  1.00  0.00     0.006 A 
ENDBRANCH  64  81
ENDBRANCH  38  39
ENDBRANCH  31  33
ENDBRANCH  30  31
ENDBRANCH  29  30
ENDBRANCH  28  29
ENDBRANCH  27  28
ENDBRANCH  26  27
ENDBRANCH  25  26
ENDBRANCH  24  25
ENDBRANCH   1  24
TORSDOF 23
ENDMDL
MODEL 3
REMARK VINA RESULT:      -9.7      1.024      2.519
REMARK SMILES CC[N@@H+](C)CCn1c(SCC(=O)OCCOCCOCCOC(=O)c2ccc(-c3c4nc(c(-c5c(F)cccc5F)c5ccc([nH]5)c(-c5c(F)cccc5F)c5nc(c(-c6c(F)cccc6F)c6ccc3[nH]6)C=C5)C=C4)cc2)nc2cnccc21
REMARK SMILES IDX 15 1 14 2 13 3 11 4 12 5 10 6 9 7 8 8 7 9 85 10 79 11 80 12
REMARK SMILES IDX 84 13 81 14 83 15 82 16 6 17 5 18 3 19 4 20 2 22 1 23 16 24
REMARK SMILES IDX 17 25 18 26 19 27 20 28 21 29 22 30 23 31 24 32 25 33 26 34
REMARK SMILES IDX 78 35 27 36 77 37 28 38 29 39 30 40 71 41 31 42 76 43 70 44
REMARK SMILES IDX 72 45 32 46 75 47 69 48 68 49 33 51 59 52 42 53 58 54 43 55
REMARK SMILES IDX 46 56 57 57 73 58 44 59 45 60 56 62 74 63 47 64 34 65 35 66
REMARK SMILES IDX 40 67 36 68 37 69 39 70 41 71 38 72 60 73 61 74 66 75 62 76
REMARK SMILES IDX 63 77 65 78 67 79 64 80 48 81 49 82 54 83 50 84 51 85 53 86
REMARK SMILES IDX 55 87 52 88
REMARK H PARENT 3 21 72 50 46 61
REMARK Flexibility Score: inf
ROOT
ATOM      1  C   UNL A   1      34.231  32.331  27.866  1.00  0.00     0.202 C 
ENDROOT
BRANCH   1   2
ATOM      2  C   UNL A   1      33.291  31.248  27.318  1.00  0.00     0.261 C 
BRANCH   2   3
ATOM      3  O   UNL A   1      33.991  30.015  26.977  1.00  0.00    -0.463 OA
BRANCH   3   4
ATOM      4  C   UNL A   1      33.384  29.209  26.069  1.00  0.00     0.316 C 
ATOM      5  O   UNL A   1      34.013  28.465  25.317  1.00  0.00    -0.251 OA
BRANCH   4   6
ATOM      6  C   UNL A   1      31.858  29.143  26.099  1.00  0.00     0.200 C 
BRANCH   6   7
ATOM      7  S   UNL A   1      31.043  27.574  26.393  1.00  0.00    -0.076 SA
BRANCH   7   8
ATOM      8  C   UNL A   1      31.210  26.462  25.038  1.00  0.00     0.169 A 
ATOM      9  N   UNL A   1      30.689  26.576  23.770  1.00  0.00    -0.313 N 
ATOM     10  C   UNL A   1      31.613  26.064  22.877  1.00  0.00     0.072 A 
ATOM     11  N   UNL A   1      32.200  25.584  25.016  1.00  0.00    -0.221 NA
ATOM     12  C   UNL A   1      32.481  25.345  23.683  1.00  0.00     0.108 A 
ATOM     13  C   UNL A   1      31.752  26.127  21.485  1.00  0.00     0.049 A 
ATOM     14  C   UNL A   1      33.470  24.579  23.060  1.00  0.00     0.141 A 
ATOM     15  C   UNL A   1      32.779  25.361  20.963  1.00  0.00     0.113 A 
ATOM     16  N   UNL A   1      33.605  24.588  21.701  1.00  0.00    -0.262 NA
BRANCH   9  17
ATOM     17  C   UNL A   1      29.446  27.118  23.319  1.00  0.00     0.186 C 
BRANCH  17  18
ATOM     18  C   UNL A   1      29.256  28.624  23.431  1.00  0.00     0.284 C 
BRANCH  18  19
ATOM     19  N   UNL A   1      28.066  29.450  23.561  1.00  0.00    -0.336 N 
ATOM     20  C   UNL A   1      26.883  28.663  23.205  1.00  0.00     0.332 C 
ATOM     21  H   UNL A   1      28.084  29.698  24.550  1.00  0.00     0.347 HD
BRANCH  19  22
ATOM     22  C   UNL A   1      28.034  30.798  23.033  1.00  0.00     0.258 C 
ATOM     23  C   UNL A   1      29.057  31.698  23.714  1.00  0.00     0.071 C 
ENDBRANCH  19  22
ENDBRANCH  18  19
ENDBRANCH  17  18
ENDBRANCH   9  17
ENDBRANCH   7   8
ENDBRANCH   6   7
ENDBRANCH   4   6
ENDBRANCH   3   4
ENDBRANCH   2   3
ENDBRANCH   1   2
BRANCH   1  24
ATOM     24  O   UNL A   1      33.645  33.619  28.003  1.00  0.00    -0.376 OA
BRANCH  24  25
ATOM     25  C   UNL A   1      34.468  34.603  28.594  1.00  0.00     0.188 C 
BRANCH  25  26
ATOM     26  C   UNL A   1      34.072  36.076  28.465  1.00  0.00     0.188 C 
BRANCH  26  27
ATOM     27  O   UNL A   1      32.885  36.450  29.108  1.00  0.00    -0.376 OA
BRANCH  27  28
ATOM     28  C   UNL A   1      32.932  36.781  30.482  1.00  0.00     0.202 C 
BRANCH  28  29
ATOM     29  C   UNL A   1      32.207  35.922  31.538  1.00  0.00     0.261 C 
BRANCH  29  30
ATOM     30  O   UNL A   1      32.399  36.360  32.905  1.00  0.00    -0.460 OA
BRANCH  30  31
ATOM     31  C   UNL A   1      33.718  36.559  33.240  1.00  0.00     0.338 C 
ATOM     32  O   UNL A   1      34.165  37.583  33.681  1.00  0.00    -0.246 OA
BRANCH  31  33
ATOM     33  C   UNL A   1      34.464  35.247  33.336  1.00  0.00     0.060 A 
ATOM     34  C   UNL A   1      35.256  34.820  34.410  1.00  0.00     0.016 A 
ATOM     35  C   UNL A   1      34.524  34.512  32.158  1.00  0.00     0.016 A 
ATOM     36  C   UNL A   1      36.302  33.874  34.214  1.00  0.00     0.010 A 
ATOM     37  C   UNL A   1      35.528  33.554  31.987  1.00  0.00     0.010 A 
ATOM     38  C   UNL A   1      36.523  33.306  32.959  1.00  0.00    -0.014 A 
BRANCH  38  39
ATOM     39  C   UNL A   1      37.680  32.416  32.577  1.00  0.00     0.031 A 
ATOM     40  C   UNL A   1      38.462  31.967  33.758  1.00  0.00     0.074 A 
ATOM     41  C   UNL A   1      38.002  31.768  31.414  1.00  0.00     0.049 A 
ATOM     42  N   UNL A   1      39.317  32.700  34.389  1.00  0.00    -0.248 NA
ATOM     43  C   UNL A   1      38.164  30.698  34.441  1.00  0.00     0.031 C 
ATOM     44  C   UNL A   1      37.258  31.710  30.150  1.00  0.00     0.029 A 
ATOM     45  N   UNL A   1      39.051  30.896  31.155  1.00  0.00    -0.354 N 
ATOM     46  C   UNL A   1      39.895  31.841  35.305  1.00  0.00     0.074 A 
ATOM     47  C   UNL A   1      38.923  30.809  35.537  1.00  0.00     0.031 C 
ATOM     48  C   UNL A   1      37.761  30.732  29.345  1.00  0.00     0.029 A 
ATOM     49  C   UNL A   1      38.986  30.208  29.929  1.00  0.00     0.049 A 
ATOM     50  H   UNL A   1      39.794  30.768  31.788  1.00  0.00     0.167 HD
ATOM     51  C   UNL A   1      41.247  31.790  35.449  1.00  0.00     0.037 A 
ATOM     52  C   UNL A   1      39.913  29.367  29.376  1.00  0.00     0.037 A 
ATOM     53  C   UNL A   1      41.891  32.783  34.605  1.00  0.00     0.049 A 
ATOM     54  C   UNL A   1      41.216  29.807  29.911  1.00  0.00     0.074 A 
ATOM     55  C   UNL A   1      41.743  34.140  34.386  1.00  0.00     0.029 A 
ATOM     56  N   UNL A   1      42.572  32.296  33.515  1.00  0.00    -0.354 N 
ATOM     57  N   UNL A   1      41.787  30.924  29.565  1.00  0.00    -0.248 NA
ATOM     58  C   UNL A   1      41.816  29.122  31.043  1.00  0.00     0.031 C 
ATOM     59  C   UNL A   1      41.982  34.334  32.993  1.00  0.00     0.029 A 
ATOM     60  C   UNL A   1      42.358  33.115  32.435  1.00  0.00     0.049 A 
ATOM     61  H   UNL A   1      43.127  31.483  33.510  1.00  0.00     0.167 HD
ATOM     62  C   UNL A   1      42.414  31.332  30.719  1.00  0.00     0.074 A 
ATOM     63  C   UNL A   1      42.592  30.110  31.495  1.00  0.00     0.031 C 
ATOM     64  C   UNL A   1      42.384  32.650  31.065  1.00  0.00     0.037 A 
BRANCH  51  65
ATOM     65  C   UNL A   1      42.025  30.615  35.989  1.00  0.00     0.057 A 
ATOM     66  C   UNL A   1      42.045  29.315  35.445  1.00  0.00     0.134 A 
ATOM     67  C   UNL A   1      42.989  30.864  36.980  1.00  0.00     0.134 A 
ATOM     68  F   UNL A   1      41.283  28.953  34.407  1.00  0.00    -0.206 F 
ATOM     69  C   UNL A   1      42.939  28.329  35.876  1.00  0.00     0.040 A 
ATOM     70  C   UNL A   1      43.928  29.905  37.374  1.00  0.00     0.040 A 
ATOM     71  F   UNL A   1      43.090  32.076  37.547  1.00  0.00    -0.206 F 
ATOM     72  C   UNL A   1      43.902  28.630  36.824  1.00  0.00     0.006 A 
ENDBRANCH  51  65
BRANCH  52  73
ATOM     73  C   UNL A   1      39.928  28.281  28.351  1.00  0.00     0.057 A 
ATOM     74  C   UNL A   1      39.568  26.968  28.686  1.00  0.00     0.134 A 
ATOM     75  C   UNL A   1      40.629  28.419  27.130  1.00  0.00     0.134 A 
ATOM     76  F   UNL A   1      38.944  26.714  29.846  1.00  0.00    -0.206 F 
ATOM     77  C   UNL A   1      39.930  25.863  27.892  1.00  0.00     0.040 A 
ATOM     78  C   UNL A   1      40.997  27.325  26.331  1.00  0.00     0.040 A 
ATOM     79  F   UNL A   1      41.048  29.621  26.710  1.00  0.00    -0.206 F 
ATOM     80  C   UNL A   1      40.665  26.037  26.722  1.00  0.00     0.006 A 
ENDBRANCH  52  73
BRANCH  64  81
ATOM     81  C   UNL A   1      42.134  33.655  29.964  1.00  0.00     0.057 A 
ATOM     82  C   UNL A   1      43.215  34.038  29.160  1.00  0.00     0.134 A 
ATOM     83  C   UNL A   1      40.915  34.304  29.706  1.00  0.00     0.134 A 
ATOM     84  F   UNL A   1      44.426  33.493  29.354  1.00  0.00    -0.206 F 
ATOM     85  C   UNL A   1      43.090  35.003  28.156  1.00  0.00     0.040 A 
ATOM     86  C   UNL A   1      40.766  35.243  28.680  1.00  0.00     0.040 A 
ATOM     87  F   UNL A   1      39.833  34.082  30.456  1.00  0.00    -0.206 F 
ATOM     88  C   UNL A   1      41.860  35.602  27.905  1.00  0.00     0.006 A 
ENDBRANCH  64  81
ENDBRANCH  38  39
ENDBRANCH  31  33
ENDBRANCH  30  31
ENDBRANCH  29  30
ENDBRANCH  28  29
ENDBRANCH  27  28
ENDBRANCH  26  27
ENDBRANCH  25  26
ENDBRANCH  24  25
ENDBRANCH   1  24
TORSDOF 23
ENDMDL
