MODEL 1
REMARK VINA RESULT:     -11.3      0.000      0.000
REMARK SMILES O=C(OCCOCCOCCOC(=O)c1cc(N2CCN(c3ccc(F)cc3)CC2)ccc1NC(=O)C1CCCC1)c1ccc(-c2c3nc(c(-c4c(F)cccc4F)c4ccc([nH]4)c(-c4c(F)cccc4F)c4nc(c(-c5c(F)cccc5F)c5ccc2[nH]5)C=C4)C=C3)cc1
REMARK SMILES IDX 7 1 6 2 5 3 4 4 3 5 2 6 1 7 42 8 43 9 95 10 44 11 94 12
REMARK SMILES IDX 45 13 46 14 47 15 88 16 48 17 93 18 87 19 89 20 49 21 92 22
REMARK SMILES IDX 86 23 85 24 50 26 76 27 59 28 75 29 60 30 63 31 74 32 90 33
REMARK SMILES IDX 61 34 62 35 73 37 91 38 64 39 51 40 52 41 57 42 53 43 54 44
REMARK SMILES IDX 56 45 58 46 55 47 77 48 78 49 83 50 79 51 80 52 82 53 84 54
REMARK SMILES IDX 81 55 65 56 66 57 71 58 67 59 68 60 70 61 72 62 69 63 8 64
REMARK SMILES IDX 9 65 10 66 11 67 12 68 13 69 14 70 15 71 16 72 33 73 17 74
REMARK SMILES IDX 32 75 31 76 34 77 35 78 36 80 37 81 38 82 41 83 39 84 40 85
REMARK SMILES IDX 18 86 19 87 30 88 20 89 29 90 21 91 22 92 23 93 28 94 24 95
REMARK SMILES IDX 27 96 25 97 26 98
REMARK H PARENT 89 25 63 36 34 79
REMARK Flexibility Score: inf
ROOT
ATOM      1  C   UNL A   1      36.247  21.698  24.738  1.00  0.00     0.188 C 
ENDROOT
BRANCH   1   2
ATOM      2  O   UNL A   1      37.603  21.317  25.006  1.00  0.00    -0.376 OA
BRANCH   2   3
ATOM      3  C   UNL A   1      37.873  19.946  24.699  1.00  0.00     0.202 C 
BRANCH   3   4
ATOM      4  C   UNL A   1      38.750  19.236  25.740  1.00  0.00     0.261 C 
BRANCH   4   5
ATOM      5  O   UNL A   1      40.147  19.290  25.405  1.00  0.00    -0.460 OA
BRANCH   5   6
ATOM      6  C   UNL A   1      41.178  19.765  26.147  1.00  0.00     0.338 C 
ATOM      7  O   UNL A   1      42.113  19.005  26.399  1.00  0.00    -0.246 OA
BRANCH   6   8
ATOM      8  C   UNL A   1      41.288  21.179  26.634  1.00  0.00     0.060 A 
ATOM      9  C   UNL A   1      40.722  22.296  26.022  1.00  0.00     0.016 A 
ATOM     10  C   UNL A   1      42.014  21.386  27.823  1.00  0.00     0.016 A 
ATOM     11  C   UNL A   1      41.005  23.583  26.466  1.00  0.00     0.010 A 
ATOM     12  C   UNL A   1      42.245  22.674  28.319  1.00  0.00     0.010 A 
ATOM     13  C   UNL A   1      41.794  23.782  27.598  1.00  0.00    -0.014 A 
BRANCH  13  14
ATOM     14  C   UNL A   1      42.251  25.157  27.896  1.00  0.00     0.031 A 
ATOM     15  C   UNL A   1      43.547  25.626  27.303  1.00  0.00     0.074 A 
ATOM     16  C   UNL A   1      41.441  26.012  28.544  1.00  0.00     0.049 A 
ATOM     17  N   UNL A   1      44.103  26.808  27.359  1.00  0.00    -0.248 NA
ATOM     18  C   UNL A   1      44.307  24.639  26.517  1.00  0.00     0.031 C 
ATOM     19  C   UNL A   1      40.109  25.684  29.048  1.00  0.00     0.029 A 
ATOM     20  N   UNL A   1      41.595  27.339  28.848  1.00  0.00    -0.354 N 
ATOM     21  C   UNL A   1      45.274  26.704  26.621  1.00  0.00     0.074 A 
ATOM     22  C   UNL A   1      45.366  25.341  26.149  1.00  0.00     0.031 C 
ATOM     23  C   UNL A   1      39.553  26.785  29.576  1.00  0.00     0.029 A 
ATOM     24  C   UNL A   1      40.508  27.883  29.488  1.00  0.00     0.049 A 
ATOM     25  H   UNL A   1      42.405  27.852  28.630  1.00  0.00     0.167 HD
ATOM     26  C   UNL A   1      46.187  27.667  26.351  1.00  0.00     0.037 A 
ATOM     27  C   UNL A   1      40.310  29.130  29.953  1.00  0.00     0.037 A 
ATOM     28  C   UNL A   1      46.085  29.019  26.825  1.00  0.00     0.049 A 
ATOM     29  C   UNL A   1      41.386  30.153  29.730  1.00  0.00     0.074 A 
ATOM     30  C   UNL A   1      46.975  30.063  26.662  1.00  0.00     0.029 A 
ATOM     31  N   UNL A   1      45.013  29.510  27.557  1.00  0.00    -0.354 N 
ATOM     32  N   UNL A   1      42.515  30.032  29.072  1.00  0.00    -0.248 NA
ATOM     33  C   UNL A   1      41.166  31.483  30.313  1.00  0.00     0.031 C 
ATOM     34  C   UNL A   1      46.456  31.180  27.329  1.00  0.00     0.029 A 
ATOM     35  C   UNL A   1      45.227  30.840  27.873  1.00  0.00     0.049 A 
ATOM     36  H   UNL A   1      44.218  28.990  27.815  1.00  0.00     0.167 HD
ATOM     37  C   UNL A   1      43.129  31.274  29.139  1.00  0.00     0.074 A 
ATOM     38  C   UNL A   1      42.242  32.136  29.895  1.00  0.00     0.031 C 
ATOM     39  C   UNL A   1      44.319  31.668  28.624  1.00  0.00     0.037 A 
BRANCH  26  40
ATOM     40  C   UNL A   1      47.387  27.250  25.557  1.00  0.00     0.057 A 
ATOM     41  C   UNL A   1      48.487  26.617  26.150  1.00  0.00     0.134 A 
ATOM     42  C   UNL A   1      47.463  27.534  24.188  1.00  0.00     0.134 A 
ATOM     43  F   UNL A   1      48.490  26.347  27.464  1.00  0.00    -0.206 F 
ATOM     44  C   UNL A   1      49.633  26.308  25.414  1.00  0.00     0.040 A 
ATOM     45  C   UNL A   1      48.594  27.211  23.438  1.00  0.00     0.040 A 
ATOM     46  F   UNL A   1      46.447  28.147  23.564  1.00  0.00    -0.206 F 
ATOM     47  C   UNL A   1      49.688  26.605  24.054  1.00  0.00     0.006 A 
ENDBRANCH  26  40
BRANCH  27  48
ATOM     48  C   UNL A   1      39.065  29.470  30.684  1.00  0.00     0.057 A 
ATOM     49  C   UNL A   1      38.031  30.188  30.073  1.00  0.00     0.134 A 
ATOM     50  C   UNL A   1      38.891  29.104  32.025  1.00  0.00     0.134 A 
ATOM     51  F   UNL A   1      38.147  30.583  28.797  1.00  0.00    -0.206 F 
ATOM     52  C   UNL A   1      36.877  30.545  30.774  1.00  0.00     0.040 A 
ATOM     53  C   UNL A   1      37.737  29.442  32.733  1.00  0.00     0.040 A 
ATOM     54  F   UNL A   1      39.837  28.400  32.664  1.00  0.00    -0.206 F 
ATOM     55  C   UNL A   1      36.729  30.173  32.109  1.00  0.00     0.006 A 
ENDBRANCH  27  48
BRANCH  39  56
ATOM     56  C   UNL A   1      44.705  33.098  28.844  1.00  0.00     0.057 A 
ATOM     57  C   UNL A   1      45.388  33.504  29.996  1.00  0.00     0.134 A 
ATOM     58  C   UNL A   1      44.417  34.068  27.877  1.00  0.00     0.134 A 
ATOM     59  F   UNL A   1      45.677  32.621  30.962  1.00  0.00    -0.206 F 
ATOM     60  C   UNL A   1      45.755  34.836  30.188  1.00  0.00     0.040 A 
ATOM     61  C   UNL A   1      44.798  35.398  28.048  1.00  0.00     0.040 A 
ATOM     62  F   UNL A   1      43.769  33.736  26.749  1.00  0.00    -0.206 F 
ATOM     63  C   UNL A   1      45.466  35.785  29.209  1.00  0.00     0.006 A 
ENDBRANCH  39  56
ENDBRANCH  13  14
ENDBRANCH   6   8
ENDBRANCH   5   6
ENDBRANCH   4   5
ENDBRANCH   3   4
ENDBRANCH   2   3
ENDBRANCH   1   2
BRANCH   1  64
ATOM     64  C   UNL A   1      35.281  20.537  24.967  1.00  0.00     0.188 C 
BRANCH  64  65
ATOM     65  O   UNL A   1      33.978  20.907  25.415  1.00  0.00    -0.376 OA
BRANCH  65  66
ATOM     66  C   UNL A   1      33.334  21.980  24.730  1.00  0.00     0.202 C 
BRANCH  66  67
ATOM     67  C   UNL A   1      32.240  22.725  25.506  1.00  0.00     0.261 C 
BRANCH  67  68
ATOM     68  O   UNL A   1      32.395  24.158  25.522  1.00  0.00    -0.460 OA
BRANCH  68  69
ATOM     69  C   UNL A   1      33.615  24.602  25.921  1.00  0.00     0.340 C 
ATOM     70  O   UNL A   1      34.474  23.978  26.517  1.00  0.00    -0.246 OA
BRANCH  69  71
ATOM     71  C   UNL A   1      33.811  25.994  25.476  1.00  0.00     0.085 A 
ATOM     72  C   UNL A   1      33.833  26.983  26.467  1.00  0.00     0.043 A 
ATOM     73  C   UNL A   1      33.743  26.346  24.123  1.00  0.00     0.055 A 
ATOM     74  C   UNL A   1      33.867  28.340  26.133  1.00  0.00     0.038 A 
ATOM     75  C   UNL A   1      33.825  27.701  23.788  1.00  0.00     0.029 A 
ATOM     76  C   UNL A   1      33.901  28.685  24.783  1.00  0.00     0.028 A 
BRANCH  73  77
ATOM     77  N   UNL A   1      33.580  25.342  23.154  1.00  0.00    -0.325 N 
ATOM     78  C   UNL A   1      32.564  25.096  22.276  1.00  0.00     0.227 C 
ATOM     79  H   UNL A   1      34.328  24.706  23.098  1.00  0.00     0.169 HD
ATOM     80  O   UNL A   1      32.743  24.200  21.445  1.00  0.00    -0.274 OA
BRANCH  78  81
ATOM     81  C   UNL A   1      31.254  25.877  22.324  1.00  0.00     0.079 C 
ATOM     82  C   UNL A   1      30.582  25.741  23.699  1.00  0.00     0.013 C 
ATOM     83  C   UNL A   1      31.372  27.398  22.228  1.00  0.00     0.013 C 
ATOM     84  C   UNL A   1      29.556  26.867  23.750  1.00  0.00     0.001 C 
ATOM     85  C   UNL A   1      30.027  27.903  22.735  1.00  0.00     0.001 C 
ENDBRANCH  78  81
ENDBRANCH  73  77
BRANCH  74  86
ATOM     86  N   UNL A   1      33.780  29.281  27.134  1.00  0.00    -0.368 N 
ATOM     87  C   UNL A   1      34.966  29.760  27.860  1.00  0.00     0.138 C 
ATOM     88  C   UNL A   1      32.594  30.156  27.160  1.00  0.00     0.138 C 
ATOM     89  C   UNL A   1      35.309  31.235  27.533  1.00  0.00     0.138 C 
ATOM     90  C   UNL A   1      32.964  31.612  26.803  1.00  0.00     0.138 C 
ATOM     91  N   UNL A   1      34.107  32.087  27.601  1.00  0.00    -0.368 N 
BRANCH  91  92
ATOM     92  C   UNL A   1      33.977  33.051  28.578  1.00  0.00     0.037 A 
ATOM     93  C   UNL A   1      33.231  34.216  28.333  1.00  0.00     0.029 A 
ATOM     94  C   UNL A   1      34.555  32.912  29.850  1.00  0.00     0.029 A 
ATOM     95  C   UNL A   1      33.058  35.197  29.316  1.00  0.00     0.041 A 
ATOM     96  C   UNL A   1      34.400  33.895  30.834  1.00  0.00     0.041 A 
ATOM     97  C   UNL A   1      33.648  35.026  30.558  1.00  0.00     0.123 A 
ATOM     98  F   UNL A   1      33.488  35.962  31.503  1.00  0.00    -0.207 F 
ENDBRANCH  91  92
ENDBRANCH  74  86
ENDBRANCH  69  71
ENDBRANCH  68  69
ENDBRANCH  67  68
ENDBRANCH  66  67
ENDBRANCH  65  66
ENDBRANCH  64  65
ENDBRANCH   1  64
TORSDOF 21
ENDMDL
MODEL 2
REMARK VINA RESULT:     -11.1      0.322      5.780
REMARK SMILES O=C(OCCOCCOCCOC(=O)c1cc(N2CCN(c3ccc(F)cc3)CC2)ccc1NC(=O)C1CCCC1)c1ccc(-c2c3nc(c(-c4c(F)cccc4F)c4ccc([nH]4)c(-c4c(F)cccc4F)c4nc(c(-c5c(F)cccc5F)c5ccc2[nH]5)C=C4)C=C3)cc1
REMARK SMILES IDX 7 1 6 2 5 3 4 4 3 5 2 6 1 7 42 8 43 9 95 10 44 11 94 12
REMARK SMILES IDX 45 13 46 14 47 15 88 16 48 17 93 18 87 19 89 20 49 21 92 22
REMARK SMILES IDX 86 23 85 24 50 26 76 27 59 28 75 29 60 30 63 31 74 32 90 33
REMARK SMILES IDX 61 34 62 35 73 37 91 38 64 39 51 40 52 41 57 42 53 43 54 44
REMARK SMILES IDX 56 45 58 46 55 47 77 48 78 49 83 50 79 51 80 52 82 53 84 54
REMARK SMILES IDX 81 55 65 56 66 57 71 58 67 59 68 60 70 61 72 62 69 63 8 64
REMARK SMILES IDX 9 65 10 66 11 67 12 68 13 69 14 70 15 71 16 72 33 73 17 74
REMARK SMILES IDX 32 75 31 76 34 77 35 78 36 80 37 81 38 82 41 83 39 84 40 85
REMARK SMILES IDX 18 86 19 87 30 88 20 89 29 90 21 91 22 92 23 93 28 94 24 95
REMARK SMILES IDX 27 96 25 97 26 98
REMARK H PARENT 89 25 63 36 34 79
REMARK Flexibility Score: inf
ROOT
ATOM      1  C   UNL A   1      36.121  21.827  24.637  1.00  0.00     0.188 C 
ENDROOT
BRANCH   1   2
ATOM      2  O   UNL A   1      37.503  21.520  24.869  1.00  0.00    -0.376 OA
BRANCH   2   3
ATOM      3  C   UNL A   1      37.811  20.136  24.672  1.00  0.00     0.202 C 
BRANCH   3   4
ATOM      4  C   UNL A   1      38.502  19.475  25.872  1.00  0.00     0.261 C 
BRANCH   4   5
ATOM      5  O   UNL A   1      39.887  19.190  25.616  1.00  0.00    -0.460 OA
BRANCH   5   6
ATOM      6  C   UNL A   1      40.985  19.722  26.211  1.00  0.00     0.338 C 
ATOM      7  O   UNL A   1      41.937  18.977  26.447  1.00  0.00    -0.246 OA
BRANCH   6   8
ATOM      8  C   UNL A   1      41.144  21.174  26.548  1.00  0.00     0.060 A 
ATOM      9  C   UNL A   1      40.515  22.234  25.897  1.00  0.00     0.016 A 
ATOM     10  C   UNL A   1      41.992  21.485  27.628  1.00  0.00     0.016 A 
ATOM     11  C   UNL A   1      40.842  23.554  26.184  1.00  0.00     0.010 A 
ATOM     12  C   UNL A   1      42.273  22.812  27.973  1.00  0.00     0.010 A 
ATOM     13  C   UNL A   1      41.747  23.852  27.202  1.00  0.00    -0.014 A 
BRANCH  13  14
ATOM     14  C   UNL A   1      42.232  25.244  27.319  1.00  0.00     0.031 A 
ATOM     15  C   UNL A   1      41.440  26.212  28.148  1.00  0.00     0.074 A 
ATOM     16  C   UNL A   1      43.438  25.582  26.831  1.00  0.00     0.049 A 
ATOM     17  N   UNL A   1      41.712  27.452  28.458  1.00  0.00    -0.248 NA
ATOM     18  C   UNL A   1      40.184  25.706  28.729  1.00  0.00     0.031 C 
ATOM     19  C   UNL A   1      44.337  24.675  26.119  1.00  0.00     0.029 A 
ATOM     20  N   UNL A   1      44.136  26.759  26.897  1.00  0.00    -0.354 N 
ATOM     21  C   UNL A   1      40.665  27.873  29.265  1.00  0.00     0.074 A 
ATOM     22  C   UNL A   1      39.737  26.770  29.377  1.00  0.00     0.031 C 
ATOM     23  C   UNL A   1      45.480  25.319  25.837  1.00  0.00     0.029 A 
ATOM     24  C   UNL A   1      45.374  26.694  26.307  1.00  0.00     0.049 A 
ATOM     25  H   UNL A   1      43.784  27.572  27.326  1.00  0.00     0.167 HD
ATOM     26  C   UNL A   1      40.498  29.072  29.870  1.00  0.00     0.037 A 
ATOM     27  C   UNL A   1      46.315  27.645  26.161  1.00  0.00     0.037 A 
ATOM     28  C   UNL A   1      41.427  30.162  29.753  1.00  0.00     0.049 A 
ATOM     29  C   UNL A   1      46.059  29.001  26.753  1.00  0.00     0.074 A 
ATOM     30  C   UNL A   1      41.335  31.438  30.274  1.00  0.00     0.029 A 
ATOM     31  N   UNL A   1      42.628  30.091  29.062  1.00  0.00    -0.354 N 
ATOM     32  N   UNL A   1      45.040  29.404  27.475  1.00  0.00    -0.248 NA
ATOM     33  C   UNL A   1      47.076  30.031  26.514  1.00  0.00     0.031 C 
ATOM     34  C   UNL A   1      42.468  32.154  29.866  1.00  0.00     0.029 A 
ATOM     35  C   UNL A   1      43.280  31.310  29.124  1.00  0.00     0.049 A 
ATOM     36  H   UNL A   1      42.967  29.293  28.595  1.00  0.00     0.167 HD
ATOM     37  C   UNL A   1      45.303  30.728  27.796  1.00  0.00     0.074 A 
ATOM     38  C   UNL A   1      46.583  31.055  27.199  1.00  0.00     0.031 C 
ATOM     39  C   UNL A   1      44.556  31.597  28.520  1.00  0.00     0.037 A 
BRANCH  26  40
ATOM     40  C   UNL A   1      39.234  29.259  30.653  1.00  0.00     0.057 A 
ATOM     41  C   UNL A   1      38.124  29.931  30.125  1.00  0.00     0.134 A 
ATOM     42  C   UNL A   1      39.148  28.805  31.975  1.00  0.00     0.134 A 
ATOM     43  F   UNL A   1      38.156  30.419  28.876  1.00  0.00    -0.206 F 
ATOM     44  C   UNL A   1      36.983  30.170  30.894  1.00  0.00     0.040 A 
ATOM     45  C   UNL A   1      38.005  29.019  32.747  1.00  0.00     0.040 A 
ATOM     46  F   UNL A   1      40.179  28.163  32.542  1.00  0.00    -0.206 F 
ATOM     47  C   UNL A   1      36.922  29.713  32.209  1.00  0.00     0.006 A 
ENDBRANCH  26  40
BRANCH  27  48
ATOM     48  C   UNL A   1      47.564  27.357  25.414  1.00  0.00     0.057 A 
ATOM     49  C   UNL A   1      48.697  26.843  26.053  1.00  0.00     0.134 A 
ATOM     50  C   UNL A   1      47.660  27.613  24.039  1.00  0.00     0.134 A 
ATOM     51  F   UNL A   1      48.674  26.594  27.370  1.00  0.00    -0.206 F 
ATOM     52  C   UNL A   1      49.886  26.611  25.358  1.00  0.00     0.040 A 
ATOM     53  C   UNL A   1      48.837  27.373  23.330  1.00  0.00     0.040 A 
ATOM     54  F   UNL A   1      46.604  28.091  23.363  1.00  0.00    -0.206 F 
ATOM     55  C   UNL A   1      49.958  26.879  23.992  1.00  0.00     0.006 A 
ENDBRANCH  27  48
BRANCH  39  56
ATOM     56  C   UNL A   1      45.124  32.967  28.718  1.00  0.00     0.057 A 
ATOM     57  C   UNL A   1      45.984  33.259  29.783  1.00  0.00     0.134 A 
ATOM     58  C   UNL A   1      44.830  33.995  27.814  1.00  0.00     0.134 A 
ATOM     59  F   UNL A   1      46.288  32.317  30.688  1.00  0.00    -0.206 F 
ATOM     60  C   UNL A   1      46.519  34.536  29.953  1.00  0.00     0.040 A 
ATOM     61  C   UNL A   1      45.377  35.269  27.962  1.00  0.00     0.040 A 
ATOM     62  F   UNL A   1      44.017  33.773  26.770  1.00  0.00    -0.206 F 
ATOM     63  C   UNL A   1      46.220  35.543  29.037  1.00  0.00     0.006 A 
ENDBRANCH  39  56
ENDBRANCH  13  14
ENDBRANCH   6   8
ENDBRANCH   5   6
ENDBRANCH   4   5
ENDBRANCH   3   4
ENDBRANCH   2   3
ENDBRANCH   1   2
BRANCH   1  64
ATOM     64  C   UNL A   1      35.239  20.586  24.769  1.00  0.00     0.188 C 
BRANCH  64  65
ATOM     65  O   UNL A   1      33.975  20.801  25.393  1.00  0.00    -0.376 OA
BRANCH  65  66
ATOM     66  C   UNL A   1      33.082  21.717  24.760  1.00  0.00     0.202 C 
BRANCH  66  67
ATOM     67  C   UNL A   1      32.180  22.540  25.688  1.00  0.00     0.261 C 
BRANCH  67  68
ATOM     68  O   UNL A   1      32.368  23.966  25.586  1.00  0.00    -0.460 OA
BRANCH  68  69
ATOM     69  C   UNL A   1      33.563  24.425  26.044  1.00  0.00     0.340 C 
ATOM     70  O   UNL A   1      34.387  23.819  26.704  1.00  0.00    -0.246 OA
BRANCH  69  71
ATOM     71  C   UNL A   1      33.781  25.805  25.575  1.00  0.00     0.085 A 
ATOM     72  C   UNL A   1      33.820  26.810  26.549  1.00  0.00     0.043 A 
ATOM     73  C   UNL A   1      33.717  26.135  24.216  1.00  0.00     0.055 A 
ATOM     74  C   UNL A   1      33.877  28.161  26.192  1.00  0.00     0.038 A 
ATOM     75  C   UNL A   1      33.821  27.483  23.858  1.00  0.00     0.029 A 
ATOM     76  C   UNL A   1      33.915  28.482  24.836  1.00  0.00     0.028 A 
BRANCH  73  77
ATOM     77  N   UNL A   1      33.536  25.118  23.264  1.00  0.00    -0.325 N 
ATOM     78  C   UNL A   1      32.516  24.874  22.392  1.00  0.00     0.227 C 
ATOM     79  H   UNL A   1      34.273  24.468  23.220  1.00  0.00     0.169 HD
ATOM     80  O   UNL A   1      32.679  23.961  21.576  1.00  0.00    -0.274 OA
BRANCH  78  81
ATOM     81  C   UNL A   1      31.219  25.677  22.427  1.00  0.00     0.079 C 
ATOM     82  C   UNL A   1      30.572  25.618  23.819  1.00  0.00     0.013 C 
ATOM     83  C   UNL A   1      31.358  27.190  22.256  1.00  0.00     0.013 C 
ATOM     84  C   UNL A   1      29.565  26.762  23.837  1.00  0.00     0.001 C 
ATOM     85  C   UNL A   1      30.032  27.740  22.764  1.00  0.00     0.001 C 
ENDBRANCH  78  81
ENDBRANCH  73  77
BRANCH  74  86
ATOM     86  N   UNL A   1      33.807  29.120  27.177  1.00  0.00    -0.368 N 
ATOM     87  C   UNL A   1      35.006  29.620  27.865  1.00  0.00     0.138 C 
ATOM     88  C   UNL A   1      32.616  29.988  27.214  1.00  0.00     0.138 C 
ATOM     89  C   UNL A   1      35.331  31.091  27.503  1.00  0.00     0.138 C 
ATOM     90  C   UNL A   1      32.967  31.439  26.821  1.00  0.00     0.138 C 
ATOM     91  N   UNL A   1      34.124  31.936  27.583  1.00  0.00    -0.368 N 
BRANCH  91  92
ATOM     92  C   UNL A   1      34.011  32.918  28.544  1.00  0.00     0.037 A 
ATOM     93  C   UNL A   1      33.248  34.072  28.296  1.00  0.00     0.029 A 
ATOM     94  C   UNL A   1      34.623  32.809  29.803  1.00  0.00     0.029 A 
ATOM     95  C   UNL A   1      33.091  35.069  29.264  1.00  0.00     0.041 A 
ATOM     96  C   UNL A   1      34.484  33.809  30.772  1.00  0.00     0.041 A 
ATOM     97  C   UNL A   1      33.715  34.928  30.494  1.00  0.00     0.123 A 
ATOM     98  F   UNL A   1      33.570  35.880  31.425  1.00  0.00    -0.207 F 
ENDBRANCH  91  92
ENDBRANCH  74  86
ENDBRANCH  69  71
ENDBRANCH  68  69
ENDBRANCH  67  68
ENDBRANCH  66  67
ENDBRANCH  65  66
ENDBRANCH  64  65
ENDBRANCH   1  64
TORSDOF 21
ENDMDL
MODEL 3
REMARK VINA RESULT:     -10.6      5.866     12.160
REMARK SMILES O=C(OCCOCCOCCOC(=O)c1cc(N2CCN(c3ccc(F)cc3)CC2)ccc1NC(=O)C1CCCC1)c1ccc(-c2c3nc(c(-c4c(F)cccc4F)c4ccc([nH]4)c(-c4c(F)cccc4F)c4nc(c(-c5c(F)cccc5F)c5ccc2[nH]5)C=C4)C=C3)cc1
REMARK SMILES IDX 7 1 6 2 5 3 4 4 3 5 2 6 1 7 42 8 43 9 95 10 44 11 94 12
REMARK SMILES IDX 45 13 46 14 47 15 88 16 48 17 93 18 87 19 89 20 49 21 92 22
REMARK SMILES IDX 86 23 85 24 50 26 76 27 59 28 75 29 60 30 63 31 74 32 90 33
REMARK SMILES IDX 61 34 62 35 73 37 91 38 64 39 51 40 52 41 57 42 53 43 54 44
REMARK SMILES IDX 56 45 58 46 55 47 77 48 78 49 83 50 79 51 80 52 82 53 84 54
REMARK SMILES IDX 81 55 65 56 66 57 71 58 67 59 68 60 70 61 72 62 69 63 8 64
REMARK SMILES IDX 9 65 10 66 11 67 12 68 13 69 14 70 15 71 16 72 33 73 17 74
REMARK SMILES IDX 32 75 31 76 34 77 35 78 36 80 37 81 38 82 41 83 39 84 40 85
REMARK SMILES IDX 18 86 19 87 30 88 20 89 29 90 21 91 22 92 23 93 28 94 24 95
REMARK SMILES IDX 27 96 25 97 26 98
REMARK H PARENT 89 25 63 36 34 79
REMARK Flexibility Score: inf
ROOT
ATOM      1  C   UNL A   1      34.363  34.772  33.466  1.00  0.00     0.188 C 
ENDROOT
BRANCH   1   2
ATOM      2  O   UNL A   1      33.253  35.152  32.640  1.00  0.00    -0.376 OA
BRANCH   2   3
ATOM      3  C   UNL A   1      33.436  36.419  32.000  1.00  0.00     0.202 C 
BRANCH   3   4
ATOM      4  C   UNL A   1      33.044  36.429  30.516  1.00  0.00     0.261 C 
BRANCH   4   5
ATOM      5  O   UNL A   1      32.648  35.129  30.048  1.00  0.00    -0.460 OA
BRANCH   5   6
ATOM      6  C   UNL A   1      33.201  34.379  29.062  1.00  0.00     0.338 C 
ATOM      7  O   UNL A   1      32.665  34.387  27.954  1.00  0.00    -0.246 OA
BRANCH   6   8
ATOM      8  C   UNL A   1      34.463  33.585  29.212  1.00  0.00     0.060 A 
ATOM      9  C   UNL A   1      34.733  32.671  30.230  1.00  0.00     0.016 A 
ATOM     10  C   UNL A   1      35.452  33.772  28.227  1.00  0.00     0.016 A 
ATOM     11  C   UNL A   1      35.991  32.096  30.368  1.00  0.00     0.010 A 
ATOM     12  C   UNL A   1      36.698  33.141  28.317  1.00  0.00     0.010 A 
ATOM     13  C   UNL A   1      36.992  32.351  29.432  1.00  0.00    -0.014 A 
BRANCH  13  14
ATOM     14  C   UNL A   1      38.367  31.903  29.741  1.00  0.00     0.031 A 
ATOM     15  C   UNL A   1      38.808  30.554  29.255  1.00  0.00     0.074 A 
ATOM     16  C   UNL A   1      39.246  32.756  30.296  1.00  0.00     0.049 A 
ATOM     17  N   UNL A   1      39.984  29.989  29.336  1.00  0.00    -0.248 NA
ATOM     18  C   UNL A   1      37.794  29.741  28.560  1.00  0.00     0.031 C 
ATOM     19  C   UNL A   1      38.944  34.132  30.687  1.00  0.00     0.029 A 
ATOM     20  N   UNL A   1      40.577  32.612  30.585  1.00  0.00    -0.354 N 
ATOM     21  C   UNL A   1      39.850  28.759  28.707  1.00  0.00     0.074 A 
ATOM     22  C   UNL A   1      38.476  28.644  28.273  1.00  0.00     0.031 C 
ATOM     23  C   UNL A   1      40.064  34.717  31.140  1.00  0.00     0.029 A 
ATOM     24  C   UNL A   1      41.148  33.743  31.114  1.00  0.00     0.049 A 
ATOM     25  H   UNL A   1      41.076  31.778  30.429  1.00  0.00     0.167 HD
ATOM     26  C   UNL A   1      40.795  27.813  28.499  1.00  0.00     0.037 A 
ATOM     27  C   UNL A   1      42.407  33.964  31.534  1.00  0.00     0.037 A 
ATOM     28  C   UNL A   1      42.159  27.938  28.933  1.00  0.00     0.049 A 
ATOM     29  C   UNL A   1      43.413  32.859  31.386  1.00  0.00     0.074 A 
ATOM     30  C   UNL A   1      43.189  27.022  28.829  1.00  0.00     0.029 A 
ATOM     31  N   UNL A   1      42.679  29.063  29.557  1.00  0.00    -0.354 N 
ATOM     32  N   UNL A   1      43.263  31.678  30.833  1.00  0.00    -0.248 NA
ATOM     33  C   UNL A   1      44.757  33.111  31.919  1.00  0.00     0.031 C 
ATOM     34  C   UNL A   1      44.327  27.582  29.424  1.00  0.00     0.029 A 
ATOM     35  C   UNL A   1      44.012  28.859  29.864  1.00  0.00     0.049 A 
ATOM     36  H   UNL A   1      42.174  29.885  29.754  1.00  0.00     0.167 HD
ATOM     37  C   UNL A   1      44.499  31.055  30.929  1.00  0.00     0.074 A 
ATOM     38  C   UNL A   1      45.388  31.993  31.585  1.00  0.00     0.031 C 
ATOM     39  C   UNL A   1      44.868  29.819  30.513  1.00  0.00     0.037 A 
BRANCH  26  40
ATOM     40  C   UNL A   1      40.347  26.553  27.824  1.00  0.00     0.057 A 
ATOM     41  C   UNL A   1      40.670  26.269  26.490  1.00  0.00     0.134 A 
ATOM     42  C   UNL A   1      39.536  25.636  28.503  1.00  0.00     0.134 A 
ATOM     43  F   UNL A   1      41.416  27.124  25.774  1.00  0.00    -0.206 F 
ATOM     44  C   UNL A   1      40.177  25.132  25.847  1.00  0.00     0.040 A 
ATOM     45  C   UNL A   1      39.055  24.485  27.878  1.00  0.00     0.040 A 
ATOM     46  F   UNL A   1      39.184  25.854  29.778  1.00  0.00    -0.206 F 
ATOM     47  C   UNL A   1      39.367  24.235  26.543  1.00  0.00     0.006 A 
ENDBRANCH  26  40
BRANCH  27  48
ATOM     48  C   UNL A   1      42.778  35.264  32.144  1.00  0.00     0.057 A 
ATOM     49  C   UNL A   1      42.449  35.571  33.468  1.00  0.00     0.134 A 
ATOM     50  C   UNL A   1      43.454  36.244  31.404  1.00  0.00     0.134 A 
ATOM     51  F   UNL A   1      41.787  34.682  34.222  1.00  0.00    -0.206 F 
ATOM     52  C   UNL A   1      42.761  36.811  34.029  1.00  0.00     0.040 A 
ATOM     53  C   UNL A   1      43.784  37.481  31.956  1.00  0.00     0.040 A 
ATOM     54  F   UNL A   1      43.813  36.006  30.133  1.00  0.00    -0.206 F 
ATOM     55  C   UNL A   1      43.429  37.771  33.271  1.00  0.00     0.006 A 
ENDBRANCH  27  48
BRANCH  39  56
ATOM     56  C   UNL A   1      46.297  29.434  30.737  1.00  0.00     0.057 A 
ATOM     57  C   UNL A   1      46.735  28.916  31.961  1.00  0.00     0.134 A 
ATOM     58  C   UNL A   1      47.235  29.555  29.705  1.00  0.00     0.134 A 
ATOM     59  F   UNL A   1      45.884  28.792  32.990  1.00  0.00    -0.206 F 
ATOM     60  C   UNL A   1      48.066  28.548  32.157  1.00  0.00     0.040 A 
ATOM     61  C   UNL A   1      48.563  29.170  29.883  1.00  0.00     0.040 A 
ATOM     62  F   UNL A   1      46.872  30.040  28.507  1.00  0.00    -0.206 F 
ATOM     63  C   UNL A   1      48.982  28.670  31.114  1.00  0.00     0.006 A 
ENDBRANCH  39  56
ENDBRANCH  13  14
ENDBRANCH   6   8
ENDBRANCH   5   6
ENDBRANCH   4   5
ENDBRANCH   3   4
ENDBRANCH   2   3
ENDBRANCH   1   2
BRANCH   1  64
ATOM     64  C   UNL A   1      35.698  35.062  32.781  1.00  0.00     0.188 C 
BRANCH  64  65
ATOM     65  O   UNL A   1      36.833  35.082  33.644  1.00  0.00    -0.376 OA
BRANCH  65  66
ATOM     66  C   UNL A   1      37.566  33.865  33.786  1.00  0.00     0.202 C 
BRANCH  66  67
ATOM     67  C   UNL A   1      36.961  32.811  34.723  1.00  0.00     0.261 C 
BRANCH  67  68
ATOM     68  O   UNL A   1      37.196  33.057  36.123  1.00  0.00    -0.460 OA
BRANCH  68  69
ATOM     69  C   UNL A   1      37.715  32.009  36.815  1.00  0.00     0.340 C 
ATOM     70  O   UNL A   1      37.136  31.273  37.592  1.00  0.00    -0.246 OA
BRANCH  69  71
ATOM     71  C   UNL A   1      39.131  31.821  36.450  1.00  0.00     0.085 A 
ATOM     72  C   UNL A   1      39.498  30.569  35.943  1.00  0.00     0.043 A 
ATOM     73  C   UNL A   1      40.110  32.756  36.808  1.00  0.00     0.055 A 
ATOM     74  C   UNL A   1      40.838  30.248  35.706  1.00  0.00     0.038 A 
ATOM     75  C   UNL A   1      41.446  32.454  36.528  1.00  0.00     0.029 A 
ATOM     76  C   UNL A   1      41.802  31.219  35.970  1.00  0.00     0.028 A 
BRANCH  73  77
ATOM     77  N   UNL A   1      39.728  33.948  37.445  1.00  0.00    -0.325 N 
ATOM     78  C   UNL A   1      39.510  34.234  38.762  1.00  0.00     0.227 C 
ATOM     79  H   UNL A   1      39.593  34.709  36.837  1.00  0.00     0.169 HD
ATOM     80  O   UNL A   1      39.294  35.415  39.053  1.00  0.00    -0.274 OA
BRANCH  78  81
ATOM     81  C   UNL A   1      39.513  33.146  39.831  1.00  0.00     0.079 C 
ATOM     82  C   UNL A   1      40.864  33.094  40.561  1.00  0.00     0.013 C 
ATOM     83  C   UNL A   1      38.572  33.362  41.017  1.00  0.00     0.013 C 
ATOM     84  C   UNL A   1      40.597  32.298  41.832  1.00  0.00     0.001 C 
ATOM     85  C   UNL A   1      39.096  32.405  42.080  1.00  0.00     0.001 C 
ENDBRANCH  78  81
ENDBRANCH  73  77
BRANCH  74  86
ATOM     86  N   UNL A   1      41.164  28.972  35.308  1.00  0.00    -0.368 N 
ATOM     87  C   UNL A   1      41.113  28.557  33.898  1.00  0.00     0.138 C 
ATOM     88  C   UNL A   1      42.014  28.165  36.201  1.00  0.00     0.138 C 
ATOM     89  C   UNL A   1      42.518  28.294  33.302  1.00  0.00     0.138 C 
ATOM     90  C   UNL A   1      43.416  27.944  35.593  1.00  0.00     0.138 C 
ATOM     91  N   UNL A   1      43.329  27.456  34.206  1.00  0.00    -0.368 N 
BRANCH  91  92
ATOM     92  C   UNL A   1      43.691  26.175  33.848  1.00  0.00     0.037 A 
ATOM     93  C   UNL A   1      44.466  25.950  32.697  1.00  0.00     0.029 A 
ATOM     94  C   UNL A   1      43.330  25.053  34.611  1.00  0.00     0.029 A 
ATOM     95  C   UNL A   1      44.873  24.664  32.327  1.00  0.00     0.041 A 
ATOM     96  C   UNL A   1      43.721  23.762  34.240  1.00  0.00     0.041 A 
ATOM     97  C   UNL A   1      44.493  23.580  33.103  1.00  0.00     0.123 A 
ATOM     98  F   UNL A   1      44.879  22.346  32.754  1.00  0.00    -0.207 F 
ENDBRANCH  91  92
ENDBRANCH  74  86
ENDBRANCH  69  71
ENDBRANCH  68  69
ENDBRANCH  67  68
ENDBRANCH  66  67
ENDBRANCH  65  66
ENDBRANCH  64  65
ENDBRANCH   1  64
TORSDOF 21
ENDMDL
