MODEL 1
REMARK VINA RESULT:     -12.1      0.000      0.000
REMARK SMILES Cc1nc(NC(=O)[C@H]2[C@@H]3CC[C@@H](C3)[C@@H]2C(=O)OCCOCCOCCOC(=O)c2ccc(-c3c4nc(c(-c5c(F)cccc5F)c5ccc([nH]5)c(-c5c(F)cccc5F)c5nc(c(-c6c(F)cccc6F)c6ccc3[nH]6)C=C5)C=C4)cc2)sc1-c1ccccc1
REMARK SMILES IDX 21 1 20 2 19 3 18 4 17 5 15 6 16 7 14 8 8 9 9 10 10 11 13 12
REMARK SMILES IDX 12 13 11 14 6 15 5 16 7 18 4 19 1 20 2 21 3 22 84 23 83 24
REMARK SMILES IDX 85 25 86 26 90 27 87 28 89 29 88 30 22 31 23 32 24 33 25 34
REMARK SMILES IDX 26 35 27 36 28 37 29 38 30 39 82 40 31 41 81 42 32 43 33 44
REMARK SMILES IDX 34 45 75 46 35 47 80 48 74 49 76 50 36 51 79 52 73 53 72 54
REMARK SMILES IDX 37 56 63 57 46 58 62 59 47 60 50 61 61 62 77 63 48 64 49 65
REMARK SMILES IDX 60 67 78 68 51 69 38 70 39 71 44 72 40 73 41 74 43 75 45 76
REMARK SMILES IDX 42 77 64 78 65 79 70 80 66 81 67 82 69 83 71 84 68 85 52 86
REMARK SMILES IDX 53 87 58 88 54 89 55 90 57 91 59 92 56 93
REMARK H PARENT 5 17 76 55 50 66
REMARK Flexibility Score: inf
ROOT
ATOM      1  C   UNL A   1      39.021  21.987  26.135  1.00  0.00     0.188 C 
ENDROOT
BRANCH   1   2
ATOM      2  O   UNL A   1      38.257  21.139  25.291  1.00  0.00    -0.376 OA
BRANCH   2   3
ATOM      3  C   UNL A   1      36.898  21.502  25.071  1.00  0.00     0.202 C 
BRANCH   3   4
ATOM      4  C   UNL A   1      36.505  22.943  25.427  1.00  0.00     0.261 C 
BRANCH   4   5
ATOM      5  O   UNL A   1      35.093  23.194  25.364  1.00  0.00    -0.463 OA
BRANCH   5   6
ATOM      6  C   UNL A   1      34.638  23.778  24.212  1.00  0.00     0.310 C 
ATOM      7  O   UNL A   1      35.326  24.050  23.239  1.00  0.00    -0.252 OA
BRANCH   6   8
ATOM      8  C   UNL A   1      33.127  23.958  24.300  1.00  0.00     0.115 C 
ATOM      9  C   UNL A   1      32.460  23.265  25.502  1.00  0.00     0.096 C 
ATOM     10  C   UNL A   1      31.584  22.187  24.814  1.00  0.00     0.003 C 
ATOM     11  C   UNL A   1      32.489  21.168  24.076  1.00  0.00     0.005 C 
ATOM     12  C   UNL A   1      31.002  22.971  23.645  1.00  0.00     0.009 C 
ATOM     13  C   UNL A   1      32.382  23.342  23.085  1.00  0.00     0.004 C 
ATOM     14  C   UNL A   1      32.916  21.927  22.807  1.00  0.00     0.005 C 
BRANCH   9  15
ATOM     15  C   UNL A   1      31.633  24.039  26.565  1.00  0.00     0.230 C 
ATOM     16  N   UNL A   1      31.079  25.276  26.528  1.00  0.00    -0.302 N 
ATOM     17  H   UNL A   1      30.512  25.487  27.305  1.00  0.00     0.172 HD
ATOM     18  O   UNL A   1      31.395  23.428  27.625  1.00  0.00    -0.274 OA
BRANCH  16  19
ATOM     19  C   UNL A   1      31.164  26.283  25.613  1.00  0.00     0.190 A 
ATOM     20  C   UNL A   1      31.971  29.673  25.041  1.00  0.00     0.068 C 
ATOM     21  C   UNL A   1      31.414  28.311  24.813  1.00  0.00     0.058 A 
ATOM     22  N   UNL A   1      31.929  27.328  25.630  1.00  0.00    -0.225 NA
ATOM     23  C   UNL A   1      30.378  27.903  23.974  1.00  0.00     0.059 A 
ATOM     24  S   UNL A   1      30.064  26.225  24.307  1.00  0.00    -0.096 S 
BRANCH  23  25
ATOM     25  C   UNL A   1      29.546  28.713  23.057  1.00  0.00    -0.006 A 
ATOM     26  C   UNL A   1      28.149  28.730  23.141  1.00  0.00     0.009 A 
ATOM     27  C   UNL A   1      30.146  29.638  22.188  1.00  0.00     0.009 A 
ATOM     28  C   UNL A   1      27.396  29.741  22.529  1.00  0.00     0.001 A 
ATOM     29  C   UNL A   1      29.400  30.646  21.568  1.00  0.00     0.001 A 
ATOM     30  C   UNL A   1      28.027  30.719  21.770  1.00  0.00     0.000 A 
ENDBRANCH  23  25
ENDBRANCH  16  19
ENDBRANCH   9  15
ENDBRANCH   6   8
ENDBRANCH   5   6
ENDBRANCH   4   5
ENDBRANCH   3   4
ENDBRANCH   2   3
ENDBRANCH   1   2
BRANCH   1  31
ATOM     31  C   UNL A   1      40.182  21.352  26.886  1.00  0.00     0.188 C 
BRANCH  31  32
ATOM     32  O   UNL A   1      41.053  20.525  26.122  1.00  0.00    -0.376 OA
BRANCH  32  33
ATOM     33  C   UNL A   1      42.431  20.635  26.514  1.00  0.00     0.202 C 
BRANCH  33  34
ATOM     34  C   UNL A   1      43.326  21.443  25.547  1.00  0.00     0.261 C 
BRANCH  34  35
ATOM     35  O   UNL A   1      42.710  22.657  25.051  1.00  0.00    -0.460 OA
BRANCH  35  36
ATOM     36  C   UNL A   1      43.435  23.781  25.195  1.00  0.00     0.338 C 
ATOM     37  O   UNL A   1      44.463  24.064  24.593  1.00  0.00    -0.246 OA
BRANCH  36  38
ATOM     38  C   UNL A   1      42.733  24.766  26.032  1.00  0.00     0.060 A 
ATOM     39  C   UNL A   1      43.120  26.112  25.933  1.00  0.00     0.016 A 
ATOM     40  C   UNL A   1      41.795  24.369  26.979  1.00  0.00     0.016 A 
ATOM     41  C   UNL A   1      42.614  27.060  26.814  1.00  0.00     0.010 A 
ATOM     42  C   UNL A   1      41.300  25.318  27.878  1.00  0.00     0.010 A 
ATOM     43  C   UNL A   1      41.737  26.656  27.825  1.00  0.00    -0.014 A 
BRANCH  43  44
ATOM     44  C   UNL A   1      41.407  27.591  28.926  1.00  0.00     0.031 A 
ATOM     45  C   UNL A   1      42.213  27.529  30.192  1.00  0.00     0.074 A 
ATOM     46  C   UNL A   1      40.424  28.498  28.794  1.00  0.00     0.049 A 
ATOM     47  N   UNL A   1      42.001  28.107  31.345  1.00  0.00    -0.248 NA
ATOM     48  C   UNL A   1      43.425  26.695  30.149  1.00  0.00     0.031 C 
ATOM     49  C   UNL A   1      39.640  28.724  27.583  1.00  0.00     0.029 A 
ATOM     50  N   UNL A   1      39.914  29.391  29.701  1.00  0.00    -0.354 N 
ATOM     51  C   UNL A   1      43.023  27.670  32.179  1.00  0.00     0.074 A 
ATOM     52  C   UNL A   1      43.859  26.784  31.398  1.00  0.00     0.031 C 
ATOM     53  C   UNL A   1      38.727  29.679  27.828  1.00  0.00     0.029 A 
ATOM     54  C   UNL A   1      38.829  30.084  29.227  1.00  0.00     0.049 A 
ATOM     55  H   UNL A   1      40.289  29.521  30.602  1.00  0.00     0.167 HD
ATOM     56  C   UNL A   1      43.234  27.976  33.481  1.00  0.00     0.037 A 
ATOM     57  C   UNL A   1      37.981  30.914  29.867  1.00  0.00     0.037 A 
ATOM     58  C   UNL A   1      42.409  28.882  34.237  1.00  0.00     0.049 A 
ATOM     59  C   UNL A   1      38.199  31.199  31.328  1.00  0.00     0.074 A 
ATOM     60  C   UNL A   1      42.534  29.268  35.559  1.00  0.00     0.029 A 
ATOM     61  N   UNL A   1      41.304  29.550  33.728  1.00  0.00    -0.354 N 
ATOM     62  N   UNL A   1      39.134  30.746  32.128  1.00  0.00    -0.248 NA
ATOM     63  C   UNL A   1      37.241  32.105  31.975  1.00  0.00     0.031 C 
ATOM     64  C   UNL A   1      41.479  30.135  35.862  1.00  0.00     0.029 A 
ATOM     65  C   UNL A   1      40.725  30.330  34.714  1.00  0.00     0.049 A 
ATOM     66  H   UNL A   1      40.979  29.479  32.800  1.00  0.00     0.167 HD
ATOM     67  C   UNL A   1      38.888  31.321  33.368  1.00  0.00     0.074 A 
ATOM     68  C   UNL A   1      37.723  32.169  33.208  1.00  0.00     0.031 C 
ATOM     69  C   UNL A   1      39.563  31.163  34.533  1.00  0.00     0.037 A 
BRANCH  56  70
ATOM     70  C   UNL A   1      44.361  27.272  34.180  1.00  0.00     0.057 A 
ATOM     71  C   UNL A   1      44.206  26.018  34.784  1.00  0.00     0.134 A 
ATOM     72  C   UNL A   1      45.628  27.867  34.247  1.00  0.00     0.134 A 
ATOM     73  F   UNL A   1      43.015  25.401  34.774  1.00  0.00    -0.206 F 
ATOM     74  C   UNL A   1      45.261  25.396  35.456  1.00  0.00     0.040 A 
ATOM     75  C   UNL A   1      46.697  27.244  34.893  1.00  0.00     0.040 A 
ATOM     76  F   UNL A   1      45.847  29.067  33.688  1.00  0.00    -0.206 F 
ATOM     77  C   UNL A   1      46.513  26.008  35.507  1.00  0.00     0.006 A 
ENDBRANCH  56  70
BRANCH  57  78
ATOM     78  C   UNL A   1      36.824  31.485  29.135  1.00  0.00     0.057 A 
ATOM     79  C   UNL A   1      36.835  32.801  28.664  1.00  0.00     0.134 A 
ATOM     80  C   UNL A   1      35.684  30.714  28.871  1.00  0.00     0.134 A 
ATOM     81  F   UNL A   1      37.886  33.598  28.910  1.00  0.00    -0.206 F 
ATOM     82  C   UNL A   1      35.754  33.333  27.958  1.00  0.00     0.040 A 
ATOM     83  C   UNL A   1      34.608  31.224  28.145  1.00  0.00     0.040 A 
ATOM     84  F   UNL A   1      35.610  29.445  29.299  1.00  0.00    -0.206 F 
ATOM     85  C   UNL A   1      34.640  32.539  27.687  1.00  0.00     0.006 A 
ENDBRANCH  57  78
BRANCH  69  86
ATOM     86  C   UNL A   1      39.074  31.947  35.715  1.00  0.00     0.057 A 
ATOM     87  C   UNL A   1      38.226  31.383  36.676  1.00  0.00     0.134 A 
ATOM     88  C   UNL A   1      39.481  33.273  35.907  1.00  0.00     0.134 A 
ATOM     89  F   UNL A   1      37.790  30.121  36.542  1.00  0.00    -0.206 F 
ATOM     90  C   UNL A   1      37.780  32.119  37.775  1.00  0.00     0.040 A 
ATOM     91  C   UNL A   1      39.063  34.011  37.015  1.00  0.00     0.040 A 
ATOM     92  F   UNL A   1      40.301  33.869  35.029  1.00  0.00    -0.206 F 
ATOM     93  C   UNL A   1      38.204  33.436  37.950  1.00  0.00     0.006 A 
ENDBRANCH  69  86
ENDBRANCH  43  44
ENDBRANCH  36  38
ENDBRANCH  35  36
ENDBRANCH  34  35
ENDBRANCH  33  34
ENDBRANCH  32  33
ENDBRANCH  31  32
ENDBRANCH   1  31
TORSDOF 20
ENDMDL
MODEL 2
REMARK VINA RESULT:     -12.0      1.535      2.586
REMARK SMILES Cc1nc(NC(=O)[C@H]2[C@@H]3CC[C@@H](C3)[C@@H]2C(=O)OCCOCCOCCOC(=O)c2ccc(-c3c4nc(c(-c5c(F)cccc5F)c5ccc([nH]5)c(-c5c(F)cccc5F)c5nc(c(-c6c(F)cccc6F)c6ccc3[nH]6)C=C5)C=C4)cc2)sc1-c1ccccc1
REMARK SMILES IDX 21 1 20 2 19 3 18 4 17 5 15 6 16 7 14 8 8 9 9 10 10 11 13 12
REMARK SMILES IDX 12 13 11 14 6 15 5 16 7 18 4 19 1 20 2 21 3 22 84 23 83 24
REMARK SMILES IDX 85 25 86 26 90 27 87 28 89 29 88 30 22 31 23 32 24 33 25 34
REMARK SMILES IDX 26 35 27 36 28 37 29 38 30 39 82 40 31 41 81 42 32 43 33 44
REMARK SMILES IDX 34 45 75 46 35 47 80 48 74 49 76 50 36 51 79 52 73 53 72 54
REMARK SMILES IDX 37 56 63 57 46 58 62 59 47 60 50 61 61 62 77 63 48 64 49 65
REMARK SMILES IDX 60 67 78 68 51 69 38 70 39 71 44 72 40 73 41 74 43 75 45 76
REMARK SMILES IDX 42 77 64 78 65 79 70 80 66 81 67 82 69 83 71 84 68 85 52 86
REMARK SMILES IDX 53 87 58 88 54 89 55 90 57 91 59 92 56 93
REMARK H PARENT 5 17 76 55 50 66
REMARK Flexibility Score: inf
ROOT
ATOM      1  C   UNL A   1      40.192  20.253  26.241  1.00  0.00     0.188 C 
ENDROOT
BRANCH   1   2
ATOM      2  O   UNL A   1      39.567  19.164  25.578  1.00  0.00    -0.376 OA
BRANCH   2   3
ATOM      3  C   UNL A   1      38.299  19.416  24.979  1.00  0.00     0.202 C 
BRANCH   3   4
ATOM      4  C   UNL A   1      37.787  20.862  25.036  1.00  0.00     0.261 C 
BRANCH   4   5
ATOM      5  O   UNL A   1      36.424  20.981  25.471  1.00  0.00    -0.463 OA
BRANCH   5   6
ATOM      6  C   UNL A   1      35.757  22.102  25.054  1.00  0.00     0.310 C 
ATOM      7  O   UNL A   1      36.240  23.222  24.975  1.00  0.00    -0.252 OA
BRANCH   6   8
ATOM      8  C   UNL A   1      34.345  21.719  24.624  1.00  0.00     0.115 C 
ATOM      9  C   UNL A   1      33.452  22.899  24.204  1.00  0.00     0.096 C 
ATOM     10  C   UNL A   1      32.361  22.894  25.306  1.00  0.00     0.003 C 
ATOM     11  C   UNL A   1      33.003  23.205  26.681  1.00  0.00     0.005 C 
ATOM     12  C   UNL A   1      32.075  21.404  25.440  1.00  0.00     0.009 C 
ATOM     13  C   UNL A   1      33.534  21.058  25.771  1.00  0.00     0.004 C 
ATOM     14  C   UNL A   1      33.686  21.880  27.061  1.00  0.00     0.005 C 
BRANCH   9  15
ATOM     15  C   UNL A   1      32.801  23.001  22.797  1.00  0.00     0.230 C 
ATOM     16  N   UNL A   1      32.414  24.082  22.076  1.00  0.00    -0.302 N 
ATOM     17  H   UNL A   1      32.121  23.871  21.160  1.00  0.00     0.172 HD
ATOM     18  O   UNL A   1      32.627  21.923  22.196  1.00  0.00    -0.274 OA
BRANCH  16  19
ATOM     19  C   UNL A   1      32.354  25.407  22.387  1.00  0.00     0.190 A 
ATOM     20  C   UNL A   1      34.142  28.437  22.698  1.00  0.00     0.068 C 
ATOM     21  C   UNL A   1      33.044  27.441  22.838  1.00  0.00     0.058 A 
ATOM     22  N   UNL A   1      33.116  26.370  21.975  1.00  0.00    -0.225 NA
ATOM     23  C   UNL A   1      32.018  27.375  23.780  1.00  0.00     0.059 A 
ATOM     24  S   UNL A   1      31.182  25.870  23.541  1.00  0.00    -0.096 S 
BRANCH  23  25
ATOM     25  C   UNL A   1      31.723  28.293  24.903  1.00  0.00    -0.006 A 
ATOM     26  C   UNL A   1      32.112  28.009  26.217  1.00  0.00     0.009 A 
ATOM     27  C   UNL A   1      31.201  29.572  24.653  1.00  0.00     0.009 A 
ATOM     28  C   UNL A   1      32.151  29.010  27.196  1.00  0.00     0.001 A 
ATOM     29  C   UNL A   1      31.230  30.575  25.628  1.00  0.00     0.001 A 
ATOM     30  C   UNL A   1      31.741  30.302  26.891  1.00  0.00     0.000 A 
ENDBRANCH  23  25
ENDBRANCH  16  19
ENDBRANCH   9  15
ENDBRANCH   6   8
ENDBRANCH   5   6
ENDBRANCH   4   5
ENDBRANCH   3   4
ENDBRANCH   2   3
ENDBRANCH   1   2
BRANCH   1  31
ATOM     31  C   UNL A   1      41.336  19.922  27.188  1.00  0.00     0.188 C 
BRANCH  31  32
ATOM     32  O   UNL A   1      42.428  19.197  26.633  1.00  0.00    -0.376 OA
BRANCH  32  33
ATOM     33  C   UNL A   1      42.970  19.804  25.448  1.00  0.00     0.202 C 
BRANCH  33  34
ATOM     34  C   UNL A   1      44.050  20.880  25.697  1.00  0.00     0.261 C 
BRANCH  34  35
ATOM     35  O   UNL A   1      43.551  22.075  26.347  1.00  0.00    -0.460 OA
BRANCH  35  36
ATOM     36  C   UNL A   1      43.184  23.076  25.527  1.00  0.00     0.338 C 
ATOM     37  O   UNL A   1      43.154  23.039  24.304  1.00  0.00    -0.246 OA
BRANCH  36  38
ATOM     38  C   UNL A   1      42.604  24.198  26.281  1.00  0.00     0.060 A 
ATOM     39  C   UNL A   1      43.259  25.439  26.226  1.00  0.00     0.016 A 
ATOM     40  C   UNL A   1      41.507  24.015  27.116  1.00  0.00     0.016 A 
ATOM     41  C   UNL A   1      42.857  26.487  27.046  1.00  0.00     0.010 A 
ATOM     42  C   UNL A   1      41.114  25.062  27.955  1.00  0.00     0.010 A 
ATOM     43  C   UNL A   1      41.811  26.286  27.952  1.00  0.00    -0.014 A 
BRANCH  43  44
ATOM     44  C   UNL A   1      41.553  27.291  29.009  1.00  0.00     0.031 A 
ATOM     45  C   UNL A   1      42.395  27.262  30.253  1.00  0.00     0.074 A 
ATOM     46  C   UNL A   1      40.605  28.231  28.856  1.00  0.00     0.049 A 
ATOM     47  N   UNL A   1      42.243  27.909  31.379  1.00  0.00    -0.248 NA
ATOM     48  C   UNL A   1      43.571  26.377  30.221  1.00  0.00     0.031 C 
ATOM     49  C   UNL A   1      39.794  28.425  27.657  1.00  0.00     0.029 A 
ATOM     50  N   UNL A   1      40.160  29.192  29.728  1.00  0.00    -0.354 N 
ATOM     51  C   UNL A   1      43.271  27.475  32.205  1.00  0.00     0.074 A 
ATOM     52  C   UNL A   1      44.046  26.514  31.450  1.00  0.00     0.031 C 
ATOM     53  C   UNL A   1      38.929  29.430  27.877  1.00  0.00     0.029 A 
ATOM     54  C   UNL A   1      39.090  29.904  29.248  1.00  0.00     0.049 A 
ATOM     55  H   UNL A   1      40.568  29.353  30.609  1.00  0.00     0.167 HD
ATOM     56  C   UNL A   1      43.535  27.840  33.482  1.00  0.00     0.037 A 
ATOM     57  C   UNL A   1      38.297  30.802  29.865  1.00  0.00     0.037 A 
ATOM     58  C   UNL A   1      42.771  28.819  34.211  1.00  0.00     0.049 A 
ATOM     59  C   UNL A   1      38.572  31.155  31.302  1.00  0.00     0.074 A 
ATOM     60  C   UNL A   1      42.953  29.269  35.507  1.00  0.00     0.029 A 
ATOM     61  N   UNL A   1      41.679  29.505  33.698  1.00  0.00    -0.354 N 
ATOM     62  N   UNL A   1      39.512  30.705  32.098  1.00  0.00    -0.248 NA
ATOM     63  C   UNL A   1      37.671  32.133  31.926  1.00  0.00     0.031 C 
ATOM     64  C   UNL A   1      41.943  30.196  35.791  1.00  0.00     0.029 A 
ATOM     65  C   UNL A   1      41.163  30.360  34.657  1.00  0.00     0.049 A 
ATOM     66  H   UNL A   1      41.323  29.400  32.786  1.00  0.00     0.167 HD
ATOM     67  C   UNL A   1      39.328  31.356  33.312  1.00  0.00     0.074 A 
ATOM     68  C   UNL A   1      38.194  32.242  33.140  1.00  0.00     0.031 C 
ATOM     69  C   UNL A   1      40.031  31.232  34.464  1.00  0.00     0.037 A 
BRANCH  56  70
ATOM     70  C   UNL A   1      44.653  27.127  34.186  1.00  0.00     0.057 A 
ATOM     71  C   UNL A   1      45.966  27.614  34.199  1.00  0.00     0.134 A 
ATOM     72  C   UNL A   1      44.405  25.925  34.862  1.00  0.00     0.134 A 
ATOM     73  F   UNL A   1      46.277  28.748  33.555  1.00  0.00    -0.206 F 
ATOM     74  C   UNL A   1      46.997  26.917  34.834  1.00  0.00     0.040 A 
ATOM     75  C   UNL A   1      45.421  25.232  35.522  1.00  0.00     0.040 A 
ATOM     76  F   UNL A   1      43.169  25.401  34.889  1.00  0.00    -0.206 F 
ATOM     77  C   UNL A   1      46.723  25.724  35.502  1.00  0.00     0.006 A 
ENDBRANCH  56  70
BRANCH  57  78
ATOM     78  C   UNL A   1      37.142  31.382  29.137  1.00  0.00     0.057 A 
ATOM     79  C   UNL A   1      35.967  30.653  28.932  1.00  0.00     0.134 A 
ATOM     80  C   UNL A   1      37.182  32.693  28.645  1.00  0.00     0.134 A 
ATOM     81  F   UNL A   1      35.878  29.383  29.355  1.00  0.00    -0.206 F 
ATOM     82  C   UNL A   1      34.872  31.205  28.264  1.00  0.00     0.040 A 
ATOM     83  C   UNL A   1      36.087  33.267  27.999  1.00  0.00     0.040 A 
ATOM     84  F   UNL A   1      38.282  33.444  28.806  1.00  0.00    -0.206 F 
ATOM     85  C   UNL A   1      34.927  32.520  27.805  1.00  0.00     0.006 A 
ENDBRANCH  57  78
BRANCH  69  86
ATOM     86  C   UNL A   1      39.611  32.097  35.615  1.00  0.00     0.057 A 
ATOM     87  C   UNL A   1      40.195  33.347  35.852  1.00  0.00     0.134 A 
ATOM     88  C   UNL A   1      38.590  31.684  36.480  1.00  0.00     0.134 A 
ATOM     89  F   UNL A   1      41.188  33.794  35.068  1.00  0.00    -0.206 F 
ATOM     90  C   UNL A   1      39.795  34.147  36.924  1.00  0.00     0.040 A 
ATOM     91  C   UNL A   1      38.162  32.485  37.539  1.00  0.00     0.040 A 
ATOM     92  F   UNL A   1      37.982  30.501  36.302  1.00  0.00    -0.206 F 
ATOM     93  C   UNL A   1      38.770  33.718  37.768  1.00  0.00     0.006 A 
ENDBRANCH  69  86
ENDBRANCH  43  44
ENDBRANCH  36  38
ENDBRANCH  35  36
ENDBRANCH  34  35
ENDBRANCH  33  34
ENDBRANCH  32  33
ENDBRANCH  31  32
ENDBRANCH   1  31
TORSDOF 20
ENDMDL
MODEL 3
REMARK VINA RESULT:     -11.7      4.502      9.719
REMARK SMILES Cc1nc(NC(=O)[C@H]2[C@@H]3CC[C@@H](C3)[C@@H]2C(=O)OCCOCCOCCOC(=O)c2ccc(-c3c4nc(c(-c5c(F)cccc5F)c5ccc([nH]5)c(-c5c(F)cccc5F)c5nc(c(-c6c(F)cccc6F)c6ccc3[nH]6)C=C5)C=C4)cc2)sc1-c1ccccc1
REMARK SMILES IDX 21 1 20 2 19 3 18 4 17 5 15 6 16 7 14 8 8 9 9 10 10 11 13 12
REMARK SMILES IDX 12 13 11 14 6 15 5 16 7 18 4 19 1 20 2 21 3 22 84 23 83 24
REMARK SMILES IDX 85 25 86 26 90 27 87 28 89 29 88 30 22 31 23 32 24 33 25 34
REMARK SMILES IDX 26 35 27 36 28 37 29 38 30 39 82 40 31 41 81 42 32 43 33 44
REMARK SMILES IDX 34 45 75 46 35 47 80 48 74 49 76 50 36 51 79 52 73 53 72 54
REMARK SMILES IDX 37 56 63 57 46 58 62 59 47 60 50 61 61 62 77 63 48 64 49 65
REMARK SMILES IDX 60 67 78 68 51 69 38 70 39 71 44 72 40 73 41 74 43 75 45 76
REMARK SMILES IDX 42 77 64 78 65 79 70 80 66 81 67 82 69 83 71 84 68 85 52 86
REMARK SMILES IDX 53 87 58 88 54 89 55 90 57 91 59 92 56 93
REMARK H PARENT 5 17 76 55 50 66
REMARK Flexibility Score: inf
ROOT
ATOM      1  C   UNL A   1      33.938  31.222  27.516  1.00  0.00     0.188 C 
ENDROOT
BRANCH   1   2
ATOM      2  O   UNL A   1      32.846  30.319  27.436  1.00  0.00    -0.376 OA
BRANCH   2   3
ATOM      3  C   UNL A   1      33.031  29.152  26.640  1.00  0.00     0.202 C 
BRANCH   3   4
ATOM      4  C   UNL A   1      33.499  29.372  25.195  1.00  0.00     0.261 C 
BRANCH   4   5
ATOM      5  O   UNL A   1      33.225  28.269  24.319  1.00  0.00    -0.463 OA
BRANCH   5   6
ATOM      6  C   UNL A   1      31.988  28.263  23.730  1.00  0.00     0.310 C 
ATOM      7  O   UNL A   1      31.560  29.128  22.980  1.00  0.00    -0.252 OA
BRANCH   6   8
ATOM      8  C   UNL A   1      31.264  26.971  24.089  1.00  0.00     0.115 C 
ATOM      9  C   UNL A   1      32.144  25.896  24.752  1.00  0.00     0.096 C 
ATOM     10  C   UNL A   1      32.147  24.771  23.685  1.00  0.00     0.003 C 
ATOM     11  C   UNL A   1      32.842  25.273  22.395  1.00  0.00     0.005 C 
ATOM     12  C   UNL A   1      30.687  24.760  23.254  1.00  0.00     0.009 C 
ATOM     13  C   UNL A   1      30.700  26.239  22.842  1.00  0.00     0.004 C 
ATOM     14  C   UNL A   1      31.775  26.171  21.744  1.00  0.00     0.005 C 
BRANCH   9  15
ATOM     15  C   UNL A   1      31.838  25.310  26.157  1.00  0.00     0.230 C 
ATOM     16  N   UNL A   1      32.315  24.203  26.779  1.00  0.00    -0.302 N 
ATOM     17  H   UNL A   1      32.033  24.116  27.719  1.00  0.00     0.172 HD
ATOM     18  O   UNL A   1      31.051  25.968  26.865  1.00  0.00    -0.274 OA
BRANCH  16  19
ATOM     19  C   UNL A   1      33.113  23.189  26.342  1.00  0.00     0.190 A 
ATOM     20  C   UNL A   1      35.923  22.287  24.403  1.00  0.00     0.068 C 
ATOM     21  C   UNL A   1      34.665  22.153  25.187  1.00  0.00     0.058 A 
ATOM     22  N   UNL A   1      34.356  23.235  25.982  1.00  0.00    -0.225 NA
ATOM     23  C   UNL A   1      33.703  21.145  25.158  1.00  0.00     0.059 A 
ATOM     24  S   UNL A   1      32.372  21.661  26.152  1.00  0.00    -0.096 S 
BRANCH  23  25
ATOM     25  C   UNL A   1      33.670  19.910  24.343  1.00  0.00    -0.006 A 
ATOM     26  C   UNL A   1      34.492  18.813  24.623  1.00  0.00     0.009 A 
ATOM     27  C   UNL A   1      32.675  19.731  23.369  1.00  0.00     0.009 A 
ATOM     28  C   UNL A   1      34.219  17.545  24.093  1.00  0.00     0.001 A 
ATOM     29  C   UNL A   1      32.401  18.470  22.829  1.00  0.00     0.001 A 
ATOM     30  C   UNL A   1      33.152  17.368  23.221  1.00  0.00     0.000 A 
ENDBRANCH  23  25
ENDBRANCH  16  19
ENDBRANCH   9  15
ENDBRANCH   6   8
ENDBRANCH   5   6
ENDBRANCH   4   5
ENDBRANCH   3   4
ENDBRANCH   2   3
ENDBRANCH   1   2
BRANCH   1  31
ATOM     31  C   UNL A   1      33.637  32.632  28.001  1.00  0.00     0.188 C 
BRANCH  31  32
ATOM     32  O   UNL A   1      34.587  33.635  27.660  1.00  0.00    -0.376 OA
BRANCH  32  33
ATOM     33  C   UNL A   1      34.765  34.623  28.688  1.00  0.00     0.202 C 
BRANCH  33  34
ATOM     34  C   UNL A   1      34.452  34.142  30.122  1.00  0.00     0.261 C 
BRANCH  34  35
ATOM     35  O   UNL A   1      35.626  33.771  30.887  1.00  0.00    -0.460 OA
BRANCH  35  36
ATOM     36  C   UNL A   1      35.574  32.571  31.492  1.00  0.00     0.338 C 
ATOM     37  O   UNL A   1      34.696  32.176  32.249  1.00  0.00    -0.246 OA
BRANCH  36  38
ATOM     38  C   UNL A   1      36.612  31.666  30.975  1.00  0.00     0.060 A 
ATOM     39  C   UNL A   1      37.478  31.059  31.896  1.00  0.00     0.016 A 
ATOM     40  C   UNL A   1      36.808  31.503  29.607  1.00  0.00     0.016 A 
ATOM     41  C   UNL A   1      38.579  30.332  31.459  1.00  0.00     0.010 A 
ATOM     42  C   UNL A   1      37.926  30.787  29.166  1.00  0.00     0.010 A 
ATOM     43  C   UNL A   1      38.835  30.234  30.089  1.00  0.00    -0.014 A 
BRANCH  43  44
ATOM     44  C   UNL A   1      40.136  29.701  29.621  1.00  0.00     0.031 A 
ATOM     45  C   UNL A   1      41.312  30.634  29.541  1.00  0.00     0.074 A 
ATOM     46  C   UNL A   1      40.279  28.405  29.299  1.00  0.00     0.049 A 
ATOM     47  N   UNL A   1      42.486  30.451  28.998  1.00  0.00    -0.248 NA
ATOM     48  C   UNL A   1      41.132  31.958  30.158  1.00  0.00     0.031 C 
ATOM     49  C   UNL A   1      39.244  27.382  29.430  1.00  0.00     0.029 A 
ATOM     50  N   UNL A   1      41.357  27.733  28.781  1.00  0.00    -0.354 N 
ATOM     51  C   UNL A   1      43.168  31.649  29.164  1.00  0.00     0.074 A 
ATOM     52  C   UNL A   1      42.280  32.551  29.864  1.00  0.00     0.031 C 
ATOM     53  C   UNL A   1      39.729  26.213  28.980  1.00  0.00     0.029 A 
ATOM     54  C   UNL A   1      41.084  26.423  28.478  1.00  0.00     0.049 A 
ATOM     55  H   UNL A   1      42.238  28.150  28.641  1.00  0.00     0.167 HD
ATOM     56  C   UNL A   1      44.420  31.967  28.757  1.00  0.00     0.037 A 
ATOM     57  C   UNL A   1      41.827  25.510  27.821  1.00  0.00     0.037 A 
ATOM     58  C   UNL A   1      45.304  31.049  28.086  1.00  0.00     0.049 A 
ATOM     59  C   UNL A   1      43.194  25.898  27.328  1.00  0.00     0.074 A 
ATOM     60  C   UNL A   1      46.594  31.263  27.634  1.00  0.00     0.029 A 
ATOM     61  N   UNL A   1      44.984  29.734  27.776  1.00  0.00    -0.354 N 
ATOM     62  N   UNL A   1      43.818  27.046  27.439  1.00  0.00    -0.248 NA
ATOM     63  C   UNL A   1      43.957  24.866  26.613  1.00  0.00     0.031 C 
ATOM     64  C   UNL A   1      47.037  30.090  27.012  1.00  0.00     0.029 A 
ATOM     65  C   UNL A   1      46.043  29.130  27.121  1.00  0.00     0.049 A 
ATOM     66  H   UNL A   1      44.128  29.295  27.991  1.00  0.00     0.167 HD
ATOM     67  C   UNL A   1      45.051  26.872  26.823  1.00  0.00     0.074 A 
ATOM     68  C   UNL A   1      45.091  25.502  26.354  1.00  0.00     0.031 C 
ATOM     69  C   UNL A   1      46.059  27.764  26.660  1.00  0.00     0.037 A 
BRANCH  56  70
ATOM     70  C   UNL A   1      44.875  33.382  28.969  1.00  0.00     0.057 A 
ATOM     71  C   UNL A   1      45.502  33.802  30.149  1.00  0.00     0.134 A 
ATOM     72  C   UNL A   1      44.678  34.342  27.967  1.00  0.00     0.134 A 
ATOM     73  F   UNL A   1      45.703  32.940  31.157  1.00  0.00    -0.206 F 
ATOM     74  C   UNL A   1      45.888  35.131  30.336  1.00  0.00     0.040 A 
ATOM     75  C   UNL A   1      45.083  35.667  28.132  1.00  0.00     0.040 A 
ATOM     76  F   UNL A   1      44.084  34.007  26.811  1.00  0.00    -0.206 F 
ATOM     77  C   UNL A   1      45.683  36.067  29.323  1.00  0.00     0.006 A 
ENDBRANCH  56  70
BRANCH  57  78
ATOM     78  C   UNL A   1      41.264  24.164  27.552  1.00  0.00     0.057 A 
ATOM     79  C   UNL A   1      41.697  23.037  28.256  1.00  0.00     0.134 A 
ATOM     80  C   UNL A   1      40.259  23.980  26.592  1.00  0.00     0.134 A 
ATOM     81  F   UNL A   1      42.675  23.145  29.167  1.00  0.00    -0.206 F 
ATOM     82  C   UNL A   1      41.153  21.774  28.017  1.00  0.00     0.040 A 
ATOM     83  C   UNL A   1      39.689  22.729  26.361  1.00  0.00     0.040 A 
ATOM     84  F   UNL A   1      39.803  25.021  25.880  1.00  0.00    -0.206 F 
ATOM     85  C   UNL A   1      40.138  21.619  27.074  1.00  0.00     0.006 A 
ENDBRANCH  57  78
BRANCH  69  86
ATOM     86  C   UNL A   1      47.298  27.274  25.971  1.00  0.00     0.057 A 
ATOM     87  C   UNL A   1      48.341  26.660  26.675  1.00  0.00     0.134 A 
ATOM     88  C   UNL A   1      47.435  27.393  24.583  1.00  0.00     0.134 A 
ATOM     89  F   UNL A   1      48.277  26.528  28.008  1.00  0.00    -0.206 F 
ATOM     90  C   UNL A   1      49.489  26.203  26.024  1.00  0.00     0.040 A 
ATOM     91  C   UNL A   1      48.565  26.917  23.917  1.00  0.00     0.040 A 
ATOM     92  F   UNL A   1      46.467  27.962  23.849  1.00  0.00    -0.206 F 
ATOM     93  C   UNL A   1      49.600  26.326  24.640  1.00  0.00     0.006 A 
ENDBRANCH  69  86
ENDBRANCH  43  44
ENDBRANCH  36  38
ENDBRANCH  35  36
ENDBRANCH  34  35
ENDBRANCH  33  34
ENDBRANCH  32  33
ENDBRANCH  31  32
ENDBRANCH   1  31
TORSDOF 20
ENDMDL
