MODEL 1
REMARK VINA RESULT:     -10.9      0.000      0.000
REMARK SMILES C[C@]1(C(=O)N2CCC(CC(=O)OCCOCCOCCOC(=O)c3ccc(-c4c5nc(c(-c6c(F)cccc6F)c6ccc([nH]6)c(-c6c(F)cccc6F)c6nc(c(-c7c(F)cccc7F)c7ccc4[nH]7)C=C6)C=C5)cc3)CC2)CCC[NH2+]C1
REMARK SMILES IDX 16 1 15 2 14 3 13 4 12 5 10 6 11 7 9 8 8 9 3 10 4 11 5 12
REMARK SMILES IDX 6 13 79 14 7 15 78 16 2 17 1 18 80 19 84 20 81 21 83 22
REMARK SMILES IDX 82 23 17 26 18 27 19 28 20 29 21 30 22 31 23 32 24 33 25 34
REMARK SMILES IDX 77 35 26 36 76 37 27 38 28 39 29 40 70 41 30 42 75 43 69 44
REMARK SMILES IDX 71 45 31 46 74 47 68 48 67 49 32 51 58 52 41 53 57 54 42 55
REMARK SMILES IDX 45 56 56 57 72 58 43 59 44 60 55 62 73 63 46 64 33 65 34 66
REMARK SMILES IDX 39 67 35 68 36 69 38 70 40 71 37 72 59 73 60 74 65 75 61 76
REMARK SMILES IDX 62 77 64 78 66 79 63 80 47 81 48 82 53 83 49 84 50 85 52 86
REMARK SMILES IDX 54 87 51 88
REMARK H PARENT 83 24 83 25 71 50 45 61
REMARK Flexibility Score: inf
ROOT
ATOM      1  C   UNL A   1      39.825  21.510  26.480  1.00  0.00     0.188 C 
ENDROOT
BRANCH   1   2
ATOM      2  O   UNL A   1      38.911  21.380  25.395  1.00  0.00    -0.376 OA
BRANCH   2   3
ATOM      3  C   UNL A   1      37.633  21.993  25.563  1.00  0.00     0.202 C 
BRANCH   3   4
ATOM      4  C   UNL A   1      36.515  21.487  24.640  1.00  0.00     0.261 C 
BRANCH   4   5
ATOM      5  O   UNL A   1      35.655  22.535  24.146  1.00  0.00    -0.463 OA
BRANCH   5   6
ATOM      6  C   UNL A   1      34.888  23.172  25.064  1.00  0.00     0.306 C 
ATOM      7  O   UNL A   1      35.119  24.293  25.507  1.00  0.00    -0.252 OA
BRANCH   6   8
ATOM      8  C   UNL A   1      33.637  22.413  25.476  1.00  0.00     0.126 C 
BRANCH   8   9
ATOM      9  C   UNL A   1      32.237  23.044  25.346  1.00  0.00     0.003 C 
ATOM     10  C   UNL A   1      30.624  26.875  24.711  1.00  0.00     0.234 C 
ATOM     11  O   UNL A   1      29.737  27.256  23.946  1.00  0.00    -0.274 OA
ATOM     12  N   UNL A   1      30.828  25.519  24.907  1.00  0.00    -0.342 N 
ATOM     13  C   UNL A   1      30.904  24.620  23.770  1.00  0.00     0.120 C 
ATOM     14  C   UNL A   1      30.681  24.852  26.183  1.00  0.00     0.120 C 
ATOM     15  C   UNL A   1      32.129  23.716  23.942  1.00  0.00     0.026 C 
ATOM     16  C   UNL A   1      31.942  24.054  26.472  1.00  0.00     0.026 C 
BRANCH  10  17
ATOM     17  C   UNL A   1      31.675  27.842  25.347  1.00  0.00     0.095 C 
ATOM     18  C   UNL A   1      31.496  27.950  26.872  1.00  0.00     0.028 C 
ATOM     19  C   UNL A   1      33.106  27.334  25.044  1.00  0.00     0.028 C 
ATOM     20  C   UNL A   1      31.523  29.276  24.769  1.00  0.00     0.277 C 
ATOM     21  C   UNL A   1      33.471  27.511  23.571  1.00  0.00     0.063 C 
ATOM     22  N   UNL A   1      31.960  29.443  23.380  1.00  0.00    -0.345 N 
ATOM     23  C   UNL A   1      33.317  28.969  23.150  1.00  0.00     0.260 C 
ATOM     24  H   UNL A   1      31.326  28.922  22.775  1.00  0.00     0.346 HD
ATOM     25  H   UNL A   1      31.948  30.441  23.175  1.00  0.00     0.346 HD
ENDBRANCH  10  17
ENDBRANCH   8   9
ENDBRANCH   6   8
ENDBRANCH   5   6
ENDBRANCH   4   5
ENDBRANCH   3   4
ENDBRANCH   2   3
ENDBRANCH   1   2
BRANCH   1  26
ATOM     26  C   UNL A   1      40.817  20.363  26.658  1.00  0.00     0.188 C 
BRANCH  26  27
ATOM     27  O   UNL A   1      41.687  20.106  25.566  1.00  0.00    -0.376 OA
BRANCH  27  28
ATOM     28  C   UNL A   1      43.091  20.140  25.845  1.00  0.00     0.202 C 
BRANCH  28  29
ATOM     29  C   UNL A   1      43.913  21.349  25.340  1.00  0.00     0.261 C 
BRANCH  29  30
ATOM     30  O   UNL A   1      43.175  22.557  25.043  1.00  0.00    -0.460 OA
BRANCH  30  31
ATOM     31  C   UNL A   1      43.848  23.731  25.030  1.00  0.00     0.338 C 
ATOM     32  O   UNL A   1      44.710  24.056  24.232  1.00  0.00    -0.246 OA
BRANCH  31  33
ATOM     33  C   UNL A   1      43.171  24.683  25.960  1.00  0.00     0.060 A 
ATOM     34  C   UNL A   1      43.716  25.969  26.095  1.00  0.00     0.016 A 
ATOM     35  C   UNL A   1      41.986  24.366  26.633  1.00  0.00     0.016 A 
ATOM     36  C   UNL A   1      43.116  26.914  26.934  1.00  0.00     0.010 A 
ATOM     37  C   UNL A   1      41.392  25.309  27.486  1.00  0.00     0.010 A 
ATOM     38  C   UNL A   1      41.975  26.577  27.673  1.00  0.00    -0.014 A 
BRANCH  38  39
ATOM     39  C   UNL A   1      41.538  27.453  28.793  1.00  0.00     0.031 A 
ATOM     40  C   UNL A   1      42.303  27.382  30.090  1.00  0.00     0.074 A 
ATOM     41  C   UNL A   1      40.521  28.328  28.674  1.00  0.00     0.049 A 
ATOM     42  N   UNL A   1      42.102  28.019  31.217  1.00  0.00    -0.248 NA
ATOM     43  C   UNL A   1      43.454  26.465  30.115  1.00  0.00     0.031 C 
ATOM     44  C   UNL A   1      39.721  28.544  27.472  1.00  0.00     0.029 A 
ATOM     45  N   UNL A   1      39.986  29.199  29.595  1.00  0.00    -0.354 N 
ATOM     46  C   UNL A   1      43.092  27.573  32.083  1.00  0.00     0.074 A 
ATOM     47  C   UNL A   1      43.873  26.589  31.364  1.00  0.00     0.031 C 
ATOM     48  C   UNL A   1      38.789  29.480  27.731  1.00  0.00     0.029 A 
ATOM     49  C   UNL A   1      38.905  29.906  29.127  1.00  0.00     0.049 A 
ATOM     50  H   UNL A   1      40.344  29.307  30.506  1.00  0.00     0.167 HD
ATOM     51  C   UNL A   1      43.341  27.951  33.359  1.00  0.00     0.037 A 
ATOM     52  C   UNL A   1      38.089  30.778  29.756  1.00  0.00     0.037 A 
ATOM     53  C   UNL A   1      42.573  28.929  34.083  1.00  0.00     0.049 A 
ATOM     54  C   UNL A   1      38.336  31.126  31.204  1.00  0.00     0.074 A 
ATOM     55  C   UNL A   1      42.763  29.388  35.375  1.00  0.00     0.029 A 
ATOM     56  N   UNL A   1      41.464  29.593  33.582  1.00  0.00    -0.354 N 
ATOM     57  N   UNL A   1      39.288  30.715  32.006  1.00  0.00    -0.248 NA
ATOM     58  C   UNL A   1      37.392  32.065  31.834  1.00  0.00     0.031 C 
ATOM     59  C   UNL A   1      41.733  30.284  35.678  1.00  0.00     0.029 A 
ATOM     60  C   UNL A   1      40.942  30.435  34.551  1.00  0.00     0.049 A 
ATOM     61  H   UNL A   1      41.101  29.481  32.675  1.00  0.00     0.167 HD
ATOM     62  C   UNL A   1      39.079  31.370  33.216  1.00  0.00     0.074 A 
ATOM     63  C   UNL A   1      37.917  32.213  33.041  1.00  0.00     0.031 C 
ATOM     64  C   UNL A   1      39.790  31.281  34.368  1.00  0.00     0.037 A 
BRANCH  51  65
ATOM     65  C   UNL A   1      44.478  27.275  34.070  1.00  0.00     0.057 A 
ATOM     66  C   UNL A   1      44.322  26.044  34.723  1.00  0.00     0.134 A 
ATOM     67  C   UNL A   1      45.754  27.851  34.077  1.00  0.00     0.134 A 
ATOM     68  F   UNL A   1      43.121  25.446  34.767  1.00  0.00    -0.206 F 
ATOM     69  C   UNL A   1      45.388  25.425  35.377  1.00  0.00     0.040 A 
ATOM     70  C   UNL A   1      46.835  27.227  34.702  1.00  0.00     0.040 A 
ATOM     71  F   UNL A   1      45.974  29.026  33.467  1.00  0.00    -0.206 F 
ATOM     72  C   UNL A   1      46.650  26.014  35.361  1.00  0.00     0.006 A 
ENDBRANCH  51  65
BRANCH  52  73
ATOM     73  C   UNL A   1      36.936  31.380  29.033  1.00  0.00     0.057 A 
ATOM     74  C   UNL A   1      36.946  32.719  28.627  1.00  0.00     0.134 A 
ATOM     75  C   UNL A   1      35.776  30.639  28.774  1.00  0.00     0.134 A 
ATOM     76  F   UNL A   1      38.014  33.492  28.876  1.00  0.00    -0.206 F 
ATOM     77  C   UNL A   1      35.840  33.305  28.007  1.00  0.00     0.040 A 
ATOM     78  C   UNL A   1      34.674  31.204  28.128  1.00  0.00     0.040 A 
ATOM     79  F   UNL A   1      35.697  29.353  29.144  1.00  0.00    -0.206 F 
ATOM     80  C   UNL A   1      34.702  32.545  27.751  1.00  0.00     0.006 A 
ENDBRANCH  52  73
BRANCH  64  81
ATOM     81  C   UNL A   1      39.368  32.152  35.520  1.00  0.00     0.057 A 
ATOM     82  C   UNL A   1      38.483  31.705  36.509  1.00  0.00     0.134 A 
ATOM     83  C   UNL A   1      39.893  33.444  35.663  1.00  0.00     0.134 A 
ATOM     84  F   UNL A   1      37.935  30.482  36.430  1.00  0.00    -0.206 F 
ATOM     85  C   UNL A   1      38.113  32.520  37.582  1.00  0.00     0.040 A 
ATOM     86  C   UNL A   1      39.555  34.257  36.747  1.00  0.00     0.040 A 
ATOM     87  F   UNL A   1      40.757  33.933  34.760  1.00  0.00    -0.206 F 
ATOM     88  C   UNL A   1      38.657  33.797  37.707  1.00  0.00     0.006 A 
ENDBRANCH  64  81
ENDBRANCH  38  39
ENDBRANCH  31  33
ENDBRANCH  30  31
ENDBRANCH  29  30
ENDBRANCH  28  29
ENDBRANCH  27  28
ENDBRANCH  26  27
ENDBRANCH   1  26
TORSDOF 19
ENDMDL
MODEL 2
REMARK VINA RESULT:     -10.8      0.784      1.600
REMARK SMILES C[C@]1(C(=O)N2CCC(CC(=O)OCCOCCOCCOC(=O)c3ccc(-c4c5nc(c(-c6c(F)cccc6F)c6ccc([nH]6)c(-c6c(F)cccc6F)c6nc(c(-c7c(F)cccc7F)c7ccc4[nH]7)C=C6)C=C5)cc3)CC2)CCC[NH2+]C1
REMARK SMILES IDX 16 1 15 2 14 3 13 4 12 5 10 6 11 7 9 8 8 9 3 10 4 11 5 12
REMARK SMILES IDX 6 13 79 14 7 15 78 16 2 17 1 18 80 19 84 20 81 21 83 22
REMARK SMILES IDX 82 23 17 26 18 27 19 28 20 29 21 30 22 31 23 32 24 33 25 34
REMARK SMILES IDX 77 35 26 36 76 37 27 38 28 39 29 40 70 41 30 42 75 43 69 44
REMARK SMILES IDX 71 45 31 46 74 47 68 48 67 49 32 51 58 52 41 53 57 54 42 55
REMARK SMILES IDX 45 56 56 57 72 58 43 59 44 60 55 62 73 63 46 64 33 65 34 66
REMARK SMILES IDX 39 67 35 68 36 69 38 70 40 71 37 72 59 73 60 74 65 75 61 76
REMARK SMILES IDX 62 77 64 78 66 79 63 80 47 81 48 82 53 83 49 84 50 85 52 86
REMARK SMILES IDX 54 87 51 88
REMARK H PARENT 83 24 83 25 71 50 45 61
REMARK Flexibility Score: inf
ROOT
ATOM      1  C   UNL A   1      40.292  21.195  26.436  1.00  0.00     0.188 C 
ENDROOT
BRANCH   1   2
ATOM      2  O   UNL A   1      39.234  21.539  25.547  1.00  0.00    -0.376 OA
BRANCH   2   3
ATOM      3  C   UNL A   1      38.255  22.450  26.046  1.00  0.00     0.202 C 
BRANCH   3   4
ATOM      4  C   UNL A   1      36.830  22.273  25.503  1.00  0.00     0.261 C 
BRANCH   4   5
ATOM      5  O   UNL A   1      35.952  23.375  25.814  1.00  0.00    -0.463 OA
BRANCH   5   6
ATOM      6  C   UNL A   1      34.632  23.085  25.927  1.00  0.00     0.306 C 
ATOM      7  O   UNL A   1      33.882  23.574  26.766  1.00  0.00    -0.252 OA
BRANCH   6   8
ATOM      8  C   UNL A   1      34.103  22.135  24.866  1.00  0.00     0.126 C 
BRANCH   8   9
ATOM      9  C   UNL A   1      33.136  22.619  23.767  1.00  0.00     0.003 C 
ATOM     10  C   UNL A   1      31.254  26.217  22.675  1.00  0.00     0.234 C 
ATOM     11  O   UNL A   1      31.139  26.762  21.577  1.00  0.00    -0.274 OA
ATOM     12  N   UNL A   1      31.722  24.915  22.753  1.00  0.00    -0.342 N 
ATOM     13  C   UNL A   1      32.908  24.521  22.015  1.00  0.00     0.120 C 
ATOM     14  C   UNL A   1      30.958  23.807  23.285  1.00  0.00     0.120 C 
ATOM     15  C   UNL A   1      33.840  23.752  22.958  1.00  0.00     0.026 C 
ATOM     16  C   UNL A   1      31.788  23.097  24.341  1.00  0.00     0.026 C 
BRANCH  10  17
ATOM     17  C   UNL A   1      31.074  26.979  24.029  1.00  0.00     0.095 C 
ATOM     18  C   UNL A   1      29.858  26.459  24.816  1.00  0.00     0.028 C 
ATOM     19  C   UNL A   1      32.344  26.811  24.899  1.00  0.00     0.028 C 
ATOM     20  C   UNL A   1      30.839  28.494  23.779  1.00  0.00     0.277 C 
ATOM     21  C   UNL A   1      33.527  27.594  24.332  1.00  0.00     0.063 C 
ATOM     22  N   UNL A   1      32.011  29.244  23.318  1.00  0.00    -0.345 N 
ATOM     23  C   UNL A   1      33.173  29.069  24.178  1.00  0.00     0.260 C 
ATOM     24  H   UNL A   1      32.251  28.928  22.378  1.00  0.00     0.346 HD
ATOM     25  H   UNL A   1      31.766  30.234  23.335  1.00  0.00     0.346 HD
ENDBRANCH  10  17
ENDBRANCH   8   9
ENDBRANCH   6   8
ENDBRANCH   5   6
ENDBRANCH   4   5
ENDBRANCH   3   4
ENDBRANCH   2   3
ENDBRANCH   1   2
BRANCH   1  26
ATOM     26  C   UNL A   1      40.897  19.805  26.248  1.00  0.00     0.188 C 
BRANCH  26  27
ATOM     27  O   UNL A   1      42.001  19.712  25.360  1.00  0.00    -0.376 OA
BRANCH  27  28
ATOM     28  C   UNL A   1      43.263  20.166  25.860  1.00  0.00     0.202 C 
BRANCH  28  29
ATOM     29  C   UNL A   1      43.970  21.328  25.124  1.00  0.00     0.261 C 
BRANCH  29  30
ATOM     30  O   UNL A   1      43.231  22.565  25.000  1.00  0.00    -0.460 OA
BRANCH  30  31
ATOM     31  C   UNL A   1      43.920  23.729  25.039  1.00  0.00     0.338 C 
ATOM     32  O   UNL A   1      44.799  24.070  24.266  1.00  0.00    -0.246 OA
BRANCH  31  33
ATOM     33  C   UNL A   1      43.242  24.658  25.992  1.00  0.00     0.060 A 
ATOM     34  C   UNL A   1      43.680  25.990  26.035  1.00  0.00     0.016 A 
ATOM     35  C   UNL A   1      42.150  24.269  26.776  1.00  0.00     0.016 A 
ATOM     36  C   UNL A   1      43.071  26.915  26.889  1.00  0.00     0.010 A 
ATOM     37  C   UNL A   1      41.549  25.193  27.644  1.00  0.00     0.010 A 
ATOM     38  C   UNL A   1      42.030  26.512  27.736  1.00  0.00    -0.014 A 
BRANCH  38  39
ATOM     39  C   UNL A   1      41.612  27.394  28.860  1.00  0.00     0.031 A 
ATOM     40  C   UNL A   1      42.396  27.325  30.146  1.00  0.00     0.074 A 
ATOM     41  C   UNL A   1      40.596  28.271  28.753  1.00  0.00     0.049 A 
ATOM     42  N   UNL A   1      42.214  27.966  31.273  1.00  0.00    -0.248 NA
ATOM     43  C   UNL A   1      43.544  26.403  30.157  1.00  0.00     0.031 C 
ATOM     44  C   UNL A   1      39.780  28.486  27.562  1.00  0.00     0.029 A 
ATOM     45  N   UNL A   1      40.078  29.147  29.678  1.00  0.00    -0.354 N 
ATOM     46  C   UNL A   1      43.216  27.519  32.126  1.00  0.00     0.074 A 
ATOM     47  C   UNL A   1      43.982  26.531  31.399  1.00  0.00     0.031 C 
ATOM     48  C   UNL A   1      38.854  29.425  27.831  1.00  0.00     0.029 A 
ATOM     49  C   UNL A   1      38.992  29.856  29.224  1.00  0.00     0.049 A 
ATOM     50  H   UNL A   1      40.450  29.257  30.583  1.00  0.00     0.167 HD
ATOM     51  C   UNL A   1      43.484  27.901  33.397  1.00  0.00     0.037 A 
ATOM     52  C   UNL A   1      38.189  30.732  29.861  1.00  0.00     0.037 A 
ATOM     53  C   UNL A   1      42.730  28.884  34.128  1.00  0.00     0.049 A 
ATOM     54  C   UNL A   1      38.458  31.085  31.305  1.00  0.00     0.074 A 
ATOM     55  C   UNL A   1      42.941  29.347  35.416  1.00  0.00     0.029 A 
ATOM     56  N   UNL A   1      41.616  29.550  33.642  1.00  0.00    -0.354 N 
ATOM     57  N   UNL A   1      39.421  30.674  32.094  1.00  0.00    -0.248 NA
ATOM     58  C   UNL A   1      37.527  32.029  31.945  1.00  0.00     0.031 C 
ATOM     59  C   UNL A   1      41.918  30.248  35.731  1.00  0.00     0.029 A 
ATOM     60  C   UNL A   1      41.111  30.397  34.616  1.00  0.00     0.049 A 
ATOM     61  H   UNL A   1      41.239  29.436  32.740  1.00  0.00     0.167 HD
ATOM     62  C   UNL A   1      39.232  31.334  33.305  1.00  0.00     0.074 A 
ATOM     63  C   UNL A   1      38.070  32.179  33.144  1.00  0.00     0.031 C 
ATOM     64  C   UNL A   1      39.959  31.246  34.447  1.00  0.00     0.037 A 
BRANCH  51  65
ATOM     65  C   UNL A   1      44.629  27.224  34.093  1.00  0.00     0.057 A 
ATOM     66  C   UNL A   1      44.466  26.026  34.803  1.00  0.00     0.134 A 
ATOM     67  C   UNL A   1      45.919  27.764  34.028  1.00  0.00     0.134 A 
ATOM     68  F   UNL A   1      43.253  25.463  34.917  1.00  0.00    -0.206 F 
ATOM     69  C   UNL A   1      45.540  25.406  35.443  1.00  0.00     0.040 A 
ATOM     70  C   UNL A   1      47.006  27.137  34.639  1.00  0.00     0.040 A 
ATOM     71  F   UNL A   1      46.146  28.906  33.362  1.00  0.00    -0.206 F 
ATOM     72  C   UNL A   1      46.816  25.958  35.355  1.00  0.00     0.006 A 
ENDBRANCH  51  65
BRANCH  52  73
ATOM     73  C   UNL A   1      37.027  31.336  29.154  1.00  0.00     0.057 A 
ATOM     74  C   UNL A   1      35.857  30.605  28.914  1.00  0.00     0.134 A 
ATOM     75  C   UNL A   1      37.078  32.645  28.659  1.00  0.00     0.134 A 
ATOM     76  F   UNL A   1      35.757  29.334  29.333  1.00  0.00    -0.206 F 
ATOM     77  C   UNL A   1      34.790  31.146  28.194  1.00  0.00     0.040 A 
ATOM     78  C   UNL A   1      36.008  33.209  27.963  1.00  0.00     0.040 A 
ATOM     79  F   UNL A   1      38.173  33.396  28.846  1.00  0.00    -0.206 F 
ATOM     80  C   UNL A   1      34.862  32.454  27.721  1.00  0.00     0.006 A 
ENDBRANCH  52  73
BRANCH  64  81
ATOM     81  C   UNL A   1      39.556  32.122  35.601  1.00  0.00     0.057 A 
ATOM     82  C   UNL A   1      40.053  33.421  35.764  1.00  0.00     0.134 A 
ATOM     83  C   UNL A   1      38.621  31.670  36.542  1.00  0.00     0.134 A 
ATOM     84  F   UNL A   1      40.958  33.915  34.904  1.00  0.00    -0.206 F 
ATOM     85  C   UNL A   1      39.656  34.228  36.833  1.00  0.00     0.040 A 
ATOM     86  C   UNL A   1      38.193  32.477  37.598  1.00  0.00     0.040 A 
ATOM     87  F   UNL A   1      38.093  30.440  36.442  1.00  0.00    -0.206 F 
ATOM     88  C   UNL A   1      38.717  33.759  37.749  1.00  0.00     0.006 A 
ENDBRANCH  64  81
ENDBRANCH  38  39
ENDBRANCH  31  33
ENDBRANCH  30  31
ENDBRANCH  29  30
ENDBRANCH  28  29
ENDBRANCH  27  28
ENDBRANCH  26  27
ENDBRANCH   1  26
TORSDOF 19
ENDMDL
MODEL 3
REMARK VINA RESULT:     -10.8      1.221      2.032
REMARK SMILES C[C@]1(C(=O)N2CCC(CC(=O)OCCOCCOCCOC(=O)c3ccc(-c4c5nc(c(-c6c(F)cccc6F)c6ccc([nH]6)c(-c6c(F)cccc6F)c6nc(c(-c7c(F)cccc7F)c7ccc4[nH]7)C=C6)C=C5)cc3)CC2)CCC[NH2+]C1
REMARK SMILES IDX 16 1 15 2 14 3 13 4 12 5 10 6 11 7 9 8 8 9 3 10 4 11 5 12
REMARK SMILES IDX 6 13 79 14 7 15 78 16 2 17 1 18 80 19 84 20 81 21 83 22
REMARK SMILES IDX 82 23 17 26 18 27 19 28 20 29 21 30 22 31 23 32 24 33 25 34
REMARK SMILES IDX 77 35 26 36 76 37 27 38 28 39 29 40 70 41 30 42 75 43 69 44
REMARK SMILES IDX 71 45 31 46 74 47 68 48 67 49 32 51 58 52 41 53 57 54 42 55
REMARK SMILES IDX 45 56 56 57 72 58 43 59 44 60 55 62 73 63 46 64 33 65 34 66
REMARK SMILES IDX 39 67 35 68 36 69 38 70 40 71 37 72 59 73 60 74 65 75 61 76
REMARK SMILES IDX 62 77 64 78 66 79 63 80 47 81 48 82 53 83 49 84 50 85 52 86
REMARK SMILES IDX 54 87 51 88
REMARK H PARENT 83 24 83 25 71 50 45 61
REMARK Flexibility Score: inf
ROOT
ATOM      1  C   UNL A   1      43.432  19.257  25.649  1.00  0.00     0.188 C 
ENDROOT
BRANCH   1   2
ATOM      2  O   UNL A   1      42.034  19.413  25.427  1.00  0.00    -0.376 OA
BRANCH   2   3
ATOM      3  C   UNL A   1      41.238  19.714  26.572  1.00  0.00     0.202 C 
BRANCH   3   4
ATOM      4  C   UNL A   1      40.407  21.003  26.496  1.00  0.00     0.261 C 
BRANCH   4   5
ATOM      5  O   UNL A   1      39.190  20.861  25.734  1.00  0.00    -0.463 OA
BRANCH   5   6
ATOM      6  C   UNL A   1      38.352  21.927  25.726  1.00  0.00     0.306 C 
ATOM      7  O   UNL A   1      38.596  23.008  26.253  1.00  0.00    -0.252 OA
BRANCH   6   8
ATOM      8  C   UNL A   1      37.072  21.716  24.934  1.00  0.00     0.126 C 
BRANCH   8   9
ATOM      9  C   UNL A   1      35.689  21.807  25.608  1.00  0.00     0.003 C 
ATOM     10  C   UNL A   1      32.261  24.224  25.308  1.00  0.00     0.234 C 
ATOM     11  O   UNL A   1      31.068  23.922  25.248  1.00  0.00    -0.274 OA
ATOM     12  N   UNL A   1      33.200  23.259  25.634  1.00  0.00    -0.342 N 
ATOM     13  C   UNL A   1      33.175  21.965  24.977  1.00  0.00     0.120 C 
ATOM     14  C   UNL A   1      34.049  23.314  26.804  1.00  0.00     0.120 C 
ATOM     15  C   UNL A   1      34.595  21.624  24.511  1.00  0.00     0.026 C 
ATOM     16  C   UNL A   1      35.495  23.130  26.374  1.00  0.00     0.026 C 
BRANCH  10  17
ATOM     17  C   UNL A   1      32.813  25.614  24.852  1.00  0.00     0.095 C 
ATOM     18  C   UNL A   1      33.255  26.470  26.052  1.00  0.00     0.028 C 
ATOM     19  C   UNL A   1      34.022  25.413  23.906  1.00  0.00     0.028 C 
ATOM     20  C   UNL A   1      31.719  26.419  24.098  1.00  0.00     0.277 C 
ATOM     21  C   UNL A   1      33.593  24.863  22.547  1.00  0.00     0.063 C 
ATOM     22  N   UNL A   1      31.384  25.923  22.760  1.00  0.00    -0.345 N 
ATOM     23  C   UNL A   1      32.550  25.770  21.902  1.00  0.00     0.260 C 
ATOM     24  H   UNL A   1      30.927  25.017  22.854  1.00  0.00     0.346 HD
ATOM     25  H   UNL A   1      30.774  26.614  22.323  1.00  0.00     0.346 HD
ENDBRANCH  10  17
ENDBRANCH   8   9
ENDBRANCH   6   8
ENDBRANCH   5   6
ENDBRANCH   4   5
ENDBRANCH   3   4
ENDBRANCH   2   3
ENDBRANCH   1   2
BRANCH   1  26
ATOM     26  C   UNL A   1      44.286  19.037  24.401  1.00  0.00     0.188 C 
BRANCH  26  27
ATOM     27  O   UNL A   1      45.385  19.919  24.226  1.00  0.00    -0.376 OA
BRANCH  27  28
ATOM     28  C   UNL A   1      45.682  20.794  25.320  1.00  0.00     0.202 C 
BRANCH  28  29
ATOM     29  C   UNL A   1      45.903  22.295  25.021  1.00  0.00     0.261 C 
BRANCH  29  30
ATOM     30  O   UNL A   1      45.070  23.231  25.744  1.00  0.00    -0.460 OA
BRANCH  30  31
ATOM     31  C   UNL A   1      43.869  23.560  25.216  1.00  0.00     0.338 C 
ATOM     32  O   UNL A   1      43.318  23.004  24.282  1.00  0.00    -0.246 OA
BRANCH  31  33
ATOM     33  C   UNL A   1      43.187  24.521  26.134  1.00  0.00     0.060 A 
ATOM     34  C   UNL A   1      43.716  25.816  26.241  1.00  0.00     0.016 A 
ATOM     35  C   UNL A   1      42.011  24.201  26.821  1.00  0.00     0.016 A 
ATOM     36  C   UNL A   1      43.111  26.769  27.066  1.00  0.00     0.010 A 
ATOM     37  C   UNL A   1      41.412  25.153  27.661  1.00  0.00     0.010 A 
ATOM     38  C   UNL A   1      41.979  26.431  27.819  1.00  0.00    -0.014 A 
BRANCH  38  39
ATOM     39  C   UNL A   1      41.539  27.322  28.927  1.00  0.00     0.031 A 
ATOM     40  C   UNL A   1      42.285  27.251  30.235  1.00  0.00     0.074 A 
ATOM     41  C   UNL A   1      40.536  28.210  28.786  1.00  0.00     0.049 A 
ATOM     42  N   UNL A   1      42.078  27.900  31.353  1.00  0.00    -0.248 NA
ATOM     43  C   UNL A   1      43.422  26.318  30.283  1.00  0.00     0.031 C 
ATOM     44  C   UNL A   1      39.756  28.428  27.571  1.00  0.00     0.029 A 
ATOM     45  N   UNL A   1      40.000  29.096  29.693  1.00  0.00    -0.354 N 
ATOM     46  C   UNL A   1      43.049  27.447  32.237  1.00  0.00     0.074 A 
ATOM     47  C   UNL A   1      43.826  26.447  31.537  1.00  0.00     0.031 C 
ATOM     48  C   UNL A   1      38.833  29.378  27.810  1.00  0.00     0.029 A 
ATOM     49  C   UNL A   1      38.936  29.814  29.204  1.00  0.00     0.049 A 
ATOM     50  H   UNL A   1      40.348  29.207  30.607  1.00  0.00     0.167 HD
ATOM     51  C   UNL A   1      43.286  27.832  33.513  1.00  0.00     0.037 A 
ATOM     52  C   UNL A   1      38.124  30.702  29.814  1.00  0.00     0.037 A 
ATOM     53  C   UNL A   1      42.522  28.827  34.218  1.00  0.00     0.049 A 
ATOM     54  C   UNL A   1      38.356  31.059  31.263  1.00  0.00     0.074 A 
ATOM     55  C   UNL A   1      42.700  29.294  35.509  1.00  0.00     0.029 A 
ATOM     56  N   UNL A   1      41.429  29.502  33.697  1.00  0.00    -0.354 N 
ATOM     57  N   UNL A   1      39.291  30.641  32.081  1.00  0.00    -0.248 NA
ATOM     58  C   UNL A   1      37.416  32.016  31.872  1.00  0.00     0.031 C 
ATOM     59  C   UNL A   1      41.679  30.207  35.790  1.00  0.00     0.029 A 
ATOM     60  C   UNL A   1      40.905  30.359  34.652  1.00  0.00     0.049 A 
ATOM     61  H   UNL A   1      41.077  29.388  32.785  1.00  0.00     0.167 HD
ATOM     62  C   UNL A   1      39.074  31.309  33.284  1.00  0.00     0.074 A 
ATOM     63  C   UNL A   1      37.927  32.167  33.085  1.00  0.00     0.031 C 
ATOM     64  C   UNL A   1      39.768  31.220  34.446  1.00  0.00     0.037 A 
BRANCH  51  65
ATOM     65  C   UNL A   1      44.403  27.147  34.245  1.00  0.00     0.057 A 
ATOM     66  C   UNL A   1      44.210  25.945  34.941  1.00  0.00     0.134 A 
ATOM     67  C   UNL A   1      45.696  27.682  34.228  1.00  0.00     0.134 A 
ATOM     68  F   UNL A   1      42.992  25.387  35.010  1.00  0.00    -0.206 F 
ATOM     69  C   UNL A   1      45.259  25.317  35.615  1.00  0.00     0.040 A 
ATOM     70  C   UNL A   1      46.759  27.047  34.873  1.00  0.00     0.040 A 
ATOM     71  F   UNL A   1      45.951  28.827  33.577  1.00  0.00    -0.206 F 
ATOM     72  C   UNL A   1      46.539  25.865  35.575  1.00  0.00     0.006 A 
ENDBRANCH  51  65
BRANCH  52  73
ATOM     73  C   UNL A   1      36.989  31.314  29.071  1.00  0.00     0.057 A 
ATOM     74  C   UNL A   1      37.017  32.654  28.667  1.00  0.00     0.134 A 
ATOM     75  C   UNL A   1      35.828  30.583  28.788  1.00  0.00     0.134 A 
ATOM     76  F   UNL A   1      38.086  33.418  28.938  1.00  0.00    -0.206 F 
ATOM     77  C   UNL A   1      35.928  33.249  28.027  1.00  0.00     0.040 A 
ATOM     78  C   UNL A   1      34.743  31.156  28.123  1.00  0.00     0.040 A 
ATOM     79  F   UNL A   1      35.732  29.297  29.155  1.00  0.00    -0.206 F 
ATOM     80  C   UNL A   1      34.789  32.498  27.748  1.00  0.00     0.006 A 
ENDBRANCH  52  73
BRANCH  64  81
ATOM     81  C   UNL A   1      39.342  32.105  35.584  1.00  0.00     0.057 A 
ATOM     82  C   UNL A   1      38.449  31.675  36.573  1.00  0.00     0.134 A 
ATOM     83  C   UNL A   1      39.872  33.397  35.716  1.00  0.00     0.134 A 
ATOM     84  F   UNL A   1      37.897  30.453  36.505  1.00  0.00    -0.206 F 
ATOM     85  C   UNL A   1      38.076  32.503  37.634  1.00  0.00     0.040 A 
ATOM     86  C   UNL A   1      39.530  34.224  36.787  1.00  0.00     0.040 A 
ATOM     87  F   UNL A   1      40.743  33.872  34.813  1.00  0.00    -0.206 F 
ATOM     88  C   UNL A   1      38.624  33.780  37.747  1.00  0.00     0.006 A 
ENDBRANCH  64  81
ENDBRANCH  38  39
ENDBRANCH  31  33
ENDBRANCH  30  31
ENDBRANCH  29  30
ENDBRANCH  28  29
ENDBRANCH  27  28
ENDBRANCH  26  27
ENDBRANCH   1  26
TORSDOF 19
ENDMDL
