MODEL 1
REMARK VINA RESULT:      -8.9      0.000      0.000
REMARK SMILES C=CC[N@H+](CC(=O)OCCOCCOCCOC(=O)c1ccc(-c2c3nc(c(-c4c(F)cccc4F)c4ccc([nH]4)c(-c4c(F)cccc4F)c4nc(c(-c5c(F)cccc5F)c5ccc2[nH]5)C=C4)C=C3)cc1)Cc1ccnc(C#N)c1
REMARK SMILES IDX 12 1 11 2 10 3 9 4 8 5 6 6 7 7 5 8 4 9 3 11 2 12 1 13 74 14
REMARK SMILES IDX 75 15 76 16 82 17 77 18 79 19 78 20 80 21 81 22 13 23 14 24
REMARK SMILES IDX 15 25 16 26 17 27 18 28 19 29 20 30 21 31 73 32 22 33 72 34
REMARK SMILES IDX 23 35 24 36 25 37 66 38 26 39 71 40 65 41 67 42 27 43 70 44
REMARK SMILES IDX 64 45 63 46 28 48 54 49 37 50 53 51 38 52 41 53 52 54 68 55
REMARK SMILES IDX 39 56 40 57 51 59 69 60 42 61 29 62 30 63 35 64 31 65 32 66
REMARK SMILES IDX 34 67 36 68 33 69 55 70 56 71 61 72 57 73 58 74 60 75 62 76
REMARK SMILES IDX 59 77 43 78 44 79 49 80 45 81 46 82 48 83 50 84 47 85
REMARK H PARENT 4 10 67 47 41 58
REMARK Flexibility Score: inf
ROOT
ATOM      1  C   UNL A   1      39.443  21.168  26.133  1.00  0.00     0.188 C 
ENDROOT
BRANCH   1   2
ATOM      2  O   UNL A   1      38.885  19.968  25.633  1.00  0.00    -0.376 OA
BRANCH   2   3
ATOM      3  C   UNL A   1      37.891  20.086  24.628  1.00  0.00     0.202 C 
BRANCH   3   4
ATOM      4  C   UNL A   1      37.063  21.376  24.628  1.00  0.00     0.261 C 
BRANCH   4   5
ATOM      5  O   UNL A   1      35.670  21.196  24.963  1.00  0.00    -0.459 OA
BRANCH   5   6
ATOM      6  C   UNL A   1      35.134  22.175  25.745  1.00  0.00     0.361 C 
ATOM      7  O   UNL A   1      34.629  21.974  26.849  1.00  0.00    -0.245 OA
BRANCH   6   8
ATOM      8  C   UNL A   1      35.275  23.601  25.219  1.00  0.00     0.387 C 
BRANCH   8   9
ATOM      9  N   UNL A   1      34.048  24.324  24.847  1.00  0.00    -0.319 N 
ATOM     10  H   UNL A   1      33.456  24.372  25.676  1.00  0.00     0.349 HD
BRANCH   9  11
ATOM     11  C   UNL A   1      34.209  25.762  24.637  1.00  0.00     0.291 C 
BRANCH  11  12
ATOM     12  C   UNL A   1      33.756  26.683  25.743  1.00  0.00     0.025 C 
ATOM     13  C   UNL A   1      32.728  27.544  25.679  1.00  0.00     0.010 C 
ENDBRANCH  11  12
ENDBRANCH   9  11
BRANCH   9  14
ATOM     14  C   UNL A   1      33.211  23.556  23.914  1.00  0.00     0.299 C 
BRANCH  14  15
ATOM     15  C   UNL A   1      31.804  23.738  24.429  1.00  0.00     0.011 A 
ATOM     16  C   UNL A   1      31.599  23.516  25.785  1.00  0.00     0.030 A 
ATOM     17  C   UNL A   1      30.935  24.560  23.696  1.00  0.00     0.049 A 
ATOM     18  C   UNL A   1      30.669  24.306  26.383  1.00  0.00     0.113 A 
ATOM     19  C   UNL A   1      30.111  25.394  24.404  1.00  0.00     0.140 A 
ATOM     20  N   UNL A   1      29.965  25.265  25.734  1.00  0.00    -0.246 NA
BRANCH  19  21
ATOM     21  C   UNL A   1      29.586  26.595  23.802  1.00  0.00     0.119 C 
ATOM     22  N   UNL A   1      29.236  27.606  23.351  1.00  0.00    -0.191 NA
ENDBRANCH  19  21
ENDBRANCH  14  15
ENDBRANCH   9  14
ENDBRANCH   8   9
ENDBRANCH   6   8
ENDBRANCH   5   6
ENDBRANCH   4   5
ENDBRANCH   3   4
ENDBRANCH   2   3
ENDBRANCH   1   2
BRANCH   1  23
ATOM     23  C   UNL A   1      40.946  21.470  25.974  1.00  0.00     0.188 C 
BRANCH  23  24
ATOM     24  O   UNL A   1      41.919  20.667  26.608  1.00  0.00    -0.376 OA
BRANCH  24  25
ATOM     25  C   UNL A   1      43.005  20.196  25.790  1.00  0.00     0.202 C 
BRANCH  25  26
ATOM     26  C   UNL A   1      44.191  21.108  25.331  1.00  0.00     0.261 C 
BRANCH  26  27
ATOM     27  O   UNL A   1      44.405  22.300  26.145  1.00  0.00    -0.460 OA
BRANCH  27  28
ATOM     28  C   UNL A   1      44.073  23.499  25.553  1.00  0.00     0.338 C 
ATOM     29  O   UNL A   1      44.030  23.729  24.354  1.00  0.00    -0.246 OA
BRANCH  28  30
ATOM     30  C   UNL A   1      43.572  24.473  26.585  1.00  0.00     0.060 A 
ATOM     31  C   UNL A   1      44.074  25.789  26.616  1.00  0.00     0.016 A 
ATOM     32  C   UNL A   1      42.525  24.143  27.443  1.00  0.00     0.016 A 
ATOM     33  C   UNL A   1      43.428  26.794  27.365  1.00  0.00     0.010 A 
ATOM     34  C   UNL A   1      41.942  25.128  28.266  1.00  0.00     0.010 A 
ATOM     35  C   UNL A   1      42.357  26.472  28.212  1.00  0.00    -0.014 A 
BRANCH  35  36
ATOM     36  C   UNL A   1      41.863  27.459  29.227  1.00  0.00     0.031 A 
ATOM     37  C   UNL A   1      42.542  27.458  30.573  1.00  0.00     0.074 A 
ATOM     38  C   UNL A   1      40.836  28.315  29.026  1.00  0.00     0.049 A 
ATOM     39  N   UNL A   1      42.281  28.162  31.646  1.00  0.00    -0.248 NA
ATOM     40  C   UNL A   1      43.671  26.527  30.723  1.00  0.00     0.031 C 
ATOM     41  C   UNL A   1      40.092  28.491  27.783  1.00  0.00     0.029 A 
ATOM     42  N   UNL A   1      40.234  29.202  29.899  1.00  0.00    -0.354 N 
ATOM     43  C   UNL A   1      43.219  27.767  32.590  1.00  0.00     0.074 A 
ATOM     44  C   UNL A   1      44.037  26.746  31.974  1.00  0.00     0.031 C 
ATOM     45  C   UNL A   1      39.122  29.407  27.977  1.00  0.00     0.029 A 
ATOM     46  C   UNL A   1      39.153  29.871  29.367  1.00  0.00     0.049 A 
ATOM     47  H   UNL A   1      40.550  29.344  30.820  1.00  0.00     0.167 HD
ATOM     48  C   UNL A   1      43.395  28.200  33.861  1.00  0.00     0.037 A 
ATOM     49  C   UNL A   1      38.281  30.737  29.934  1.00  0.00     0.037 A 
ATOM     50  C   UNL A   1      42.563  29.165  34.524  1.00  0.00     0.049 A 
ATOM     51  C   UNL A   1      38.425  31.120  31.394  1.00  0.00     0.074 A 
ATOM     52  C   UNL A   1      42.670  29.645  35.818  1.00  0.00     0.029 A 
ATOM     53  N   UNL A   1      41.455  29.777  33.962  1.00  0.00    -0.354 N 
ATOM     54  N   UNL A   1      39.345  30.771  32.259  1.00  0.00    -0.248 NA
ATOM     55  C   UNL A   1      37.402  32.024  31.953  1.00  0.00     0.031 C 
ATOM     56  C   UNL A   1      41.589  30.499  36.060  1.00  0.00     0.029 A 
ATOM     57  C   UNL A   1      40.851  30.606  34.893  1.00  0.00     0.049 A 
ATOM     58  H   UNL A   1      41.143  29.641  33.038  1.00  0.00     0.167 HD
ATOM     59  C   UNL A   1      39.034  31.438  33.443  1.00  0.00     0.074 A 
ATOM     60  C   UNL A   1      37.850  32.225  33.183  1.00  0.00     0.031 C 
ATOM     61  C   UNL A   1      39.677  31.401  34.638  1.00  0.00     0.037 A 
BRANCH  48  62
ATOM     62  C   UNL A   1      44.520  27.578  34.632  1.00  0.00     0.057 A 
ATOM     63  C   UNL A   1      44.344  26.403  35.376  1.00  0.00     0.134 A 
ATOM     64  C   UNL A   1      45.791  28.166  34.638  1.00  0.00     0.134 A 
ATOM     65  F   UNL A   1      43.144  25.807  35.432  1.00  0.00    -0.206 F 
ATOM     66  C   UNL A   1      45.386  25.852  36.122  1.00  0.00     0.040 A 
ATOM     67  C   UNL A   1      46.848  27.606  35.354  1.00  0.00     0.040 A 
ATOM     68  F   UNL A   1      46.024  29.292  33.948  1.00  0.00    -0.206 F 
ATOM     69  C   UNL A   1      46.644  26.450  36.106  1.00  0.00     0.006 A 
ENDBRANCH  48  62
BRANCH  49  70
ATOM     70  C   UNL A   1      37.147  31.310  29.149  1.00  0.00     0.057 A 
ATOM     71  C   UNL A   1      37.173  32.636  28.692  1.00  0.00     0.134 A 
ATOM     72  C   UNL A   1      35.975  30.580  28.918  1.00  0.00     0.134 A 
ATOM     73  F   UNL A   1      38.247  33.407  28.918  1.00  0.00    -0.206 F 
ATOM     74  C   UNL A   1      36.071  33.219  28.061  1.00  0.00     0.040 A 
ATOM     75  C   UNL A   1      34.875  31.142  28.261  1.00  0.00     0.040 A 
ATOM     76  F   UNL A   1      35.871  29.312  29.343  1.00  0.00    -0.206 F 
ATOM     77  C   UNL A   1      34.918  32.469  27.840  1.00  0.00     0.006 A 
ENDBRANCH  49  70
BRANCH  61  78
ATOM     78  C   UNL A   1      39.155  32.271  35.752  1.00  0.00     0.057 A 
ATOM     79  C   UNL A   1      38.278  31.787  36.733  1.00  0.00     0.134 A 
ATOM     80  C   UNL A   1      39.574  33.603  35.870  1.00  0.00     0.134 A 
ATOM     81  F   UNL A   1      37.831  30.524  36.682  1.00  0.00    -0.206 F 
ATOM     82  C   UNL A   1      37.815  32.603  37.768  1.00  0.00     0.040 A 
ATOM     83  C   UNL A   1      39.144  34.420  36.920  1.00  0.00     0.040 A 
ATOM     84  F   UNL A   1      40.425  34.133  34.979  1.00  0.00    -0.206 F 
ATOM     85  C   UNL A   1      38.254  33.923  37.868  1.00  0.00     0.006 A 
ENDBRANCH  61  78
ENDBRANCH  35  36
ENDBRANCH  28  30
ENDBRANCH  27  28
ENDBRANCH  26  27
ENDBRANCH  25  26
ENDBRANCH  24  25
ENDBRANCH  23  24
ENDBRANCH   1  23
TORSDOF 23
ENDMDL
MODEL 2
REMARK VINA RESULT:      -8.7      1.230      2.571
REMARK SMILES C=CC[N@H+](CC(=O)OCCOCCOCCOC(=O)c1ccc(-c2c3nc(c(-c4c(F)cccc4F)c4ccc([nH]4)c(-c4c(F)cccc4F)c4nc(c(-c5c(F)cccc5F)c5ccc2[nH]5)C=C4)C=C3)cc1)Cc1ccnc(C#N)c1
REMARK SMILES IDX 12 1 11 2 10 3 9 4 8 5 6 6 7 7 5 8 4 9 3 11 2 12 1 13 74 14
REMARK SMILES IDX 75 15 76 16 82 17 77 18 79 19 78 20 80 21 81 22 13 23 14 24
REMARK SMILES IDX 15 25 16 26 17 27 18 28 19 29 20 30 21 31 73 32 22 33 72 34
REMARK SMILES IDX 23 35 24 36 25 37 66 38 26 39 71 40 65 41 67 42 27 43 70 44
REMARK SMILES IDX 64 45 63 46 28 48 54 49 37 50 53 51 38 52 41 53 52 54 68 55
REMARK SMILES IDX 39 56 40 57 51 59 69 60 42 61 29 62 30 63 35 64 31 65 32 66
REMARK SMILES IDX 34 67 36 68 33 69 55 70 56 71 61 72 57 73 58 74 60 75 62 76
REMARK SMILES IDX 59 77 43 78 44 79 49 80 45 81 46 82 48 83 50 84 47 85
REMARK H PARENT 4 10 67 47 41 58
REMARK Flexibility Score: inf
ROOT
ATOM      1  C   UNL A   1      42.791  20.352  26.039  1.00  0.00     0.188 C 
ENDROOT
BRANCH   1   2
ATOM      2  O   UNL A   1      41.401  20.099  26.103  1.00  0.00    -0.376 OA
BRANCH   2   3
ATOM      3  C   UNL A   1      40.622  20.964  26.912  1.00  0.00     0.202 C 
BRANCH   3   4
ATOM      4  C   UNL A   1      39.921  22.127  26.200  1.00  0.00     0.261 C 
BRANCH   4   5
ATOM      5  O   UNL A   1      38.506  22.229  26.465  1.00  0.00    -0.459 OA
BRANCH   5   6
ATOM      6  C   UNL A   1      37.699  21.710  25.498  1.00  0.00     0.361 C 
ATOM      7  O   UNL A   1      38.049  20.837  24.704  1.00  0.00    -0.245 OA
BRANCH   6   8
ATOM      8  C   UNL A   1      36.254  22.203  25.498  1.00  0.00     0.387 C 
BRANCH   8   9
ATOM      9  N   UNL A   1      35.317  21.594  24.539  1.00  0.00    -0.319 N 
ATOM     10  H   UNL A   1      35.870  21.186  23.786  1.00  0.00     0.349 HD
BRANCH   9  11
ATOM     11  C   UNL A   1      34.668  20.365  24.995  1.00  0.00     0.291 C 
BRANCH  11  12
ATOM     12  C   UNL A   1      33.439  19.907  24.249  1.00  0.00     0.025 C 
ATOM     13  C   UNL A   1      32.169  20.065  24.652  1.00  0.00     0.010 C 
ENDBRANCH  11  12
ENDBRANCH   9  11
BRANCH   9  14
ATOM     14  C   UNL A   1      34.518  22.601  23.827  1.00  0.00     0.299 C 
BRANCH  14  15
ATOM     15  C   UNL A   1      34.157  23.616  24.884  1.00  0.00     0.011 A 
ATOM     16  C   UNL A   1      34.347  24.954  24.561  1.00  0.00     0.030 A 
ATOM     17  C   UNL A   1      33.233  23.239  25.871  1.00  0.00     0.049 A 
ATOM     18  C   UNL A   1      33.443  25.825  25.080  1.00  0.00     0.113 A 
ATOM     19  C   UNL A   1      32.298  24.168  26.245  1.00  0.00     0.140 A 
ATOM     20  N   UNL A   1      32.404  25.454  25.868  1.00  0.00    -0.246 NA
BRANCH  19  21
ATOM     21  C   UNL A   1      31.042  23.757  26.822  1.00  0.00     0.119 C 
ATOM     22  N   UNL A   1      30.018  23.373  27.213  1.00  0.00    -0.191 NA
ENDBRANCH  19  21
ENDBRANCH  14  15
ENDBRANCH   9  14
ENDBRANCH   8   9
ENDBRANCH   6   8
ENDBRANCH   5   6
ENDBRANCH   4   5
ENDBRANCH   3   4
ENDBRANCH   2   3
ENDBRANCH   1   2
BRANCH   1  23
ATOM     23  C   UNL A   1      43.745  19.365  25.337  1.00  0.00     0.188 C 
BRANCH  23  24
ATOM     24  O   UNL A   1      44.750  19.826  24.459  1.00  0.00    -0.376 OA
BRANCH  24  25
ATOM     25  C   UNL A   1      45.735  20.717  25.010  1.00  0.00     0.202 C 
BRANCH  25  26
ATOM     26  C   UNL A   1      45.709  22.266  24.787  1.00  0.00     0.261 C 
BRANCH  26  27
ATOM     27  O   UNL A   1      44.915  23.017  25.753  1.00  0.00    -0.460 OA
BRANCH  27  28
ATOM     28  C   UNL A   1      43.808  23.664  25.249  1.00  0.00     0.338 C 
ATOM     29  O   UNL A   1      43.212  23.386  24.220  1.00  0.00    -0.246 OA
BRANCH  28  30
ATOM     30  C   UNL A   1      43.287  24.666  26.243  1.00  0.00     0.060 A 
ATOM     31  C   UNL A   1      42.365  24.268  27.231  1.00  0.00     0.016 A 
ATOM     32  C   UNL A   1      43.790  25.965  26.291  1.00  0.00     0.016 A 
ATOM     33  C   UNL A   1      42.087  25.094  28.339  1.00  0.00     0.010 A 
ATOM     34  C   UNL A   1      43.432  26.827  27.348  1.00  0.00     0.010 A 
ATOM     35  C   UNL A   1      42.609  26.395  28.405  1.00  0.00    -0.014 A 
BRANCH  35  36
ATOM     36  C   UNL A   1      42.086  27.378  29.409  1.00  0.00     0.031 A 
ATOM     37  C   UNL A   1      42.767  27.416  30.753  1.00  0.00     0.074 A 
ATOM     38  C   UNL A   1      41.033  28.198  29.199  1.00  0.00     0.049 A 
ATOM     39  N   UNL A   1      42.486  28.125  31.818  1.00  0.00    -0.248 NA
ATOM     40  C   UNL A   1      43.926  26.523  30.912  1.00  0.00     0.031 C 
ATOM     41  C   UNL A   1      40.281  28.335  27.956  1.00  0.00     0.029 A 
ATOM     42  N   UNL A   1      40.404  29.077  30.061  1.00  0.00    -0.354 N 
ATOM     43  C   UNL A   1      43.438  27.772  32.765  1.00  0.00     0.074 A 
ATOM     44  C   UNL A   1      44.286  26.769  32.160  1.00  0.00     0.031 C 
ATOM     45  C   UNL A   1      39.283  29.223  28.140  1.00  0.00     0.029 A 
ATOM     46  C   UNL A   1      39.302  29.705  29.523  1.00  0.00     0.049 A 
ATOM     47  H   UNL A   1      40.717  29.240  30.980  1.00  0.00     0.167 HD
ATOM     48  C   UNL A   1      43.602  28.225  34.029  1.00  0.00     0.037 A 
ATOM     49  C   UNL A   1      38.404  30.549  30.082  1.00  0.00     0.037 A 
ATOM     50  C   UNL A   1      42.741  29.173  34.682  1.00  0.00     0.049 A 
ATOM     51  C   UNL A   1      38.538  30.956  31.536  1.00  0.00     0.074 A 
ATOM     52  C   UNL A   1      42.834  29.672  35.969  1.00  0.00     0.029 A 
ATOM     53  N   UNL A   1      41.613  29.741  34.115  1.00  0.00    -0.354 N 
ATOM     54  N   UNL A   1      39.470  30.646  32.404  1.00  0.00    -0.248 NA
ATOM     55  C   UNL A   1      37.488  31.834  32.086  1.00  0.00     0.031 C 
ATOM     56  C   UNL A   1      41.728  30.494  36.203  1.00  0.00     0.029 A 
ATOM     57  C   UNL A   1      40.985  30.563  35.037  1.00  0.00     0.049 A 
ATOM     58  H   UNL A   1      41.304  29.584  33.193  1.00  0.00     0.167 HD
ATOM     59  C   UNL A   1      39.140  31.319  33.580  1.00  0.00     0.074 A 
ATOM     60  C   UNL A   1      37.931  32.065  33.313  1.00  0.00     0.031 C 
ATOM     61  C   UNL A   1      39.786  31.318  34.774  1.00  0.00     0.037 A 
BRANCH  48  62
ATOM     62  C   UNL A   1      44.747  27.650  34.807  1.00  0.00     0.057 A 
ATOM     63  C   UNL A   1      44.562  26.619  35.740  1.00  0.00     0.134 A 
ATOM     64  C   UNL A   1      46.048  28.136  34.626  1.00  0.00     0.134 A 
ATOM     65  F   UNL A   1      43.337  26.129  35.977  1.00  0.00    -0.206 F 
ATOM     66  C   UNL A   1      45.627  26.115  36.486  1.00  0.00     0.040 A 
ATOM     67  C   UNL A   1      47.125  27.617  35.343  1.00  0.00     0.040 A 
ATOM     68  F   UNL A   1      46.290  29.122  33.750  1.00  0.00    -0.206 F 
ATOM     69  C   UNL A   1      46.914  26.610  36.283  1.00  0.00     0.006 A 
ENDBRANCH  48  62
BRANCH  49  70
ATOM     70  C   UNL A   1      37.251  31.076  29.292  1.00  0.00     0.057 A 
ATOM     71  C   UNL A   1      36.164  30.257  28.952  1.00  0.00     0.134 A 
ATOM     72  C   UNL A   1      37.251  32.378  28.777  1.00  0.00     0.134 A 
ATOM     73  F   UNL A   1      36.120  28.985  29.373  1.00  0.00    -0.206 F 
ATOM     74  C   UNL A   1      35.139  30.703  28.114  1.00  0.00     0.040 A 
ATOM     75  C   UNL A   1      36.217  32.848  27.961  1.00  0.00     0.040 A 
ATOM     76  F   UNL A   1      38.267  33.212  29.044  1.00  0.00    -0.206 F 
ATOM     77  C   UNL A   1      35.161  32.006  27.619  1.00  0.00     0.006 A 
ENDBRANCH  49  70
BRANCH  61  78
ATOM     78  C   UNL A   1      39.238  32.184  35.878  1.00  0.00     0.057 A 
ATOM     79  C   UNL A   1      39.659  33.507  36.073  1.00  0.00     0.134 A 
ATOM     80  C   UNL A   1      38.236  31.700  36.731  1.00  0.00     0.134 A 
ATOM     81  F   UNL A   1      40.618  34.036  35.299  1.00  0.00    -0.206 F 
ATOM     82  C   UNL A   1      39.130  34.301  37.093  1.00  0.00     0.040 A 
ATOM     83  C   UNL A   1      37.675  32.496  37.733  1.00  0.00     0.040 A 
ATOM     84  F   UNL A   1      37.769  30.450  36.594  1.00  0.00    -0.206 F 
ATOM     85  C   UNL A   1      38.129  33.798  37.923  1.00  0.00     0.006 A 
ENDBRANCH  61  78
ENDBRANCH  35  36
ENDBRANCH  28  30
ENDBRANCH  27  28
ENDBRANCH  26  27
ENDBRANCH  25  26
ENDBRANCH  24  25
ENDBRANCH  23  24
ENDBRANCH   1  23
TORSDOF 23
ENDMDL
MODEL 3
REMARK VINA RESULT:      -8.6      3.646      8.604
REMARK SMILES C=CC[N@H+](CC(=O)OCCOCCOCCOC(=O)c1ccc(-c2c3nc(c(-c4c(F)cccc4F)c4ccc([nH]4)c(-c4c(F)cccc4F)c4nc(c(-c5c(F)cccc5F)c5ccc2[nH]5)C=C4)C=C3)cc1)Cc1ccnc(C#N)c1
REMARK SMILES IDX 12 1 11 2 10 3 9 4 8 5 6 6 7 7 5 8 4 9 3 11 2 12 1 13 74 14
REMARK SMILES IDX 75 15 76 16 82 17 77 18 79 19 78 20 80 21 81 22 13 23 14 24
REMARK SMILES IDX 15 25 16 26 17 27 18 28 19 29 20 30 21 31 73 32 22 33 72 34
REMARK SMILES IDX 23 35 24 36 25 37 66 38 26 39 71 40 65 41 67 42 27 43 70 44
REMARK SMILES IDX 64 45 63 46 28 48 54 49 37 50 53 51 38 52 41 53 52 54 68 55
REMARK SMILES IDX 39 56 40 57 51 59 69 60 42 61 29 62 30 63 35 64 31 65 32 66
REMARK SMILES IDX 34 67 36 68 33 69 55 70 56 71 61 72 57 73 58 74 60 75 62 76
REMARK SMILES IDX 59 77 43 78 44 79 49 80 45 81 46 82 48 83 50 84 47 85
REMARK H PARENT 4 10 67 47 41 58
REMARK Flexibility Score: inf
ROOT
ATOM      1  C   UNL A   1      33.173  27.780  23.647  1.00  0.00     0.188 C 
ENDROOT
BRANCH   1   2
ATOM      2  O   UNL A   1      33.324  27.061  22.438  1.00  0.00    -0.376 OA
BRANCH   2   3
ATOM      3  C   UNL A   1      33.668  25.689  22.540  1.00  0.00     0.202 C 
BRANCH   3   4
ATOM      4  C   UNL A   1      32.590  24.678  22.135  1.00  0.00     0.261 C 
BRANCH   4   5
ATOM      5  O   UNL A   1      31.532  24.508  23.103  1.00  0.00    -0.459 OA
BRANCH   5   6
ATOM      6  C   UNL A   1      31.788  23.596  24.082  1.00  0.00     0.361 C 
ATOM      7  O   UNL A   1      31.859  23.873  25.279  1.00  0.00    -0.245 OA
BRANCH   6   8
ATOM      8  C   UNL A   1      31.895  22.142  23.629  1.00  0.00     0.387 C 
BRANCH   8   9
ATOM      9  N   UNL A   1      33.029  21.345  24.128  1.00  0.00    -0.319 N 
ATOM     10  H   UNL A   1      33.310  20.711  23.380  1.00  0.00     0.349 HD
BRANCH   9  11
ATOM     11  C   UNL A   1      34.292  22.070  24.257  1.00  0.00     0.291 C 
BRANCH  11  12
ATOM     12  C   UNL A   1      35.531  21.264  24.560  1.00  0.00     0.025 C 
ATOM     13  C   UNL A   1      36.271  21.347  25.676  1.00  0.00     0.010 C 
ENDBRANCH  11  12
ENDBRANCH   9  11
BRANCH   9  14
ATOM     14  C   UNL A   1      32.629  20.413  25.191  1.00  0.00     0.299 C 
BRANCH  14  15
ATOM     15  C   UNL A   1      32.424  19.096  24.483  1.00  0.00     0.011 A 
ATOM     16  C   UNL A   1      32.252  19.144  23.105  1.00  0.00     0.030 A 
ATOM     17  C   UNL A   1      32.897  17.932  25.108  1.00  0.00     0.049 A 
ATOM     18  C   UNL A   1      32.775  18.104  22.404  1.00  0.00     0.113 A 
ATOM     19  C   UNL A   1      33.500  16.992  24.314  1.00  0.00     0.140 A 
ATOM     20  N   UNL A   1      33.432  17.065  22.974  1.00  0.00    -0.246 NA
BRANCH  19  21
ATOM     21  C   UNL A   1      34.445  16.055  24.871  1.00  0.00     0.119 C 
ATOM     22  N   UNL A   1      35.272  15.357  25.291  1.00  0.00    -0.191 NA
ENDBRANCH  19  21
ENDBRANCH  14  15
ENDBRANCH   9  14
ENDBRANCH   8   9
ENDBRANCH   6   8
ENDBRANCH   5   6
ENDBRANCH   4   5
ENDBRANCH   3   4
ENDBRANCH   2   3
ENDBRANCH   1   2
BRANCH   1  23
ATOM     23  C   UNL A   1      31.825  28.432  24.018  1.00  0.00     0.188 C 
BRANCH  23  24
ATOM     24  O   UNL A   1      31.505  28.723  25.362  1.00  0.00    -0.376 OA
BRANCH  24  25
ATOM     25  C   UNL A   1      32.139  29.875  25.945  1.00  0.00     0.202 C 
BRANCH  25  26
ATOM     26  C   UNL A   1      33.484  29.802  26.741  1.00  0.00     0.261 C 
BRANCH  26  27
ATOM     27  O   UNL A   1      33.568  30.692  27.895  1.00  0.00    -0.460 OA
BRANCH  27  28
ATOM     28  C   UNL A   1      34.615  31.588  27.888  1.00  0.00     0.338 C 
ATOM     29  O   UNL A   1      34.541  32.788  27.674  1.00  0.00    -0.246 OA
BRANCH  28  30
ATOM     30  C   UNL A   1      35.876  30.927  28.375  1.00  0.00     0.060 A 
ATOM     31  C   UNL A   1      35.873  30.208  29.587  1.00  0.00     0.016 A 
ATOM     32  C   UNL A   1      37.028  30.903  27.593  1.00  0.00     0.016 A 
ATOM     33  C   UNL A   1      36.937  29.345  29.920  1.00  0.00     0.010 A 
ATOM     34  C   UNL A   1      38.133  30.116  27.978  1.00  0.00     0.010 A 
ATOM     35  C   UNL A   1      38.091  29.298  29.123  1.00  0.00    -0.014 A 
BRANCH  35  36
ATOM     36  C   UNL A   1      39.335  28.626  29.620  1.00  0.00     0.031 A 
ATOM     37  C   UNL A   1      40.011  29.232  30.823  1.00  0.00     0.074 A 
ATOM     38  C   UNL A   1      39.903  27.543  29.043  1.00  0.00     0.049 A 
ATOM     39  N   UNL A   1      41.124  28.889  31.424  1.00  0.00    -0.248 NA
ATOM     40  C   UNL A   1      39.331  30.389  31.427  1.00  0.00     0.031 C 
ATOM     41  C   UNL A   1      39.374  26.796  27.905  1.00  0.00     0.029 A 
ATOM     42  N   UNL A   1      41.083  26.889  29.346  1.00  0.00    -0.354 N 
ATOM     43  C   UNL A   1      41.268  29.780  32.480  1.00  0.00     0.074 A 
ATOM     44  C   UNL A   1      40.147  30.692  32.422  1.00  0.00     0.031 C 
ATOM     45  C   UNL A   1      40.232  25.804  27.593  1.00  0.00     0.029 A 
ATOM     46  C   UNL A   1      41.390  25.854  28.489  1.00  0.00     0.049 A 
ATOM     47  H   UNL A   1      41.653  27.141  30.107  1.00  0.00     0.167 HD
ATOM     48  C   UNL A   1      42.242  29.851  33.417  1.00  0.00     0.037 A 
ATOM     49  C   UNL A   1      42.482  25.056  28.421  1.00  0.00     0.037 A 
ATOM     50  C   UNL A   1      43.401  29.003  33.466  1.00  0.00     0.049 A 
ATOM     51  C   UNL A   1      43.617  25.228  29.410  1.00  0.00     0.074 A 
ATOM     52  C   UNL A   1      44.441  29.023  34.379  1.00  0.00     0.029 A 
ATOM     53  N   UNL A   1      43.692  28.005  32.551  1.00  0.00    -0.354 N 
ATOM     54  N   UNL A   1      43.717  26.047  30.429  1.00  0.00    -0.248 NA
ATOM     55  C   UNL A   1      44.796  24.359  29.235  1.00  0.00     0.031 C 
ATOM     56  C   UNL A   1      45.393  28.079  33.980  1.00  0.00     0.029 A 
ATOM     57  C   UNL A   1      44.911  27.422  32.861  1.00  0.00     0.049 A 
ATOM     58  H   UNL A   1      43.118  27.747  31.794  1.00  0.00     0.167 HD
ATOM     59  C   UNL A   1      44.942  25.764  31.032  1.00  0.00     0.074 A 
ATOM     60  C   UNL A   1      45.544  24.689  30.277  1.00  0.00     0.031 C 
ATOM     61  C   UNL A   1      45.512  26.344  32.118  1.00  0.00     0.037 A 
BRANCH  48  62
ATOM     62  C   UNL A   1      42.107  30.933  34.446  1.00  0.00     0.057 A 
ATOM     63  C   UNL A   1      41.439  30.717  35.660  1.00  0.00     0.134 A 
ATOM     64  C   UNL A   1      42.644  32.205  34.218  1.00  0.00     0.134 A 
ATOM     65  F   UNL A   1      40.880  29.527  35.926  1.00  0.00    -0.206 F 
ATOM     66  C   UNL A   1      41.284  31.739  36.596  1.00  0.00     0.040 A 
ATOM     67  C   UNL A   1      42.524  33.226  35.161  1.00  0.00     0.040 A 
ATOM     68  F   UNL A   1      43.293  32.476  33.076  1.00  0.00    -0.206 F 
ATOM     69  C   UNL A   1      41.834  32.996  36.350  1.00  0.00     0.006 A 
ENDBRANCH  48  62
BRANCH  49  70
ATOM     70  C   UNL A   1      42.604  24.012  27.360  1.00  0.00     0.057 A 
ATOM     71  C   UNL A   1      42.206  22.687  27.592  1.00  0.00     0.134 A 
ATOM     72  C   UNL A   1      43.206  24.289  26.127  1.00  0.00     0.134 A 
ATOM     73  F   UNL A   1      41.664  22.341  28.768  1.00  0.00    -0.206 F 
ATOM     74  C   UNL A   1      42.426  21.677  26.651  1.00  0.00     0.040 A 
ATOM     75  C   UNL A   1      43.405  23.294  25.165  1.00  0.00     0.040 A 
ATOM     76  F   UNL A   1      43.628  25.530  25.843  1.00  0.00    -0.206 F 
ATOM     77  C   UNL A   1      43.023  21.981  25.430  1.00  0.00     0.006 A 
ENDBRANCH  49  70
BRANCH  61  78
ATOM     78  C   UNL A   1      46.835  25.805  32.598  1.00  0.00     0.057 A 
ATOM     79  C   UNL A   1      46.930  24.839  33.610  1.00  0.00     0.134 A 
ATOM     80  C   UNL A   1      48.032  26.227  32.004  1.00  0.00     0.134 A 
ATOM     81  F   UNL A   1      45.826  24.392  34.228  1.00  0.00    -0.206 F 
ATOM     82  C   UNL A   1      48.164  24.340  34.032  1.00  0.00     0.040 A 
ATOM     83  C   UNL A   1      49.270  25.711  32.395  1.00  0.00     0.040 A 
ATOM     84  F   UNL A   1      48.021  27.137  31.017  1.00  0.00    -0.206 F 
ATOM     85  C   UNL A   1      49.339  24.770  33.419  1.00  0.00     0.006 A 
ENDBRANCH  61  78
ENDBRANCH  35  36
ENDBRANCH  28  30
ENDBRANCH  27  28
ENDBRANCH  26  27
ENDBRANCH  25  26
ENDBRANCH  24  25
ENDBRANCH  23  24
ENDBRANCH   1  23
TORSDOF 23
ENDMDL
