MODEL 1
REMARK VINA RESULT:     -11.4      0.000      0.000
REMARK SMILES Cc1cc(F)cc(N[C@H](C(=O)OCCOCCOCCOC(=O)c2ccc(-c3c4nc(c(-c5c(F)cccc5F)c5ccc([nH]5)c(-c5c(F)cccc5F)c5nc(c(-c6c(F)cccc6F)c6ccc3[nH]6)C=C5)C=C4)cc2)c2cc(C)cc(C)c2)c1
REMARK SMILES IDX 16 1 15 2 14 3 13 4 12 5 10 6 11 7 9 8 8 9 7 11 1 12 2 13
REMARK SMILES IDX 3 14 86 15 4 16 5 17 6 18 78 19 79 20 85 21 80 22 83 23
REMARK SMILES IDX 81 24 82 25 84 26 17 27 18 28 19 29 20 30 21 31 22 32 23 33
REMARK SMILES IDX 24 34 25 35 77 36 26 37 76 38 27 39 28 40 29 41 70 42 30 43
REMARK SMILES IDX 75 44 69 45 71 46 31 47 74 48 68 49 67 50 32 52 58 53 41 54
REMARK SMILES IDX 57 55 42 56 45 57 56 58 72 59 43 60 44 61 55 63 73 64 46 65
REMARK SMILES IDX 33 66 34 67 39 68 35 69 36 70 38 71 40 72 37 73 59 74 60 75
REMARK SMILES IDX 65 76 61 77 62 78 64 79 66 80 63 81 47 82 48 83 53 84 49 85
REMARK SMILES IDX 50 86 52 87 54 88 51 89
REMARK H PARENT 8 10 71 51 45 62
REMARK Flexibility Score: inf
ROOT
ATOM      1  C   UNL A   1      39.575  21.836  26.492  1.00  0.00     0.188 C 
ENDROOT
BRANCH   1   2
ATOM      2  O   UNL A   1      38.501  22.362  25.732  1.00  0.00    -0.376 OA
BRANCH   2   3
ATOM      3  C   UNL A   1      37.608  21.418  25.154  1.00  0.00     0.202 C 
BRANCH   3   4
ATOM      4  C   UNL A   1      36.109  21.755  25.236  1.00  0.00     0.261 C 
BRANCH   4   5
ATOM      5  O   UNL A   1      35.491  21.503  26.509  1.00  0.00    -0.461 OA
BRANCH   5   6
ATOM      6  C   UNL A   1      34.248  22.040  26.698  1.00  0.00     0.333 C 
ATOM      7  O   UNL A   1      33.933  22.639  27.719  1.00  0.00    -0.249 OA
BRANCH   6   8
ATOM      8  C   UNL A   1      33.405  21.923  25.401  1.00  0.00     0.221 C 
BRANCH   8   9
ATOM      9  N   UNL A   1      32.489  20.753  25.433  1.00  0.00    -0.369 N 
ATOM     10  H   UNL A   1      31.699  20.832  26.014  1.00  0.00     0.161 HD
BRANCH   9  11
ATOM     11  C   UNL A   1      32.625  19.564  24.733  1.00  0.00     0.038 A 
ATOM     12  C   UNL A   1      33.879  15.991  25.387  1.00  0.00     0.044 C 
ATOM     13  C   UNL A   1      33.338  17.206  24.696  1.00  0.00    -0.046 A 
ATOM     14  C   UNL A   1      33.051  17.126  23.333  1.00  0.00     0.042 A 
ATOM     15  C   UNL A   1      33.147  18.428  25.376  1.00  0.00     0.029 A 
ATOM     16  C   UNL A   1      32.552  18.237  22.689  1.00  0.00     0.125 A 
ATOM     17  F   UNL A   1      32.274  18.185  21.379  1.00  0.00    -0.207 F 
ATOM     18  C   UNL A   1      32.327  19.419  23.380  1.00  0.00     0.065 A 
ENDBRANCH   9  11
ENDBRANCH   8   9
BRANCH   8  19
ATOM     19  C   UNL A   1      32.710  23.203  24.940  1.00  0.00    -0.014 A 
ATOM     20  C   UNL A   1      33.193  23.920  23.841  1.00  0.00     0.010 A 
ATOM     21  C   UNL A   1      31.627  23.749  25.648  1.00  0.00     0.010 A 
ATOM     22  C   UNL A   1      32.808  25.230  23.587  1.00  0.00    -0.051 A 
ATOM     23  C   UNL A   1      31.102  25.005  25.293  1.00  0.00    -0.051 A 
ATOM     24  C   UNL A   1      33.677  26.056  22.688  1.00  0.00     0.044 C 
ATOM     25  C   UNL A   1      31.745  25.766  24.307  1.00  0.00     0.006 A 
ATOM     26  C   UNL A   1      29.904  25.578  25.993  1.00  0.00     0.044 C 
ENDBRANCH   8  19
ENDBRANCH   6   8
ENDBRANCH   5   6
ENDBRANCH   4   5
ENDBRANCH   3   4
ENDBRANCH   2   3
ENDBRANCH   1   2
BRANCH   1  27
ATOM     27  C   UNL A   1      40.039  20.426  26.061  1.00  0.00     0.188 C 
BRANCH  27  28
ATOM     28  O   UNL A   1      41.392  20.180  25.715  1.00  0.00    -0.376 OA
BRANCH  28  29
ATOM     29  C   UNL A   1      42.413  21.002  26.262  1.00  0.00     0.202 C 
BRANCH  29  30
ATOM     30  C   UNL A   1      43.426  21.706  25.339  1.00  0.00     0.261 C 
BRANCH  30  31
ATOM     31  O   UNL A   1      43.000  22.947  24.746  1.00  0.00    -0.460 OA
BRANCH  31  32
ATOM     32  C   UNL A   1      43.782  24.022  24.995  1.00  0.00     0.338 C 
ATOM     33  O   UNL A   1      44.865  24.285  24.479  1.00  0.00    -0.246 OA
BRANCH  32  34
ATOM     34  C   UNL A   1      43.077  24.977  25.873  1.00  0.00     0.060 A 
ATOM     35  C   UNL A   1      43.627  26.256  26.046  1.00  0.00     0.016 A 
ATOM     36  C   UNL A   1      41.932  24.604  26.577  1.00  0.00     0.016 A 
ATOM     37  C   UNL A   1      43.051  27.156  26.943  1.00  0.00     0.010 A 
ATOM     38  C   UNL A   1      41.370  25.499  27.498  1.00  0.00     0.010 A 
ATOM     39  C   UNL A   1      41.946  26.766  27.709  1.00  0.00    -0.014 A 
BRANCH  39  40
ATOM     40  C   UNL A   1      41.519  27.606  28.857  1.00  0.00     0.031 A 
ATOM     41  C   UNL A   1      42.281  27.503  30.151  1.00  0.00     0.074 A 
ATOM     42  C   UNL A   1      40.496  28.473  28.750  1.00  0.00     0.049 A 
ATOM     43  N   UNL A   1      42.071  28.106  31.293  1.00  0.00    -0.248 NA
ATOM     44  C   UNL A   1      43.439  26.593  30.154  1.00  0.00     0.031 C 
ATOM     45  C   UNL A   1      39.706  28.706  27.544  1.00  0.00     0.029 A 
ATOM     46  N   UNL A   1      39.943  29.314  29.685  1.00  0.00    -0.354 N 
ATOM     47  C   UNL A   1      43.061  27.642  32.153  1.00  0.00     0.074 A 
ATOM     48  C   UNL A   1      43.852  26.685  31.409  1.00  0.00     0.031 C 
ATOM     49  C   UNL A   1      38.759  29.620  27.815  1.00  0.00     0.029 A 
ATOM     50  C   UNL A   1      38.854  30.013  29.220  1.00  0.00     0.049 A 
ATOM     51  H   UNL A   1      40.292  29.408  30.599  1.00  0.00     0.167 HD
ATOM     52  C   UNL A   1      43.295  27.987  33.441  1.00  0.00     0.037 A 
ATOM     53  C   UNL A   1      38.020  30.853  29.863  1.00  0.00     0.037 A 
ATOM     54  C   UNL A   1      42.506  28.935  34.182  1.00  0.00     0.049 A 
ATOM     55  C   UNL A   1      38.254  31.163  31.320  1.00  0.00     0.074 A 
ATOM     56  C   UNL A   1      42.672  29.359  35.490  1.00  0.00     0.029 A 
ATOM     57  N   UNL A   1      41.394  29.599  33.686  1.00  0.00    -0.354 N 
ATOM     58  N   UNL A   1      39.205  30.739  32.117  1.00  0.00    -0.248 NA
ATOM     59  C   UNL A   1      37.299  32.076  31.966  1.00  0.00     0.031 C 
ATOM     60  C   UNL A   1      41.629  30.237  35.800  1.00  0.00     0.029 A 
ATOM     61  C   UNL A   1      40.850  30.411  34.668  1.00  0.00     0.049 A 
ATOM     62  H   UNL A   1      41.043  29.506  32.770  1.00  0.00     0.167 HD
ATOM     63  C   UNL A   1      38.986  31.361  33.341  1.00  0.00     0.074 A 
ATOM     64  C   UNL A   1      37.816  32.198  33.180  1.00  0.00     0.031 C 
ATOM     65  C   UNL A   1      39.694  31.252  34.493  1.00  0.00     0.037 A 
BRANCH  52  66
ATOM     66  C   UNL A   1      44.437  27.309  34.141  1.00  0.00     0.057 A 
ATOM     67  C   UNL A   1      45.706  27.897  34.234  1.00  0.00     0.134 A 
ATOM     68  C   UNL A   1      44.257  26.064  34.756  1.00  0.00     0.134 A 
ATOM     69  F   UNL A   1      45.951  29.081  33.655  1.00  0.00    -0.206 F 
ATOM     70  C   UNL A   1      46.761  27.257  34.891  1.00  0.00     0.040 A 
ATOM     71  C   UNL A   1      45.294  25.429  35.441  1.00  0.00     0.040 A 
ATOM     72  F   UNL A   1      43.066  25.446  34.710  1.00  0.00    -0.206 F 
ATOM     73  C   UNL A   1      46.553  26.023  35.502  1.00  0.00     0.006 A 
ENDBRANCH  52  66
BRANCH  53  74
ATOM     74  C   UNL A   1      36.871  31.460  29.142  1.00  0.00     0.057 A 
ATOM     75  C   UNL A   1      35.726  30.714  28.838  1.00  0.00     0.134 A 
ATOM     76  C   UNL A   1      36.905  32.791  28.710  1.00  0.00     0.134 A 
ATOM     77  F   UNL A   1      35.644  29.426  29.201  1.00  0.00    -0.206 F 
ATOM     78  C   UNL A   1      34.666  31.262  28.114  1.00  0.00     0.040 A 
ATOM     79  C   UNL A   1      35.839  33.361  28.009  1.00  0.00     0.040 A 
ATOM     80  F   UNL A   1      37.974  33.560  28.965  1.00  0.00    -0.206 F 
ATOM     81  C   UNL A   1      34.719  32.592  27.702  1.00  0.00     0.006 A 
ENDBRANCH  53  74
BRANCH  65  82
ATOM     82  C   UNL A   1      39.263  32.100  35.657  1.00  0.00     0.057 A 
ATOM     83  C   UNL A   1      39.681  33.427  35.812  1.00  0.00     0.134 A 
ATOM     84  C   UNL A   1      38.377  31.588  36.615  1.00  0.00     0.134 A 
ATOM     85  F   UNL A   1      40.536  33.978  34.937  1.00  0.00    -0.206 F 
ATOM     86  C   UNL A   1      39.257  34.205  36.892  1.00  0.00     0.040 A 
ATOM     87  C   UNL A   1      37.922  32.365  37.681  1.00  0.00     0.040 A 
ATOM     88  F   UNL A   1      37.926  30.327  36.521  1.00  0.00    -0.206 F 
ATOM     89  C   UNL A   1      38.368  33.676  37.826  1.00  0.00     0.006 A 
ENDBRANCH  65  82
ENDBRANCH  39  40
ENDBRANCH  32  34
ENDBRANCH  31  32
ENDBRANCH  30  31
ENDBRANCH  29  30
ENDBRANCH  28  29
ENDBRANCH  27  28
ENDBRANCH   1  27
TORSDOF 20
ENDMDL
MODEL 2
REMARK VINA RESULT:     -11.1      1.111      2.088
REMARK SMILES Cc1cc(F)cc(N[C@H](C(=O)OCCOCCOCCOC(=O)c2ccc(-c3c4nc(c(-c5c(F)cccc5F)c5ccc([nH]5)c(-c5c(F)cccc5F)c5nc(c(-c6c(F)cccc6F)c6ccc3[nH]6)C=C5)C=C4)cc2)c2cc(C)cc(C)c2)c1
REMARK SMILES IDX 16 1 15 2 14 3 13 4 12 5 10 6 11 7 9 8 8 9 7 11 1 12 2 13
REMARK SMILES IDX 3 14 86 15 4 16 5 17 6 18 78 19 79 20 85 21 80 22 83 23
REMARK SMILES IDX 81 24 82 25 84 26 17 27 18 28 19 29 20 30 21 31 22 32 23 33
REMARK SMILES IDX 24 34 25 35 77 36 26 37 76 38 27 39 28 40 29 41 70 42 30 43
REMARK SMILES IDX 75 44 69 45 71 46 31 47 74 48 68 49 67 50 32 52 58 53 41 54
REMARK SMILES IDX 57 55 42 56 45 57 56 58 72 59 43 60 44 61 55 63 73 64 46 65
REMARK SMILES IDX 33 66 34 67 39 68 35 69 36 70 38 71 40 72 37 73 59 74 60 75
REMARK SMILES IDX 65 76 61 77 62 78 64 79 66 80 63 81 47 82 48 83 53 84 49 85
REMARK SMILES IDX 50 86 52 87 54 88 51 89
REMARK H PARENT 8 10 71 51 45 62
REMARK Flexibility Score: inf
ROOT
ATOM      1  C   UNL A   1      39.385  20.938  25.882  1.00  0.00     0.188 C 
ENDROOT
BRANCH   1   2
ATOM      2  O   UNL A   1      38.144  20.598  25.290  1.00  0.00    -0.376 OA
BRANCH   2   3
ATOM      3  C   UNL A   1      37.110  21.571  25.374  1.00  0.00     0.202 C 
BRANCH   3   4
ATOM      4  C   UNL A   1      37.154  22.707  24.337  1.00  0.00     0.261 C 
BRANCH   4   5
ATOM      5  O   UNL A   1      35.874  23.201  23.911  1.00  0.00    -0.461 OA
BRANCH   5   6
ATOM      6  C   UNL A   1      35.075  23.736  24.883  1.00  0.00     0.333 C 
ATOM      7  O   UNL A   1      35.444  23.873  26.043  1.00  0.00    -0.249 OA
BRANCH   6   8
ATOM      8  C   UNL A   1      33.757  24.273  24.266  1.00  0.00     0.221 C 
BRANCH   8   9
ATOM      9  N   UNL A   1      32.607  23.371  24.531  1.00  0.00    -0.369 N 
ATOM     10  H   UNL A   1      31.844  23.764  25.013  1.00  0.00     0.161 HD
BRANCH   9  11
ATOM     11  C   UNL A   1      32.489  22.037  24.173  1.00  0.00     0.038 A 
ATOM     12  C   UNL A   1      32.840  18.590  25.835  1.00  0.00     0.044 C 
ATOM     13  C   UNL A   1      32.630  19.660  24.807  1.00  0.00    -0.046 A 
ATOM     14  C   UNL A   1      32.390  19.279  23.487  1.00  0.00     0.042 A 
ATOM     15  C   UNL A   1      32.702  21.032  25.133  1.00  0.00     0.029 A 
ATOM     16  C   UNL A   1      32.193  20.255  22.535  1.00  0.00     0.125 A 
ATOM     17  F   UNL A   1      31.966  19.912  21.260  1.00  0.00    -0.207 F 
ATOM     18  C   UNL A   1      32.223  21.599  22.878  1.00  0.00     0.065 A 
ENDBRANCH   9  11
ENDBRANCH   8   9
BRANCH   8  19
ATOM     19  C   UNL A   1      33.436  25.738  24.554  1.00  0.00    -0.014 A 
ATOM     20  C   UNL A   1      33.587  26.710  23.559  1.00  0.00     0.010 A 
ATOM     21  C   UNL A   1      33.066  26.173  25.837  1.00  0.00     0.010 A 
ATOM     22  C   UNL A   1      33.623  28.067  23.853  1.00  0.00    -0.051 A 
ATOM     23  C   UNL A   1      32.922  27.545  26.113  1.00  0.00    -0.051 A 
ATOM     24  C   UNL A   1      34.220  28.991  22.835  1.00  0.00     0.044 C 
ATOM     25  C   UNL A   1      33.272  28.484  25.132  1.00  0.00     0.006 A 
ATOM     26  C   UNL A   1      32.465  28.029  27.458  1.00  0.00     0.044 C 
ENDBRANCH   8  19
ENDBRANCH   6   8
ENDBRANCH   5   6
ENDBRANCH   4   5
ENDBRANCH   3   4
ENDBRANCH   2   3
ENDBRANCH   1   2
BRANCH   1  27
ATOM     27  C   UNL A   1      40.364  19.753  26.050  1.00  0.00     0.188 C 
BRANCH  27  28
ATOM     28  O   UNL A   1      41.718  19.864  25.643  1.00  0.00    -0.376 OA
BRANCH  28  29
ATOM     29  C   UNL A   1      42.539  20.869  26.220  1.00  0.00     0.202 C 
BRANCH  29  30
ATOM     30  C   UNL A   1      43.590  21.603  25.366  1.00  0.00     0.261 C 
BRANCH  30  31
ATOM     31  O   UNL A   1      43.151  22.797  24.693  1.00  0.00    -0.460 OA
BRANCH  31  32
ATOM     32  C   UNL A   1      43.898  23.905  24.902  1.00  0.00     0.338 C 
ATOM     33  O   UNL A   1      44.959  24.196  24.354  1.00  0.00    -0.246 OA
BRANCH  32  34
ATOM     34  C   UNL A   1      43.180  24.852  25.777  1.00  0.00     0.060 A 
ATOM     35  C   UNL A   1      43.697  26.147  25.926  1.00  0.00     0.016 A 
ATOM     36  C   UNL A   1      42.055  24.458  26.502  1.00  0.00     0.016 A 
ATOM     37  C   UNL A   1      43.109  27.043  26.819  1.00  0.00     0.010 A 
ATOM     38  C   UNL A   1      41.482  25.349  27.419  1.00  0.00     0.010 A 
ATOM     39  C   UNL A   1      42.026  26.634  27.606  1.00  0.00    -0.014 A 
BRANCH  39  40
ATOM     40  C   UNL A   1      41.591  27.478  28.748  1.00  0.00     0.031 A 
ATOM     41  C   UNL A   1      42.353  27.386  30.043  1.00  0.00     0.074 A 
ATOM     42  C   UNL A   1      40.562  28.336  28.636  1.00  0.00     0.049 A 
ATOM     43  N   UNL A   1      42.137  27.994  31.182  1.00  0.00    -0.248 NA
ATOM     44  C   UNL A   1      43.517  26.485  30.053  1.00  0.00     0.031 C 
ATOM     45  C   UNL A   1      39.773  28.557  27.427  1.00  0.00     0.029 A 
ATOM     46  N   UNL A   1      40.002  29.179  29.565  1.00  0.00    -0.354 N 
ATOM     47  C   UNL A   1      43.129  27.543  32.045  1.00  0.00     0.074 A 
ATOM     48  C   UNL A   1      43.928  26.587  31.308  1.00  0.00     0.031 C 
ATOM     49  C   UNL A   1      38.818  29.466  27.692  1.00  0.00     0.029 A 
ATOM     50  C   UNL A   1      38.910  29.867  29.095  1.00  0.00     0.049 A 
ATOM     51  H   UNL A   1      40.350  29.280  30.479  1.00  0.00     0.167 HD
ATOM     52  C   UNL A   1      43.360  27.896  33.332  1.00  0.00     0.037 A 
ATOM     53  C   UNL A   1      38.068  30.705  29.733  1.00  0.00     0.037 A 
ATOM     54  C   UNL A   1      42.563  28.842  34.067  1.00  0.00     0.049 A 
ATOM     55  C   UNL A   1      38.299  31.025  31.188  1.00  0.00     0.074 A 
ATOM     56  C   UNL A   1      42.725  29.276  35.373  1.00  0.00     0.029 A 
ATOM     57  N   UNL A   1      41.448  29.496  33.566  1.00  0.00    -0.354 N 
ATOM     58  N   UNL A   1      39.252  30.611  31.988  1.00  0.00    -0.248 NA
ATOM     59  C   UNL A   1      37.336  31.935  31.829  1.00  0.00     0.031 C 
ATOM     60  C   UNL A   1      41.676  30.148  35.677  1.00  0.00     0.029 A 
ATOM     61  C   UNL A   1      40.897  30.309  34.543  1.00  0.00     0.049 A 
ATOM     62  H   UNL A   1      41.099  29.396  32.650  1.00  0.00     0.167 HD
ATOM     63  C   UNL A   1      39.028  31.239  33.209  1.00  0.00     0.074 A 
ATOM     64  C   UNL A   1      37.852  32.066  33.042  1.00  0.00     0.031 C 
ATOM     65  C   UNL A   1      39.735  31.142  34.362  1.00  0.00     0.037 A 
BRANCH  52  66
ATOM     66  C   UNL A   1      44.506  27.230  34.037  1.00  0.00     0.057 A 
ATOM     67  C   UNL A   1      44.350  26.025  34.735  1.00  0.00     0.134 A 
ATOM     68  C   UNL A   1      45.790  27.786  33.991  1.00  0.00     0.134 A 
ATOM     69  F   UNL A   1      43.144  25.446  34.830  1.00  0.00    -0.206 F 
ATOM     70  C   UNL A   1      45.424  25.412  35.385  1.00  0.00     0.040 A 
ATOM     71  C   UNL A   1      46.878  27.168  34.611  1.00  0.00     0.040 A 
ATOM     72  F   UNL A   1      46.013  28.936  33.336  1.00  0.00    -0.206 F 
ATOM     73  C   UNL A   1      46.694  25.982  35.317  1.00  0.00     0.006 A 
ENDBRANCH  52  66
BRANCH  53  74
ATOM     74  C   UNL A   1      36.916  31.300  29.008  1.00  0.00     0.057 A 
ATOM     75  C   UNL A   1      36.928  32.638  28.595  1.00  0.00     0.134 A 
ATOM     76  C   UNL A   1      35.762  30.554  28.740  1.00  0.00     0.134 A 
ATOM     77  F   UNL A   1      37.993  33.412  28.846  1.00  0.00    -0.206 F 
ATOM     78  C   UNL A   1      35.828  33.219  27.961  1.00  0.00     0.040 A 
ATOM     79  C   UNL A   1      34.665  31.114  28.082  1.00  0.00     0.040 A 
ATOM     80  F   UNL A   1      35.684  29.268  29.111  1.00  0.00    -0.206 F 
ATOM     81  C   UNL A   1      34.693  32.454  27.698  1.00  0.00     0.006 A 
ENDBRANCH  53  74
BRANCH  65  82
ATOM     82  C   UNL A   1      39.296  31.993  35.521  1.00  0.00     0.057 A 
ATOM     83  C   UNL A   1      38.419  31.522  36.504  1.00  0.00     0.134 A 
ATOM     84  C   UNL A   1      39.798  33.293  35.674  1.00  0.00     0.134 A 
ATOM     85  F   UNL A   1      37.893  30.291  36.415  1.00  0.00    -0.206 F 
ATOM     86  C   UNL A   1      38.034  32.322  37.583  1.00  0.00     0.040 A 
ATOM     87  C   UNL A   1      39.445  34.091  36.763  1.00  0.00     0.040 A 
ATOM     88  F   UNL A   1      40.653  33.804  34.774  1.00  0.00    -0.206 F 
ATOM     89  C   UNL A   1      38.554  33.608  37.718  1.00  0.00     0.006 A 
ENDBRANCH  65  82
ENDBRANCH  39  40
ENDBRANCH  32  34
ENDBRANCH  31  32
ENDBRANCH  30  31
ENDBRANCH  29  30
ENDBRANCH  28  29
ENDBRANCH  27  28
ENDBRANCH   1  27
TORSDOF 20
ENDMDL
MODEL 3
REMARK VINA RESULT:     -11.0      1.392      3.627
REMARK SMILES Cc1cc(F)cc(N[C@H](C(=O)OCCOCCOCCOC(=O)c2ccc(-c3c4nc(c(-c5c(F)cccc5F)c5ccc([nH]5)c(-c5c(F)cccc5F)c5nc(c(-c6c(F)cccc6F)c6ccc3[nH]6)C=C5)C=C4)cc2)c2cc(C)cc(C)c2)c1
REMARK SMILES IDX 16 1 15 2 14 3 13 4 12 5 10 6 11 7 9 8 8 9 7 11 1 12 2 13
REMARK SMILES IDX 3 14 86 15 4 16 5 17 6 18 78 19 79 20 85 21 80 22 83 23
REMARK SMILES IDX 81 24 82 25 84 26 17 27 18 28 19 29 20 30 21 31 22 32 23 33
REMARK SMILES IDX 24 34 25 35 77 36 26 37 76 38 27 39 28 40 29 41 70 42 30 43
REMARK SMILES IDX 75 44 69 45 71 46 31 47 74 48 68 49 67 50 32 52 58 53 41 54
REMARK SMILES IDX 57 55 42 56 45 57 56 58 72 59 43 60 44 61 55 63 73 64 46 65
REMARK SMILES IDX 33 66 34 67 39 68 35 69 36 70 38 71 40 72 37 73 59 74 60 75
REMARK SMILES IDX 65 76 61 77 62 78 64 79 66 80 63 81 47 82 48 83 53 84 49 85
REMARK SMILES IDX 50 86 52 87 54 88 51 89
REMARK H PARENT 8 10 71 51 45 62
REMARK Flexibility Score: inf
ROOT
ATOM      1  C   UNL A   1      40.034  21.886  26.334  1.00  0.00     0.188 C 
ENDROOT
BRANCH   1   2
ATOM      2  O   UNL A   1      39.265  22.819  27.071  1.00  0.00    -0.376 OA
BRANCH   2   3
ATOM      3  C   UNL A   1      38.694  23.895  26.338  1.00  0.00     0.202 C 
BRANCH   3   4
ATOM      4  C   UNL A   1      37.521  23.543  25.407  1.00  0.00     0.261 C 
BRANCH   4   5
ATOM      5  O   UNL A   1      36.274  23.266  26.067  1.00  0.00    -0.461 OA
BRANCH   5   6
ATOM      6  C   UNL A   1      35.190  23.070  25.258  1.00  0.00     0.333 C 
ATOM      7  O   UNL A   1      35.177  23.391  24.076  1.00  0.00    -0.249 OA
BRANCH   6   8
ATOM      8  C   UNL A   1      34.098  22.258  26.003  1.00  0.00     0.221 C 
BRANCH   8   9
ATOM      9  N   UNL A   1      33.184  23.132  26.783  1.00  0.00    -0.369 N 
ATOM     10  H   UNL A   1      32.991  22.851  27.706  1.00  0.00     0.161 HD
BRANCH   9  11
ATOM     11  C   UNL A   1      32.575  24.301  26.354  1.00  0.00     0.038 A 
ATOM     12  C   UNL A   1      33.601  27.895  25.460  1.00  0.00     0.044 C 
ATOM     13  C   UNL A   1      32.772  26.675  25.722  1.00  0.00    -0.046 A 
ATOM     14  C   UNL A   1      31.386  26.770  25.595  1.00  0.00     0.042 A 
ATOM     15  C   UNL A   1      33.350  25.451  26.124  1.00  0.00     0.029 A 
ATOM     16  C   UNL A   1      30.615  25.654  25.832  1.00  0.00     0.125 A 
ATOM     17  F   UNL A   1      29.281  25.724  25.721  1.00  0.00    -0.207 F 
ATOM     18  C   UNL A   1      31.201  24.446  26.184  1.00  0.00     0.065 A 
ENDBRANCH   9  11
ENDBRANCH   8   9
BRANCH   8  19
ATOM     19  C   UNL A   1      33.351  21.222  25.166  1.00  0.00    -0.014 A 
ATOM     20  C   UNL A   1      33.181  19.915  25.634  1.00  0.00     0.010 A 
ATOM     21  C   UNL A   1      32.888  21.514  23.873  1.00  0.00     0.010 A 
ATOM     22  C   UNL A   1      32.807  18.873  24.794  1.00  0.00    -0.051 A 
ATOM     23  C   UNL A   1      32.339  20.503  23.064  1.00  0.00    -0.051 A 
ATOM     24  C   UNL A   1      33.076  17.471  25.252  1.00  0.00     0.044 C 
ATOM     25  C   UNL A   1      32.368  19.174  23.510  1.00  0.00     0.006 A 
ATOM     26  C   UNL A   1      31.780  20.805  21.704  1.00  0.00     0.044 C 
ENDBRANCH   8  19
ENDBRANCH   6   8
ENDBRANCH   5   6
ENDBRANCH   4   5
ENDBRANCH   3   4
ENDBRANCH   2   3
ENDBRANCH   1   2
BRANCH   1  27
ATOM     27  C   UNL A   1      40.985  21.017  27.188  1.00  0.00     0.188 C 
BRANCH  27  28
ATOM     28  O   UNL A   1      42.392  21.115  27.037  1.00  0.00    -0.376 OA
BRANCH  28  29
ATOM     29  C   UNL A   1      42.975  20.872  25.765  1.00  0.00     0.202 C 
BRANCH  29  30
ATOM     30  C   UNL A   1      43.981  21.873  25.166  1.00  0.00     0.261 C 
BRANCH  30  31
ATOM     31  O   UNL A   1      43.451  23.143  24.746  1.00  0.00    -0.460 OA
BRANCH  31  32
ATOM     32  C   UNL A   1      44.177  24.232  25.086  1.00  0.00     0.338 C 
ATOM     33  O   UNL A   1      45.277  24.556  24.643  1.00  0.00    -0.246 OA
BRANCH  32  34
ATOM     34  C   UNL A   1      43.392  25.119  25.965  1.00  0.00     0.060 A 
ATOM     35  C   UNL A   1      43.762  26.469  26.055  1.00  0.00     0.016 A 
ATOM     36  C   UNL A   1      42.350  24.624  26.751  1.00  0.00     0.016 A 
ATOM     37  C   UNL A   1      43.112  27.321  26.949  1.00  0.00     0.010 A 
ATOM     38  C   UNL A   1      41.717  25.474  27.667  1.00  0.00     0.010 A 
ATOM     39  C   UNL A   1      42.116  26.818  27.794  1.00  0.00    -0.014 A 
BRANCH  39  40
ATOM     40  C   UNL A   1      41.636  27.644  28.931  1.00  0.00     0.031 A 
ATOM     41  C   UNL A   1      42.358  27.548  30.248  1.00  0.00     0.074 A 
ATOM     42  C   UNL A   1      40.600  28.490  28.795  1.00  0.00     0.049 A 
ATOM     43  N   UNL A   1      42.098  28.141  31.386  1.00  0.00    -0.248 NA
ATOM     44  C   UNL A   1      43.532  26.661  30.286  1.00  0.00     0.031 C 
ATOM     45  C   UNL A   1      39.845  28.714  27.564  1.00  0.00     0.029 A 
ATOM     46  N   UNL A   1      40.000  29.316  29.714  1.00  0.00    -0.354 N 
ATOM     47  C   UNL A   1      43.068  27.693  32.275  1.00  0.00     0.074 A 
ATOM     48  C   UNL A   1      43.902  26.756  31.554  1.00  0.00     0.031 C 
ATOM     49  C   UNL A   1      38.871  29.608  27.808  1.00  0.00     0.029 A 
ATOM     50  C   UNL A   1      38.914  29.995  29.218  1.00  0.00     0.049 A 
ATOM     51  H   UNL A   1      40.317  29.411  30.640  1.00  0.00     0.167 HD
ATOM     52  C   UNL A   1      43.254  28.036  33.572  1.00  0.00     0.037 A 
ATOM     53  C   UNL A   1      38.042  30.816  29.837  1.00  0.00     0.037 A 
ATOM     54  C   UNL A   1      42.422  28.964  34.291  1.00  0.00     0.049 A 
ATOM     55  C   UNL A   1      38.222  31.122  31.302  1.00  0.00     0.074 A 
ATOM     56  C   UNL A   1      42.538  29.385  35.606  1.00  0.00     0.029 A 
ATOM     57  N   UNL A   1      41.315  29.608  33.762  1.00  0.00    -0.354 N 
ATOM     58  N   UNL A   1      39.155  30.713  32.127  1.00  0.00    -0.248 NA
ATOM     59  C   UNL A   1      37.228  32.013  31.921  1.00  0.00     0.031 C 
ATOM     60  C   UNL A   1      41.467  30.240  35.886  1.00  0.00     0.029 A 
ATOM     61  C   UNL A   1      40.723  30.404  34.729  1.00  0.00     0.049 A 
ATOM     62  H   UNL A   1      40.996  29.513  32.834  1.00  0.00     0.167 HD
ATOM     63  C   UNL A   1      38.884  31.324  33.347  1.00  0.00     0.074 A 
ATOM     64  C   UNL A   1      37.704  32.138  33.152  1.00  0.00     0.031 C 
ATOM     65  C   UNL A   1      39.557  31.224  34.520  1.00  0.00     0.037 A 
BRANCH  52  66
ATOM     66  C   UNL A   1      44.386  27.376  34.306  1.00  0.00     0.057 A 
ATOM     67  C   UNL A   1      44.269  26.090  34.851  1.00  0.00     0.134 A 
ATOM     68  C   UNL A   1      45.619  28.025  34.443  1.00  0.00     0.134 A 
ATOM     69  F   UNL A   1      43.111  25.419  34.767  1.00  0.00    -0.206 F 
ATOM     70  C   UNL A   1      45.330  25.486  35.529  1.00  0.00     0.040 A 
ATOM     71  C   UNL A   1      46.697  27.420  35.092  1.00  0.00     0.040 A 
ATOM     72  F   UNL A   1      45.802  29.256  33.941  1.00  0.00    -0.206 F 
ATOM     73  C   UNL A   1      46.551  26.149  35.644  1.00  0.00     0.006 A 
ENDBRANCH  52  66
BRANCH  53  74
ATOM     74  C   UNL A   1      36.906  31.403  29.082  1.00  0.00     0.057 A 
ATOM     75  C   UNL A   1      36.925  32.738  28.659  1.00  0.00     0.134 A 
ATOM     76  C   UNL A   1      35.758  30.655  28.795  1.00  0.00     0.134 A 
ATOM     77  F   UNL A   1      37.984  33.515  28.927  1.00  0.00    -0.206 F 
ATOM     78  C   UNL A   1      35.839  33.313  27.997  1.00  0.00     0.040 A 
ATOM     79  C   UNL A   1      34.675  31.208  28.108  1.00  0.00     0.040 A 
ATOM     80  F   UNL A   1      35.673  29.371  29.175  1.00  0.00    -0.206 F 
ATOM     81  C   UNL A   1      34.711  32.544  27.715  1.00  0.00     0.006 A 
ENDBRANCH  53  74
BRANCH  65  82
ATOM     82  C   UNL A   1      39.070  32.057  35.673  1.00  0.00     0.057 A 
ATOM     83  C   UNL A   1      38.227  31.542  36.665  1.00  0.00     0.134 A 
ATOM     84  C   UNL A   1      39.491  33.387  35.813  1.00  0.00     0.134 A 
ATOM     85  F   UNL A   1      37.778  30.280  36.589  1.00  0.00    -0.206 F 
ATOM     86  C   UNL A   1      37.798  32.327  37.738  1.00  0.00     0.040 A 
ATOM     87  C   UNL A   1      39.094  34.172  36.896  1.00  0.00     0.040 A 
ATOM     88  F   UNL A   1      40.310  33.941  34.905  1.00  0.00    -0.206 F 
ATOM     89  C   UNL A   1      38.239  33.643  37.859  1.00  0.00     0.006 A 
ENDBRANCH  65  82
ENDBRANCH  39  40
ENDBRANCH  32  34
ENDBRANCH  31  32
ENDBRANCH  30  31
ENDBRANCH  29  30
ENDBRANCH  28  29
ENDBRANCH  27  28
ENDBRANCH   1  27
TORSDOF 20
ENDMDL
