MODEL 1
REMARK VINA RESULT:     -11.0      0.000      0.000
REMARK SMILES O=C(C[C@H]1C[C@H]2CC[C@@H](C1)[N@H+]2C[C@@H]1CNC(=O)O1)OCCOCCOCCOC(=O)c1ccc(-c2c3nc(c(-c4c(F)cccc4F)c4ccc([nH]4)c(-c4c(F)cccc4F)c4nc(c(-c5c(F)cccc5F)c5ccc2[nH]5)C=C4)C=C3)cc1
REMARK SMILES IDX 23 1 22 2 21 3 20 4 19 5 2 6 1 7 3 8 4 9 5 10 10 11 6 12
REMARK SMILES IDX 9 13 7 14 11 15 8 16 12 18 13 19 14 20 18 21 15 22 16 23
REMARK SMILES IDX 17 25 24 26 25 27 26 28 27 29 28 30 29 31 30 32 31 33 32 34
REMARK SMILES IDX 84 35 33 36 83 37 34 38 35 39 36 40 77 41 37 42 82 43 76 44
REMARK SMILES IDX 78 45 38 46 81 47 75 48 74 49 39 51 65 52 48 53 64 54 49 55
REMARK SMILES IDX 52 56 63 57 79 58 50 59 51 60 62 62 80 63 53 64 40 65 41 66
REMARK SMILES IDX 46 67 42 68 43 69 45 70 47 71 44 72 66 73 67 74 72 75 68 76
REMARK SMILES IDX 69 77 71 78 73 79 70 80 54 81 55 82 60 83 56 84 57 85 59 86
REMARK SMILES IDX 61 87 58 88
REMARK H PARENT 11 17 15 24 78 50 52 61
REMARK Flexibility Score: inf
ROOT
ATOM      1  C   UNL A   1      40.470  20.944  26.840  1.00  0.00     0.188 C 
ENDROOT
BRANCH   1   2
ATOM      2  O   UNL A   1      39.845  21.869  25.971  1.00  0.00    -0.376 OA
BRANCH   2   3
ATOM      3  C   UNL A   1      38.439  21.720  25.792  1.00  0.00     0.202 C 
BRANCH   3   4
ATOM      4  C   UNL A   1      37.586  22.968  26.074  1.00  0.00     0.261 C 
BRANCH   4   5
ATOM      5  O   UNL A   1      37.405  23.643  24.817  1.00  0.00    -0.463 OA
BRANCH   5   6
ATOM      6  C   UNL A   1      36.463  23.259  23.928  1.00  0.00     0.306 C 
ATOM      7  O   UNL A   1      36.655  23.064  22.738  1.00  0.00    -0.252 OA
BRANCH   6   8
ATOM      8  C   UNL A   1      35.080  23.253  24.586  1.00  0.00     0.126 C 
BRANCH   8   9
ATOM      9  C   UNL A   1      34.269  24.498  24.175  1.00  0.00     0.012 C 
ATOM     10  C   UNL A   1      32.994  24.231  23.344  1.00  0.00     0.069 C 
ATOM     11  C   UNL A   1      34.125  25.378  25.431  1.00  0.00     0.069 C 
ATOM     12  C   UNL A   1      31.695  24.576  24.062  1.00  0.00     0.184 C 
ATOM     13  C   UNL A   1      32.703  25.463  25.951  1.00  0.00     0.184 C 
ATOM     14  C   UNL A   1      31.471  23.518  25.153  1.00  0.00     0.071 C 
ATOM     15  N   UNL A   1      31.795  25.782  24.861  1.00  0.00    -0.327 N 
ATOM     16  C   UNL A   1      32.185  24.081  26.384  1.00  0.00     0.071 C 
ATOM     17  H   UNL A   1      30.841  26.000  25.151  1.00  0.00     0.348 HD
BRANCH  15  18
ATOM     18  C   UNL A   1      31.740  27.145  24.343  1.00  0.00     0.310 C 
BRANCH  18  19
ATOM     19  C   UNL A   1      31.560  27.687  22.893  1.00  0.00     0.252 C 
ATOM     20  C   UNL A   1      32.356  28.896  22.458  1.00  0.00     0.170 C 
ATOM     21  O   UNL A   1      30.203  27.954  22.504  1.00  0.00    -0.438 OA
ATOM     22  N   UNL A   1      31.354  29.806  22.022  1.00  0.00    -0.318 N 
ATOM     23  C   UNL A   1      30.129  29.214  21.987  1.00  0.00     0.407 C 
ATOM     24  H   UNL A   1      31.525  30.744  21.777  1.00  0.00     0.167 HD
ATOM     25  O   UNL A   1      29.111  29.745  21.573  1.00  0.00    -0.225 OA
ENDBRANCH  18  19
ENDBRANCH  15  18
ENDBRANCH   8   9
ENDBRANCH   6   8
ENDBRANCH   5   6
ENDBRANCH   4   5
ENDBRANCH   3   4
ENDBRANCH   2   3
ENDBRANCH   1   2
BRANCH   1  26
ATOM     26  C   UNL A   1      40.953  19.640  26.168  1.00  0.00     0.188 C 
BRANCH  26  27
ATOM     27  O   UNL A   1      42.136  19.634  25.384  1.00  0.00    -0.376 OA
BRANCH  27  28
ATOM     28  C   UNL A   1      43.290  20.281  25.885  1.00  0.00     0.202 C 
BRANCH  28  29
ATOM     29  C   UNL A   1      43.924  21.410  25.053  1.00  0.00     0.261 C 
BRANCH  29  30
ATOM     30  O   UNL A   1      43.130  22.602  24.854  1.00  0.00    -0.460 OA
BRANCH  30  31
ATOM     31  C   UNL A   1      43.796  23.783  24.922  1.00  0.00     0.338 C 
ATOM     32  O   UNL A   1      44.814  24.080  24.319  1.00  0.00    -0.246 OA
BRANCH  31  33
ATOM     33  C   UNL A   1      43.046  24.781  25.730  1.00  0.00     0.060 A 
ATOM     34  C   UNL A   1      43.586  26.069  25.875  1.00  0.00     0.016 A 
ATOM     35  C   UNL A   1      41.901  24.431  26.447  1.00  0.00     0.016 A 
ATOM     36  C   UNL A   1      43.022  26.984  26.773  1.00  0.00     0.010 A 
ATOM     37  C   UNL A   1      41.348  25.344  27.365  1.00  0.00     0.010 A 
ATOM     38  C   UNL A   1      41.933  26.610  27.569  1.00  0.00    -0.014 A 
BRANCH  38  39
ATOM     39  C   UNL A   1      41.539  27.463  28.730  1.00  0.00     0.031 A 
ATOM     40  C   UNL A   1      42.338  27.374  30.010  1.00  0.00     0.074 A 
ATOM     41  C   UNL A   1      40.526  28.346  28.653  1.00  0.00     0.049 A 
ATOM     42  N   UNL A   1      42.164  28.000  31.148  1.00  0.00    -0.248 NA
ATOM     43  C   UNL A   1      43.487  26.454  30.004  1.00  0.00     0.031 C 
ATOM     44  C   UNL A   1      39.692  28.580  27.475  1.00  0.00     0.029 A 
ATOM     45  N   UNL A   1      40.022  29.211  29.598  1.00  0.00    -0.354 N 
ATOM     46  C   UNL A   1      43.180  27.555  31.988  1.00  0.00     0.074 A 
ATOM     47  C   UNL A   1      43.940  26.575  31.242  1.00  0.00     0.031 C 
ATOM     48  C   UNL A   1      38.770  29.516  27.772  1.00  0.00     0.029 A 
ATOM     49  C   UNL A   1      38.930  29.928  29.168  1.00  0.00     0.049 A 
ATOM     50  H   UNL A   1      40.407  29.308  30.498  1.00  0.00     0.167 HD
ATOM     51  C   UNL A   1      43.467  27.933  33.257  1.00  0.00     0.037 A 
ATOM     52  C   UNL A   1      38.137  30.798  29.826  1.00  0.00     0.037 A 
ATOM     53  C   UNL A   1      42.721  28.906  34.014  1.00  0.00     0.049 A 
ATOM     54  C   UNL A   1      38.429  31.141  31.267  1.00  0.00     0.074 A 
ATOM     55  C   UNL A   1      42.948  29.353  35.304  1.00  0.00     0.029 A 
ATOM     56  N   UNL A   1      41.603  29.581  33.551  1.00  0.00    -0.354 N 
ATOM     57  N   UNL A   1      39.405  30.727  32.039  1.00  0.00    -0.248 NA
ATOM     58  C   UNL A   1      37.510  32.084  31.925  1.00  0.00     0.031 C 
ATOM     59  C   UNL A   1      41.936  30.258  35.643  1.00  0.00     0.029 A 
ATOM     60  C   UNL A   1      41.115  30.421  34.541  1.00  0.00     0.049 A 
ATOM     61  H   UNL A   1      41.213  29.479  32.654  1.00  0.00     0.167 HD
ATOM     62  C   UNL A   1      39.234  31.381  33.256  1.00  0.00     0.074 A 
ATOM     63  C   UNL A   1      38.077  32.237  33.112  1.00  0.00     0.031 C 
ATOM     64  C   UNL A   1      39.967  31.278  34.392  1.00  0.00     0.037 A 
BRANCH  51  65
ATOM     65  C   UNL A   1      44.645  27.284  33.929  1.00  0.00     0.057 A 
ATOM     66  C   UNL A   1      45.942  27.799  33.804  1.00  0.00     0.134 A 
ATOM     67  C   UNL A   1      44.470  26.174  34.766  1.00  0.00     0.134 A 
ATOM     68  F   UNL A   1      46.182  28.853  33.011  1.00  0.00    -0.206 F 
ATOM     69  C   UNL A   1      47.025  27.223  34.474  1.00  0.00     0.040 A 
ATOM     70  C   UNL A   1      45.539  25.608  35.463  1.00  0.00     0.040 A 
ATOM     71  F   UNL A   1      43.253  25.637  34.938  1.00  0.00    -0.206 F 
ATOM     72  C   UNL A   1      46.821  26.130  35.315  1.00  0.00     0.006 A 
ENDBRANCH  51  65
BRANCH  52  73
ATOM     73  C   UNL A   1      36.956  31.400  29.150  1.00  0.00     0.057 A 
ATOM     74  C   UNL A   1      35.804  30.650  28.881  1.00  0.00     0.134 A 
ATOM     75  C   UNL A   1      36.980  32.723  28.690  1.00  0.00     0.134 A 
ATOM     76  F   UNL A   1      35.730  29.367  29.266  1.00  0.00    -0.206 F 
ATOM     77  C   UNL A   1      34.737  31.179  28.152  1.00  0.00     0.040 A 
ATOM     78  C   UNL A   1      35.907  33.276  27.990  1.00  0.00     0.040 A 
ATOM     79  F   UNL A   1      38.051  33.498  28.912  1.00  0.00    -0.206 F 
ATOM     80  C   UNL A   1      34.786  32.499  27.707  1.00  0.00     0.006 A 
ENDBRANCH  52  73
BRANCH  64  81
ATOM     81  C   UNL A   1      39.566  32.142  35.558  1.00  0.00     0.057 A 
ATOM     82  C   UNL A   1      40.089  33.429  35.745  1.00  0.00     0.134 A 
ATOM     83  C   UNL A   1      38.635  31.685  36.500  1.00  0.00     0.134 A 
ATOM     84  F   UNL A   1      40.992  33.928  34.888  1.00  0.00    -0.206 F 
ATOM     85  C   UNL A   1      39.733  34.211  36.847  1.00  0.00     0.040 A 
ATOM     86  C   UNL A   1      38.246  32.470  37.587  1.00  0.00     0.040 A 
ATOM     87  F   UNL A   1      38.081  30.469  36.378  1.00  0.00    -0.206 F 
ATOM     88  C   UNL A   1      38.805  33.733  37.769  1.00  0.00     0.006 A 
ENDBRANCH  64  81
ENDBRANCH  38  39
ENDBRANCH  31  33
ENDBRANCH  30  31
ENDBRANCH  29  30
ENDBRANCH  28  29
ENDBRANCH  27  28
ENDBRANCH  26  27
ENDBRANCH   1  26
TORSDOF 20
ENDMDL
MODEL 2
REMARK VINA RESULT:     -11.0      1.484      6.315
REMARK SMILES O=C(C[C@H]1C[C@H]2CC[C@@H](C1)[N@H+]2C[C@@H]1CNC(=O)O1)OCCOCCOCCOC(=O)c1ccc(-c2c3nc(c(-c4c(F)cccc4F)c4ccc([nH]4)c(-c4c(F)cccc4F)c4nc(c(-c5c(F)cccc5F)c5ccc2[nH]5)C=C4)C=C3)cc1
REMARK SMILES IDX 23 1 22 2 21 3 20 4 19 5 2 6 1 7 3 8 4 9 5 10 10 11 6 12
REMARK SMILES IDX 9 13 7 14 11 15 8 16 12 18 13 19 14 20 18 21 15 22 16 23
REMARK SMILES IDX 17 25 24 26 25 27 26 28 27 29 28 30 29 31 30 32 31 33 32 34
REMARK SMILES IDX 84 35 33 36 83 37 34 38 35 39 36 40 77 41 37 42 82 43 76 44
REMARK SMILES IDX 78 45 38 46 81 47 75 48 74 49 39 51 65 52 48 53 64 54 49 55
REMARK SMILES IDX 52 56 63 57 79 58 50 59 51 60 62 62 80 63 53 64 40 65 41 66
REMARK SMILES IDX 46 67 42 68 43 69 45 70 47 71 44 72 66 73 67 74 72 75 68 76
REMARK SMILES IDX 69 77 71 78 73 79 70 80 54 81 55 82 60 83 56 84 57 85 59 86
REMARK SMILES IDX 61 87 58 88
REMARK H PARENT 11 17 15 24 78 50 52 61
REMARK Flexibility Score: inf
ROOT
ATOM      1  C   UNL A   1      42.777  18.478  26.116  1.00  0.00     0.188 C 
ENDROOT
BRANCH   1   2
ATOM      2  O   UNL A   1      41.644  19.227  25.722  1.00  0.00    -0.376 OA
BRANCH   2   3
ATOM      3  C   UNL A   1      41.086  20.099  26.703  1.00  0.00     0.202 C 
BRANCH   3   4
ATOM      4  C   UNL A   1      40.603  21.467  26.193  1.00  0.00     0.261 C 
BRANCH   4   5
ATOM      5  O   UNL A   1      39.166  21.423  26.180  1.00  0.00    -0.463 OA
BRANCH   5   6
ATOM      6  C   UNL A   1      38.416  22.541  26.061  1.00  0.00     0.306 C 
ATOM      7  O   UNL A   1      38.795  23.672  26.321  1.00  0.00    -0.252 OA
BRANCH   6   8
ATOM      8  C   UNL A   1      36.971  22.180  25.704  1.00  0.00     0.126 C 
BRANCH   8   9
ATOM      9  C   UNL A   1      36.230  23.394  25.111  1.00  0.00     0.012 C 
ATOM     10  C   UNL A   1      35.766  23.254  23.645  1.00  0.00     0.069 C 
ATOM     11  C   UNL A   1      35.178  23.832  26.149  1.00  0.00     0.069 C 
ATOM     12  C   UNL A   1      34.254  23.222  23.466  1.00  0.00     0.184 C 
ATOM     13  C   UNL A   1      33.750  23.599  25.696  1.00  0.00     0.184 C 
ATOM     14  C   UNL A   1      33.753  21.865  23.985  1.00  0.00     0.071 C 
ATOM     15  N   UNL A   1      33.561  24.133  24.357  1.00  0.00    -0.327 N 
ATOM     16  C   UNL A   1      33.474  22.103  25.470  1.00  0.00     0.071 C 
ATOM     17  H   UNL A   1      32.592  24.147  24.037  1.00  0.00     0.348 HD
BRANCH  15  18
ATOM     18  C   UNL A   1      33.440  25.574  24.164  1.00  0.00     0.310 C 
BRANCH  18  19
ATOM     19  C   UNL A   1      33.186  26.420  22.881  1.00  0.00     0.252 C 
ATOM     20  C   UNL A   1      31.767  26.797  22.519  1.00  0.00     0.170 C 
ATOM     21  O   UNL A   1      33.767  25.896  21.676  1.00  0.00    -0.438 OA
ATOM     22  N   UNL A   1      31.623  26.293  21.198  1.00  0.00    -0.318 N 
ATOM     23  C   UNL A   1      32.810  25.845  20.707  1.00  0.00     0.407 C 
ATOM     24  H   UNL A   1      30.772  26.270  20.703  1.00  0.00     0.167 HD
ATOM     25  O   UNL A   1      32.983  25.438  19.568  1.00  0.00    -0.225 OA
ENDBRANCH  18  19
ENDBRANCH  15  18
ENDBRANCH   8   9
ENDBRANCH   6   8
ENDBRANCH   5   6
ENDBRANCH   4   5
ENDBRANCH   3   4
ENDBRANCH   2   3
ENDBRANCH   1   2
BRANCH   1  26
ATOM     26  C   UNL A   1      44.076  18.808  25.350  1.00  0.00     0.188 C 
BRANCH  26  27
ATOM     27  O   UNL A   1      44.124  19.915  24.464  1.00  0.00    -0.376 OA
BRANCH  27  28
ATOM     28  C   UNL A   1      44.581  21.161  24.953  1.00  0.00     0.202 C 
BRANCH  28  29
ATOM     29  C   UNL A   1      44.130  22.447  24.237  1.00  0.00     0.261 C 
BRANCH  29  30
ATOM     30  O   UNL A   1      43.437  23.432  25.036  1.00  0.00    -0.460 OA
BRANCH  30  31
ATOM     31  C   UNL A   1      44.048  24.638  25.160  1.00  0.00     0.338 C 
ATOM     32  O   UNL A   1      45.038  25.018  24.558  1.00  0.00    -0.246 OA
BRANCH  31  33
ATOM     33  C   UNL A   1      43.268  25.551  26.039  1.00  0.00     0.060 A 
ATOM     34  C   UNL A   1      43.801  26.816  26.334  1.00  0.00     0.016 A 
ATOM     35  C   UNL A   1      42.096  25.134  26.673  1.00  0.00     0.016 A 
ATOM     36  C   UNL A   1      43.204  27.635  27.300  1.00  0.00     0.010 A 
ATOM     37  C   UNL A   1      41.510  25.949  27.658  1.00  0.00     0.010 A 
ATOM     38  C   UNL A   1      42.086  27.185  28.013  1.00  0.00    -0.014 A 
BRANCH  38  39
ATOM     39  C   UNL A   1      41.648  27.916  29.240  1.00  0.00     0.031 A 
ATOM     40  C   UNL A   1      40.428  28.805  29.167  1.00  0.00     0.074 A 
ATOM     41  C   UNL A   1      42.277  27.765  30.421  1.00  0.00     0.049 A 
ATOM     42  N   UNL A   1      39.881  29.549  30.096  1.00  0.00    -0.248 NA
ATOM     43  C   UNL A   1      39.732  28.860  27.871  1.00  0.00     0.031 C 
ATOM     44  C   UNL A   1      43.438  26.910  30.661  1.00  0.00     0.029 A 
ATOM     45  N   UNL A   1      42.024  28.340  31.646  1.00  0.00    -0.354 N 
ATOM     46  C   UNL A   1      38.780  30.156  29.501  1.00  0.00     0.074 A 
ATOM     47  C   UNL A   1      38.760  29.725  28.119  1.00  0.00     0.031 C 
ATOM     48  C   UNL A   1      43.806  27.027  31.950  1.00  0.00     0.029 A 
ATOM     49  C   UNL A   1      42.927  27.986  32.621  1.00  0.00     0.049 A 
ATOM     50  H   UNL A   1      41.268  28.947  31.809  1.00  0.00     0.167 HD
ATOM     51  C   UNL A   1      37.858  30.984  30.050  1.00  0.00     0.037 A 
ATOM     52  C   UNL A   1      43.045  28.400  33.899  1.00  0.00     0.037 A 
ATOM     53  C   UNL A   1      37.862  31.423  31.422  1.00  0.00     0.049 A 
ATOM     54  C   UNL A   1      42.052  29.388  34.465  1.00  0.00     0.074 A 
ATOM     55  C   UNL A   1      36.962  32.257  32.064  1.00  0.00     0.029 A 
ATOM     56  N   UNL A   1      38.814  31.067  32.364  1.00  0.00    -0.354 N 
ATOM     57  N   UNL A   1      41.006  29.935  33.894  1.00  0.00    -0.248 NA
ATOM     58  C   UNL A   1      42.256  29.808  35.861  1.00  0.00     0.031 C 
ATOM     59  C   UNL A   1      37.397  32.449  33.379  1.00  0.00     0.029 A 
ATOM     60  C   UNL A   1      38.535  31.686  33.574  1.00  0.00     0.049 A 
ATOM     61  H   UNL A   1      39.574  30.465  32.200  1.00  0.00     0.167 HD
ATOM     62  C   UNL A   1      40.413  30.734  34.868  1.00  0.00     0.074 A 
ATOM     63  C   UNL A   1      41.201  30.581  36.072  1.00  0.00     0.031 C 
ATOM     64  C   UNL A   1      39.317  31.526  34.773  1.00  0.00     0.037 A 
BRANCH  51  65
ATOM     65  C   UNL A   1      36.755  31.488  29.161  1.00  0.00     0.057 A 
ATOM     66  C   UNL A   1      35.681  30.672  28.783  1.00  0.00     0.134 A 
ATOM     67  C   UNL A   1      36.731  32.824  28.738  1.00  0.00     0.134 A 
ATOM     68  F   UNL A   1      35.646  29.382  29.146  1.00  0.00    -0.206 F 
ATOM     69  C   UNL A   1      34.631  31.162  28.002  1.00  0.00     0.040 A 
ATOM     70  C   UNL A   1      35.673  33.332  27.981  1.00  0.00     0.040 A 
ATOM     71  F   UNL A   1      37.724  33.662  29.073  1.00  0.00    -0.206 F 
ATOM     72  C   UNL A   1      34.622  32.499  27.608  1.00  0.00     0.006 A 
ENDBRANCH  51  65
BRANCH  52  73
ATOM     73  C   UNL A   1      44.166  27.913  34.748  1.00  0.00     0.057 A 
ATOM     74  C   UNL A   1      44.041  26.762  35.536  1.00  0.00     0.134 A 
ATOM     75  C   UNL A   1      45.365  28.631  34.848  1.00  0.00     0.134 A 
ATOM     76  F   UNL A   1      42.906  26.047  35.511  1.00  0.00    -0.206 F 
ATOM     77  C   UNL A   1      45.050  26.362  36.416  1.00  0.00     0.040 A 
ATOM     78  C   UNL A   1      46.394  28.224  35.698  1.00  0.00     0.040 A 
ATOM     79  F   UNL A   1      45.551  29.743  34.123  1.00  0.00    -0.206 F 
ATOM     80  C   UNL A   1      46.233  27.093  36.495  1.00  0.00     0.006 A 
ENDBRANCH  52  73
BRANCH  64  81
ATOM     81  C   UNL A   1      38.880  32.259  36.014  1.00  0.00     0.057 A 
ATOM     82  C   UNL A   1      39.205  33.603  36.237  1.00  0.00     0.134 A 
ATOM     83  C   UNL A   1      38.114  31.612  36.993  1.00  0.00     0.134 A 
ATOM     84  F   UNL A   1      39.944  34.282  35.347  1.00  0.00    -0.206 F 
ATOM     85  C   UNL A   1      38.820  34.265  37.406  1.00  0.00     0.040 A 
ATOM     86  C   UNL A   1      37.695  32.272  38.149  1.00  0.00     0.040 A 
ATOM     87  F   UNL A   1      37.753  30.329  36.840  1.00  0.00    -0.206 F 
ATOM     88  C   UNL A   1      38.058  33.600  38.364  1.00  0.00     0.006 A 
ENDBRANCH  64  81
ENDBRANCH  38  39
ENDBRANCH  31  33
ENDBRANCH  30  31
ENDBRANCH  29  30
ENDBRANCH  28  29
ENDBRANCH  27  28
ENDBRANCH  26  27
ENDBRANCH   1  26
TORSDOF 20
ENDMDL
MODEL 3
REMARK VINA RESULT:     -10.9      2.596      3.942
REMARK SMILES O=C(C[C@H]1C[C@H]2CC[C@@H](C1)[N@H+]2C[C@@H]1CNC(=O)O1)OCCOCCOCCOC(=O)c1ccc(-c2c3nc(c(-c4c(F)cccc4F)c4ccc([nH]4)c(-c4c(F)cccc4F)c4nc(c(-c5c(F)cccc5F)c5ccc2[nH]5)C=C4)C=C3)cc1
REMARK SMILES IDX 23 1 22 2 21 3 20 4 19 5 2 6 1 7 3 8 4 9 5 10 10 11 6 12
REMARK SMILES IDX 9 13 7 14 11 15 8 16 12 18 13 19 14 20 18 21 15 22 16 23
REMARK SMILES IDX 17 25 24 26 25 27 26 28 27 29 28 30 29 31 30 32 31 33 32 34
REMARK SMILES IDX 84 35 33 36 83 37 34 38 35 39 36 40 77 41 37 42 82 43 76 44
REMARK SMILES IDX 78 45 38 46 81 47 75 48 74 49 39 51 65 52 48 53 64 54 49 55
REMARK SMILES IDX 52 56 63 57 79 58 50 59 51 60 62 62 80 63 53 64 40 65 41 66
REMARK SMILES IDX 46 67 42 68 43 69 45 70 47 71 44 72 66 73 67 74 72 75 68 76
REMARK SMILES IDX 69 77 71 78 73 79 70 80 54 81 55 82 60 83 56 84 57 85 59 86
REMARK SMILES IDX 61 87 58 88
REMARK H PARENT 11 17 15 24 78 50 52 61
REMARK Flexibility Score: inf
ROOT
ATOM      1  C   UNL A   1      42.020  18.895  26.349  1.00  0.00     0.188 C 
ENDROOT
BRANCH   1   2
ATOM      2  O   UNL A   1      41.011  19.609  25.661  1.00  0.00    -0.376 OA
BRANCH   2   3
ATOM      3  C   UNL A   1      40.110  20.368  26.464  1.00  0.00     0.202 C 
BRANCH   3   4
ATOM      4  C   UNL A   1      39.997  21.863  26.123  1.00  0.00     0.261 C 
BRANCH   4   5
ATOM      5  O   UNL A   1      38.595  22.184  26.118  1.00  0.00    -0.463 OA
BRANCH   5   6
ATOM      6  C   UNL A   1      38.153  23.462  26.116  1.00  0.00     0.306 C 
ATOM      7  O   UNL A   1      38.860  24.450  26.234  1.00  0.00    -0.252 OA
BRANCH   6   8
ATOM      8  C   UNL A   1      36.622  23.497  26.104  1.00  0.00     0.126 C 
BRANCH   8   9
ATOM      9  C   UNL A   1      36.044  22.141  25.652  1.00  0.00     0.012 C 
ATOM     10  C   UNL A   1      35.071  21.458  26.638  1.00  0.00     0.069 C 
ATOM     11  C   UNL A   1      35.572  22.316  24.196  1.00  0.00     0.069 C 
ATOM     12  C   UNL A   1      33.636  21.362  26.135  1.00  0.00     0.184 C 
ATOM     13  C   UNL A   1      34.066  22.240  24.036  1.00  0.00     0.184 C 
ATOM     14  C   UNL A   1      33.033  22.774  26.176  1.00  0.00     0.071 C 
ATOM     15  N   UNL A   1      33.553  21.064  24.718  1.00  0.00    -0.327 N 
ATOM     16  C   UNL A   1      33.367  23.372  24.808  1.00  0.00     0.071 C 
ATOM     17  H   UNL A   1      32.569  20.862  24.537  1.00  0.00     0.348 HD
BRANCH  15  18
ATOM     18  C   UNL A   1      33.732  19.746  24.120  1.00  0.00     0.310 C 
BRANCH  18  19
ATOM     19  C   UNL A   1      33.031  18.384  24.408  1.00  0.00     0.252 C 
ATOM     20  C   UNL A   1      32.540  18.093  25.808  1.00  0.00     0.170 C 
ATOM     21  O   UNL A   1      33.769  17.219  24.005  1.00  0.00    -0.438 OA
ATOM     22  N   UNL A   1      33.188  16.870  26.133  1.00  0.00    -0.318 N 
ATOM     23  C   UNL A   1      33.831  16.348  25.053  1.00  0.00     0.407 C 
ATOM     24  H   UNL A   1      33.174  16.455  27.025  1.00  0.00     0.167 HD
ATOM     25  O   UNL A   1      34.397  15.266  25.036  1.00  0.00    -0.225 OA
ENDBRANCH  18  19
ENDBRANCH  15  18
ENDBRANCH   8   9
ENDBRANCH   6   8
ENDBRANCH   5   6
ENDBRANCH   4   5
ENDBRANCH   3   4
ENDBRANCH   2   3
ENDBRANCH   1   2
BRANCH   1  26
ATOM     26  C   UNL A   1      43.405  18.901  25.667  1.00  0.00     0.188 C 
BRANCH  26  27
ATOM     27  O   UNL A   1      43.705  19.856  24.661  1.00  0.00    -0.376 OA
BRANCH  27  28
ATOM     28  C   UNL A   1      44.582  20.922  24.972  1.00  0.00     0.202 C 
BRANCH  28  29
ATOM     29  C   UNL A   1      44.533  22.196  24.110  1.00  0.00     0.261 C 
BRANCH  29  30
ATOM     30  O   UNL A   1      43.678  23.266  24.572  1.00  0.00    -0.460 OA
BRANCH  30  31
ATOM     31  C   UNL A   1      44.307  24.403  24.969  1.00  0.00     0.338 C 
ATOM     32  O   UNL A   1      45.408  24.788  24.616  1.00  0.00    -0.246 OA
BRANCH  31  33
ATOM     33  C   UNL A   1      43.414  25.247  25.809  1.00  0.00     0.060 A 
ATOM     34  C   UNL A   1      43.657  26.629  25.866  1.00  0.00     0.016 A 
ATOM     35  C   UNL A   1      42.437  24.687  26.633  1.00  0.00     0.016 A 
ATOM     36  C   UNL A   1      42.972  27.438  26.780  1.00  0.00     0.010 A 
ATOM     37  C   UNL A   1      41.765  25.498  27.566  1.00  0.00     0.010 A 
ATOM     38  C   UNL A   1      42.062  26.871  27.679  1.00  0.00    -0.014 A 
BRANCH  38  39
ATOM     39  C   UNL A   1      41.575  27.671  28.843  1.00  0.00     0.031 A 
ATOM     40  C   UNL A   1      42.296  27.553  30.166  1.00  0.00     0.074 A 
ATOM     41  C   UNL A   1      40.546  28.533  28.734  1.00  0.00     0.049 A 
ATOM     42  N   UNL A   1      42.037  28.134  31.312  1.00  0.00    -0.248 NA
ATOM     43  C   UNL A   1      43.467  26.662  30.199  1.00  0.00     0.031 C 
ATOM     44  C   UNL A   1      39.781  28.791  27.516  1.00  0.00     0.029 A 
ATOM     45  N   UNL A   1      39.964  29.351  29.676  1.00  0.00    -0.354 N 
ATOM     46  C   UNL A   1      43.011  27.681  32.198  1.00  0.00     0.074 A 
ATOM     47  C   UNL A   1      43.840  26.747  31.466  1.00  0.00     0.031 C 
ATOM     48  C   UNL A   1      38.819  29.693  27.788  1.00  0.00     0.029 A 
ATOM     49  C   UNL A   1      38.883  30.057  29.204  1.00  0.00     0.049 A 
ATOM     50  H   UNL A   1      40.291  29.424  30.601  1.00  0.00     0.167 HD
ATOM     51  C   UNL A   1      43.210  28.019  33.495  1.00  0.00     0.037 A 
ATOM     52  C   UNL A   1      38.029  30.884  29.842  1.00  0.00     0.037 A 
ATOM     53  C   UNL A   1      42.395  28.946  34.237  1.00  0.00     0.049 A 
ATOM     54  C   UNL A   1      38.223  31.180  31.310  1.00  0.00     0.074 A 
ATOM     55  C   UNL A   1      42.530  29.350  35.555  1.00  0.00     0.029 A 
ATOM     56  N   UNL A   1      41.290  29.611  33.730  1.00  0.00    -0.354 N 
ATOM     57  N   UNL A   1      39.160  30.761  32.126  1.00  0.00    -0.248 NA
ATOM     58  C   UNL A   1      37.242  32.076  31.942  1.00  0.00     0.031 C 
ATOM     59  C   UNL A   1      41.477  30.218  35.861  1.00  0.00     0.029 A 
ATOM     60  C   UNL A   1      40.721  30.403  34.717  1.00  0.00     0.049 A 
ATOM     61  H   UNL A   1      40.958  29.534  32.807  1.00  0.00     0.167 HD
ATOM     62  C   UNL A   1      38.898  31.365  33.352  1.00  0.00     0.074 A 
ATOM     63  C   UNL A   1      37.731  32.199  33.167  1.00  0.00     0.031 C 
ATOM     64  C   UNL A   1      39.563  31.238  34.527  1.00  0.00     0.037 A 
BRANCH  51  65
ATOM     65  C   UNL A   1      44.361  27.373  34.215  1.00  0.00     0.057 A 
ATOM     66  C   UNL A   1      45.620  27.983  34.290  1.00  0.00     0.134 A 
ATOM     67  C   UNL A   1      44.188  26.163  34.900  1.00  0.00     0.134 A 
ATOM     68  F   UNL A   1      45.857  29.136  33.649  1.00  0.00    -0.206 F 
ATOM     69  C   UNL A   1      46.670  27.404  35.007  1.00  0.00     0.040 A 
ATOM     70  C   UNL A   1      45.222  25.590  35.643  1.00  0.00     0.040 A 
ATOM     71  F   UNL A   1      43.005  25.531  34.878  1.00  0.00    -0.206 F 
ATOM     72  C   UNL A   1      46.468  26.208  35.694  1.00  0.00     0.006 A 
ENDBRANCH  51  65
BRANCH  52  73
ATOM     73  C   UNL A   1      36.876  31.483  29.116  1.00  0.00     0.057 A 
ATOM     74  C   UNL A   1      36.868  32.833  28.742  1.00  0.00     0.134 A 
ATOM     75  C   UNL A   1      35.723  30.737  28.843  1.00  0.00     0.134 A 
ATOM     76  F   UNL A   1      37.930  33.612  29.003  1.00  0.00    -0.206 F 
ATOM     77  C   UNL A   1      35.747  33.426  28.158  1.00  0.00     0.040 A 
ATOM     78  C   UNL A   1      34.608  31.308  28.229  1.00  0.00     0.040 A 
ATOM     79  F   UNL A   1      35.662  29.439  29.175  1.00  0.00    -0.206 F 
ATOM     80  C   UNL A   1      34.613  32.660  27.896  1.00  0.00     0.006 A 
ENDBRANCH  52  73
BRANCH  64  81
ATOM     81  C   UNL A   1      39.069  32.049  35.696  1.00  0.00     0.057 A 
ATOM     82  C   UNL A   1      39.438  33.388  35.881  1.00  0.00     0.134 A 
ATOM     83  C   UNL A   1      38.203  31.485  36.643  1.00  0.00     0.134 A 
ATOM     84  F   UNL A   1      40.271  33.990  35.019  1.00  0.00    -0.206 F 
ATOM     85  C   UNL A   1      38.998  34.123  36.985  1.00  0.00     0.040 A 
ATOM     86  C   UNL A   1      37.731  32.219  37.732  1.00  0.00     0.040 A 
ATOM     87  F   UNL A   1      37.796  30.212  36.523  1.00  0.00    -0.206 F 
ATOM     88  C   UNL A   1      38.138  33.539  37.912  1.00  0.00     0.006 A 
ENDBRANCH  64  81
ENDBRANCH  38  39
ENDBRANCH  31  33
ENDBRANCH  30  31
ENDBRANCH  29  30
ENDBRANCH  28  29
ENDBRANCH  27  28
ENDBRANCH  26  27
ENDBRANCH   1  26
TORSDOF 20
ENDMDL
