MODEL 1
REMARK VINA RESULT:      -9.8      0.000      0.000
REMARK SMILES NC(=O)c1c(F)cccc1O[C@@H](F)C(=O)OCCOCCOCCOC(=O)c1ccc(-c2c3nc(c(-c4c(F)cccc4F)c4ccc([nH]4)c(-c4c(F)cccc4F)c4nc(c(-c5c(F)cccc5F)c5ccc2[nH]5)C=C4)C=C3)cc1
REMARK SMILES IDX 20 1 19 2 18 3 17 4 16 5 14 6 15 7 12 8 13 9 11 10 10 11
REMARK SMILES IDX 4 12 5 13 6 14 7 15 9 16 8 17 2 18 1 19 3 22 21 23 22 24
REMARK SMILES IDX 23 25 24 26 25 27 26 28 27 29 28 30 29 31 81 32 30 33 80 34
REMARK SMILES IDX 31 35 32 36 33 37 74 38 34 39 79 40 73 41 75 42 35 43 78 44
REMARK SMILES IDX 72 45 71 46 36 48 62 49 45 50 61 51 46 52 49 53 60 54 76 55
REMARK SMILES IDX 47 56 48 57 59 59 77 60 50 61 37 62 38 63 43 64 39 65 40 66
REMARK SMILES IDX 42 67 44 68 41 69 63 70 64 71 69 72 65 73 66 74 68 75 70 76
REMARK SMILES IDX 67 77 51 78 52 79 57 80 53 81 54 82 56 83 58 84 55 85
REMARK H PARENT 1 20 1 21 75 47 49 58
REMARK Flexibility Score: inf
ROOT
ATOM      1  C   UNL A   1      32.656  29.053  24.658  1.00  0.00     0.188 C 
ENDROOT
BRANCH   1   2
ATOM      2  O   UNL A   1      32.741  27.682  24.287  1.00  0.00    -0.376 OA
BRANCH   2   3
ATOM      3  C   UNL A   1      31.532  26.973  24.018  1.00  0.00     0.202 C 
BRANCH   3   4
ATOM      4  C   UNL A   1      30.822  26.302  25.202  1.00  0.00     0.261 C 
BRANCH   4   5
ATOM      5  O   UNL A   1      31.004  24.872  25.233  1.00  0.00    -0.458 OA
BRANCH   5   6
ATOM      6  C   UNL A   1      31.660  24.362  26.319  1.00  0.00     0.381 C 
ATOM      7  O   UNL A   1      31.086  23.872  27.287  1.00  0.00    -0.244 OA
BRANCH   6   8
ATOM      8  C   UNL A   1      33.205  24.306  26.108  1.00  0.00     0.461 C 
ATOM      9  F   UNL A   1      33.549  24.336  24.784  1.00  0.00    -0.189 F 
BRANCH   8  10
ATOM     10  O   UNL A   1      34.191  23.533  26.760  1.00  0.00    -0.450 OA
BRANCH  10  11
ATOM     11  C   UNL A   1      35.130  22.739  26.183  1.00  0.00     0.139 A 
ATOM     12  C   UNL A   1      35.056  21.431  25.697  1.00  0.00     0.117 A 
ATOM     13  C   UNL A   1      36.216  20.817  25.197  1.00  0.00     0.139 A 
ATOM     14  F   UNL A   1      36.179  19.559  24.729  1.00  0.00    -0.206 F 
ATOM     15  C   UNL A   1      37.440  21.481  25.154  1.00  0.00     0.040 A 
ATOM     16  C   UNL A   1      36.374  23.405  26.113  1.00  0.00     0.047 A 
ATOM     17  C   UNL A   1      37.521  22.787  25.608  1.00  0.00     0.007 A 
BRANCH  12  18
ATOM     18  C   UNL A   1      33.803  20.667  25.609  1.00  0.00     0.255 C 
ATOM     19  N   UNL A   1      33.379  20.030  26.739  1.00  0.00    -0.365 N 
ATOM     20  H   UNL A   1      32.545  19.507  26.727  1.00  0.00     0.159 HD
ATOM     21  H   UNL A   1      33.907  20.096  27.568  1.00  0.00     0.159 HD
ATOM     22  O   UNL A   1      33.138  20.647  24.585  1.00  0.00    -0.269 OA
ENDBRANCH  12  18
ENDBRANCH  10  11
ENDBRANCH   8  10
ENDBRANCH   6   8
ENDBRANCH   5   6
ENDBRANCH   4   5
ENDBRANCH   3   4
ENDBRANCH   2   3
ENDBRANCH   1   2
BRANCH   1  23
ATOM     23  C   UNL A   1      32.583  29.414  26.155  1.00  0.00     0.188 C 
BRANCH  23  24
ATOM     24  O   UNL A   1      32.759  30.789  26.433  1.00  0.00    -0.376 OA
BRANCH  24  25
ATOM     25  C   UNL A   1      31.579  31.524  26.723  1.00  0.00     0.202 C 
BRANCH  25  26
ATOM     26  C   UNL A   1      31.703  33.051  26.884  1.00  0.00     0.261 C 
BRANCH  26  27
ATOM     27  O   UNL A   1      33.040  33.582  26.961  1.00  0.00    -0.460 OA
BRANCH  27  28
ATOM     28  C   UNL A   1      33.446  34.091  28.147  1.00  0.00     0.338 C 
ATOM     29  O   UNL A   1      32.854  34.903  28.836  1.00  0.00    -0.246 OA
BRANCH  28  30
ATOM     30  C   UNL A   1      34.626  33.308  28.591  1.00  0.00     0.060 A 
ATOM     31  C   UNL A   1      34.437  31.992  29.040  1.00  0.00     0.016 A 
ATOM     32  C   UNL A   1      35.913  33.846  28.522  1.00  0.00     0.016 A 
ATOM     33  C   UNL A   1      35.533  31.220  29.435  1.00  0.00     0.010 A 
ATOM     34  C   UNL A   1      37.006  33.080  28.944  1.00  0.00     0.010 A 
ATOM     35  C   UNL A   1      36.821  31.772  29.425  1.00  0.00    -0.014 A 
BRANCH  35  36
ATOM     36  C   UNL A   1      37.945  31.050  30.074  1.00  0.00     0.031 A 
ATOM     37  C   UNL A   1      38.238  31.337  31.522  1.00  0.00     0.074 A 
ATOM     38  C   UNL A   1      38.689  30.150  29.406  1.00  0.00     0.049 A 
ATOM     39  N   UNL A   1      39.195  30.874  32.284  1.00  0.00    -0.248 NA
ATOM     40  C   UNL A   1      37.326  32.272  32.202  1.00  0.00     0.031 C 
ATOM     41  C   UNL A   1      38.487  29.752  28.016  1.00  0.00     0.029 A 
ATOM     42  N   UNL A   1      39.777  29.416  29.815  1.00  0.00    -0.354 N 
ATOM     43  C   UNL A   1      39.006  31.466  33.526  1.00  0.00     0.074 A 
ATOM     44  C   UNL A   1      37.859  32.340  33.412  1.00  0.00     0.031 C 
ATOM     45  C   UNL A   1      39.430  28.852  27.681  1.00  0.00     0.029 A 
ATOM     46  C   UNL A   1      40.321  28.637  28.822  1.00  0.00     0.049 A 
ATOM     47  H   UNL A   1      40.131  29.444  30.732  1.00  0.00     0.167 HD
ATOM     48  C   UNL A   1      39.720  31.290  34.663  1.00  0.00     0.037 A 
ATOM     49  C   UNL A   1      41.425  27.862  28.825  1.00  0.00     0.037 A 
ATOM     50  C   UNL A   1      40.857  30.417  34.779  1.00  0.00     0.049 A 
ATOM     51  C   UNL A   1      42.246  27.736  30.082  1.00  0.00     0.074 A 
ATOM     52  C   UNL A   1      41.623  30.154  35.901  1.00  0.00     0.029 A 
ATOM     53  N   UNL A   1      41.397  29.675  33.742  1.00  0.00    -0.354 N 
ATOM     54  N   UNL A   1      42.043  28.279  31.259  1.00  0.00    -0.248 NA
ATOM     55  C   UNL A   1      43.450  26.892  30.015  1.00  0.00     0.031 C 
ATOM     56  C   UNL A   1      42.663  29.301  35.529  1.00  0.00     0.029 A 
ATOM     57  C   UNL A   1      42.508  28.981  34.190  1.00  0.00     0.049 A 
ATOM     58  H   UNL A   1      41.044  29.647  32.823  1.00  0.00     0.167 HD
ATOM     59  C   UNL A   1      43.076  27.826  32.073  1.00  0.00     0.074 A 
ATOM     60  C   UNL A   1      43.896  26.953  31.263  1.00  0.00     0.031 C 
ATOM     61  C   UNL A   1      43.320  28.110  33.377  1.00  0.00     0.037 A 
BRANCH  48  62
ATOM     62  C   UNL A   1      39.308  32.068  35.877  1.00  0.00     0.057 A 
ATOM     63  C   UNL A   1      38.345  31.557  36.755  1.00  0.00     0.134 A 
ATOM     64  C   UNL A   1      39.802  33.354  36.133  1.00  0.00     0.134 A 
ATOM     65  F   UNL A   1      37.831  30.332  36.565  1.00  0.00    -0.206 F 
ATOM     66  C   UNL A   1      37.869  32.305  37.832  1.00  0.00     0.040 A 
ATOM     67  C   UNL A   1      39.352  34.103  37.222  1.00  0.00     0.040 A 
ATOM     68  F   UNL A   1      40.738  33.894  35.338  1.00  0.00    -0.206 F 
ATOM     69  C   UNL A   1      38.374  33.583  38.067  1.00  0.00     0.006 A 
ENDBRANCH  48  62
BRANCH  49  70
ATOM     70  C   UNL A   1      41.828  27.146  27.585  1.00  0.00     0.057 A 
ATOM     71  C   UNL A   1      41.480  25.806  27.372  1.00  0.00     0.134 A 
ATOM     72  C   UNL A   1      42.569  27.784  26.584  1.00  0.00     0.134 A 
ATOM     73  F   UNL A   1      40.763  25.138  28.289  1.00  0.00    -0.206 F 
ATOM     74  C   UNL A   1      41.874  25.120  26.222  1.00  0.00     0.040 A 
ATOM     75  C   UNL A   1      42.948  27.118  25.417  1.00  0.00     0.040 A 
ATOM     76  F   UNL A   1      42.908  29.075  26.715  1.00  0.00    -0.206 F 
ATOM     77  C   UNL A   1      42.608  25.778  25.238  1.00  0.00     0.006 A 
ENDBRANCH  49  70
BRANCH  61  78
ATOM     78  C   UNL A   1      44.508  27.463  34.030  1.00  0.00     0.057 A 
ATOM     79  C   UNL A   1      44.387  26.213  34.652  1.00  0.00     0.134 A 
ATOM     80  C   UNL A   1      45.743  28.115  34.127  1.00  0.00     0.134 A 
ATOM     81  F   UNL A   1      43.228  25.539  34.611  1.00  0.00    -0.206 F 
ATOM     82  C   UNL A   1      45.447  25.643  35.360  1.00  0.00     0.040 A 
ATOM     83  C   UNL A   1      46.819  27.542  34.808  1.00  0.00     0.040 A 
ATOM     84  F   UNL A   1      45.927  29.312  33.549  1.00  0.00    -0.206 F 
ATOM     85  C   UNL A   1      46.668  26.307  35.436  1.00  0.00     0.006 A 
ENDBRANCH  61  78
ENDBRANCH  35  36
ENDBRANCH  28  30
ENDBRANCH  27  28
ENDBRANCH  26  27
ENDBRANCH  25  26
ENDBRANCH  24  25
ENDBRANCH  23  24
ENDBRANCH   1  23
TORSDOF 20
ENDMDL
MODEL 2
REMARK VINA RESULT:      -9.8      1.446      2.056
REMARK SMILES NC(=O)c1c(F)cccc1O[C@@H](F)C(=O)OCCOCCOCCOC(=O)c1ccc(-c2c3nc(c(-c4c(F)cccc4F)c4ccc([nH]4)c(-c4c(F)cccc4F)c4nc(c(-c5c(F)cccc5F)c5ccc2[nH]5)C=C4)C=C3)cc1
REMARK SMILES IDX 20 1 19 2 18 3 17 4 16 5 14 6 15 7 12 8 13 9 11 10 10 11
REMARK SMILES IDX 4 12 5 13 6 14 7 15 9 16 8 17 2 18 1 19 3 22 21 23 22 24
REMARK SMILES IDX 23 25 24 26 25 27 26 28 27 29 28 30 29 31 81 32 30 33 80 34
REMARK SMILES IDX 31 35 32 36 33 37 74 38 34 39 79 40 73 41 75 42 35 43 78 44
REMARK SMILES IDX 72 45 71 46 36 48 62 49 45 50 61 51 46 52 49 53 60 54 76 55
REMARK SMILES IDX 47 56 48 57 59 59 77 60 50 61 37 62 38 63 43 64 39 65 40 66
REMARK SMILES IDX 42 67 44 68 41 69 63 70 64 71 69 72 65 73 66 74 68 75 70 76
REMARK SMILES IDX 67 77 51 78 52 79 57 80 53 81 54 82 56 83 58 84 55 85
REMARK H PARENT 1 20 1 21 75 47 49 58
REMARK Flexibility Score: inf
ROOT
ATOM      1  C   UNL A   1      32.908  28.752  24.930  1.00  0.00     0.188 C 
ENDROOT
BRANCH   1   2
ATOM      2  O   UNL A   1      32.966  27.332  24.860  1.00  0.00    -0.376 OA
BRANCH   2   3
ATOM      3  C   UNL A   1      33.866  26.644  25.727  1.00  0.00     0.202 C 
BRANCH   3   4
ATOM      4  C   UNL A   1      33.768  25.113  25.785  1.00  0.00     0.261 C 
BRANCH   4   5
ATOM      5  O   UNL A   1      32.418  24.627  25.638  1.00  0.00    -0.458 OA
BRANCH   5   6
ATOM      6  C   UNL A   1      31.942  23.831  26.644  1.00  0.00     0.381 C 
ATOM      7  O   UNL A   1      30.882  24.039  27.227  1.00  0.00    -0.244 OA
BRANCH   6   8
ATOM      8  C   UNL A   1      32.798  22.540  26.836  1.00  0.00     0.461 C 
ATOM      9  F   UNL A   1      33.497  22.552  28.013  1.00  0.00    -0.189 F 
BRANCH   8  10
ATOM     10  O   UNL A   1      33.583  21.816  25.912  1.00  0.00    -0.450 OA
BRANCH  10  11
ATOM     11  C   UNL A   1      33.141  21.026  24.899  1.00  0.00     0.139 A 
ATOM     12  C   UNL A   1      32.760  21.336  23.590  1.00  0.00     0.117 A 
ATOM     13  C   UNL A   1      32.275  20.316  22.756  1.00  0.00     0.139 A 
ATOM     14  F   UNL A   1      31.896  20.582  21.496  1.00  0.00    -0.206 F 
ATOM     15  C   UNL A   1      32.178  18.995  23.189  1.00  0.00     0.040 A 
ATOM     16  C   UNL A   1      33.055  19.679  25.315  1.00  0.00     0.047 A 
ATOM     17  C   UNL A   1      32.578  18.670  24.475  1.00  0.00     0.007 A 
BRANCH  12  18
ATOM     18  C   UNL A   1      32.904  22.674  22.998  1.00  0.00     0.255 C 
ATOM     19  N   UNL A   1      31.771  23.425  22.868  1.00  0.00    -0.365 N 
ATOM     20  H   UNL A   1      31.819  24.326  22.477  1.00  0.00     0.159 HD
ATOM     21  H   UNL A   1      30.904  23.064  23.168  1.00  0.00     0.159 HD
ATOM     22  O   UNL A   1      33.996  23.120  22.685  1.00  0.00    -0.269 OA
ENDBRANCH  12  18
ENDBRANCH  10  11
ENDBRANCH   8  10
ENDBRANCH   6   8
ENDBRANCH   5   6
ENDBRANCH   4   5
ENDBRANCH   3   4
ENDBRANCH   2   3
ENDBRANCH   1   2
BRANCH   1  23
ATOM     23  C   UNL A   1      31.690  29.412  25.607  1.00  0.00     0.188 C 
BRANCH  23  24
ATOM     24  O   UNL A   1      32.001  30.559  26.374  1.00  0.00    -0.376 OA
BRANCH  24  25
ATOM     25  C   UNL A   1      31.196  31.706  26.137  1.00  0.00     0.202 C 
BRANCH  25  26
ATOM     26  C   UNL A   1      31.528  32.992  26.918  1.00  0.00     0.261 C 
BRANCH  26  27
ATOM     27  O   UNL A   1      32.906  33.409  26.911  1.00  0.00    -0.460 OA
BRANCH  27  28
ATOM     28  C   UNL A   1      33.382  34.027  28.016  1.00  0.00     0.338 C 
ATOM     29  O   UNL A   1      32.837  34.915  28.650  1.00  0.00    -0.246 OA
BRANCH  28  30
ATOM     30  C   UNL A   1      34.573  33.271  28.477  1.00  0.00     0.060 A 
ATOM     31  C   UNL A   1      34.422  31.924  28.843  1.00  0.00     0.016 A 
ATOM     32  C   UNL A   1      35.836  33.866  28.504  1.00  0.00     0.016 A 
ATOM     33  C   UNL A   1      35.532  31.178  29.250  1.00  0.00     0.010 A 
ATOM     34  C   UNL A   1      36.940  33.125  28.939  1.00  0.00     0.010 A 
ATOM     35  C   UNL A   1      36.791  31.784  29.336  1.00  0.00    -0.014 A 
BRANCH  35  36
ATOM     36  C   UNL A   1      37.914  31.075  30.002  1.00  0.00     0.031 A 
ATOM     37  C   UNL A   1      38.184  31.366  31.453  1.00  0.00     0.074 A 
ATOM     38  C   UNL A   1      38.677  30.182  29.346  1.00  0.00     0.049 A 
ATOM     39  N   UNL A   1      39.136  30.915  32.229  1.00  0.00    -0.248 NA
ATOM     40  C   UNL A   1      37.254  32.293  32.119  1.00  0.00     0.031 C 
ATOM     41  C   UNL A   1      38.498  29.779  27.954  1.00  0.00     0.029 A 
ATOM     42  N   UNL A   1      39.766  29.459  29.770  1.00  0.00    -0.354 N 
ATOM     43  C   UNL A   1      38.924  31.506  33.468  1.00  0.00     0.074 A 
ATOM     44  C   UNL A   1      37.769  32.368  33.337  1.00  0.00     0.031 C 
ATOM     45  C   UNL A   1      39.454  28.889  27.632  1.00  0.00     0.029 A 
ATOM     46  C   UNL A   1      40.332  28.685  28.785  1.00  0.00     0.049 A 
ATOM     47  H   UNL A   1      40.108  29.492  30.692  1.00  0.00     0.167 HD
ATOM     48  C   UNL A   1      39.624  31.339  34.614  1.00  0.00     0.037 A 
ATOM     49  C   UNL A   1      41.443  27.921  28.805  1.00  0.00     0.037 A 
ATOM     50  C   UNL A   1      40.768  30.478  34.747  1.00  0.00     0.049 A 
ATOM     51  C   UNL A   1      42.249  27.805  30.073  1.00  0.00     0.074 A 
ATOM     52  C   UNL A   1      41.522  30.225  35.880  1.00  0.00     0.029 A 
ATOM     53  N   UNL A   1      41.331  29.740  33.718  1.00  0.00    -0.354 N 
ATOM     54  N   UNL A   1      42.024  28.348  31.247  1.00  0.00    -0.248 NA
ATOM     55  C   UNL A   1      43.462  26.974  30.024  1.00  0.00     0.031 C 
ATOM     56  C   UNL A   1      42.576  29.382  35.523  1.00  0.00     0.029 A 
ATOM     57  C   UNL A   1      42.442  29.058  34.182  1.00  0.00     0.049 A 
ATOM     58  H   UNL A   1      40.990  29.707  32.795  1.00  0.00     0.167 HD
ATOM     59  C   UNL A   1      43.051  27.906  32.075  1.00  0.00     0.074 A 
ATOM     60  C   UNL A   1      43.891  27.041  31.277  1.00  0.00     0.031 C 
ATOM     61  C   UNL A   1      43.274  28.195  33.382  1.00  0.00     0.037 A 
BRANCH  48  62
ATOM     62  C   UNL A   1      39.188  32.114  35.821  1.00  0.00     0.057 A 
ATOM     63  C   UNL A   1      38.280  31.560  36.732  1.00  0.00     0.134 A 
ATOM     64  C   UNL A   1      39.600  33.435  36.040  1.00  0.00     0.134 A 
ATOM     65  F   UNL A   1      37.845  30.300  36.579  1.00  0.00    -0.206 F 
ATOM     66  C   UNL A   1      37.780  32.298  37.804  1.00  0.00     0.040 A 
ATOM     67  C   UNL A   1      39.126  34.176  37.124  1.00  0.00     0.040 A 
ATOM     68  F   UNL A   1      40.481  34.019  35.213  1.00  0.00    -0.206 F 
ATOM     69  C   UNL A   1      38.203  33.611  38.002  1.00  0.00     0.006 A 
ENDBRANCH  48  62
BRANCH  49  70
ATOM     70  C   UNL A   1      41.870  27.208  27.571  1.00  0.00     0.057 A 
ATOM     71  C   UNL A   1      41.478  25.887  27.321  1.00  0.00     0.134 A 
ATOM     72  C   UNL A   1      42.680  27.830  26.614  1.00  0.00     0.134 A 
ATOM     73  F   UNL A   1      40.695  25.236  28.195  1.00  0.00    -0.206 F 
ATOM     74  C   UNL A   1      41.893  25.202  26.178  1.00  0.00     0.040 A 
ATOM     75  C   UNL A   1      43.083  27.166  25.453  1.00  0.00     0.040 A 
ATOM     76  F   UNL A   1      43.066  29.103  26.781  1.00  0.00    -0.206 F 
ATOM     77  C   UNL A   1      42.696  25.844  25.237  1.00  0.00     0.006 A 
ENDBRANCH  49  70
BRANCH  61  78
ATOM     78  C   UNL A   1      44.459  27.561  34.052  1.00  0.00     0.057 A 
ATOM     79  C   UNL A   1      45.724  28.164  33.985  1.00  0.00     0.134 A 
ATOM     80  C   UNL A   1      44.373  26.313  34.680  1.00  0.00     0.134 A 
ATOM     81  F   UNL A   1      45.882  29.353  33.385  1.00  0.00    -0.206 F 
ATOM     82  C   UNL A   1      46.859  27.540  34.504  1.00  0.00     0.040 A 
ATOM     83  C   UNL A   1      45.497  25.692  35.228  1.00  0.00     0.040 A 
ATOM     84  F   UNL A   1      43.192  25.685  34.783  1.00  0.00    -0.206 F 
ATOM     85  C   UNL A   1      46.747  26.302  35.130  1.00  0.00     0.006 A 
ENDBRANCH  61  78
ENDBRANCH  35  36
ENDBRANCH  28  30
ENDBRANCH  27  28
ENDBRANCH  26  27
ENDBRANCH  25  26
ENDBRANCH  24  25
ENDBRANCH  23  24
ENDBRANCH   1  23
TORSDOF 20
ENDMDL
MODEL 3
REMARK VINA RESULT:      -9.7      1.375      6.462
REMARK SMILES NC(=O)c1c(F)cccc1O[C@@H](F)C(=O)OCCOCCOCCOC(=O)c1ccc(-c2c3nc(c(-c4c(F)cccc4F)c4ccc([nH]4)c(-c4c(F)cccc4F)c4nc(c(-c5c(F)cccc5F)c5ccc2[nH]5)C=C4)C=C3)cc1
REMARK SMILES IDX 20 1 19 2 18 3 17 4 16 5 14 6 15 7 12 8 13 9 11 10 10 11
REMARK SMILES IDX 4 12 5 13 6 14 7 15 9 16 8 17 2 18 1 19 3 22 21 23 22 24
REMARK SMILES IDX 23 25 24 26 25 27 26 28 27 29 28 30 29 31 81 32 30 33 80 34
REMARK SMILES IDX 31 35 32 36 33 37 74 38 34 39 79 40 73 41 75 42 35 43 78 44
REMARK SMILES IDX 72 45 71 46 36 48 62 49 45 50 61 51 46 52 49 53 60 54 76 55
REMARK SMILES IDX 47 56 48 57 59 59 77 60 50 61 37 62 38 63 43 64 39 65 40 66
REMARK SMILES IDX 42 67 44 68 41 69 63 70 64 71 69 72 65 73 66 74 68 75 70 76
REMARK SMILES IDX 67 77 51 78 52 79 57 80 53 81 54 82 56 83 58 84 55 85
REMARK H PARENT 1 20 1 21 75 47 49 58
REMARK Flexibility Score: inf
ROOT
ATOM      1  C   UNL A   1      34.342  28.782  26.634  1.00  0.00     0.188 C 
ENDROOT
BRANCH   1   2
ATOM      2  O   UNL A   1      33.486  27.978  25.831  1.00  0.00    -0.376 OA
BRANCH   2   3
ATOM      3  C   UNL A   1      33.462  26.570  26.059  1.00  0.00     0.202 C 
BRANCH   3   4
ATOM      4  C   UNL A   1      32.142  25.829  25.798  1.00  0.00     0.261 C 
BRANCH   4   5
ATOM      5  O   UNL A   1      32.024  24.604  26.548  1.00  0.00    -0.458 OA
BRANCH   5   6
ATOM      6  C   UNL A   1      31.262  23.615  25.989  1.00  0.00     0.381 C 
ATOM      7  O   UNL A   1      30.365  23.031  26.588  1.00  0.00    -0.244 OA
BRANCH   6   8
ATOM      8  C   UNL A   1      31.537  23.446  24.461  1.00  0.00     0.461 C 
ATOM      9  F   UNL A   1      30.406  23.615  23.709  1.00  0.00    -0.189 F 
BRANCH   8  10
ATOM     10  O   UNL A   1      32.339  22.509  23.774  1.00  0.00    -0.450 OA
BRANCH  10  11
ATOM     11  C   UNL A   1      33.662  22.262  23.963  1.00  0.00     0.139 A 
ATOM     12  C   UNL A   1      34.318  21.221  24.625  1.00  0.00     0.117 A 
ATOM     13  C   UNL A   1      35.718  21.245  24.724  1.00  0.00     0.139 A 
ATOM     14  F   UNL A   1      36.378  20.263  25.359  1.00  0.00    -0.206 F 
ATOM     15  C   UNL A   1      36.479  22.270  24.165  1.00  0.00     0.040 A 
ATOM     16  C   UNL A   1      34.448  23.283  23.384  1.00  0.00     0.047 A 
ATOM     17  C   UNL A   1      35.842  23.294  23.483  1.00  0.00     0.007 A 
BRANCH  12  18
ATOM     18  C   UNL A   1      33.627  20.045  25.174  1.00  0.00     0.255 C 
ATOM     19  N   UNL A   1      33.259  20.093  26.487  1.00  0.00    -0.365 N 
ATOM     20  H   UNL A   1      32.794  19.328  26.897  1.00  0.00     0.159 HD
ATOM     21  H   UNL A   1      33.458  20.894  27.025  1.00  0.00     0.159 HD
ATOM     22  O   UNL A   1      33.344  19.086  24.473  1.00  0.00    -0.269 OA
ENDBRANCH  12  18
ENDBRANCH  10  11
ENDBRANCH   8  10
ENDBRANCH   6   8
ENDBRANCH   5   6
ENDBRANCH   4   5
ENDBRANCH   3   4
ENDBRANCH   2   3
ENDBRANCH   1   2
BRANCH   1  23
ATOM     23  C   UNL A   1      33.787  30.091  27.230  1.00  0.00     0.188 C 
BRANCH  23  24
ATOM     24  O   UNL A   1      32.375  30.157  27.280  1.00  0.00    -0.376 OA
BRANCH  24  25
ATOM     25  C   UNL A   1      31.770  31.185  26.509  1.00  0.00     0.202 C 
BRANCH  25  26
ATOM     26  C   UNL A   1      31.771  32.612  27.088  1.00  0.00     0.261 C 
BRANCH  26  27
ATOM     27  O   UNL A   1      33.050  33.267  27.183  1.00  0.00    -0.460 OA
BRANCH  27  28
ATOM     28  C   UNL A   1      33.230  34.153  28.190  1.00  0.00     0.338 C 
ATOM     29  O   UNL A   1      32.489  35.071  28.498  1.00  0.00    -0.246 OA
BRANCH  28  30
ATOM     30  C   UNL A   1      34.363  33.669  29.017  1.00  0.00     0.060 A 
ATOM     31  C   UNL A   1      35.639  34.211  28.802  1.00  0.00     0.016 A 
ATOM     32  C   UNL A   1      34.164  32.726  30.027  1.00  0.00     0.016 A 
ATOM     33  C   UNL A   1      36.720  33.798  29.588  1.00  0.00     0.010 A 
ATOM     34  C   UNL A   1      35.252  32.294  30.794  1.00  0.00     0.010 A 
ATOM     35  C   UNL A   1      36.540  32.809  30.564  1.00  0.00    -0.014 A 
BRANCH  35  36
ATOM     36  C   UNL A   1      37.719  32.191  31.221  1.00  0.00     0.031 A 
ATOM     37  C   UNL A   1      38.464  31.110  30.486  1.00  0.00     0.074 A 
ATOM     38  C   UNL A   1      38.136  32.579  32.441  1.00  0.00     0.049 A 
ATOM     39  N   UNL A   1      39.483  30.389  30.877  1.00  0.00    -0.248 NA
ATOM     40  C   UNL A   1      37.994  30.801  29.125  1.00  0.00     0.031 C 
ATOM     41  C   UNL A   1      37.530  33.639  33.242  1.00  0.00     0.029 A 
ATOM     42  N   UNL A   1      39.166  32.113  33.220  1.00  0.00    -0.354 N 
ATOM     43  C   UNL A   1      39.771  29.539  29.817  1.00  0.00     0.074 A 
ATOM     44  C   UNL A   1      38.806  29.815  28.775  1.00  0.00     0.031 C 
ATOM     45  C   UNL A   1      38.193  33.735  34.408  1.00  0.00     0.029 A 
ATOM     46  C   UNL A   1      39.248  32.721  34.449  1.00  0.00     0.049 A 
ATOM     47  H   UNL A   1      39.789  31.410  32.925  1.00  0.00     0.167 HD
ATOM     48  C   UNL A   1      40.757  28.618  29.717  1.00  0.00     0.037 A 
ATOM     49  C   UNL A   1      40.061  32.471  35.496  1.00  0.00     0.037 A 
ATOM     50  C   UNL A   1      41.722  28.347  30.749  1.00  0.00     0.049 A 
ATOM     51  C   UNL A   1      41.107  31.391  35.389  1.00  0.00     0.074 A 
ATOM     52  C   UNL A   1      42.775  27.450  30.722  1.00  0.00     0.029 A 
ATOM     53  N   UNL A   1      41.747  28.958  31.992  1.00  0.00    -0.354 N 
ATOM     54  N   UNL A   1      41.388  30.611  34.372  1.00  0.00    -0.248 NA
ATOM     55  C   UNL A   1      41.948  31.154  36.573  1.00  0.00     0.031 C 
ATOM     56  C   UNL A   1      43.401  27.475  31.970  1.00  0.00     0.029 A 
ATOM     57  C   UNL A   1      42.777  28.434  32.753  1.00  0.00     0.049 A 
ATOM     58  H   UNL A   1      41.124  29.661  32.289  1.00  0.00     0.167 HD
ATOM     59  C   UNL A   1      42.448  29.811  34.785  1.00  0.00     0.074 A 
ATOM     60  C   UNL A   1      42.771  30.207  36.138  1.00  0.00     0.031 C 
ATOM     61  C   UNL A   1      43.095  28.835  34.100  1.00  0.00     0.037 A 
BRANCH  48  62
ATOM     62  C   UNL A   1      40.842  27.814  28.453  1.00  0.00     0.057 A 
ATOM     63  C   UNL A   1      41.582  28.283  27.361  1.00  0.00     0.134 A 
ATOM     64  C   UNL A   1      40.127  26.621  28.287  1.00  0.00     0.134 A 
ATOM     65  F   UNL A   1      42.287  29.421  27.454  1.00  0.00    -0.206 F 
ATOM     66  C   UNL A   1      41.590  27.607  26.141  1.00  0.00     0.040 A 
ATOM     67  C   UNL A   1      40.148  25.922  27.079  1.00  0.00     0.040 A 
ATOM     68  F   UNL A   1      39.411  26.110  29.301  1.00  0.00    -0.206 F 
ATOM     69  C   UNL A   1      40.871  26.422  25.998  1.00  0.00     0.006 A 
ENDBRANCH  48  62
BRANCH  49  70
ATOM     70  C   UNL A   1      39.912  33.257  36.751  1.00  0.00     0.057 A 
ATOM     71  C   UNL A   1      40.682  34.402  36.989  1.00  0.00     0.134 A 
ATOM     72  C   UNL A   1      38.997  32.881  37.741  1.00  0.00     0.134 A 
ATOM     73  F   UNL A   1      41.573  34.821  36.076  1.00  0.00    -0.206 F 
ATOM     74  C   UNL A   1      40.566  35.132  38.172  1.00  0.00     0.040 A 
ATOM     75  C   UNL A   1      38.851  33.615  38.919  1.00  0.00     0.040 A 
ATOM     76  F   UNL A   1      38.209  31.810  37.560  1.00  0.00    -0.206 F 
ATOM     77  C   UNL A   1      39.644  34.740  39.142  1.00  0.00     0.006 A 
ENDBRANCH  49  70
BRANCH  61  78
ATOM     78  C   UNL A   1      44.233  28.130  34.782  1.00  0.00     0.057 A 
ATOM     79  C   UNL A   1      45.542  28.620  34.676  1.00  0.00     0.134 A 
ATOM     80  C   UNL A   1      44.050  26.920  35.462  1.00  0.00     0.134 A 
ATOM     81  F   UNL A   1      45.791  29.767  34.025  1.00  0.00    -0.206 F 
ATOM     82  C   UNL A   1      46.629  27.924  35.206  1.00  0.00     0.040 A 
ATOM     83  C   UNL A   1      45.126  26.228  36.021  1.00  0.00     0.040 A 
ATOM     84  F   UNL A   1      42.823  26.398  35.604  1.00  0.00    -0.206 F 
ATOM     85  C   UNL A   1      46.422  26.725  35.884  1.00  0.00     0.006 A 
ENDBRANCH  61  78
ENDBRANCH  35  36
ENDBRANCH  28  30
ENDBRANCH  27  28
ENDBRANCH  26  27
ENDBRANCH  25  26
ENDBRANCH  24  25
ENDBRANCH  23  24
ENDBRANCH   1  23
TORSDOF 20
ENDMDL
