MODEL 1
REMARK VINA RESULT:     -10.7      0.000      0.000
REMARK SMILES O=C(NC[C@@H]1CC[C@H](C(=O)OCCOCCOCCOC(=O)c2ccc(-c3c4nc(c(-c5c(F)cccc5F)c5ccc([nH]5)c(-c5c(F)cccc5F)c5nc(c(-c6c(F)cccc6F)c6ccc3[nH]6)C=C5)C=C4)cc2)O1)c1ccc(CO)cc1
REMARK SMILES IDX 14 1 13 2 12 3 11 4 9 5 10 6 8 7 5 8 6 9 77 10 7 11 4 12
REMARK SMILES IDX 3 13 1 14 2 15 78 17 79 18 85 19 80 20 84 21 81 22 82 23
REMARK SMILES IDX 83 24 15 26 16 27 17 28 18 29 19 30 20 31 21 32 22 33 23 34
REMARK SMILES IDX 24 35 76 36 25 37 75 38 26 39 27 40 28 41 69 42 29 43 74 44
REMARK SMILES IDX 68 45 70 46 30 47 73 48 67 49 66 50 31 52 57 53 40 54 56 55
REMARK SMILES IDX 41 56 44 57 55 58 71 59 42 60 43 61 54 63 72 64 45 65 32 66
REMARK SMILES IDX 33 67 38 68 34 69 35 70 37 71 39 72 36 73 58 74 59 75 64 76
REMARK SMILES IDX 60 77 61 78 63 79 65 80 62 81 46 82 47 83 52 84 48 85 49 86
REMARK SMILES IDX 51 87 53 88 50 89
REMARK H PARENT 3 16 83 25 70 51 44 62
REMARK Flexibility Score: inf
ROOT
ATOM      1  O   UNL A   1      39.201  21.194  25.923  1.00  0.00    -0.376 OA
ENDROOT
BRANCH   1   2
ATOM      2  C   UNL A   1      38.251  22.178  25.511  1.00  0.00     0.202 C 
BRANCH   2   3
ATOM      3  C   UNL A   1      36.759  21.866  25.726  1.00  0.00     0.261 C 
BRANCH   3   4
ATOM      4  O   UNL A   1      35.920  22.989  26.092  1.00  0.00    -0.461 OA
BRANCH   4   5
ATOM      5  C   UNL A   1      34.648  22.977  25.616  1.00  0.00     0.335 C 
ATOM      6  O   UNL A   1      33.767  23.748  25.992  1.00  0.00    -0.249 OA
BRANCH   5   7
ATOM      7  C   UNL A   1      34.399  21.968  24.484  1.00  0.00     0.228 C 
ATOM      8  C   UNL A   1      32.418  22.322  23.294  1.00  0.00     0.138 C 
ATOM      9  C   UNL A   1      32.160  21.171  24.250  1.00  0.00     0.037 C 
ATOM     10  O   UNL A   1      33.811  22.674  23.384  1.00  0.00    -0.361 OA
ATOM     11  C   UNL A   1      33.539  20.734  24.664  1.00  0.00     0.047 C 
BRANCH   8  12
ATOM     12  C   UNL A   1      31.542  23.576  23.487  1.00  0.00     0.148 C 
BRANCH  12  13
ATOM     13  N   UNL A   1      31.025  23.790  24.840  1.00  0.00    -0.349 N 
ATOM     14  O   UNL A   1      30.275  24.763  26.705  1.00  0.00    -0.269 OA
ATOM     15  C   UNL A   1      30.502  24.873  25.500  1.00  0.00     0.251 C 
ATOM     16  H   UNL A   1      31.059  22.980  25.399  1.00  0.00     0.163 HD
BRANCH  15  17
ATOM     17  C   UNL A   1      30.251  26.172  24.834  1.00  0.00     0.039 A 
ATOM     18  C   UNL A   1      29.150  26.409  24.019  1.00  0.00     0.014 A 
ATOM     19  C   UNL A   1      31.158  27.213  25.065  1.00  0.00     0.014 A 
ATOM     20  C   UNL A   1      29.063  27.600  23.294  1.00  0.00     0.007 A 
ATOM     21  C   UNL A   1      31.084  28.400  24.337  1.00  0.00     0.007 A 
ATOM     22  C   UNL A   1      30.053  28.584  23.415  1.00  0.00    -0.023 A 
BRANCH  22  23
ATOM     23  C   UNL A   1      30.015  29.805  22.539  1.00  0.00     0.191 C 
BRANCH  23  24
ATOM     24  O   UNL A   1      31.138  29.812  21.666  1.00  0.00    -0.392 OA
ATOM     25  H   UNL A   1      31.861  29.304  22.065  1.00  0.00     0.211 HD
ENDBRANCH  23  24
ENDBRANCH  22  23
ENDBRANCH  15  17
ENDBRANCH  12  13
ENDBRANCH   8  12
ENDBRANCH   5   7
ENDBRANCH   4   5
ENDBRANCH   3   4
ENDBRANCH   2   3
ENDBRANCH   1   2
BRANCH   1  26
ATOM     26  C   UNL A   1      40.404  21.684  26.495  1.00  0.00     0.188 C 
BRANCH  26  27
ATOM     27  C   UNL A   1      41.068  20.783  27.541  1.00  0.00     0.188 C 
BRANCH  27  28
ATOM     28  O   UNL A   1      42.267  20.173  27.118  1.00  0.00    -0.376 OA
BRANCH  28  29
ATOM     29  C   UNL A   1      42.752  20.342  25.791  1.00  0.00     0.202 C 
BRANCH  29  30
ATOM     30  C   UNL A   1      43.951  21.272  25.496  1.00  0.00     0.261 C 
BRANCH  30  31
ATOM     31  O   UNL A   1      44.116  22.436  26.328  1.00  0.00    -0.460 OA
BRANCH  31  32
ATOM     32  C   UNL A   1      44.103  23.650  25.727  1.00  0.00     0.338 C 
ATOM     33  O   UNL A   1      44.313  23.876  24.547  1.00  0.00    -0.246 OA
BRANCH  32  34
ATOM     34  C   UNL A   1      43.471  24.616  26.672  1.00  0.00     0.060 A 
ATOM     35  C   UNL A   1      43.930  25.944  26.662  1.00  0.00     0.016 A 
ATOM     36  C   UNL A   1      42.362  24.274  27.451  1.00  0.00     0.016 A 
ATOM     37  C   UNL A   1      43.309  26.917  27.451  1.00  0.00     0.010 A 
ATOM     38  C   UNL A   1      41.756  25.244  28.262  1.00  0.00     0.010 A 
ATOM     39  C   UNL A   1      42.244  26.564  28.291  1.00  0.00    -0.014 A 
BRANCH  39  40
ATOM     40  C   UNL A   1      41.786  27.502  29.349  1.00  0.00     0.031 A 
ATOM     41  C   UNL A   1      42.513  27.483  30.668  1.00  0.00     0.074 A 
ATOM     42  C   UNL A   1      40.767  28.362  29.164  1.00  0.00     0.049 A 
ATOM     43  N   UNL A   1      42.264  28.143  31.770  1.00  0.00    -0.248 NA
ATOM     44  C   UNL A   1      43.682  26.591  30.751  1.00  0.00     0.031 C 
ATOM     45  C   UNL A   1      40.007  28.527  27.928  1.00  0.00     0.029 A 
ATOM     46  N   UNL A   1      40.189  29.254  30.036  1.00  0.00    -0.354 N 
ATOM     47  C   UNL A   1      43.235  27.739  32.677  1.00  0.00     0.074 A 
ATOM     48  C   UNL A   1      44.060  26.757  32.008  1.00  0.00     0.031 C 
ATOM     49  C   UNL A   1      39.050  29.452  28.126  1.00  0.00     0.029 A 
ATOM     50  C   UNL A   1      39.105  29.918  29.512  1.00  0.00     0.049 A 
ATOM     51  H   UNL A   1      40.520  29.404  30.952  1.00  0.00     0.167 HD
ATOM     52  C   UNL A   1      43.430  28.152  33.952  1.00  0.00     0.037 A 
ATOM     53  C   UNL A   1      38.243  30.778  30.092  1.00  0.00     0.037 A 
ATOM     54  C   UNL A   1      42.610  29.122  34.626  1.00  0.00     0.049 A 
ATOM     55  C   UNL A   1      38.424  31.153  31.543  1.00  0.00     0.074 A 
ATOM     56  C   UNL A   1      42.738  29.613  35.913  1.00  0.00     0.029 A 
ATOM     57  N   UNL A   1      41.500  29.740  34.071  1.00  0.00    -0.354 N 
ATOM     58  N   UNL A   1      39.357  30.784  32.386  1.00  0.00    -0.248 NA
ATOM     59  C   UNL A   1      37.426  32.066  32.123  1.00  0.00     0.031 C 
ATOM     60  C   UNL A   1      41.672  30.484  36.157  1.00  0.00     0.029 A 
ATOM     61  C   UNL A   1      40.916  30.585  35.001  1.00  0.00     0.049 A 
ATOM     62  H   UNL A   1      41.175  29.601  33.152  1.00  0.00     0.167 HD
ATOM     63  C   UNL A   1      39.079  31.442  33.580  1.00  0.00     0.074 A 
ATOM     64  C   UNL A   1      37.897  32.244  33.350  1.00  0.00     0.031 C 
ATOM     65  C   UNL A   1      39.743  31.387  34.761  1.00  0.00     0.037 A 
BRANCH  52  66
ATOM     66  C   UNL A   1      44.559  27.523  34.715  1.00  0.00     0.057 A 
ATOM     67  C   UNL A   1      45.842  28.087  34.744  1.00  0.00     0.134 A 
ATOM     68  C   UNL A   1      44.353  26.349  35.452  1.00  0.00     0.134 A 
ATOM     69  F   UNL A   1      46.111  29.200  34.044  1.00  0.00    -0.206 F 
ATOM     70  C   UNL A   1      46.883  27.494  35.459  1.00  0.00     0.040 A 
ATOM     71  C   UNL A   1      45.378  25.764  36.195  1.00  0.00     0.040 A 
ATOM     72  F   UNL A   1      43.149  25.758  35.469  1.00  0.00    -0.206 F 
ATOM     73  C   UNL A   1      46.650  26.333  36.195  1.00  0.00     0.006 A 
ENDBRANCH  52  66
BRANCH  53  74
ATOM     74  C   UNL A   1      37.102  31.334  29.316  1.00  0.00     0.057 A 
ATOM     75  C   UNL A   1      35.964  30.566  29.042  1.00  0.00     0.134 A 
ATOM     76  C   UNL A   1      37.143  32.632  28.791  1.00  0.00     0.134 A 
ATOM     77  F   UNL A   1      35.878  29.304  29.489  1.00  0.00    -0.206 F 
ATOM     78  C   UNL A   1      34.916  31.059  28.261  1.00  0.00     0.040 A 
ATOM     79  C   UNL A   1      36.089  33.149  28.032  1.00  0.00     0.040 A 
ATOM     80  F   UNL A   1      38.206  33.418  29.008  1.00  0.00    -0.206 F 
ATOM     81  C   UNL A   1      34.977  32.358  27.757  1.00  0.00     0.006 A 
ENDBRANCH  53  74
BRANCH  65  82
ATOM     82  C   UNL A   1      39.240  32.249  35.886  1.00  0.00     0.057 A 
ATOM     83  C   UNL A   1      39.660  33.575  36.051  1.00  0.00     0.134 A 
ATOM     84  C   UNL A   1      38.288  31.757  36.789  1.00  0.00     0.134 A 
ATOM     85  F   UNL A   1      40.576  34.107  35.229  1.00  0.00    -0.206 F 
ATOM     86  C   UNL A   1      39.169  34.372  37.088  1.00  0.00     0.040 A 
ATOM     87  C   UNL A   1      37.767  32.554  37.810  1.00  0.00     0.040 A 
ATOM     88  F   UNL A   1      37.832  30.500  36.681  1.00  0.00    -0.206 F 
ATOM     89  C   UNL A   1      38.214  33.864  37.966  1.00  0.00     0.006 A 
ENDBRANCH  65  82
ENDBRANCH  39  40
ENDBRANCH  32  34
ENDBRANCH  31  32
ENDBRANCH  30  31
ENDBRANCH  29  30
ENDBRANCH  28  29
ENDBRANCH  27  28
ENDBRANCH  26  27
ENDBRANCH   1  26
TORSDOF 22
ENDMDL
MODEL 2
REMARK VINA RESULT:     -10.3      1.376      2.249
REMARK SMILES O=C(NC[C@@H]1CC[C@H](C(=O)OCCOCCOCCOC(=O)c2ccc(-c3c4nc(c(-c5c(F)cccc5F)c5ccc([nH]5)c(-c5c(F)cccc5F)c5nc(c(-c6c(F)cccc6F)c6ccc3[nH]6)C=C5)C=C4)cc2)O1)c1ccc(CO)cc1
REMARK SMILES IDX 14 1 13 2 12 3 11 4 9 5 10 6 8 7 5 8 6 9 77 10 7 11 4 12
REMARK SMILES IDX 3 13 1 14 2 15 78 17 79 18 85 19 80 20 84 21 81 22 82 23
REMARK SMILES IDX 83 24 15 26 16 27 17 28 18 29 19 30 20 31 21 32 22 33 23 34
REMARK SMILES IDX 24 35 76 36 25 37 75 38 26 39 27 40 28 41 69 42 29 43 74 44
REMARK SMILES IDX 68 45 70 46 30 47 73 48 67 49 66 50 31 52 57 53 40 54 56 55
REMARK SMILES IDX 41 56 44 57 55 58 71 59 42 60 43 61 54 63 72 64 45 65 32 66
REMARK SMILES IDX 33 67 38 68 34 69 35 70 37 71 39 72 36 73 58 74 59 75 64 76
REMARK SMILES IDX 60 77 61 78 63 79 65 80 62 81 46 82 47 83 52 84 48 85 49 86
REMARK SMILES IDX 51 87 53 88 50 89
REMARK H PARENT 3 16 83 25 70 51 44 62
REMARK Flexibility Score: inf
ROOT
ATOM      1  O   UNL A   1      42.194  19.313  25.403  1.00  0.00    -0.376 OA
ENDROOT
BRANCH   1   2
ATOM      2  C   UNL A   1      41.706  20.116  26.479  1.00  0.00     0.202 C 
BRANCH   2   3
ATOM      3  C   UNL A   1      40.899  21.377  26.122  1.00  0.00     0.261 C 
BRANCH   3   4
ATOM      4  O   UNL A   1      39.596  21.498  26.746  1.00  0.00    -0.461 OA
BRANCH   4   5
ATOM      5  C   UNL A   1      38.706  22.323  26.138  1.00  0.00     0.335 C 
ATOM      6  O   UNL A   1      38.516  23.492  26.469  1.00  0.00    -0.249 OA
BRANCH   5   7
ATOM      7  C   UNL A   1      37.995  21.710  24.921  1.00  0.00     0.228 C 
ATOM      8  C   UNL A   1      35.698  22.139  24.830  1.00  0.00     0.138 C 
ATOM      9  C   UNL A   1      35.863  20.714  25.332  1.00  0.00     0.037 C 
ATOM     10  O   UNL A   1      37.000  22.640  24.476  1.00  0.00    -0.361 OA
ATOM     11  C   UNL A   1      37.284  20.373  24.977  1.00  0.00     0.047 C 
BRANCH   8  12
ATOM     12  C   UNL A   1      34.994  23.120  25.787  1.00  0.00     0.148 C 
BRANCH  12  13
ATOM     13  N   UNL A   1      33.589  22.827  26.080  1.00  0.00    -0.349 N 
ATOM     14  O   UNL A   1      31.415  23.059  26.530  1.00  0.00    -0.269 OA
ATOM     15  C   UNL A   1      32.444  23.582  26.103  1.00  0.00     0.251 C 
ATOM     16  H   UNL A   1      33.432  21.884  26.312  1.00  0.00     0.163 HD
BRANCH  15  17
ATOM     17  C   UNL A   1      32.412  25.003  25.688  1.00  0.00     0.039 A 
ATOM     18  C   UNL A   1      32.998  25.466  24.514  1.00  0.00     0.014 A 
ATOM     19  C   UNL A   1      31.736  25.913  26.509  1.00  0.00     0.014 A 
ATOM     20  C   UNL A   1      33.073  26.837  24.265  1.00  0.00     0.007 A 
ATOM     21  C   UNL A   1      31.815  27.284  26.273  1.00  0.00     0.007 A 
ATOM     22  C   UNL A   1      32.521  27.758  25.167  1.00  0.00    -0.023 A 
BRANCH  22  23
ATOM     23  C   UNL A   1      32.715  29.233  24.954  1.00  0.00     0.191 C 
BRANCH  23  24
ATOM     24  O   UNL A   1      31.864  29.690  23.910  1.00  0.00    -0.392 OA
ATOM     25  H   UNL A   1      32.266  30.460  23.479  1.00  0.00     0.211 HD
ENDBRANCH  23  24
ENDBRANCH  22  23
ENDBRANCH  15  17
ENDBRANCH  12  13
ENDBRANCH   8  12
ENDBRANCH   5   7
ENDBRANCH   4   5
ENDBRANCH   3   4
ENDBRANCH   2   3
ENDBRANCH   1   2
BRANCH   1  26
ATOM     26  C   UNL A   1      43.324  18.502  25.688  1.00  0.00     0.188 C 
BRANCH  26  27
ATOM     27  C   UNL A   1      44.565  18.752  24.826  1.00  0.00     0.188 C 
BRANCH  27  28
ATOM     28  O   UNL A   1      44.634  20.039  24.251  1.00  0.00    -0.376 OA
BRANCH  28  29
ATOM     29  C   UNL A   1      45.437  21.062  24.827  1.00  0.00     0.202 C 
BRANCH  29  30
ATOM     30  C   UNL A   1      44.925  21.894  26.026  1.00  0.00     0.261 C 
BRANCH  30  31
ATOM     31  O   UNL A   1      44.936  23.328  25.898  1.00  0.00    -0.460 OA
BRANCH  31  32
ATOM     32  C   UNL A   1      43.875  23.916  25.295  1.00  0.00     0.338 C 
ATOM     33  O   UNL A   1      43.351  23.568  24.249  1.00  0.00    -0.246 OA
BRANCH  32  34
ATOM     34  C   UNL A   1      43.255  24.850  26.280  1.00  0.00     0.060 A 
ATOM     35  C   UNL A   1      43.659  26.195  26.258  1.00  0.00     0.016 A 
ATOM     36  C   UNL A   1      42.203  24.458  27.113  1.00  0.00     0.016 A 
ATOM     37  C   UNL A   1      43.042  27.137  27.087  1.00  0.00     0.010 A 
ATOM     38  C   UNL A   1      41.602  25.398  27.963  1.00  0.00     0.010 A 
ATOM     39  C   UNL A   1      42.038  26.736  27.977  1.00  0.00    -0.014 A 
BRANCH  39  40
ATOM     40  C   UNL A   1      41.598  27.647  29.067  1.00  0.00     0.031 A 
ATOM     41  C   UNL A   1      42.337  27.583  30.378  1.00  0.00     0.074 A 
ATOM     42  C   UNL A   1      40.586  28.522  28.916  1.00  0.00     0.049 A 
ATOM     43  N   UNL A   1      42.104  28.213  31.501  1.00  0.00    -0.248 NA
ATOM     44  C   UNL A   1      43.497  26.678  30.424  1.00  0.00     0.031 C 
ATOM     45  C   UNL A   1      39.817  28.729  27.692  1.00  0.00     0.029 A 
ATOM     46  N   UNL A   1      40.025  29.394  29.819  1.00  0.00    -0.354 N 
ATOM     47  C   UNL A   1      43.079  27.774  32.387  1.00  0.00     0.074 A 
ATOM     48  C   UNL A   1      43.888  26.804  31.682  1.00  0.00     0.031 C 
ATOM     49  C   UNL A   1      38.871  29.658  27.926  1.00  0.00     0.029 A 
ATOM     50  C   UNL A   1      38.943  30.083  29.324  1.00  0.00     0.049 A 
ATOM     51  H   UNL A   1      40.365  29.514  30.735  1.00  0.00     0.167 HD
ATOM     52  C   UNL A   1      43.290  28.148  33.671  1.00  0.00     0.037 A 
ATOM     53  C   UNL A   1      38.095  30.934  29.937  1.00  0.00     0.037 A 
ATOM     54  C   UNL A   1      42.485  29.106  34.380  1.00  0.00     0.049 A 
ATOM     55  C   UNL A   1      38.292  31.265  31.396  1.00  0.00     0.074 A 
ATOM     56  C   UNL A   1      42.631  29.559  35.680  1.00  0.00     0.029 A 
ATOM     57  N   UNL A   1      41.377  29.751  33.853  1.00  0.00    -0.354 N 
ATOM     58  N   UNL A   1      39.229  30.863  32.220  1.00  0.00    -0.248 NA
ATOM     59  C   UNL A   1      37.308  32.171  32.011  1.00  0.00     0.031 C 
ATOM     60  C   UNL A   1      41.575  30.432  35.959  1.00  0.00     0.029 A 
ATOM     61  C   UNL A   1      40.810  30.574  34.813  1.00  0.00     0.049 A 
ATOM     62  H   UNL A   1      41.043  29.641  32.934  1.00  0.00     0.167 HD
ATOM     63  C   UNL A   1      38.968  31.489  33.434  1.00  0.00     0.074 A 
ATOM     64  C   UNL A   1      37.793  32.308  33.238  1.00  0.00     0.031 C 
ATOM     65  C   UNL A   1      39.643  31.394  34.607  1.00  0.00     0.037 A 
BRANCH  52  66
ATOM     66  C   UNL A   1      44.420  27.486  34.405  1.00  0.00     0.057 A 
ATOM     67  C   UNL A   1      45.744  27.932  34.289  1.00  0.00     0.134 A 
ATOM     68  C   UNL A   1      44.175  26.403  35.259  1.00  0.00     0.134 A 
ATOM     69  F   UNL A   1      46.049  28.953  33.473  1.00  0.00    -0.206 F 
ATOM     70  C   UNL A   1      46.785  27.310  34.979  1.00  0.00     0.040 A 
ATOM     71  C   UNL A   1      45.204  25.793  35.977  1.00  0.00     0.040 A 
ATOM     72  F   UNL A   1      42.931  25.927  35.417  1.00  0.00    -0.206 F 
ATOM     73  C   UNL A   1      46.515  26.242  35.833  1.00  0.00     0.006 A 
ENDBRANCH  52  66
BRANCH  53  74
ATOM     74  C   UNL A   1      36.952  31.524  29.187  1.00  0.00     0.057 A 
ATOM     75  C   UNL A   1      36.994  32.841  28.715  1.00  0.00     0.134 A 
ATOM     76  C   UNL A   1      35.775  30.798  28.966  1.00  0.00     0.134 A 
ATOM     77  F   UNL A   1      38.081  33.599  28.923  1.00  0.00    -0.206 F 
ATOM     78  C   UNL A   1      35.901  33.422  28.066  1.00  0.00     0.040 A 
ATOM     79  C   UNL A   1      34.685  31.358  28.294  1.00  0.00     0.040 A 
ATOM     80  F   UNL A   1      35.665  29.535  29.400  1.00  0.00    -0.206 F 
ATOM     81  C   UNL A   1      34.744  32.676  27.849  1.00  0.00     0.006 A 
ENDBRANCH  53  74
BRANCH  65  82
ATOM     82  C   UNL A   1      39.159  32.227  35.761  1.00  0.00     0.057 A 
ATOM     83  C   UNL A   1      39.572  33.554  35.945  1.00  0.00     0.134 A 
ATOM     84  C   UNL A   1      38.230  31.709  36.674  1.00  0.00     0.134 A 
ATOM     85  F   UNL A   1      40.466  34.110  35.114  1.00  0.00    -0.206 F 
ATOM     86  C   UNL A   1      39.098  34.324  37.009  1.00  0.00     0.040 A 
ATOM     87  C   UNL A   1      37.726  32.480  37.723  1.00  0.00     0.040 A 
ATOM     88  F   UNL A   1      37.781  30.451  36.549  1.00  0.00    -0.206 F 
ATOM     89  C   UNL A   1      38.166  33.790  37.897  1.00  0.00     0.006 A 
ENDBRANCH  65  82
ENDBRANCH  39  40
ENDBRANCH  32  34
ENDBRANCH  31  32
ENDBRANCH  30  31
ENDBRANCH  29  30
ENDBRANCH  28  29
ENDBRANCH  27  28
ENDBRANCH  26  27
ENDBRANCH   1  26
TORSDOF 22
ENDMDL
MODEL 3
REMARK VINA RESULT:     -10.3      1.094      2.085
REMARK SMILES O=C(NC[C@@H]1CC[C@H](C(=O)OCCOCCOCCOC(=O)c2ccc(-c3c4nc(c(-c5c(F)cccc5F)c5ccc([nH]5)c(-c5c(F)cccc5F)c5nc(c(-c6c(F)cccc6F)c6ccc3[nH]6)C=C5)C=C4)cc2)O1)c1ccc(CO)cc1
REMARK SMILES IDX 14 1 13 2 12 3 11 4 9 5 10 6 8 7 5 8 6 9 77 10 7 11 4 12
REMARK SMILES IDX 3 13 1 14 2 15 78 17 79 18 85 19 80 20 84 21 81 22 82 23
REMARK SMILES IDX 83 24 15 26 16 27 17 28 18 29 19 30 20 31 21 32 22 33 23 34
REMARK SMILES IDX 24 35 76 36 25 37 75 38 26 39 27 40 28 41 69 42 29 43 74 44
REMARK SMILES IDX 68 45 70 46 30 47 73 48 67 49 66 50 31 52 57 53 40 54 56 55
REMARK SMILES IDX 41 56 44 57 55 58 71 59 42 60 43 61 54 63 72 64 45 65 32 66
REMARK SMILES IDX 33 67 38 68 34 69 35 70 37 71 39 72 36 73 58 74 59 75 64 76
REMARK SMILES IDX 60 77 61 78 63 79 65 80 62 81 46 82 47 83 52 84 48 85 49 86
REMARK SMILES IDX 51 87 53 88 50 89
REMARK H PARENT 3 16 83 25 70 51 44 62
REMARK Flexibility Score: inf
ROOT
ATOM      1  O   UNL A   1      39.691  20.961  25.984  1.00  0.00    -0.376 OA
ENDROOT
BRANCH   1   2
ATOM      2  C   UNL A   1      38.641  21.916  25.822  1.00  0.00     0.202 C 
BRANCH   2   3
ATOM      3  C   UNL A   1      37.292  21.411  25.278  1.00  0.00     0.261 C 
BRANCH   3   4
ATOM      4  O   UNL A   1      36.114  21.827  26.012  1.00  0.00    -0.461 OA
BRANCH   4   5
ATOM      5  C   UNL A   1      34.925  21.330  25.583  1.00  0.00     0.335 C 
ATOM      6  O   UNL A   1      34.732  20.897  24.448  1.00  0.00    -0.249 OA
BRANCH   5   7
ATOM      7  C   UNL A   1      33.833  21.263  26.663  1.00  0.00     0.228 C 
ATOM      8  C   UNL A   1      31.825  22.301  26.067  1.00  0.00     0.138 C 
ATOM      9  C   UNL A   1      32.555  23.253  26.999  1.00  0.00     0.037 C 
ATOM     10  O   UNL A   1      32.574  21.074  26.005  1.00  0.00    -0.361 OA
ATOM     11  C   UNL A   1      33.594  22.384  27.653  1.00  0.00     0.047 C 
BRANCH   8  12
ATOM     12  C   UNL A   1      31.545  22.824  24.644  1.00  0.00     0.148 C 
BRANCH  12  13
ATOM     13  N   UNL A   1      32.726  23.140  23.838  1.00  0.00    -0.349 N 
ATOM     14  O   UNL A   1      34.136  24.147  22.429  1.00  0.00    -0.269 OA
ATOM     15  C   UNL A   1      33.127  24.244  23.128  1.00  0.00     0.251 C 
ATOM     16  H   UNL A   1      33.374  22.401  23.796  1.00  0.00     0.163 HD
BRANCH  15  17
ATOM     17  C   UNL A   1      32.369  25.516  23.130  1.00  0.00     0.039 A 
ATOM     18  C   UNL A   1      31.233  25.726  22.356  1.00  0.00     0.014 A 
ATOM     19  C   UNL A   1      32.810  26.541  23.975  1.00  0.00     0.014 A 
ATOM     20  C   UNL A   1      30.664  26.999  22.283  1.00  0.00     0.007 A 
ATOM     21  C   UNL A   1      32.255  27.818  23.899  1.00  0.00     0.007 A 
ATOM     22  C   UNL A   1      31.200  28.065  23.020  1.00  0.00    -0.023 A 
BRANCH  22  23
ATOM     23  C   UNL A   1      30.661  29.455  22.839  1.00  0.00     0.191 C 
BRANCH  23  24
ATOM     24  O   UNL A   1      31.250  30.061  21.695  1.00  0.00    -0.392 OA
ATOM     25  H   UNL A   1      32.005  30.604  21.970  1.00  0.00     0.211 HD
ENDBRANCH  23  24
ENDBRANCH  22  23
ENDBRANCH  15  17
ENDBRANCH  12  13
ENDBRANCH   8  12
ENDBRANCH   5   7
ENDBRANCH   4   5
ENDBRANCH   3   4
ENDBRANCH   2   3
ENDBRANCH   1   2
BRANCH   1  26
ATOM     26  C   UNL A   1      40.642  21.241  27.000  1.00  0.00     0.188 C 
BRANCH  26  27
ATOM     27  C   UNL A   1      41.742  20.193  27.199  1.00  0.00     0.188 C 
BRANCH  27  28
ATOM     28  O   UNL A   1      42.677  20.113  26.145  1.00  0.00    -0.376 OA
BRANCH  28  29
ATOM     29  C   UNL A   1      43.644  21.135  25.938  1.00  0.00     0.202 C 
BRANCH  29  30
ATOM     30  C   UNL A   1      43.659  21.962  24.632  1.00  0.00     0.261 C 
BRANCH  30  31
ATOM     31  O   UNL A   1      43.293  23.352  24.716  1.00  0.00    -0.460 OA
BRANCH  31  32
ATOM     32  C   UNL A   1      44.225  24.225  25.166  1.00  0.00     0.338 C 
ATOM     33  O   UNL A   1      45.321  24.434  24.672  1.00  0.00    -0.246 OA
BRANCH  32  34
ATOM     34  C   UNL A   1      43.565  25.118  26.163  1.00  0.00     0.060 A 
ATOM     35  C   UNL A   1      43.993  26.455  26.235  1.00  0.00     0.016 A 
ATOM     36  C   UNL A   1      42.460  24.705  26.913  1.00  0.00     0.016 A 
ATOM     37  C   UNL A   1      43.344  27.364  27.076  1.00  0.00     0.010 A 
ATOM     38  C   UNL A   1      41.827  25.610  27.776  1.00  0.00     0.010 A 
ATOM     39  C   UNL A   1      42.284  26.937  27.886  1.00  0.00    -0.014 A 
BRANCH  39  40
ATOM     40  C   UNL A   1      41.797  27.799  28.996  1.00  0.00     0.031 A 
ATOM     41  C   UNL A   1      42.527  27.729  30.312  1.00  0.00     0.074 A 
ATOM     42  C   UNL A   1      40.752  28.636  28.859  1.00  0.00     0.049 A 
ATOM     43  N   UNL A   1      42.258  28.317  31.449  1.00  0.00    -0.248 NA
ATOM     44  C   UNL A   1      43.723  26.871  30.345  1.00  0.00     0.031 C 
ATOM     45  C   UNL A   1      39.986  28.846  27.634  1.00  0.00     0.029 A 
ATOM     46  N   UNL A   1      40.147  29.458  29.780  1.00  0.00    -0.354 N 
ATOM     47  C   UNL A   1      43.242  27.895  32.333  1.00  0.00     0.074 A 
ATOM     48  C   UNL A   1      44.097  26.978  31.610  1.00  0.00     0.031 C 
ATOM     49  C   UNL A   1      39.000  29.728  27.883  1.00  0.00     0.029 A 
ATOM     50  C   UNL A   1      39.043  30.116  29.293  1.00  0.00     0.049 A 
ATOM     51  H   UNL A   1      40.474  29.567  30.703  1.00  0.00     0.167 HD
ATOM     52  C   UNL A   1      43.426  28.240  33.628  1.00  0.00     0.037 A 
ATOM     53  C   UNL A   1      38.154  30.915  29.921  1.00  0.00     0.037 A 
ATOM     54  C   UNL A   1      42.577  29.145  34.356  1.00  0.00     0.049 A 
ATOM     55  C   UNL A   1      38.325  31.213  31.390  1.00  0.00     0.074 A 
ATOM     56  C   UNL A   1      42.692  29.567  35.669  1.00  0.00     0.029 A 
ATOM     57  N   UNL A   1      41.448  29.758  33.836  1.00  0.00    -0.354 N 
ATOM     58  N   UNL A   1      39.271  30.827  32.212  1.00  0.00    -0.248 NA
ATOM     59  C   UNL A   1      37.299  32.061  32.020  1.00  0.00     0.031 C 
ATOM     60  C   UNL A   1      41.599  30.388  35.961  1.00  0.00     0.029 A 
ATOM     61  C   UNL A   1      40.839  30.530  34.812  1.00  0.00     0.049 A 
ATOM     62  H   UNL A   1      41.126  29.661  32.911  1.00  0.00     0.167 HD
ATOM     63  C   UNL A   1      38.973  31.408  33.440  1.00  0.00     0.074 A 
ATOM     64  C   UNL A   1      37.767  32.183  33.255  1.00  0.00     0.031 C 
ATOM     65  C   UNL A   1      39.641  31.307  34.617  1.00  0.00     0.037 A 
BRANCH  52  66
ATOM     66  C   UNL A   1      44.576  27.605  34.356  1.00  0.00     0.057 A 
ATOM     67  C   UNL A   1      44.466  26.348  34.967  1.00  0.00     0.134 A 
ATOM     68  C   UNL A   1      45.818  28.250  34.423  1.00  0.00     0.134 A 
ATOM     69  F   UNL A   1      43.299  25.686  34.955  1.00  0.00    -0.206 F 
ATOM     70  C   UNL A   1      45.543  25.768  35.637  1.00  0.00     0.040 A 
ATOM     71  C   UNL A   1      46.910  27.666  35.065  1.00  0.00     0.040 A 
ATOM     72  F   UNL A   1      45.992  29.454  33.858  1.00  0.00    -0.206 F 
ATOM     73  C   UNL A   1      46.773  26.424  35.680  1.00  0.00     0.006 A 
ENDBRANCH  52  66
BRANCH  53  74
ATOM     74  C   UNL A   1      36.995  31.478  29.176  1.00  0.00     0.057 A 
ATOM     75  C   UNL A   1      37.028  32.775  28.652  1.00  0.00     0.134 A 
ATOM     76  C   UNL A   1      35.811  30.747  29.012  1.00  0.00     0.134 A 
ATOM     77  F   UNL A   1      38.121  33.538  28.804  1.00  0.00    -0.206 F 
ATOM     78  C   UNL A   1      35.921  33.334  28.007  1.00  0.00     0.040 A 
ATOM     79  C   UNL A   1      34.707  31.283  28.344  1.00  0.00     0.040 A 
ATOM     80  F   UNL A   1      35.710  29.503  29.497  1.00  0.00    -0.206 F 
ATOM     81  C   UNL A   1      34.758  32.583  27.847  1.00  0.00     0.006 A 
ENDBRANCH  53  74
BRANCH  65  82
ATOM     82  C   UNL A   1      39.113  32.088  35.788  1.00  0.00     0.057 A 
ATOM     83  C   UNL A   1      38.217  31.531  36.711  1.00  0.00     0.134 A 
ATOM     84  C   UNL A   1      39.543  33.402  36.021  1.00  0.00     0.134 A 
ATOM     85  F   UNL A   1      37.758  30.282  36.544  1.00  0.00    -0.206 F 
ATOM     86  C   UNL A   1      37.751  32.260  37.807  1.00  0.00     0.040 A 
ATOM     87  C   UNL A   1      39.107  34.130  37.129  1.00  0.00     0.040 A 
ATOM     88  F   UNL A   1      40.410  33.993  35.185  1.00  0.00    -0.206 F 
ATOM     89  C   UNL A   1      38.202  33.561  38.023  1.00  0.00     0.006 A 
ENDBRANCH  65  82
ENDBRANCH  39  40
ENDBRANCH  32  34
ENDBRANCH  31  32
ENDBRANCH  30  31
ENDBRANCH  29  30
ENDBRANCH  28  29
ENDBRANCH  27  28
ENDBRANCH  26  27
ENDBRANCH   1  26
TORSDOF 22
ENDMDL
