MODEL 1
REMARK VINA RESULT:     -11.2      0.000      0.000
REMARK SMILES Cc1nc(-c2ccc(S(=O)(=O)N3CC[NH2+][C@H](C(=O)OCCOCCOCCOC(=O)c4ccc(-c5c6nc(c(-c7c(F)cccc7F)c7ccc([nH]7)c(-c7c(F)cccc7F)c7nc(c(-c8c(F)cccc8F)c8ccc5[nH]8)C=C7)C=C6)cc4)C3)s2)cs1
REMARK SMILES IDX 23 1 22 2 21 3 20 4 19 5 17 6 18 7 16 8 12 9 13 10 85 11
REMARK SMILES IDX 14 12 15 13 9 16 10 17 11 18 8 19 5 20 6 21 86 22 7 23 4 24
REMARK SMILES IDX 1 25 2 26 3 27 88 28 87 29 24 30 25 31 26 32 27 33 28 34
REMARK SMILES IDX 29 35 30 36 31 37 32 38 84 39 33 40 83 41 34 42 35 43 36 44
REMARK SMILES IDX 77 45 37 46 82 47 76 48 78 49 38 50 81 51 75 52 74 53 39 55
REMARK SMILES IDX 65 56 48 57 64 58 49 59 52 60 63 61 79 62 50 63 51 64 62 66
REMARK SMILES IDX 80 67 53 68 40 69 41 70 46 71 42 72 43 73 45 74 47 75 44 76
REMARK SMILES IDX 66 77 67 78 72 79 68 80 69 81 71 82 73 83 70 84 54 85 55 86
REMARK SMILES IDX 60 87 56 88 57 89 59 90 61 91 58 92
REMARK H PARENT 15 14 15 15 78 54 52 65
REMARK Flexibility Score: inf
ROOT
ATOM      1  C   UNL A   1      33.491  33.581  27.998  1.00  0.00     0.188 C 
ENDROOT
BRANCH   1   2
ATOM      2  O   UNL A   1      34.481  32.664  28.447  1.00  0.00    -0.376 OA
BRANCH   2   3
ATOM      3  C   UNL A   1      34.756  31.513  27.660  1.00  0.00     0.202 C 
BRANCH   3   4
ATOM      4  C   UNL A   1      33.612  30.512  27.517  1.00  0.00     0.261 C 
BRANCH   4   5
ATOM      5  O   UNL A   1      33.346  30.172  26.141  1.00  0.00    -0.459 OA
BRANCH   5   6
ATOM      6  C   UNL A   1      32.059  30.338  25.743  1.00  0.00     0.366 C 
ATOM      7  O   UNL A   1      31.386  31.341  25.962  1.00  0.00    -0.245 OA
BRANCH   6   8
ATOM      8  C   UNL A   1      31.520  29.162  24.939  1.00  0.00     0.308 C 
ATOM      9  N   UNL A   1      31.669  26.786  24.425  1.00  0.00    -0.185 NA
ATOM     10  C   UNL A   1      31.076  26.980  23.077  1.00  0.00     0.164 C 
ATOM     11  C   UNL A   1      32.462  27.962  24.875  1.00  0.00     0.180 C 
ATOM     12  C   UNL A   1      30.412  28.366  22.888  1.00  0.00     0.278 C 
ATOM     13  N   UNL A   1      31.015  29.531  23.579  1.00  0.00    -0.332 N 
ATOM     14  H   UNL A   1      30.310  30.262  23.674  1.00  0.00     0.347 HD
ATOM     15  H   UNL A   1      31.806  29.860  23.023  1.00  0.00     0.347 HD
BRANCH   9  16
ATOM     16  S   UNL A   1      30.856  25.872  25.609  1.00  0.00     0.253 S 
ATOM     17  O   UNL A   1      29.527  25.633  25.089  1.00  0.00    -0.206 OA
ATOM     18  O   UNL A   1      31.071  26.515  26.888  1.00  0.00    -0.206 OA
BRANCH  16  19
ATOM     19  C   UNL A   1      31.590  24.243  25.811  1.00  0.00     0.135 A 
ATOM     20  C   UNL A   1      32.255  21.902  25.338  1.00  0.00     0.055 A 
ATOM     21  C   UNL A   1      32.742  22.346  26.544  1.00  0.00     0.023 A 
ATOM     22  S   UNL A   1      31.391  23.119  24.517  1.00  0.00    -0.121 S 
ATOM     23  C   UNL A   1      32.296  23.653  26.844  1.00  0.00     0.034 A 
BRANCH  20  24
ATOM     24  C   UNL A   1      32.471  20.482  24.918  1.00  0.00     0.091 A 
ATOM     25  C   UNL A   1      32.400  18.235  22.051  1.00  0.00     0.079 C 
ATOM     26  C   UNL A   1      32.511  18.882  23.386  1.00  0.00     0.090 A 
ATOM     27  N   UNL A   1      32.159  20.124  23.616  1.00  0.00    -0.241 NA
ATOM     28  S   UNL A   1      33.129  18.035  24.746  1.00  0.00    -0.127 S 
ATOM     29  C   UNL A   1      32.995  19.470  25.690  1.00  0.00     0.096 A 
ENDBRANCH  20  24
ENDBRANCH  16  19
ENDBRANCH   9  16
ENDBRANCH   6   8
ENDBRANCH   5   6
ENDBRANCH   4   5
ENDBRANCH   3   4
ENDBRANCH   2   3
ENDBRANCH   1   2
BRANCH   1  30
ATOM     30  C   UNL A   1      33.242  34.867  28.811  1.00  0.00     0.188 C 
BRANCH  30  31
ATOM     31  O   UNL A   1      32.991  34.777  30.205  1.00  0.00    -0.376 OA
BRANCH  31  32
ATOM     32  C   UNL A   1      33.969  35.293  31.094  1.00  0.00     0.202 C 
BRANCH  32  33
ATOM     33  C   UNL A   1      34.450  34.314  32.165  1.00  0.00     0.261 C 
BRANCH  33  34
ATOM     34  O   UNL A   1      35.333  33.318  31.618  1.00  0.00    -0.460 OA
BRANCH  34  35
ATOM     35  C   UNL A   1      35.972  32.528  32.513  1.00  0.00     0.338 C 
ATOM     36  O   UNL A   1      35.714  32.391  33.697  1.00  0.00    -0.246 OA
BRANCH  35  37
ATOM     37  C   UNL A   1      36.978  31.701  31.815  1.00  0.00     0.060 A 
ATOM     38  C   UNL A   1      37.684  30.743  32.556  1.00  0.00     0.016 A 
ATOM     39  C   UNL A   1      37.275  31.911  30.467  1.00  0.00     0.016 A 
ATOM     40  C   UNL A   1      38.725  30.027  31.963  1.00  0.00     0.010 A 
ATOM     41  C   UNL A   1      38.326  31.205  29.879  1.00  0.00     0.010 A 
ATOM     42  C   UNL A   1      39.078  30.287  30.633  1.00  0.00    -0.014 A 
BRANCH  42  43
ATOM     43  C   UNL A   1      40.333  29.749  30.058  1.00  0.00     0.031 A 
ATOM     44  C   UNL A   1      41.492  30.685  29.865  1.00  0.00     0.074 A 
ATOM     45  C   UNL A   1      40.428  28.468  29.666  1.00  0.00     0.049 A 
ATOM     46  N   UNL A   1      42.611  30.501  29.212  1.00  0.00    -0.248 NA
ATOM     47  C   UNL A   1      41.368  32.012  30.490  1.00  0.00     0.031 C 
ATOM     48  C   UNL A   1      39.401  27.445  29.853  1.00  0.00     0.029 A 
ATOM     49  N   UNL A   1      41.437  27.819  28.997  1.00  0.00    -0.354 N 
ATOM     50  C   UNL A   1      43.314  31.692  29.331  1.00  0.00     0.074 A 
ATOM     51  C   UNL A   1      42.497  32.595  30.113  1.00  0.00     0.031 C 
ATOM     52  C   UNL A   1      39.820  26.302  29.283  1.00  0.00     0.029 A 
ATOM     53  C   UNL A   1      41.121  26.528  28.652  1.00  0.00     0.049 A 
ATOM     54  H   UNL A   1      42.303  28.238  28.787  1.00  0.00     0.167 HD
ATOM     55  C   UNL A   1      44.530  32.006  28.827  1.00  0.00     0.037 A 
ATOM     56  C   UNL A   1      41.786  25.649  27.877  1.00  0.00     0.037 A 
ATOM     57  C   UNL A   1      45.339  31.112  28.045  1.00  0.00     0.049 A 
ATOM     58  C   UNL A   1      43.095  26.052  27.248  1.00  0.00     0.074 A 
ATOM     59  C   UNL A   1      46.585  31.339  27.489  1.00  0.00     0.029 A 
ATOM     60  N   UNL A   1      44.975  29.819  27.704  1.00  0.00    -0.354 N 
ATOM     61  N   UNL A   1      43.752  27.181  27.357  1.00  0.00    -0.248 NA
ATOM     62  C   UNL A   1      43.747  25.063  26.377  1.00  0.00     0.031 C 
ATOM     63  C   UNL A   1      46.960  30.195  26.777  1.00  0.00     0.029 A 
ATOM     64  C   UNL A   1      45.965  29.243  26.927  1.00  0.00     0.049 A 
ATOM     65  H   UNL A   1      44.139  29.378  27.974  1.00  0.00     0.167 HD
ATOM     66  C   UNL A   1      44.906  27.027  26.596  1.00  0.00     0.074 A 
ATOM     67  C   UNL A   1      44.860  25.696  26.030  1.00  0.00     0.031 C 
ATOM     68  C   UNL A   1      45.914  27.908  26.389  1.00  0.00     0.037 A 
BRANCH  55  69
ATOM     69  C   UNL A   1      45.041  33.392  29.079  1.00  0.00     0.057 A 
ATOM     70  C   UNL A   1      44.801  34.442  28.185  1.00  0.00     0.134 A 
ATOM     71  C   UNL A   1      45.762  33.683  30.244  1.00  0.00     0.134 A 
ATOM     72  F   UNL A   1      44.132  34.223  27.043  1.00  0.00    -0.206 F 
ATOM     73  C   UNL A   1      45.275  35.731  28.433  1.00  0.00     0.040 A 
ATOM     74  C   UNL A   1      46.223  34.972  30.514  1.00  0.00     0.040 A 
ATOM     75  F   UNL A   1      46.024  32.720  31.141  1.00  0.00    -0.206 F 
ATOM     76  C   UNL A   1      45.983  36.000  29.604  1.00  0.00     0.006 A 
ENDBRANCH  55  69
BRANCH  56  77
ATOM     77  C   UNL A   1      41.209  24.308  27.612  1.00  0.00     0.057 A 
ATOM     78  C   UNL A   1      40.147  24.141  26.718  1.00  0.00     0.134 A 
ATOM     79  C   UNL A   1      41.690  23.166  28.266  1.00  0.00     0.134 A 
ATOM     80  F   UNL A   1      39.625  25.202  26.085  1.00  0.00    -0.206 F 
ATOM     81  C   UNL A   1      39.571  22.890  26.493  1.00  0.00     0.040 A 
ATOM     82  C   UNL A   1      41.140  21.906  28.032  1.00  0.00     0.040 A 
ATOM     83  F   UNL A   1      42.703  23.262  29.140  1.00  0.00    -0.206 F 
ATOM     84  C   UNL A   1      40.073  21.766  27.147  1.00  0.00     0.006 A 
ENDBRANCH  56  77
BRANCH  68  85
ATOM     85  C   UNL A   1      47.076  27.454  25.558  1.00  0.00     0.057 A 
ATOM     86  C   UNL A   1      47.121  27.661  24.175  1.00  0.00     0.134 A 
ATOM     87  C   UNL A   1      48.198  26.877  26.167  1.00  0.00     0.134 A 
ATOM     88  F   UNL A   1      46.073  28.200  23.535  1.00  0.00    -0.206 F 
ATOM     89  C   UNL A   1      48.241  27.302  23.423  1.00  0.00     0.040 A 
ATOM     90  C   UNL A   1      49.331  26.532  25.429  1.00  0.00     0.040 A 
ATOM     91  F   UNL A   1      48.220  26.661  27.490  1.00  0.00    -0.206 F 
ATOM     92  C   UNL A   1      49.354  26.745  24.052  1.00  0.00     0.006 A 
ENDBRANCH  68  85
ENDBRANCH  42  43
ENDBRANCH  35  37
ENDBRANCH  34  35
ENDBRANCH  33  34
ENDBRANCH  32  33
ENDBRANCH  31  32
ENDBRANCH  30  31
ENDBRANCH   1  30
TORSDOF 20
ENDMDL
MODEL 2
REMARK VINA RESULT:     -10.9      5.138     10.717
REMARK SMILES Cc1nc(-c2ccc(S(=O)(=O)N3CC[NH2+][C@H](C(=O)OCCOCCOCCOC(=O)c4ccc(-c5c6nc(c(-c7c(F)cccc7F)c7ccc([nH]7)c(-c7c(F)cccc7F)c7nc(c(-c8c(F)cccc8F)c8ccc5[nH]8)C=C7)C=C6)cc4)C3)s2)cs1
REMARK SMILES IDX 23 1 22 2 21 3 20 4 19 5 17 6 18 7 16 8 12 9 13 10 85 11
REMARK SMILES IDX 14 12 15 13 9 16 10 17 11 18 8 19 5 20 6 21 86 22 7 23 4 24
REMARK SMILES IDX 1 25 2 26 3 27 88 28 87 29 24 30 25 31 26 32 27 33 28 34
REMARK SMILES IDX 29 35 30 36 31 37 32 38 84 39 33 40 83 41 34 42 35 43 36 44
REMARK SMILES IDX 77 45 37 46 82 47 76 48 78 49 38 50 81 51 75 52 74 53 39 55
REMARK SMILES IDX 65 56 48 57 64 58 49 59 52 60 63 61 79 62 50 63 51 64 62 66
REMARK SMILES IDX 80 67 53 68 40 69 41 70 46 71 42 72 43 73 45 74 47 75 44 76
REMARK SMILES IDX 66 77 67 78 72 79 68 80 69 81 71 82 73 83 70 84 54 85 55 86
REMARK SMILES IDX 60 87 56 88 57 89 59 90 61 91 58 92
REMARK H PARENT 15 14 15 15 78 54 52 65
REMARK Flexibility Score: inf
ROOT
ATOM      1  C   UNL A   1      42.853  19.404  25.814  1.00  0.00     0.188 C 
ENDROOT
BRANCH   1   2
ATOM      2  O   UNL A   1      41.482  19.442  25.432  1.00  0.00    -0.376 OA
BRANCH   2   3
ATOM      3  C   UNL A   1      40.523  19.907  26.369  1.00  0.00     0.202 C 
BRANCH   3   4
ATOM      4  C   UNL A   1      39.783  21.189  25.992  1.00  0.00     0.261 C 
BRANCH   4   5
ATOM      5  O   UNL A   1      38.483  20.929  25.427  1.00  0.00    -0.459 OA
BRANCH   5   6
ATOM      6  C   UNL A   1      37.608  21.966  25.488  1.00  0.00     0.366 C 
ATOM      7  O   UNL A   1      37.929  23.138  25.664  1.00  0.00    -0.245 OA
BRANCH   6   8
ATOM      8  C   UNL A   1      36.160  21.547  25.270  1.00  0.00     0.308 C 
ATOM      9  N   UNL A   1      33.803  22.041  25.631  1.00  0.00    -0.185 NA
ATOM     10  C   UNL A   1      33.425  20.609  25.511  1.00  0.00     0.164 C 
ATOM     11  C   UNL A   1      35.162  22.225  26.206  1.00  0.00     0.180 C 
ATOM     12  C   UNL A   1      34.545  19.721  24.917  1.00  0.00     0.278 C 
ATOM     13  N   UNL A   1      35.953  20.065  25.234  1.00  0.00    -0.332 N 
ATOM     14  H   UNL A   1      36.561  19.662  24.521  1.00  0.00     0.347 HD
ATOM     15  H   UNL A   1      36.175  19.688  26.156  1.00  0.00     0.347 HD
BRANCH   9  16
ATOM     16  S   UNL A   1      33.256  23.182  24.494  1.00  0.00     0.253 S 
ATOM     17  O   UNL A   1      32.035  22.641  23.937  1.00  0.00    -0.206 OA
ATOM     18  O   UNL A   1      34.380  23.546  23.657  1.00  0.00    -0.206 OA
BRANCH  16  19
ATOM     19  C   UNL A   1      32.780  24.728  25.279  1.00  0.00     0.135 A 
ATOM     20  C   UNL A   1      32.835  27.099  26.001  1.00  0.00     0.055 A 
ATOM     21  C   UNL A   1      31.709  26.448  26.444  1.00  0.00     0.023 A 
ATOM     22  S   UNL A   1      33.817  26.087  25.045  1.00  0.00    -0.121 S 
ATOM     23  C   UNL A   1      31.720  25.078  26.097  1.00  0.00     0.034 A 
BRANCH  20  24
ATOM     24  C   UNL A   1      33.095  28.514  26.412  1.00  0.00     0.091 A 
ATOM     25  C   UNL A   1      31.532  31.781  26.807  1.00  0.00     0.079 C 
ATOM     26  C   UNL A   1      32.439  30.604  26.748  1.00  0.00     0.090 A 
ATOM     27  N   UNL A   1      32.087  29.449  26.237  1.00  0.00    -0.241 NA
ATOM     28  S   UNL A   1      34.040  30.670  27.366  1.00  0.00    -0.127 S 
ATOM     29  C   UNL A   1      34.243  29.000  26.998  1.00  0.00     0.096 A 
ENDBRANCH  20  24
ENDBRANCH  16  19
ENDBRANCH   9  16
ENDBRANCH   6   8
ENDBRANCH   5   6
ENDBRANCH   4   5
ENDBRANCH   3   4
ENDBRANCH   2   3
ENDBRANCH   1   2
BRANCH   1  30
ATOM     30  C   UNL A   1      43.814  20.468  25.246  1.00  0.00     0.188 C 
BRANCH  30  31
ATOM     31  O   UNL A   1      44.284  21.509  26.088  1.00  0.00    -0.376 OA
BRANCH  31  32
ATOM     32  C   UNL A   1      43.892  22.839  25.786  1.00  0.00     0.202 C 
BRANCH  32  33
ATOM     33  C   UNL A   1      43.157  23.567  26.911  1.00  0.00     0.261 C 
BRANCH  33  34
ATOM     34  O   UNL A   1      41.945  24.185  26.443  1.00  0.00    -0.460 OA
BRANCH  34  35
ATOM     35  C   UNL A   1      42.056  25.458  25.996  1.00  0.00     0.338 C 
ATOM     36  O   UNL A   1      42.434  25.826  24.896  1.00  0.00    -0.246 OA
BRANCH  35  37
ATOM     37  C   UNL A   1      41.497  26.387  26.999  1.00  0.00     0.060 A 
ATOM     38  C   UNL A   1      42.075  27.658  27.126  1.00  0.00     0.016 A 
ATOM     39  C   UNL A   1      40.465  25.991  27.853  1.00  0.00     0.016 A 
ATOM     40  C   UNL A   1      41.657  28.519  28.142  1.00  0.00     0.010 A 
ATOM     41  C   UNL A   1      40.059  26.847  28.877  1.00  0.00     0.010 A 
ATOM     42  C   UNL A   1      40.676  28.099  29.049  1.00  0.00    -0.014 A 
BRANCH  42  43
ATOM     43  C   UNL A   1      40.401  28.868  30.286  1.00  0.00     0.031 A 
ATOM     44  C   UNL A   1      39.326  29.916  30.253  1.00  0.00     0.074 A 
ATOM     45  C   UNL A   1      41.124  28.677  31.402  1.00  0.00     0.049 A 
ATOM     46  N   UNL A   1      39.036  30.839  31.134  1.00  0.00    -0.248 NA
ATOM     47  C   UNL A   1      38.464  29.929  29.060  1.00  0.00     0.031 C 
ATOM     48  C   UNL A   1      42.150  27.652  31.583  1.00  0.00     0.029 A 
ATOM     49  N   UNL A   1      41.118  29.367  32.589  1.00  0.00    -0.354 N 
ATOM     50  C   UNL A   1      37.974  31.552  30.595  1.00  0.00     0.074 A 
ATOM     51  C   UNL A   1      37.673  30.961  29.309  1.00  0.00     0.031 C 
ATOM     52  C   UNL A   1      42.700  27.802  32.801  1.00  0.00     0.029 A 
ATOM     53  C   UNL A   1      42.096  28.958  33.463  1.00  0.00     0.049 A 
ATOM     54  H   UNL A   1      40.476  30.085  32.794  1.00  0.00     0.167 HD
ATOM     55  C   UNL A   1      37.314  32.610  31.122  1.00  0.00     0.037 A 
ATOM     56  C   UNL A   1      42.486  29.489  34.637  1.00  0.00     0.037 A 
ATOM     57  C   UNL A   1      37.618  33.200  32.397  1.00  0.00     0.049 A 
ATOM     58  C   UNL A   1      41.800  30.723  35.163  1.00  0.00     0.074 A 
ATOM     59  C   UNL A   1      37.007  34.275  33.017  1.00  0.00     0.029 A 
ATOM     60  N   UNL A   1      38.627  32.767  33.243  1.00  0.00    -0.354 N 
ATOM     61  N   UNL A   1      40.802  31.398  34.646  1.00  0.00    -0.248 NA
ATOM     62  C   UNL A   1      42.305  31.278  36.429  1.00  0.00     0.031 C 
ATOM     63  C   UNL A   1      37.671  34.518  34.224  1.00  0.00     0.029 A 
ATOM     64  C   UNL A   1      38.668  33.567  34.372  1.00  0.00     0.049 A 
ATOM     65  H   UNL A   1      39.224  32.005  33.067  1.00  0.00     0.167 HD
ATOM     66  C   UNL A   1      40.540  32.434  35.536  1.00  0.00     0.074 A 
ATOM     67  C   UNL A   1      41.484  32.301  36.625  1.00  0.00     0.031 C 
ATOM     68  C   UNL A   1      39.599  33.407  35.458  1.00  0.00     0.037 A 
BRANCH  55  69
ATOM     69  C   UNL A   1      36.219  33.216  30.299  1.00  0.00     0.057 A 
ATOM     70  C   UNL A   1      36.490  34.055  29.212  1.00  0.00     0.134 A 
ATOM     71  C   UNL A   1      34.877  32.937  30.586  1.00  0.00     0.134 A 
ATOM     72  F   UNL A   1      37.755  34.374  28.898  1.00  0.00    -0.206 F 
ATOM     73  C   UNL A   1      35.463  34.609  28.447  1.00  0.00     0.040 A 
ATOM     74  C   UNL A   1      33.842  33.468  29.815  1.00  0.00     0.040 A 
ATOM     75  F   UNL A   1      34.552  32.139  31.615  1.00  0.00    -0.206 F 
ATOM     76  C   UNL A   1      34.134  34.311  28.745  1.00  0.00     0.006 A 
ENDBRANCH  55  69
BRANCH  56  77
ATOM     77  C   UNL A   1      43.615  28.883  35.387  1.00  0.00     0.057 A 
ATOM     78  C   UNL A   1      44.939  29.240  35.115  1.00  0.00     0.134 A 
ATOM     79  C   UNL A   1      43.396  27.914  36.375  1.00  0.00     0.134 A 
ATOM     80  F   UNL A   1      45.212  30.140  34.159  1.00  0.00    -0.206 F 
ATOM     81  C   UNL A   1      46.009  28.646  35.786  1.00  0.00     0.040 A 
ATOM     82  C   UNL A   1      44.455  27.330  37.071  1.00  0.00     0.040 A 
ATOM     83  F   UNL A   1      42.149  27.524  36.678  1.00  0.00    -0.206 F 
ATOM     84  C   UNL A   1      45.767  27.692  36.772  1.00  0.00     0.006 A 
ENDBRANCH  56  77
BRANCH  68  85
ATOM     85  C   UNL A   1      39.503  34.375  36.598  1.00  0.00     0.057 A 
ATOM     86  C   UNL A   1      38.831  34.055  37.783  1.00  0.00     0.134 A 
ATOM     87  C   UNL A   1      40.159  35.611  36.535  1.00  0.00     0.134 A 
ATOM     88  F   UNL A   1      38.175  32.892  37.900  1.00  0.00    -0.206 F 
ATOM     89  C   UNL A   1      38.813  34.935  38.867  1.00  0.00     0.040 A 
ATOM     90  C   UNL A   1      40.164  36.490  37.618  1.00  0.00     0.040 A 
ATOM     91  F   UNL A   1      40.827  35.971  35.429  1.00  0.00    -0.206 F 
ATOM     92  C   UNL A   1      39.488  36.153  38.789  1.00  0.00     0.006 A 
ENDBRANCH  68  85
ENDBRANCH  42  43
ENDBRANCH  35  37
ENDBRANCH  34  35
ENDBRANCH  33  34
ENDBRANCH  32  33
ENDBRANCH  31  32
ENDBRANCH  30  31
ENDBRANCH   1  30
TORSDOF 20
ENDMDL
MODEL 3
REMARK VINA RESULT:     -10.8      4.684     10.300
REMARK SMILES Cc1nc(-c2ccc(S(=O)(=O)N3CC[NH2+][C@H](C(=O)OCCOCCOCCOC(=O)c4ccc(-c5c6nc(c(-c7c(F)cccc7F)c7ccc([nH]7)c(-c7c(F)cccc7F)c7nc(c(-c8c(F)cccc8F)c8ccc5[nH]8)C=C7)C=C6)cc4)C3)s2)cs1
REMARK SMILES IDX 23 1 22 2 21 3 20 4 19 5 17 6 18 7 16 8 12 9 13 10 85 11
REMARK SMILES IDX 14 12 15 13 9 16 10 17 11 18 8 19 5 20 6 21 86 22 7 23 4 24
REMARK SMILES IDX 1 25 2 26 3 27 88 28 87 29 24 30 25 31 26 32 27 33 28 34
REMARK SMILES IDX 29 35 30 36 31 37 32 38 84 39 33 40 83 41 34 42 35 43 36 44
REMARK SMILES IDX 77 45 37 46 82 47 76 48 78 49 38 50 81 51 75 52 74 53 39 55
REMARK SMILES IDX 65 56 48 57 64 58 49 59 52 60 63 61 79 62 50 63 51 64 62 66
REMARK SMILES IDX 80 67 53 68 40 69 41 70 46 71 42 72 43 73 45 74 47 75 44 76
REMARK SMILES IDX 66 77 67 78 72 79 68 80 69 81 71 82 73 83 70 84 54 85 55 86
REMARK SMILES IDX 60 87 56 88 57 89 59 90 61 91 58 92
REMARK H PARENT 15 14 15 15 78 54 52 65
REMARK Flexibility Score: inf
ROOT
ATOM      1  C   UNL A   1      37.670  20.313  25.040  1.00  0.00     0.188 C 
ENDROOT
BRANCH   1   2
ATOM      2  O   UNL A   1      36.263  20.309  24.828  1.00  0.00    -0.376 OA
BRANCH   2   3
ATOM      3  C   UNL A   1      35.563  19.076  24.896  1.00  0.00     0.202 C 
BRANCH   3   4
ATOM      4  C   UNL A   1      34.043  19.160  24.768  1.00  0.00     0.261 C 
BRANCH   4   5
ATOM      5  O   UNL A   1      33.614  20.340  24.060  1.00  0.00    -0.459 OA
BRANCH   5   6
ATOM      6  C   UNL A   1      32.731  21.126  24.727  1.00  0.00     0.366 C 
ATOM      7  O   UNL A   1      31.765  20.708  25.357  1.00  0.00    -0.245 OA
BRANCH   6   8
ATOM      8  C   UNL A   1      33.077  22.608  24.665  1.00  0.00     0.308 C 
ATOM      9  N   UNL A   1      32.412  24.844  23.965  1.00  0.00    -0.185 NA
ATOM     10  C   UNL A   1      33.823  25.304  23.890  1.00  0.00     0.164 C 
ATOM     11  C   UNL A   1      32.265  23.400  23.642  1.00  0.00     0.180 C 
ATOM     12  C   UNL A   1      34.823  24.344  24.579  1.00  0.00     0.278 C 
ATOM     13  N   UNL A   1      34.542  22.889  24.531  1.00  0.00    -0.332 N 
ATOM     14  H   UNL A   1      35.038  22.430  25.295  1.00  0.00     0.347 HD
ATOM     15  H   UNL A   1      34.855  22.531  23.628  1.00  0.00     0.347 HD
BRANCH   9  16
ATOM     16  S   UNL A   1      31.335  25.522  25.095  1.00  0.00     0.253 S 
ATOM     17  O   UNL A   1      32.136  26.361  25.960  1.00  0.00    -0.206 OA
ATOM     18  O   UNL A   1      30.513  24.453  25.619  1.00  0.00    -0.206 OA
BRANCH  16  19
ATOM     19  C   UNL A   1      30.158  26.632  24.309  1.00  0.00     0.135 A 
ATOM     20  C   UNL A   1      29.223  28.632  23.181  1.00  0.00     0.055 A 
ATOM     21  C   UNL A   1      28.281  27.646  23.356  1.00  0.00     0.023 A 
ATOM     22  S   UNL A   1      30.757  28.149  23.745  1.00  0.00    -0.121 S 
ATOM     23  C   UNL A   1      28.799  26.541  24.069  1.00  0.00     0.034 A 
BRANCH  20  24
ATOM     24  C   UNL A   1      28.828  29.953  22.602  1.00  0.00     0.091 A 
ATOM     25  C   UNL A   1      29.033  33.554  23.118  1.00  0.00     0.079 C 
ATOM     26  C   UNL A   1      28.779  32.168  22.641  1.00  0.00     0.090 A 
ATOM     27  N   UNL A   1      29.083  31.100  23.338  1.00  0.00    -0.241 NA
ATOM     28  S   UNL A   1      28.062  31.862  21.111  1.00  0.00    -0.127 S 
ATOM     29  C   UNL A   1      28.257  30.170  21.367  1.00  0.00     0.096 A 
ENDBRANCH  20  24
ENDBRANCH  16  19
ENDBRANCH   9  16
ENDBRANCH   6   8
ENDBRANCH   5   6
ENDBRANCH   4   5
ENDBRANCH   3   4
ENDBRANCH   2   3
ENDBRANCH   1   2
BRANCH   1  30
ATOM     30  C   UNL A   1      38.341  21.595  25.568  1.00  0.00     0.188 C 
BRANCH  30  31
ATOM     31  O   UNL A   1      39.392  21.498  26.517  1.00  0.00    -0.376 OA
BRANCH  31  32
ATOM     32  C   UNL A   1      40.499  20.667  26.205  1.00  0.00     0.202 C 
BRANCH  32  33
ATOM     33  C   UNL A   1      41.785  21.410  25.845  1.00  0.00     0.261 C 
BRANCH  33  34
ATOM     34  O   UNL A   1      41.545  22.811  25.619  1.00  0.00    -0.460 OA
BRANCH  34  35
ATOM     35  C   UNL A   1      42.638  23.609  25.589  1.00  0.00     0.338 C 
ATOM     36  O   UNL A   1      43.487  23.668  24.717  1.00  0.00    -0.246 OA
BRANCH  35  37
ATOM     37  C   UNL A   1      42.597  24.551  26.727  1.00  0.00     0.060 A 
ATOM     38  C   UNL A   1      41.819  24.213  27.844  1.00  0.00     0.016 A 
ATOM     39  C   UNL A   1      43.255  25.781  26.670  1.00  0.00     0.016 A 
ATOM     40  C   UNL A   1      41.657  25.127  28.886  1.00  0.00     0.010 A 
ATOM     41  C   UNL A   1      43.080  26.699  27.706  1.00  0.00     0.010 A 
ATOM     42  C   UNL A   1      42.252  26.392  28.800  1.00  0.00    -0.014 A 
BRANCH  42  43
ATOM     43  C   UNL A   1      41.888  27.473  29.747  1.00  0.00     0.031 A 
ATOM     44  C   UNL A   1      42.610  27.546  31.062  1.00  0.00     0.074 A 
ATOM     45  C   UNL A   1      40.901  28.341  29.468  1.00  0.00     0.049 A 
ATOM     46  N   UNL A   1      42.341  28.268  32.119  1.00  0.00    -0.248 NA
ATOM     47  C   UNL A   1      43.794  26.683  31.205  1.00  0.00     0.031 C 
ATOM     48  C   UNL A   1      40.167  28.415  28.208  1.00  0.00     0.029 A 
ATOM     49  N   UNL A   1      40.329  29.312  30.254  1.00  0.00    -0.354 N 
ATOM     50  C   UNL A   1      43.308  27.933  33.057  1.00  0.00     0.074 A 
ATOM     51  C   UNL A   1      44.167  26.940  32.449  1.00  0.00     0.031 C 
ATOM     52  C   UNL A   1      39.217  29.360  28.315  1.00  0.00     0.029 A 
ATOM     53  C   UNL A   1      39.249  29.922  29.665  1.00  0.00     0.049 A 
ATOM     54  H   UNL A   1      40.662  29.547  31.150  1.00  0.00     0.167 HD
ATOM     55  C   UNL A   1      43.461  28.406  34.316  1.00  0.00     0.037 A 
ATOM     56  C   UNL A   1      38.362  30.797  30.177  1.00  0.00     0.037 A 
ATOM     57  C   UNL A   1      42.604  29.388  34.923  1.00  0.00     0.049 A 
ATOM     58  C   UNL A   1      38.495  31.241  31.611  1.00  0.00     0.074 A 
ATOM     59  C   UNL A   1      42.677  29.930  36.193  1.00  0.00     0.029 A 
ATOM     60  N   UNL A   1      41.511  29.969  34.299  1.00  0.00    -0.354 N 
ATOM     61  N   UNL A   1      39.406  30.916  32.497  1.00  0.00    -0.248 NA
ATOM     62  C   UNL A   1      37.468  32.162  32.122  1.00  0.00     0.031 C 
ATOM     63  C   UNL A   1      41.604  30.813  36.353  1.00  0.00     0.029 A 
ATOM     64  C   UNL A   1      40.889  30.849  35.166  1.00  0.00     0.049 A 
ATOM     65  H   UNL A   1      41.221  29.783  33.377  1.00  0.00     0.167 HD
ATOM     66  C   UNL A   1      39.081  31.614  33.654  1.00  0.00     0.074 A 
ATOM     67  C   UNL A   1      37.889  32.381  33.361  1.00  0.00     0.031 C 
ATOM     68  C   UNL A   1      39.716  31.622  34.851  1.00  0.00     0.037 A 
BRANCH  55  69
ATOM     69  C   UNL A   1      44.581  27.838  35.133  1.00  0.00     0.057 A 
ATOM     70  C   UNL A   1      45.830  28.466  35.213  1.00  0.00     0.134 A 
ATOM     71  C   UNL A   1      44.399  26.658  35.866  1.00  0.00     0.134 A 
ATOM     72  F   UNL A   1      46.072  29.588  34.519  1.00  0.00    -0.206 F 
ATOM     73  C   UNL A   1      46.864  27.932  35.983  1.00  0.00     0.040 A 
ATOM     74  C   UNL A   1      45.419  26.127  36.656  1.00  0.00     0.040 A 
ATOM     75  F   UNL A   1      43.224  26.010  35.832  1.00  0.00    -0.206 F 
ATOM     76  C   UNL A   1      46.658  26.761  36.712  1.00  0.00     0.006 A 
ENDBRANCH  55  69
BRANCH  56  77
ATOM     77  C   UNL A   1      37.237  31.288  29.343  1.00  0.00     0.057 A 
ATOM     78  C   UNL A   1      37.266  32.561  28.765  1.00  0.00     0.134 A 
ATOM     79  C   UNL A   1      36.096  30.506  29.127  1.00  0.00     0.134 A 
ATOM     80  F   UNL A   1      38.320  33.367  28.962  1.00  0.00    -0.206 F 
ATOM     81  C   UNL A   1      36.196  33.047  28.013  1.00  0.00     0.040 A 
ATOM     82  C   UNL A   1      35.028  30.969  28.358  1.00  0.00     0.040 A 
ATOM     83  F   UNL A   1      36.004  29.278  29.660  1.00  0.00    -0.206 F 
ATOM     84  C   UNL A   1      35.074  32.246  27.803  1.00  0.00     0.006 A 
ENDBRANCH  56  77
BRANCH  68  85
ATOM     85  C   UNL A   1      39.173  32.520  35.922  1.00  0.00     0.057 A 
ATOM     86  C   UNL A   1      38.260  32.060  36.878  1.00  0.00     0.134 A 
ATOM     87  C   UNL A   1      39.633  33.837  36.042  1.00  0.00     0.134 A 
ATOM     88  F   UNL A   1      37.775  30.812  36.810  1.00  0.00    -0.206 F 
ATOM     89  C   UNL A   1      37.820  32.884  37.916  1.00  0.00     0.040 A 
ATOM     90  C   UNL A   1      39.215  34.664  37.085  1.00  0.00     0.040 A 
ATOM     91  F   UNL A   1      40.515  34.333  35.161  1.00  0.00    -0.206 F 
ATOM     92  C   UNL A   1      38.305  34.187  38.026  1.00  0.00     0.006 A 
ENDBRANCH  68  85
ENDBRANCH  42  43
ENDBRANCH  35  37
ENDBRANCH  34  35
ENDBRANCH  33  34
ENDBRANCH  32  33
ENDBRANCH  31  32
ENDBRANCH  30  31
ENDBRANCH   1  30
TORSDOF 20
ENDMDL
