MODEL 1
REMARK VINA RESULT:     -11.8      0.000      0.000
REMARK SMILES Cc1cc(NC(=O)c2ccc(Br)cc2N)ccc1C(=O)OCCOCCOCCOC(=O)c1ccc(-c2c3nc(c(-c4c(F)cccc4F)c4ccc([nH]4)c(-c4c(F)cccc4F)c4nc(c(-c5c(F)cccc5F)c5ccc2[nH]5)C=C4)C=C3)cc1
REMARK SMILES IDX 25 1 24 2 23 3 22 4 21 5 19 6 20 7 18 8 1 9 2 10 3 11 4 12
REMARK SMILES IDX 17 13 16 14 5 15 6 16 7 18 8 19 9 20 14 21 10 22 13 23 11 24
REMARK SMILES IDX 12 25 15 26 26 29 27 30 28 31 29 32 30 33 31 34 32 35 33 36
REMARK SMILES IDX 34 37 86 38 35 39 85 40 36 41 37 42 38 43 79 44 39 45 84 46
REMARK SMILES IDX 78 47 80 48 40 49 83 50 77 51 76 52 41 54 67 55 50 56 66 57
REMARK SMILES IDX 51 58 54 59 65 60 81 61 52 62 53 63 64 65 82 66 55 67 42 68
REMARK SMILES IDX 43 69 48 70 44 71 45 72 47 73 49 74 46 75 68 76 69 77 74 78
REMARK SMILES IDX 70 79 71 80 73 81 75 82 72 83 56 84 57 85 62 86 58 87 59 88
REMARK SMILES IDX 61 89 63 90 60 91
REMARK H PARENT 5 17 15 27 15 28 80 53 54 64
REMARK Flexibility Score: inf
ROOT
ATOM      1  C   UNL A   1      37.772  22.158  25.304  1.00  0.00     0.188 C 
ENDROOT
BRANCH   1   2
ATOM      2  O   UNL A   1      36.858  21.052  25.104  1.00  0.00    -0.376 OA
BRANCH   2   3
ATOM      3  C   UNL A   1      35.472  21.015  25.534  1.00  0.00     0.202 C 
BRANCH   3   4
ATOM      4  C   UNL A   1      34.363  19.949  24.857  1.00  0.00     0.261 C 
BRANCH   4   5
ATOM      5  O   UNL A   1      32.871  20.311  24.233  1.00  0.00    -0.460 OA
BRANCH   5   6
ATOM      6  C   UNL A   1      32.375  21.360  23.412  1.00  0.00     0.338 C 
ATOM      7  O   UNL A   1      31.846  21.277  22.305  1.00  0.00    -0.246 OA
BRANCH   6   8
ATOM      8  C   UNL A   1      32.312  22.813  23.694  1.00  0.00     0.063 A 
ATOM      9  C   UNL A   1      34.547  23.078  22.614  1.00  0.00     0.045 C 
ATOM     10  C   UNL A   1      33.225  23.625  23.042  1.00  0.00    -0.035 A 
ATOM     11  C   UNL A   1      32.780  24.875  22.563  1.00  0.00     0.030 A 
ATOM     12  C   UNL A   1      31.452  25.315  22.723  1.00  0.00     0.041 A 
ATOM     13  C   UNL A   1      30.998  23.341  23.952  1.00  0.00     0.018 A 
ATOM     14  C   UNL A   1      30.577  24.595  23.511  1.00  0.00     0.027 A 
BRANCH  12  15
ATOM     15  N   UNL A   1      30.927  26.398  22.001  1.00  0.00    -0.322 N 
ATOM     16  C   UNL A   1      30.863  27.715  22.412  1.00  0.00     0.257 C 
ATOM     17  H   UNL A   1      30.565  26.197  21.107  1.00  0.00     0.170 HD
ATOM     18  O   UNL A   1      30.158  28.529  21.820  1.00  0.00    -0.269 OA
BRANCH  16  19
ATOM     19  C   UNL A   1      31.726  28.175  23.532  1.00  0.00     0.063 A 
ATOM     20  C   UNL A   1      31.100  28.341  24.777  1.00  0.00     0.017 A 
ATOM     21  C   UNL A   1      33.107  28.432  23.376  1.00  0.00     0.045 A 
ATOM     22  C   UNL A   1      31.845  28.744  25.885  1.00  0.00     0.016 A 
ATOM     23  C   UNL A   1      33.826  28.874  24.496  1.00  0.00     0.042 A 
ATOM     24  C   UNL A   1      33.203  29.009  25.738  1.00  0.00     0.020 A 
ATOM     25  Br  UNL A   1      34.217  29.578  27.231  1.00  0.00    -0.051 Br
BRANCH  21  26
ATOM     26  N   UNL A   1      33.760  28.428  22.143  1.00  0.00    -0.398 N 
ATOM     27  H   UNL A   1      34.736  28.312  22.104  1.00  0.00     0.156 HD
ATOM     28  H   UNL A   1      33.244  28.540  21.313  1.00  0.00     0.156 HD
ENDBRANCH  21  26
ENDBRANCH  16  19
ENDBRANCH  12  15
ENDBRANCH   6   8
ENDBRANCH   5   6
ENDBRANCH   4   5
ENDBRANCH   3   4
ENDBRANCH   2   3
ENDBRANCH   1   2
BRANCH   1  29
ATOM     29  C   UNL A   1      39.049  22.081  26.149  1.00  0.00     0.188 C 
BRANCH  29  30
ATOM     30  O   UNL A   1      39.699  20.840  25.955  1.00  0.00    -0.376 OA
BRANCH  30  31
ATOM     31  C   UNL A   1      40.770  20.552  26.842  1.00  0.00     0.202 C 
BRANCH  31  32
ATOM     32  C   UNL A   1      42.160  20.595  26.167  1.00  0.00     0.261 C 
BRANCH  32  33
ATOM     33  O   UNL A   1      42.349  21.829  25.426  1.00  0.00    -0.460 OA
BRANCH  33  34
ATOM     34  C   UNL A   1      43.078  22.832  26.019  1.00  0.00     0.338 C 
ATOM     35  O   UNL A   1      44.223  22.713  26.428  1.00  0.00    -0.246 OA
BRANCH  34  36
ATOM     36  C   UNL A   1      42.194  24.014  26.314  1.00  0.00     0.060 A 
ATOM     37  C   UNL A   1      42.106  25.232  25.617  1.00  0.00     0.016 A 
ATOM     38  C   UNL A   1      41.694  24.043  27.566  1.00  0.00     0.016 A 
ATOM     39  C   UNL A   1      41.636  26.469  26.262  1.00  0.00     0.010 A 
ATOM     40  C   UNL A   1      41.562  25.298  28.150  1.00  0.00     0.010 A 
ATOM     41  C   UNL A   1      41.371  26.562  27.630  1.00  0.00    -0.014 A 
BRANCH  41  42
ATOM     42  C   UNL A   1      41.183  27.815  28.594  1.00  0.00     0.031 A 
ATOM     43  C   UNL A   1      40.027  28.993  28.790  1.00  0.00     0.074 A 
ATOM     44  C   UNL A   1      42.199  27.914  29.481  1.00  0.00     0.049 A 
ATOM     45  N   UNL A   1      40.300  30.216  29.214  1.00  0.00    -0.248 NA
ATOM     46  C   UNL A   1      38.536  28.999  28.531  1.00  0.00     0.031 C 
ATOM     47  C   UNL A   1      42.327  28.793  30.636  1.00  0.00     0.029 A 
ATOM     48  N   UNL A   1      43.464  27.317  29.371  1.00  0.00    -0.354 N 
ATOM     49  C   UNL A   1      39.088  30.896  29.400  1.00  0.00     0.074 A 
ATOM     50  C   UNL A   1      38.130  30.251  28.610  1.00  0.00     0.031 C 
ATOM     51  C   UNL A   1      43.636  28.953  30.895  1.00  0.00     0.029 A 
ATOM     52  C   UNL A   1      44.373  28.272  29.843  1.00  0.00     0.049 A 
ATOM     53  H   UNL A   1      43.671  26.415  29.032  1.00  0.00     0.167 HD
ATOM     54  C   UNL A   1      38.845  31.824  30.365  1.00  0.00     0.037 A 
ATOM     55  C   UNL A   1      45.286  28.817  28.995  1.00  0.00     0.037 A 
ATOM     56  C   UNL A   1      40.101  32.342  30.827  1.00  0.00     0.049 A 
ATOM     57  C   UNL A   1      45.140  30.318  28.887  1.00  0.00     0.074 A 
ATOM     58  C   UNL A   1      40.887  32.114  31.935  1.00  0.00     0.029 A 
ATOM     59  N   UNL A   1      40.909  32.934  29.868  1.00  0.00    -0.354 N 
ATOM     60  N   UNL A   1      44.120  30.990  29.353  1.00  0.00    -0.248 NA
ATOM     61  C   UNL A   1      46.128  31.186  28.255  1.00  0.00     0.031 C 
ATOM     62  C   UNL A   1      42.234  32.380  31.538  1.00  0.00     0.029 A 
ATOM     63  C   UNL A   1      42.236  32.842  30.229  1.00  0.00     0.049 A 
ATOM     64  H   UNL A   1      40.581  33.359  29.044  1.00  0.00     0.167 HD
ATOM     65  C   UNL A   1      44.248  32.312  29.028  1.00  0.00     0.074 A 
ATOM     66  C   UNL A   1      45.544  32.390  28.384  1.00  0.00     0.031 C 
ATOM     67  C   UNL A   1      43.262  33.228  29.264  1.00  0.00     0.037 A 
BRANCH  54  68
ATOM     68  C   UNL A   1      37.449  32.179  30.894  1.00  0.00     0.057 A 
ATOM     69  C   UNL A   1      36.563  32.950  30.125  1.00  0.00     0.134 A 
ATOM     70  C   UNL A   1      36.941  31.866  32.184  1.00  0.00     0.134 A 
ATOM     71  F   UNL A   1      36.921  33.405  28.916  1.00  0.00    -0.206 F 
ATOM     72  C   UNL A   1      35.273  33.311  30.568  1.00  0.00     0.040 A 
ATOM     73  C   UNL A   1      35.631  32.147  32.606  1.00  0.00     0.040 A 
ATOM     74  F   UNL A   1      37.703  31.337  33.151  1.00  0.00    -0.206 F 
ATOM     75  C   UNL A   1      34.788  32.880  31.797  1.00  0.00     0.006 A 
ENDBRANCH  54  68
BRANCH  55  76
ATOM     76  C   UNL A   1      45.790  27.855  27.959  1.00  0.00     0.057 A 
ATOM     77  C   UNL A   1      46.726  26.878  28.369  1.00  0.00     0.134 A 
ATOM     78  C   UNL A   1      45.186  27.637  26.716  1.00  0.00     0.134 A 
ATOM     79  F   UNL A   1      47.361  27.009  29.546  1.00  0.00    -0.206 F 
ATOM     80  C   UNL A   1      46.953  25.696  27.655  1.00  0.00     0.040 A 
ATOM     81  C   UNL A   1      45.431  26.465  25.973  1.00  0.00     0.040 A 
ATOM     82  F   UNL A   1      44.241  28.472  26.259  1.00  0.00    -0.206 F 
ATOM     83  C   UNL A   1      46.285  25.474  26.460  1.00  0.00     0.006 A 
ENDBRANCH  55  76
BRANCH  67  84
ATOM     84  C   UNL A   1      43.171  34.568  28.565  1.00  0.00     0.057 A 
ATOM     85  C   UNL A   1      43.206  34.727  27.171  1.00  0.00     0.134 A 
ATOM     86  C   UNL A   1      42.855  35.742  29.287  1.00  0.00     0.134 A 
ATOM     87  F   UNL A   1      43.360  33.683  26.344  1.00  0.00    -0.206 F 
ATOM     88  C   UNL A   1      43.020  35.966  26.546  1.00  0.00     0.040 A 
ATOM     89  C   UNL A   1      42.593  36.968  28.669  1.00  0.00     0.040 A 
ATOM     90  F   UNL A   1      42.749  35.736  30.625  1.00  0.00    -0.206 F 
ATOM     91  C   UNL A   1      42.698  37.089  27.292  1.00  0.00     0.006 A 
ENDBRANCH  67  84
ENDBRANCH  41  42
ENDBRANCH  34  36
ENDBRANCH  33  34
ENDBRANCH  32  33
ENDBRANCH  31  32
ENDBRANCH  30  31
ENDBRANCH  29  30
ENDBRANCH   1  29
TORSDOF 20
ENDMDL
MODEL 2
REMARK VINA RESULT:     -11.7      1.753      2.913
REMARK SMILES Cc1cc(NC(=O)c2ccc(Br)cc2N)ccc1C(=O)OCCOCCOCCOC(=O)c1ccc(-c2c3nc(c(-c4c(F)cccc4F)c4ccc([nH]4)c(-c4c(F)cccc4F)c4nc(c(-c5c(F)cccc5F)c5ccc2[nH]5)C=C4)C=C3)cc1
REMARK SMILES IDX 25 1 24 2 23 3 22 4 21 5 19 6 20 7 18 8 1 9 2 10 3 11 4 12
REMARK SMILES IDX 17 13 16 14 5 15 6 16 7 18 8 19 9 20 14 21 10 22 13 23 11 24
REMARK SMILES IDX 12 25 15 26 26 29 27 30 28 31 29 32 30 33 31 34 32 35 33 36
REMARK SMILES IDX 34 37 86 38 35 39 85 40 36 41 37 42 38 43 79 44 39 45 84 46
REMARK SMILES IDX 78 47 80 48 40 49 83 50 77 51 76 52 41 54 67 55 50 56 66 57
REMARK SMILES IDX 51 58 54 59 65 60 81 61 52 62 53 63 64 65 82 66 55 67 42 68
REMARK SMILES IDX 43 69 48 70 44 71 45 72 47 73 49 74 46 75 68 76 69 77 74 78
REMARK SMILES IDX 70 79 71 80 73 81 75 82 72 83 56 84 57 85 62 86 58 87 59 88
REMARK SMILES IDX 61 89 63 90 60 91
REMARK H PARENT 5 17 15 27 15 28 80 53 54 64
REMARK Flexibility Score: inf
ROOT
ATOM      1  C   UNL A   1      42.257  20.141  26.461  1.00  0.00     0.188 C 
ENDROOT
BRANCH   1   2
ATOM      2  O   UNL A   1      41.144  20.951  26.009  1.00  0.00    -0.376 OA
BRANCH   2   3
ATOM      3  C   UNL A   1      40.309  21.784  26.856  1.00  0.00     0.202 C 
BRANCH   3   4
ATOM      4  C   UNL A   1      39.059  22.715  26.227  1.00  0.00     0.261 C 
BRANCH   4   5
ATOM      5  O   UNL A   1      37.554  22.200  25.766  1.00  0.00    -0.460 OA
BRANCH   5   6
ATOM      6  C   UNL A   1      36.348  22.866  25.417  1.00  0.00     0.338 C 
ATOM      7  O   UNL A   1      36.007  24.017  25.685  1.00  0.00    -0.246 OA
BRANCH   6   8
ATOM      8  C   UNL A   1      35.216  22.375  24.597  1.00  0.00     0.063 A 
ATOM      9  C   UNL A   1      34.105  21.574  26.684  1.00  0.00     0.045 C 
ATOM     10  C   UNL A   1      34.051  22.035  25.264  1.00  0.00    -0.035 A 
ATOM     11  C   UNL A   1      32.819  22.383  24.671  1.00  0.00     0.030 A 
ATOM     12  C   UNL A   1      32.740  23.060  23.440  1.00  0.00     0.041 A 
ATOM     13  C   UNL A   1      35.101  22.954  23.284  1.00  0.00     0.018 A 
ATOM     14  C   UNL A   1      33.879  23.258  22.686  1.00  0.00     0.027 A 
BRANCH  12  15
ATOM     15  N   UNL A   1      31.558  23.672  22.994  1.00  0.00    -0.322 N 
ATOM     16  C   UNL A   1      30.960  24.801  23.520  1.00  0.00     0.257 C 
ATOM     17  H   UNL A   1      31.106  23.251  22.227  1.00  0.00     0.170 HD
ATOM     18  O   UNL A   1      29.806  25.102  23.226  1.00  0.00    -0.269 OA
BRANCH  16  19
ATOM     19  C   UNL A   1      31.755  25.715  24.383  1.00  0.00     0.063 A 
ATOM     20  C   UNL A   1      32.738  26.484  23.741  1.00  0.00     0.017 A 
ATOM     21  C   UNL A   1      31.544  25.825  25.776  1.00  0.00     0.045 A 
ATOM     22  C   UNL A   1      33.509  27.385  24.477  1.00  0.00     0.016 A 
ATOM     23  C   UNL A   1      32.358  26.709  26.499  1.00  0.00     0.042 A 
ATOM     24  C   UNL A   1      33.315  27.491  25.851  1.00  0.00     0.020 A 
ATOM     25  Br  UNL A   1      34.372  28.696  26.858  1.00  0.00    -0.051 Br
BRANCH  21  26
ATOM     26  N   UNL A   1      30.689  24.991  26.497  1.00  0.00    -0.398 N 
ATOM     27  H   UNL A   1      31.044  24.437  27.229  1.00  0.00     0.156 HD
ATOM     28  H   UNL A   1      29.731  24.956  26.273  1.00  0.00     0.156 HD
ENDBRANCH  21  26
ENDBRANCH  16  19
ENDBRANCH  12  15
ENDBRANCH   6   8
ENDBRANCH   5   6
ENDBRANCH   4   5
ENDBRANCH   3   4
ENDBRANCH   2   3
ENDBRANCH   1   2
BRANCH   1  29
ATOM     29  C   UNL A   1      42.753  18.879  25.745  1.00  0.00     0.188 C 
BRANCH  29  30
ATOM     30  O   UNL A   1      43.702  19.212  24.751  1.00  0.00    -0.376 OA
BRANCH  30  31
ATOM     31  C   UNL A   1      45.066  19.043  25.110  1.00  0.00     0.202 C 
BRANCH  31  32
ATOM     32  C   UNL A   1      45.926  20.308  24.879  1.00  0.00     0.261 C 
BRANCH  32  33
ATOM     33  O   UNL A   1      45.346  21.467  25.532  1.00  0.00    -0.460 OA
BRANCH  33  34
ATOM     34  C   UNL A   1      44.819  22.458  24.739  1.00  0.00     0.338 C 
ATOM     35  O   UNL A   1      45.260  22.785  23.647  1.00  0.00    -0.246 OA
BRANCH  34  36
ATOM     36  C   UNL A   1      43.785  23.243  25.502  1.00  0.00     0.060 A 
ATOM     37  C   UNL A   1      42.846  24.161  25.002  1.00  0.00     0.016 A 
ATOM     38  C   UNL A   1      44.016  23.335  26.827  1.00  0.00     0.016 A 
ATOM     39  C   UNL A   1      42.273  25.227  25.841  1.00  0.00     0.010 A 
ATOM     40  C   UNL A   1      43.659  24.534  27.434  1.00  0.00     0.010 A 
ATOM     41  C   UNL A   1      42.708  25.491  27.141  1.00  0.00    -0.014 A 
BRANCH  41  42
ATOM     42  C   UNL A   1      42.499  26.745  28.098  1.00  0.00     0.031 A 
ATOM     43  C   UNL A   1      41.261  27.815  28.392  1.00  0.00     0.074 A 
ATOM     44  C   UNL A   1      43.584  26.961  28.876  1.00  0.00     0.049 A 
ATOM     45  N   UNL A   1      41.457  29.069  28.766  1.00  0.00    -0.248 NA
ATOM     46  C   UNL A   1      39.758  27.675  28.285  1.00  0.00     0.031 C 
ATOM     47  C   UNL A   1      43.742  27.878  29.997  1.00  0.00     0.029 A 
ATOM     48  N   UNL A   1      44.883  26.482  28.647  1.00  0.00    -0.354 N 
ATOM     49  C   UNL A   1      40.210  29.637  29.063  1.00  0.00     0.074 A 
ATOM     50  C   UNL A   1      39.244  28.885  28.386  1.00  0.00     0.031 C 
ATOM     51  C   UNL A   1      45.049  28.166  30.120  1.00  0.00     0.029 A 
ATOM     52  C   UNL A   1      45.739  27.530  29.009  1.00  0.00     0.049 A 
ATOM     53  H   UNL A   1      45.140  25.595  28.304  1.00  0.00     0.167 HD
ATOM     54  C   UNL A   1      39.977  30.562  30.033  1.00  0.00     0.037 A 
ATOM     55  C   UNL A   1      46.507  28.136  28.063  1.00  0.00     0.037 A 
ATOM     56  C   UNL A   1      41.218  31.208  30.357  1.00  0.00     0.049 A 
ATOM     57  C   UNL A   1      46.209  29.614  27.947  1.00  0.00     0.074 A 
ATOM     58  C   UNL A   1      42.129  31.082  31.382  1.00  0.00     0.029 A 
ATOM     59  N   UNL A   1      41.866  31.847  29.310  1.00  0.00    -0.354 N 
ATOM     60  N   UNL A   1      45.181  30.199  28.503  1.00  0.00    -0.248 NA
ATOM     61  C   UNL A   1      47.041  30.553  27.204  1.00  0.00     0.031 C 
ATOM     62  C   UNL A   1      43.397  31.463  30.846  1.00  0.00     0.029 A 
ATOM     63  C   UNL A   1      43.225  31.889  29.536  1.00  0.00     0.049 A 
ATOM     64  H   UNL A   1      41.418  32.219  28.517  1.00  0.00     0.167 HD
ATOM     65  C   UNL A   1      45.149  31.518  28.145  1.00  0.00     0.074 A 
ATOM     66  C   UNL A   1      46.361  31.700  27.372  1.00  0.00     0.031 C 
ATOM     67  C   UNL A   1      44.108  32.344  28.466  1.00  0.00     0.037 A 
BRANCH  54  68
ATOM     68  C   UNL A   1      38.613  30.799  30.695  1.00  0.00     0.057 A 
ATOM     69  C   UNL A   1      38.282  30.171  31.906  1.00  0.00     0.134 A 
ATOM     70  C   UNL A   1      37.546  31.568  30.154  1.00  0.00     0.134 A 
ATOM     71  F   UNL A   1      39.145  29.338  32.504  1.00  0.00    -0.206 F 
ATOM     72  C   UNL A   1      37.039  30.348  32.550  1.00  0.00     0.040 A 
ATOM     73  C   UNL A   1      36.337  31.819  30.824  1.00  0.00     0.040 A 
ATOM     74  F   UNL A   1      37.570  32.063  28.909  1.00  0.00    -0.206 F 
ATOM     75  C   UNL A   1      36.075  31.202  32.030  1.00  0.00     0.006 A 
ENDBRANCH  54  68
BRANCH  55  76
ATOM     76  C   UNL A   1      46.994  27.199  26.998  1.00  0.00     0.057 A 
ATOM     77  C   UNL A   1      48.103  26.375  27.302  1.00  0.00     0.134 A 
ATOM     78  C   UNL A   1      46.264  26.842  25.859  1.00  0.00     0.134 A 
ATOM     79  F   UNL A   1      48.866  26.648  28.374  1.00  0.00    -0.206 F 
ATOM     80  C   UNL A   1      48.392  25.200  26.601  1.00  0.00     0.040 A 
ATOM     81  C   UNL A   1      46.567  25.677  25.125  1.00  0.00     0.040 A 
ATOM     82  F   UNL A   1      45.161  27.520  25.513  1.00  0.00    -0.206 F 
ATOM     83  C   UNL A   1      47.607  24.833  25.518  1.00  0.00     0.006 A 
ENDBRANCH  55  76
BRANCH  67  84
ATOM     84  C   UNL A   1      43.820  33.652  27.758  1.00  0.00     0.057 A 
ATOM     85  C   UNL A   1      43.664  33.770  26.368  1.00  0.00     0.134 A 
ATOM     86  C   UNL A   1      43.505  34.818  28.492  1.00  0.00     0.134 A 
ATOM     87  F   UNL A   1      43.796  32.717  25.549  1.00  0.00    -0.206 F 
ATOM     88  C   UNL A   1      43.300  34.972  25.748  1.00  0.00     0.040 A 
ATOM     89  C   UNL A   1      43.068  36.001  27.888  1.00  0.00     0.040 A 
ATOM     90  F   UNL A   1      43.571  34.845  29.832  1.00  0.00    -0.206 F 
ATOM     91  C   UNL A   1      42.985  36.089  26.507  1.00  0.00     0.006 A 
ENDBRANCH  67  84
ENDBRANCH  41  42
ENDBRANCH  34  36
ENDBRANCH  33  34
ENDBRANCH  32  33
ENDBRANCH  31  32
ENDBRANCH  30  31
ENDBRANCH  29  30
ENDBRANCH   1  29
TORSDOF 20
ENDMDL
MODEL 3
REMARK VINA RESULT:     -11.6      1.945      2.886
REMARK SMILES Cc1cc(NC(=O)c2ccc(Br)cc2N)ccc1C(=O)OCCOCCOCCOC(=O)c1ccc(-c2c3nc(c(-c4c(F)cccc4F)c4ccc([nH]4)c(-c4c(F)cccc4F)c4nc(c(-c5c(F)cccc5F)c5ccc2[nH]5)C=C4)C=C3)cc1
REMARK SMILES IDX 25 1 24 2 23 3 22 4 21 5 19 6 20 7 18 8 1 9 2 10 3 11 4 12
REMARK SMILES IDX 17 13 16 14 5 15 6 16 7 18 8 19 9 20 14 21 10 22 13 23 11 24
REMARK SMILES IDX 12 25 15 26 26 29 27 30 28 31 29 32 30 33 31 34 32 35 33 36
REMARK SMILES IDX 34 37 86 38 35 39 85 40 36 41 37 42 38 43 79 44 39 45 84 46
REMARK SMILES IDX 78 47 80 48 40 49 83 50 77 51 76 52 41 54 67 55 50 56 66 57
REMARK SMILES IDX 51 58 54 59 65 60 81 61 52 62 53 63 64 65 82 66 55 67 42 68
REMARK SMILES IDX 43 69 48 70 44 71 45 72 47 73 49 74 46 75 68 76 69 77 74 78
REMARK SMILES IDX 70 79 71 80 73 81 75 82 72 83 56 84 57 85 62 86 58 87 59 88
REMARK SMILES IDX 61 89 63 90 60 91
REMARK H PARENT 5 17 15 27 15 28 80 53 54 64
REMARK Flexibility Score: inf
ROOT
ATOM      1  C   UNL A   1      40.771  20.004  26.493  1.00  0.00     0.188 C 
ENDROOT
BRANCH   1   2
ATOM      2  O   UNL A   1      39.581  20.805  26.695  1.00  0.00    -0.376 OA
BRANCH   2   3
ATOM      3  C   UNL A   1      39.097  21.837  25.796  1.00  0.00     0.202 C 
BRANCH   3   4
ATOM      4  C   UNL A   1      37.538  22.456  25.915  1.00  0.00     0.261 C 
BRANCH   4   5
ATOM      5  O   UNL A   1      36.664  23.214  24.729  1.00  0.00    -0.460 OA
BRANCH   5   6
ATOM      6  C   UNL A   1      35.430  23.918  24.713  1.00  0.00     0.338 C 
ATOM      7  O   UNL A   1      35.112  24.916  25.357  1.00  0.00    -0.246 OA
BRANCH   6   8
ATOM      8  C   UNL A   1      34.228  23.672  23.882  1.00  0.00     0.063 A 
ATOM      9  C   UNL A   1      33.495  21.942  25.526  1.00  0.00     0.045 C 
ATOM     10  C   UNL A   1      33.200  22.940  24.454  1.00  0.00    -0.035 A 
ATOM     11  C   UNL A   1      31.873  23.343  24.196  1.00  0.00     0.030 A 
ATOM     12  C   UNL A   1      31.566  24.454  23.389  1.00  0.00     0.041 A 
ATOM     13  C   UNL A   1      33.880  24.724  22.963  1.00  0.00     0.018 A 
ATOM     14  C   UNL A   1      32.565  25.090  22.681  1.00  0.00     0.027 A 
BRANCH  12  15
ATOM     15  N   UNL A   1      30.290  25.040  23.372  1.00  0.00    -0.322 N 
ATOM     16  C   UNL A   1      29.851  26.092  24.153  1.00  0.00     0.257 C 
ATOM     17  H   UNL A   1      29.639  24.661  22.737  1.00  0.00     0.170 HD
ATOM     18  O   UNL A   1      28.654  26.356  24.243  1.00  0.00    -0.269 OA
BRANCH  16  19
ATOM     19  C   UNL A   1      30.846  26.971  24.823  1.00  0.00     0.063 A 
ATOM     20  C   UNL A   1      31.393  26.495  26.024  1.00  0.00     0.017 A 
ATOM     21  C   UNL A   1      31.239  28.221  24.293  1.00  0.00     0.045 A 
ATOM     22  C   UNL A   1      32.352  27.248  26.700  1.00  0.00     0.016 A 
ATOM     23  C   UNL A   1      32.176  28.977  25.012  1.00  0.00     0.042 A 
ATOM     24  C   UNL A   1      32.737  28.485  26.191  1.00  0.00     0.020 A 
ATOM     25  Br  UNL A   1      34.022  29.522  27.115  1.00  0.00    -0.051 Br
BRANCH  21  26
ATOM     26  N   UNL A   1      30.633  28.818  23.187  1.00  0.00    -0.398 N 
ATOM     27  H   UNL A   1      29.791  29.315  23.296  1.00  0.00     0.156 HD
ATOM     28  H   UNL A   1      31.047  28.741  22.297  1.00  0.00     0.156 HD
ENDBRANCH  21  26
ENDBRANCH  16  19
ENDBRANCH  12  15
ENDBRANCH   6   8
ENDBRANCH   5   6
ENDBRANCH   4   5
ENDBRANCH   3   4
ENDBRANCH   2   3
ENDBRANCH   1   2
BRANCH   1  29
ATOM     29  C   UNL A   1      41.849  19.776  27.558  1.00  0.00     0.188 C 
BRANCH  29  30
ATOM     30  O   UNL A   1      42.997  19.182  26.985  1.00  0.00    -0.376 OA
BRANCH  30  31
ATOM     31  C   UNL A   1      42.902  18.844  25.609  1.00  0.00     0.202 C 
BRANCH  31  32
ATOM     32  C   UNL A   1      44.194  19.139  24.810  1.00  0.00     0.261 C 
BRANCH  32  33
ATOM     33  O   UNL A   1      44.219  20.510  24.335  1.00  0.00    -0.460 OA
BRANCH  33  34
ATOM     34  C   UNL A   1      45.047  21.400  24.976  1.00  0.00     0.338 C 
ATOM     35  O   UNL A   1      46.101  21.104  25.519  1.00  0.00    -0.246 OA
BRANCH  34  36
ATOM     36  C   UNL A   1      44.361  22.731  25.131  1.00  0.00     0.060 A 
ATOM     37  C   UNL A   1      44.790  23.990  24.676  1.00  0.00     0.016 A 
ATOM     38  C   UNL A   1      43.422  22.770  26.098  1.00  0.00     0.016 A 
ATOM     39  C   UNL A   1      44.349  25.243  25.311  1.00  0.00     0.010 A 
ATOM     40  C   UNL A   1      43.312  23.963  26.804  1.00  0.00     0.010 A 
ATOM     41  C   UNL A   1      43.587  25.277  26.480  1.00  0.00    -0.014 A 
BRANCH  41  42
ATOM     42  C   UNL A   1      43.276  26.447  27.513  1.00  0.00     0.031 A 
ATOM     43  C   UNL A   1      41.959  27.402  27.856  1.00  0.00     0.074 A 
ATOM     44  C   UNL A   1      44.334  26.692  28.319  1.00  0.00     0.049 A 
ATOM     45  N   UNL A   1      42.059  28.641  28.312  1.00  0.00    -0.248 NA
ATOM     46  C   UNL A   1      40.472  27.160  27.719  1.00  0.00     0.031 C 
ATOM     47  C   UNL A   1      44.413  27.543  29.498  1.00  0.00     0.029 A 
ATOM     48  N   UNL A   1      45.668  26.325  28.079  1.00  0.00    -0.354 N 
ATOM     49  C   UNL A   1      40.770  29.096  28.627  1.00  0.00     0.074 A 
ATOM     50  C   UNL A   1      39.869  28.321  27.888  1.00  0.00     0.031 C 
ATOM     51  C   UNL A   1      45.694  27.918  29.658  1.00  0.00     0.029 A 
ATOM     52  C   UNL A   1      46.440  27.407  28.519  1.00  0.00     0.049 A 
ATOM     53  H   UNL A   1      45.993  25.483  27.683  1.00  0.00     0.167 HD
ATOM     54  C   UNL A   1      40.459  29.937  29.650  1.00  0.00     0.037 A 
ATOM     55  C   UNL A   1      47.171  28.127  27.625  1.00  0.00     0.037 A 
ATOM     56  C   UNL A   1      41.646  30.649  30.032  1.00  0.00     0.049 A 
ATOM     57  C   UNL A   1      46.765  29.584  27.599  1.00  0.00     0.074 A 
ATOM     58  C   UNL A   1      42.553  30.524  31.060  1.00  0.00     0.029 A 
ATOM     59  N   UNL A   1      42.256  31.401  29.039  1.00  0.00    -0.354 N 
ATOM     60  N   UNL A   1      45.691  30.055  28.177  1.00  0.00    -0.248 NA
ATOM     61  C   UNL A   1      47.532  30.628  26.930  1.00  0.00     0.031 C 
ATOM     62  C   UNL A   1      43.795  31.031  30.569  1.00  0.00     0.029 A 
ATOM     63  C   UNL A   1      43.605  31.527  29.287  1.00  0.00     0.049 A 
ATOM     64  H   UNL A   1      41.789  31.789  28.264  1.00  0.00     0.167 HD
ATOM     65  C   UNL A   1      45.564  31.389  27.903  1.00  0.00     0.074 A 
ATOM     66  C   UNL A   1      46.767  31.709  27.161  1.00  0.00     0.031 C 
ATOM     67  C   UNL A   1      44.462  32.114  28.261  1.00  0.00     0.037 A 
BRANCH  54  68
ATOM     68  C   UNL A   1      39.076  30.030  30.306  1.00  0.00     0.057 A 
ATOM     69  C   UNL A   1      38.249  31.144  30.088  1.00  0.00     0.134 A 
ATOM     70  C   UNL A   1      38.525  29.098  31.229  1.00  0.00     0.134 A 
ATOM     71  F   UNL A   1      38.657  32.159  29.314  1.00  0.00    -0.206 F 
ATOM     72  C   UNL A   1      36.973  31.282  30.674  1.00  0.00     0.040 A 
ATOM     73  C   UNL A   1      37.225  29.182  31.754  1.00  0.00     0.040 A 
ATOM     74  F   UNL A   1      39.237  28.087  31.745  1.00  0.00    -0.206 F 
ATOM     75  C   UNL A   1      36.441  30.284  31.481  1.00  0.00     0.006 A 
ENDBRANCH  54  68
BRANCH  55  76
ATOM     76  C   UNL A   1      47.736  27.300  26.509  1.00  0.00     0.057 A 
ATOM     77  C   UNL A   1      47.164  27.449  25.225  1.00  0.00     0.134 A 
ATOM     78  C   UNL A   1      48.969  26.641  26.554  1.00  0.00     0.134 A 
ATOM     79  F   UNL A   1      45.976  28.063  25.087  1.00  0.00    -0.206 F 
ATOM     80  C   UNL A   1      47.829  27.085  24.049  1.00  0.00     0.040 A 
ATOM     81  C   UNL A   1      49.635  26.241  25.377  1.00  0.00     0.040 A 
ATOM     82  F   UNL A   1      49.627  26.498  27.714  1.00  0.00    -0.206 F 
ATOM     83  C   UNL A   1      49.083  26.498  24.121  1.00  0.00     0.006 A 
ENDBRANCH  55  76
BRANCH  67  84
ATOM     84  C   UNL A   1      44.086  33.440  27.634  1.00  0.00     0.057 A 
ATOM     85  C   UNL A   1      43.831  33.613  26.264  1.00  0.00     0.134 A 
ATOM     86  C   UNL A   1      43.785  34.562  28.439  1.00  0.00     0.134 A 
ATOM     87  F   UNL A   1      43.940  32.601  25.391  1.00  0.00    -0.206 F 
ATOM     88  C   UNL A   1      43.388  34.826  25.724  1.00  0.00     0.040 A 
ATOM     89  C   UNL A   1      43.270  35.754  27.920  1.00  0.00     0.040 A 
ATOM     90  F   UNL A   1      43.942  34.533  29.771  1.00  0.00    -0.206 F 
ATOM     91  C   UNL A   1      43.090  35.898  26.553  1.00  0.00     0.006 A 
ENDBRANCH  67  84
ENDBRANCH  41  42
ENDBRANCH  34  36
ENDBRANCH  33  34
ENDBRANCH  32  33
ENDBRANCH  31  32
ENDBRANCH  30  31
ENDBRANCH  29  30
ENDBRANCH   1  29
TORSDOF 20
ENDMDL
