MODEL 1
REMARK VINA RESULT:      -9.5      0.000      0.000
REMARK SMILES CC(C)CCOCC[N@H+]1CC[C@@H](C(=O)OCCOCCOCCOC(=O)c2ccc(-c3c4nc(c(-c5c(F)cccc5F)c5ccc([nH]5)c(-c5c(F)cccc5F)c5nc(c(-c6c(F)cccc6F)c6ccc3[nH]6)C=C5)C=C4)cc2)[C@@H]1C
REMARK SMILES IDX 17 1 16 2 15 3 13 4 14 5 12 6 9 7 10 8 81 9 11 11 82 12 8 13
REMARK SMILES IDX 7 14 6 15 5 16 4 17 2 18 1 19 3 20 18 21 19 22 20 23 21 24
REMARK SMILES IDX 22 25 23 26 24 27 25 28 26 29 27 30 28 31 80 32 29 33 79 34
REMARK SMILES IDX 30 35 31 36 32 37 73 38 33 39 78 40 72 41 74 42 34 43 77 44
REMARK SMILES IDX 71 45 70 46 35 48 61 49 44 50 60 51 45 52 48 53 59 54 75 55
REMARK SMILES IDX 46 56 47 57 58 59 76 60 49 61 36 62 37 63 42 64 38 65 39 66
REMARK SMILES IDX 41 67 43 68 40 69 62 70 63 71 68 72 64 73 65 74 67 75 69 76
REMARK SMILES IDX 66 77 50 78 51 79 56 80 52 81 53 82 55 83 57 84 54 85
REMARK H PARENT 9 10 74 47 48 58
REMARK Flexibility Score: inf
ROOT
ATOM      1  C   UNL A   1      39.350  21.653  25.793  1.00  0.00     0.202 C 
ENDROOT
BRANCH   1   2
ATOM      2  C   UNL A   1      37.948  22.284  25.758  1.00  0.00     0.261 C 
BRANCH   2   3
ATOM      3  O   UNL A   1      36.831  21.373  25.750  1.00  0.00    -0.463 OA
BRANCH   3   4
ATOM      4  C   UNL A   1      35.735  21.806  25.071  1.00  0.00     0.315 C 
ATOM      5  O   UNL A   1      35.773  22.555  24.099  1.00  0.00    -0.252 OA
BRANCH   4   6
ATOM      6  C   UNL A   1      34.412  21.374  25.675  1.00  0.00     0.162 C 
ATOM      7  N   UNL A   1      32.210  22.408  25.419  1.00  0.00    -0.330 N 
ATOM      8  C   UNL A   1      32.143  20.972  25.047  1.00  0.00     0.263 C 
ATOM      9  C   UNL A   1      33.473  22.464  26.215  1.00  0.00     0.195 C 
ATOM     10  H   UNL A   1      31.426  22.776  25.958  1.00  0.00     0.348 HD
ATOM     11  C   UNL A   1      33.568  20.606  24.668  1.00  0.00     0.083 C 
ATOM     12  C   UNL A   1      33.165  22.165  27.699  1.00  0.00     0.076 C 
BRANCH   7  13
ATOM     13  C   UNL A   1      32.217  23.232  24.166  1.00  0.00     0.291 C 
BRANCH  13  14
ATOM     14  C   UNL A   1      32.468  24.764  24.257  1.00  0.00     0.221 C 
BRANCH  14  15
ATOM     15  O   UNL A   1      31.646  25.598  25.060  1.00  0.00    -0.376 OA
BRANCH  15  16
ATOM     16  C   UNL A   1      32.058  25.900  26.367  1.00  0.00     0.160 C 
BRANCH  16  17
ATOM     17  C   UNL A   1      31.707  27.288  26.930  1.00  0.00     0.031 C 
BRANCH  17  18
ATOM     18  C   UNL A   1      32.710  28.452  26.922  1.00  0.00    -0.015 C 
ATOM     19  C   UNL A   1      33.775  28.405  25.830  1.00  0.00     0.007 C 
ATOM     20  C   UNL A   1      31.926  29.756  26.686  1.00  0.00     0.007 C 
ENDBRANCH  17  18
ENDBRANCH  16  17
ENDBRANCH  15  16
ENDBRANCH  14  15
ENDBRANCH  13  14
ENDBRANCH   7  13
ENDBRANCH   4   6
ENDBRANCH   3   4
ENDBRANCH   2   3
ENDBRANCH   1   2
BRANCH   1  21
ATOM     21  O   UNL A   1      40.038  21.678  27.037  1.00  0.00    -0.376 OA
BRANCH  21  22
ATOM     22  C   UNL A   1      40.818  20.527  27.319  1.00  0.00     0.188 C 
BRANCH  22  23
ATOM     23  C   UNL A   1      40.874  19.437  26.243  1.00  0.00     0.188 C 
BRANCH  23  24
ATOM     24  O   UNL A   1      41.986  19.473  25.358  1.00  0.00    -0.376 OA
BRANCH  24  25
ATOM     25  C   UNL A   1      43.230  19.848  25.967  1.00  0.00     0.202 C 
BRANCH  25  26
ATOM     26  C   UNL A   1      43.877  21.164  25.502  1.00  0.00     0.261 C 
BRANCH  26  27
ATOM     27  O   UNL A   1      43.199  22.352  25.959  1.00  0.00    -0.460 OA
BRANCH  27  28
ATOM     28  C   UNL A   1      43.637  23.550  25.500  1.00  0.00     0.338 C 
ATOM     29  O   UNL A   1      44.129  23.778  24.411  1.00  0.00    -0.246 OA
BRANCH  28  30
ATOM     30  C   UNL A   1      43.171  24.591  26.453  1.00  0.00     0.060 A 
ATOM     31  C   UNL A   1      43.636  25.909  26.316  1.00  0.00     0.016 A 
ATOM     32  C   UNL A   1      42.204  24.290  27.414  1.00  0.00     0.016 A 
ATOM     33  C   UNL A   1      43.143  26.921  27.149  1.00  0.00     0.010 A 
ATOM     34  C   UNL A   1      41.720  25.297  28.250  1.00  0.00     0.010 A 
ATOM     35  C   UNL A   1      42.199  26.614  28.137  1.00  0.00    -0.014 A 
BRANCH  35  36
ATOM     36  C   UNL A   1      41.806  27.600  29.176  1.00  0.00     0.031 A 
ATOM     37  C   UNL A   1      42.532  27.571  30.492  1.00  0.00     0.074 A 
ATOM     38  C   UNL A   1      40.791  28.463  28.992  1.00  0.00     0.049 A 
ATOM     39  N   UNL A   1      42.260  28.197  31.608  1.00  0.00    -0.248 NA
ATOM     40  C   UNL A   1      43.722  26.707  30.558  1.00  0.00     0.031 C 
ATOM     41  C   UNL A   1      40.030  28.629  27.757  1.00  0.00     0.029 A 
ATOM     42  N   UNL A   1      40.211  29.348  29.869  1.00  0.00    -0.354 N 
ATOM     43  C   UNL A   1      43.234  27.791  32.512  1.00  0.00     0.074 A 
ATOM     44  C   UNL A   1      44.089  26.849  31.822  1.00  0.00     0.031 C 
ATOM     45  C   UNL A   1      39.066  29.546  27.961  1.00  0.00     0.029 A 
ATOM     46  C   UNL A   1      39.114  29.995  29.353  1.00  0.00     0.049 A 
ATOM     47  H   UNL A   1      40.548  29.502  30.781  1.00  0.00     0.167 HD
ATOM     48  C   UNL A   1      43.403  28.170  33.800  1.00  0.00     0.037 A 
ATOM     49  C   UNL A   1      38.229  30.821  29.946  1.00  0.00     0.037 A 
ATOM     50  C   UNL A   1      42.556  29.104  34.491  1.00  0.00     0.049 A 
ATOM     51  C   UNL A   1      38.380  31.154  31.410  1.00  0.00     0.074 A 
ATOM     52  C   UNL A   1      42.663  29.564  35.792  1.00  0.00     0.029 A 
ATOM     53  N   UNL A   1      41.441  29.715  33.941  1.00  0.00    -0.354 N 
ATOM     54  N   UNL A   1      39.311  30.778  32.254  1.00  0.00    -0.248 NA
ATOM     55  C   UNL A   1      37.349  32.018  32.007  1.00  0.00     0.031 C 
ATOM     56  C   UNL A   1      41.580  30.413  36.045  1.00  0.00     0.029 A 
ATOM     57  C   UNL A   1      40.831  30.523  34.885  1.00  0.00     0.049 A 
ATOM     58  H   UNL A   1      41.128  29.592  33.015  1.00  0.00     0.167 HD
ATOM     59  C   UNL A   1      38.992  31.380  33.468  1.00  0.00     0.074 A 
ATOM     60  C   UNL A   1      37.789  32.154  33.250  1.00  0.00     0.031 C 
ATOM     61  C   UNL A   1      39.639  31.298  34.656  1.00  0.00     0.037 A 
BRANCH  48  62
ATOM     62  C   UNL A   1      44.536  27.544  34.557  1.00  0.00     0.057 A 
ATOM     63  C   UNL A   1      44.387  26.335  35.248  1.00  0.00     0.134 A 
ATOM     64  C   UNL A   1      45.800  28.146  34.572  1.00  0.00     0.134 A 
ATOM     65  F   UNL A   1      43.196  25.716  35.286  1.00  0.00    -0.206 F 
ATOM     66  C   UNL A   1      45.449  25.758  35.945  1.00  0.00     0.040 A 
ATOM     67  C   UNL A   1      46.876  27.566  35.244  1.00  0.00     0.040 A 
ATOM     68  F   UNL A   1      46.010  29.304  33.929  1.00  0.00    -0.206 F 
ATOM     69  C   UNL A   1      46.701  26.371  35.938  1.00  0.00     0.006 A 
ENDBRANCH  48  62
BRANCH  49  70
ATOM     70  C   UNL A   1      37.087  31.374  29.174  1.00  0.00     0.057 A 
ATOM     71  C   UNL A   1      37.100  32.693  28.706  1.00  0.00     0.134 A 
ATOM     72  C   UNL A   1      35.939  30.613  28.920  1.00  0.00     0.134 A 
ATOM     73  F   UNL A   1      38.157  33.484  28.946  1.00  0.00    -0.206 F 
ATOM     74  C   UNL A   1      36.009  33.242  28.029  1.00  0.00     0.040 A 
ATOM     75  C   UNL A   1      34.852  31.140  28.221  1.00  0.00     0.040 A 
ATOM     76  F   UNL A   1      35.858  29.345  29.349  1.00  0.00    -0.206 F 
ATOM     77  C   UNL A   1      34.882  32.461  27.780  1.00  0.00     0.006 A 
ENDBRANCH  49  70
BRANCH  61  78
ATOM     78  C   UNL A   1      39.088  32.088  35.808  1.00  0.00     0.057 A 
ATOM     79  C   UNL A   1      38.236  31.514  36.760  1.00  0.00     0.134 A 
ATOM     80  C   UNL A   1      39.467  33.423  36.004  1.00  0.00     0.134 A 
ATOM     81  F   UNL A   1      37.826  30.244  36.627  1.00  0.00    -0.206 F 
ATOM     82  C   UNL A   1      37.769  32.243  37.856  1.00  0.00     0.040 A 
ATOM     83  C   UNL A   1      39.028  34.155  37.108  1.00  0.00     0.040 A 
ATOM     84  F   UNL A   1      40.289  34.032  35.134  1.00  0.00    -0.206 F 
ATOM     85  C   UNL A   1      38.174  33.565  38.037  1.00  0.00     0.006 A 
ENDBRANCH  61  78
ENDBRANCH  35  36
ENDBRANCH  28  30
ENDBRANCH  27  28
ENDBRANCH  26  27
ENDBRANCH  25  26
ENDBRANCH  24  25
ENDBRANCH  23  24
ENDBRANCH  22  23
ENDBRANCH  21  22
ENDBRANCH   1  21
TORSDOF 23
ENDMDL
MODEL 2
REMARK VINA RESULT:      -9.4      1.233      3.364
REMARK SMILES CC(C)CCOCC[N@H+]1CC[C@@H](C(=O)OCCOCCOCCOC(=O)c2ccc(-c3c4nc(c(-c5c(F)cccc5F)c5ccc([nH]5)c(-c5c(F)cccc5F)c5nc(c(-c6c(F)cccc6F)c6ccc3[nH]6)C=C5)C=C4)cc2)[C@@H]1C
REMARK SMILES IDX 17 1 16 2 15 3 13 4 14 5 12 6 9 7 10 8 81 9 11 11 82 12 8 13
REMARK SMILES IDX 7 14 6 15 5 16 4 17 2 18 1 19 3 20 18 21 19 22 20 23 21 24
REMARK SMILES IDX 22 25 23 26 24 27 25 28 26 29 27 30 28 31 80 32 29 33 79 34
REMARK SMILES IDX 30 35 31 36 32 37 73 38 33 39 78 40 72 41 74 42 34 43 77 44
REMARK SMILES IDX 71 45 70 46 35 48 61 49 44 50 60 51 45 52 48 53 59 54 75 55
REMARK SMILES IDX 46 56 47 57 58 59 76 60 49 61 36 62 37 63 42 64 38 65 39 66
REMARK SMILES IDX 41 67 43 68 40 69 62 70 63 71 68 72 64 73 65 74 67 75 69 76
REMARK SMILES IDX 66 77 50 78 51 79 56 80 52 81 53 82 55 83 57 84 54 85
REMARK H PARENT 9 10 74 47 48 58
REMARK Flexibility Score: inf
ROOT
ATOM      1  C   UNL A   1      39.525  21.475  25.583  1.00  0.00     0.202 C 
ENDROOT
BRANCH   1   2
ATOM      2  C   UNL A   1      38.030  21.171  25.389  1.00  0.00     0.261 C 
BRANCH   2   3
ATOM      3  O   UNL A   1      37.101  22.125  25.942  1.00  0.00    -0.463 OA
BRANCH   3   4
ATOM      4  C   UNL A   1      35.788  21.793  25.820  1.00  0.00     0.315 C 
ATOM      5  O   UNL A   1      35.381  20.676  25.517  1.00  0.00    -0.252 OA
BRANCH   4   6
ATOM      6  C   UNL A   1      34.829  22.957  25.985  1.00  0.00     0.162 C 
ATOM      7  N   UNL A   1      32.430  23.034  25.516  1.00  0.00    -0.330 N 
ATOM      8  C   UNL A   1      32.687  23.463  26.913  1.00  0.00     0.263 C 
ATOM      9  C   UNL A   1      33.778  23.190  24.889  1.00  0.00     0.195 C 
ATOM     10  H   UNL A   1      31.727  23.562  24.998  1.00  0.00     0.348 HD
ATOM     11  C   UNL A   1      34.023  22.833  27.270  1.00  0.00     0.083 C 
ATOM     12  C   UNL A   1      33.933  24.627  24.345  1.00  0.00     0.076 C 
BRANCH   7  13
ATOM     13  C   UNL A   1      31.900  21.631  25.532  1.00  0.00     0.291 C 
BRANCH  13  14
ATOM     14  C   UNL A   1      32.277  20.655  24.380  1.00  0.00     0.221 C 
BRANCH  14  15
ATOM     15  O   UNL A   1      32.186  19.249  24.547  1.00  0.00    -0.376 OA
BRANCH  15  16
ATOM     16  C   UNL A   1      32.720  18.411  23.554  1.00  0.00     0.160 C 
BRANCH  16  17
ATOM     17  C   UNL A   1      34.020  17.654  23.873  1.00  0.00     0.031 C 
BRANCH  17  18
ATOM     18  C   UNL A   1      34.019  16.257  24.512  1.00  0.00    -0.015 C 
ATOM     19  C   UNL A   1      35.307  15.851  25.223  1.00  0.00     0.007 C 
ATOM     20  C   UNL A   1      32.918  16.223  25.587  1.00  0.00     0.007 C 
ENDBRANCH  17  18
ENDBRANCH  16  17
ENDBRANCH  15  16
ENDBRANCH  14  15
ENDBRANCH  13  14
ENDBRANCH   7  13
ENDBRANCH   4   6
ENDBRANCH   3   4
ENDBRANCH   2   3
ENDBRANCH   1   2
BRANCH   1  21
ATOM     21  O   UNL A   1      40.005  21.530  26.921  1.00  0.00    -0.376 OA
BRANCH  21  22
ATOM     22  C   UNL A   1      40.824  20.441  27.314  1.00  0.00     0.188 C 
BRANCH  22  23
ATOM     23  C   UNL A   1      41.038  19.320  26.292  1.00  0.00     0.188 C 
BRANCH  23  24
ATOM     24  O   UNL A   1      42.113  19.490  25.376  1.00  0.00    -0.376 OA
BRANCH  24  25
ATOM     25  C   UNL A   1      43.333  19.970  25.960  1.00  0.00     0.202 C 
BRANCH  25  26
ATOM     26  C   UNL A   1      43.913  21.283  25.408  1.00  0.00     0.261 C 
BRANCH  26  27
ATOM     27  O   UNL A   1      43.335  22.473  25.982  1.00  0.00    -0.460 OA
BRANCH  27  28
ATOM     28  C   UNL A   1      43.802  23.674  25.559  1.00  0.00     0.338 C 
ATOM     29  O   UNL A   1      44.337  23.913  24.492  1.00  0.00    -0.246 OA
BRANCH  28  30
ATOM     30  C   UNL A   1      43.309  24.705  26.508  1.00  0.00     0.060 A 
ATOM     31  C   UNL A   1      43.772  26.026  26.394  1.00  0.00     0.016 A 
ATOM     32  C   UNL A   1      42.321  24.393  27.444  1.00  0.00     0.016 A 
ATOM     33  C   UNL A   1      43.255  27.029  27.224  1.00  0.00     0.010 A 
ATOM     34  C   UNL A   1      41.814  25.390  28.277  1.00  0.00     0.010 A 
ATOM     35  C   UNL A   1      42.289  26.710  28.187  1.00  0.00    -0.014 A 
BRANCH  35  36
ATOM     36  C   UNL A   1      41.869  27.685  29.224  1.00  0.00     0.031 A 
ATOM     37  C   UNL A   1      42.599  27.684  30.538  1.00  0.00     0.074 A 
ATOM     38  C   UNL A   1      40.826  28.515  29.041  1.00  0.00     0.049 A 
ATOM     39  N   UNL A   1      42.311  28.304  31.653  1.00  0.00    -0.248 NA
ATOM     40  C   UNL A   1      43.817  26.859  30.602  1.00  0.00     0.031 C 
ATOM     41  C   UNL A   1      40.055  28.653  27.808  1.00  0.00     0.029 A 
ATOM     42  N   UNL A   1      40.220  29.383  29.918  1.00  0.00    -0.354 N 
ATOM     43  C   UNL A   1      43.300  27.932  32.555  1.00  0.00     0.074 A 
ATOM     44  C   UNL A   1      44.183  27.016  31.864  1.00  0.00     0.031 C 
ATOM     45  C   UNL A   1      39.063  29.539  28.013  1.00  0.00     0.029 A 
ATOM     46  C   UNL A   1      39.101  29.993  29.403  1.00  0.00     0.049 A 
ATOM     47  H   UNL A   1      40.555  29.551  30.828  1.00  0.00     0.167 HD
ATOM     48  C   UNL A   1      43.461  28.320  33.841  1.00  0.00     0.037 A 
ATOM     49  C   UNL A   1      38.192  30.792  29.997  1.00  0.00     0.037 A 
ATOM     50  C   UNL A   1      42.586  29.228  34.532  1.00  0.00     0.049 A 
ATOM     51  C   UNL A   1      38.337  31.133  31.460  1.00  0.00     0.074 A 
ATOM     52  C   UNL A   1      42.682  29.695  35.832  1.00  0.00     0.029 A 
ATOM     53  N   UNL A   1      41.450  29.801  33.984  1.00  0.00    -0.354 N 
ATOM     54  N   UNL A   1      39.281  30.790  32.302  1.00  0.00    -0.248 NA
ATOM     55  C   UNL A   1      37.280  31.965  32.057  1.00  0.00     0.031 C 
ATOM     56  C   UNL A   1      41.574  30.509  36.086  1.00  0.00     0.029 A 
ATOM     57  C   UNL A   1      40.818  30.592  34.929  1.00  0.00     0.049 A 
ATOM     58  H   UNL A   1      41.139  29.665  33.059  1.00  0.00     0.167 HD
ATOM     59  C   UNL A   1      38.947  31.385  33.515  1.00  0.00     0.074 A 
ATOM     60  C   UNL A   1      37.719  32.119  33.299  1.00  0.00     0.031 C 
ATOM     61  C   UNL A   1      39.600  31.327  34.701  1.00  0.00     0.037 A 
BRANCH  48  62
ATOM     62  C   UNL A   1      44.616  27.733  34.597  1.00  0.00     0.057 A 
ATOM     63  C   UNL A   1      45.866  28.363  34.643  1.00  0.00     0.134 A 
ATOM     64  C   UNL A   1      44.467  26.537  35.308  1.00  0.00     0.134 A 
ATOM     65  F   UNL A   1      46.078  29.504  33.968  1.00  0.00    -0.206 F 
ATOM     66  C   UNL A   1      46.934  27.812  35.353  1.00  0.00     0.040 A 
ATOM     67  C   UNL A   1      45.518  25.990  36.043  1.00  0.00     0.040 A 
ATOM     68  F   UNL A   1      43.294  25.885  35.307  1.00  0.00    -0.206 F 
ATOM     69  C   UNL A   1      46.759  26.624  36.062  1.00  0.00     0.006 A 
ENDBRANCH  48  62
BRANCH  49  70
ATOM     70  C   UNL A   1      37.030  31.305  29.227  1.00  0.00     0.057 A 
ATOM     71  C   UNL A   1      35.922  30.492  28.959  1.00  0.00     0.134 A 
ATOM     72  C   UNL A   1      37.015  32.605  28.705  1.00  0.00     0.134 A 
ATOM     73  F   UNL A   1      35.891  29.227  29.403  1.00  0.00    -0.206 F 
ATOM     74  C   UNL A   1      34.850  30.946  28.188  1.00  0.00     0.040 A 
ATOM     75  C   UNL A   1      35.938  33.080  27.955  1.00  0.00     0.040 A 
ATOM     76  F   UNL A   1      38.050  33.432  28.918  1.00  0.00    -0.206 F 
ATOM     77  C   UNL A   1      34.854  32.246  27.688  1.00  0.00     0.006 A 
ENDBRANCH  49  70
BRANCH  61  78
ATOM     78  C   UNL A   1      39.028  32.102  35.853  1.00  0.00     0.057 A 
ATOM     79  C   UNL A   1      38.192  31.505  36.805  1.00  0.00     0.134 A 
ATOM     80  C   UNL A   1      39.369  33.448  36.047  1.00  0.00     0.134 A 
ATOM     81  F   UNL A   1      37.817  30.224  36.673  1.00  0.00    -0.206 F 
ATOM     82  C   UNL A   1      37.706  32.222  37.901  1.00  0.00     0.040 A 
ATOM     83  C   UNL A   1      38.910  34.167  37.151  1.00  0.00     0.040 A 
ATOM     84  F   UNL A   1      40.174  34.078  35.178  1.00  0.00    -0.206 F 
ATOM     85  C   UNL A   1      38.073  33.554  38.081  1.00  0.00     0.006 A 
ENDBRANCH  61  78
ENDBRANCH  35  36
ENDBRANCH  28  30
ENDBRANCH  27  28
ENDBRANCH  26  27
ENDBRANCH  25  26
ENDBRANCH  24  25
ENDBRANCH  23  24
ENDBRANCH  22  23
ENDBRANCH  21  22
ENDBRANCH   1  21
TORSDOF 23
ENDMDL
MODEL 3
REMARK VINA RESULT:      -8.8      4.767     11.474
REMARK SMILES CC(C)CCOCC[N@H+]1CC[C@@H](C(=O)OCCOCCOCCOC(=O)c2ccc(-c3c4nc(c(-c5c(F)cccc5F)c5ccc([nH]5)c(-c5c(F)cccc5F)c5nc(c(-c6c(F)cccc6F)c6ccc3[nH]6)C=C5)C=C4)cc2)[C@@H]1C
REMARK SMILES IDX 17 1 16 2 15 3 13 4 14 5 12 6 9 7 10 8 81 9 11 11 82 12 8 13
REMARK SMILES IDX 7 14 6 15 5 16 4 17 2 18 1 19 3 20 18 21 19 22 20 23 21 24
REMARK SMILES IDX 22 25 23 26 24 27 25 28 26 29 27 30 28 31 80 32 29 33 79 34
REMARK SMILES IDX 30 35 31 36 32 37 73 38 33 39 78 40 72 41 74 42 34 43 77 44
REMARK SMILES IDX 71 45 70 46 35 48 61 49 44 50 60 51 45 52 48 53 59 54 75 55
REMARK SMILES IDX 46 56 47 57 58 59 76 60 49 61 36 62 37 63 42 64 38 65 39 66
REMARK SMILES IDX 41 67 43 68 40 69 62 70 63 71 68 72 64 73 65 74 67 75 69 76
REMARK SMILES IDX 66 77 50 78 51 79 56 80 52 81 53 82 55 83 57 84 54 85
REMARK H PARENT 9 10 74 47 48 58
REMARK Flexibility Score: inf
ROOT
ATOM      1  C   UNL A   1      34.626  35.413  33.263  1.00  0.00     0.202 C 
ENDROOT
BRANCH   1   2
ATOM      2  C   UNL A   1      35.656  34.461  32.634  1.00  0.00     0.261 C 
BRANCH   2   3
ATOM      3  O   UNL A   1      36.289  33.518  33.522  1.00  0.00    -0.463 OA
BRANCH   3   4
ATOM      4  C   UNL A   1      37.610  33.297  33.286  1.00  0.00     0.315 C 
ATOM      5  O   UNL A   1      38.092  33.102  32.174  1.00  0.00    -0.252 OA
BRANCH   4   6
ATOM      6  C   UNL A   1      38.463  33.201  34.537  1.00  0.00     0.162 C 
ATOM      7  N   UNL A   1      39.698  31.272  35.394  1.00  0.00    -0.330 N 
ATOM      8  C   UNL A   1      40.611  32.434  35.249  1.00  0.00     0.263 C 
ATOM      9  C   UNL A   1      38.356  31.928  35.390  1.00  0.00     0.195 C 
ATOM     10  H   UNL A   1      39.818  30.700  36.230  1.00  0.00     0.348 HD
ATOM     11  C   UNL A   1      39.945  33.318  34.208  1.00  0.00     0.083 C 
ATOM     12  C   UNL A   1      37.968  32.325  36.831  1.00  0.00     0.076 C 
BRANCH   7  13
ATOM     13  C   UNL A   1      39.941  30.323  34.259  1.00  0.00     0.291 C 
BRANCH  13  14
ATOM     14  C   UNL A   1      41.179  29.382  34.297  1.00  0.00     0.221 C 
BRANCH  14  15
ATOM     15  O   UNL A   1      41.063  28.027  34.702  1.00  0.00    -0.376 OA
BRANCH  15  16
ATOM     16  C   UNL A   1      42.112  27.140  34.416  1.00  0.00     0.160 C 
BRANCH  16  17
ATOM     17  C   UNL A   1      42.947  27.395  33.150  1.00  0.00     0.031 C 
BRANCH  17  18
ATOM     18  C   UNL A   1      44.448  27.075  33.079  1.00  0.00    -0.015 C 
ATOM     19  C   UNL A   1      45.231  27.270  34.375  1.00  0.00     0.007 C 
ATOM     20  C   UNL A   1      44.603  25.587  32.717  1.00  0.00     0.007 C 
ENDBRANCH  17  18
ENDBRANCH  16  17
ENDBRANCH  15  16
ENDBRANCH  14  15
ENDBRANCH  13  14
ENDBRANCH   7  13
ENDBRANCH   4   6
ENDBRANCH   3   4
ENDBRANCH   2   3
ENDBRANCH   1   2
BRANCH   1  21
ATOM     21  O   UNL A   1      34.282  36.575  32.518  1.00  0.00    -0.376 OA
BRANCH  21  22
ATOM     22  C   UNL A   1      32.995  36.552  31.922  1.00  0.00     0.188 C 
BRANCH  22  23
ATOM     23  C   UNL A   1      32.915  36.173  30.440  1.00  0.00     0.188 C 
BRANCH  23  24
ATOM     24  O   UNL A   1      33.087  34.797  30.125  1.00  0.00    -0.376 OA
BRANCH  24  25
ATOM     25  C   UNL A   1      34.203  34.508  29.272  1.00  0.00     0.202 C 
BRANCH  25  26
ATOM     26  C   UNL A   1      34.116  33.249  28.393  1.00  0.00     0.261 C 
BRANCH  26  27
ATOM     27  O   UNL A   1      34.545  32.038  29.047  1.00  0.00    -0.460 OA
BRANCH  27  28
ATOM     28  C   UNL A   1      34.668  30.918  28.294  1.00  0.00     0.338 C 
ATOM     29  O   UNL A   1      33.927  30.556  27.399  1.00  0.00    -0.246 OA
BRANCH  28  30
ATOM     30  C   UNL A   1      36.012  30.342  28.565  1.00  0.00     0.060 A 
ATOM     31  C   UNL A   1      36.273  29.761  29.816  1.00  0.00     0.016 A 
ATOM     32  C   UNL A   1      36.976  30.289  27.556  1.00  0.00     0.016 A 
ATOM     33  C   UNL A   1      37.504  29.138  30.060  1.00  0.00     0.010 A 
ATOM     34  C   UNL A   1      38.205  29.677  27.803  1.00  0.00     0.010 A 
ATOM     35  C   UNL A   1      38.486  29.114  29.061  1.00  0.00    -0.014 A 
BRANCH  35  36
ATOM     36  C   UNL A   1      39.871  28.658  29.338  1.00  0.00     0.031 A 
ATOM     37  C   UNL A   1      40.815  29.620  30.004  1.00  0.00     0.074 A 
ATOM     38  C   UNL A   1      40.312  27.446  28.956  1.00  0.00     0.049 A 
ATOM     39  N   UNL A   1      42.107  29.528  30.189  1.00  0.00    -0.248 NA
ATOM     40  C   UNL A   1      40.217  30.861  30.524  1.00  0.00     0.031 C 
ATOM     41  C   UNL A   1      39.500  26.401  28.340  1.00  0.00     0.029 A 
ATOM     42  N   UNL A   1      41.575  26.905  29.011  1.00  0.00    -0.354 N 
ATOM     43  C   UNL A   1      42.479  30.703  30.829  1.00  0.00     0.074 A 
ATOM     44  C   UNL A   1      41.281  31.501  30.982  1.00  0.00     0.031 C 
ATOM     45  C   UNL A   1      40.289  25.349  28.054  1.00  0.00     0.029 A 
ATOM     46  C   UNL A   1      41.669  25.667  28.423  1.00  0.00     0.049 A 
ATOM     47  H   UNL A   1      42.339  27.362  29.431  1.00  0.00     0.167 HD
ATOM     48  C   UNL A   1      43.706  31.083  31.255  1.00  0.00     0.037 A 
ATOM     49  C   UNL A   1      42.748  24.898  28.176  1.00  0.00     0.037 A 
ATOM     50  C   UNL A   1      44.898  30.295  31.104  1.00  0.00     0.049 A 
ATOM     51  C   UNL A   1      44.121  25.385  28.571  1.00  0.00     0.074 A 
ATOM     52  C   UNL A   1      46.185  30.590  31.523  1.00  0.00     0.029 A 
ATOM     53  N   UNL A   1      44.955  29.060  30.479  1.00  0.00    -0.354 N 
ATOM     54  N   UNL A   1      44.463  26.489  29.190  1.00  0.00    -0.248 NA
ATOM     55  C   UNL A   1      45.260  24.520  28.223  1.00  0.00     0.031 C 
ATOM     56  C   UNL A   1      47.029  29.557  31.103  1.00  0.00     0.029 A 
ATOM     57  C   UNL A   1      46.259  28.594  30.471  1.00  0.00     0.049 A 
ATOM     58  H   UNL A   1      44.182  28.584  30.095  1.00  0.00     0.167 HD
ATOM     59  C   UNL A   1      45.847  26.438  29.327  1.00  0.00     0.074 A 
ATOM     60  C   UNL A   1      46.281  25.190  28.738  1.00  0.00     0.031 C 
ATOM     61  C   UNL A   1      46.681  27.345  29.890  1.00  0.00     0.037 A 
BRANCH  48  62
ATOM     62  C   UNL A   1      43.823  32.432  31.899  1.00  0.00     0.057 A 
ATOM     63  C   UNL A   1      43.971  33.603  31.144  1.00  0.00     0.134 A 
ATOM     64  C   UNL A   1      43.758  32.563  33.291  1.00  0.00     0.134 A 
ATOM     65  F   UNL A   1      44.057  33.543  29.806  1.00  0.00    -0.206 F 
ATOM     66  C   UNL A   1      44.073  34.854  31.754  1.00  0.00     0.040 A 
ATOM     67  C   UNL A   1      43.833  33.811  33.911  1.00  0.00     0.040 A 
ATOM     68  F   UNL A   1      43.614  31.481  34.072  1.00  0.00    -0.206 F 
ATOM     69  C   UNL A   1      43.997  34.961  33.141  1.00  0.00     0.006 A 
ENDBRANCH  48  62
BRANCH  49  70
ATOM     70  C   UNL A   1      42.595  23.593  27.483  1.00  0.00     0.057 A 
ATOM     71  C   UNL A   1      42.699  23.496  26.091  1.00  0.00     0.134 A 
ATOM     72  C   UNL A   1      42.301  22.420  28.189  1.00  0.00     0.134 A 
ATOM     73  F   UNL A   1      42.947  24.589  25.354  1.00  0.00    -0.206 F 
ATOM     74  C   UNL A   1      42.500  22.285  25.424  1.00  0.00     0.040 A 
ATOM     75  C   UNL A   1      42.126  21.198  27.538  1.00  0.00     0.040 A 
ATOM     76  F   UNL A   1      42.178  22.446  29.525  1.00  0.00    -0.206 F 
ATOM     77  C   UNL A   1      42.218  21.130  26.149  1.00  0.00     0.006 A 
ENDBRANCH  49  70
BRANCH  61  78
ATOM     78  C   UNL A   1      48.145  27.015  29.935  1.00  0.00     0.057 A 
ATOM     79  C   UNL A   1      48.694  26.213  30.944  1.00  0.00     0.134 A 
ATOM     80  C   UNL A   1      49.007  27.450  28.918  1.00  0.00     0.134 A 
ATOM     81  F   UNL A   1      47.927  25.771  31.952  1.00  0.00    -0.206 F 
ATOM     82  C   UNL A   1      50.047  25.868  30.948  1.00  0.00     0.040 A 
ATOM     83  C   UNL A   1      50.355  27.092  28.898  1.00  0.00     0.040 A 
ATOM     84  F   UNL A   1      48.544  28.213  27.915  1.00  0.00    -0.206 F 
ATOM     85  C   UNL A   1      50.879  26.301  29.917  1.00  0.00     0.006 A 
ENDBRANCH  61  78
ENDBRANCH  35  36
ENDBRANCH  28  30
ENDBRANCH  27  28
ENDBRANCH  26  27
ENDBRANCH  25  26
ENDBRANCH  24  25
ENDBRANCH  23  24
ENDBRANCH  22  23
ENDBRANCH  21  22
ENDBRANCH   1  21
TORSDOF 23
ENDMDL
