MODEL 1
REMARK VINA RESULT:      -9.9      0.000      0.000
REMARK SMILES CC[C@@H]([NH3+])C(=O)N1CC[C@H](C(=O)OCCOCCOCCOC(=O)c2ccc(-c3c4nc(c(-c5c(F)cccc5F)c5ccc([nH]5)c(-c5c(F)cccc5F)c5nc(c(-c6c(F)cccc6F)c6ccc3[nH]6)C=C5)C=C4)cc2)[C@@H]1C
REMARK SMILES IDX 17 1 16 2 15 3 14 4 13 5 11 6 12 7 10 8 7 9 8 10 79 11 9 12
REMARK SMILES IDX 80 13 5 14 6 15 3 16 2 17 1 18 4 19 18 23 19 24 20 25 21 26
REMARK SMILES IDX 22 27 23 28 24 29 25 30 26 31 78 32 27 33 77 34 28 35 29 36
REMARK SMILES IDX 30 37 71 38 31 39 76 40 70 41 72 42 32 43 75 44 69 45 68 46
REMARK SMILES IDX 33 48 59 49 42 50 58 51 43 52 46 53 57 54 73 55 44 56 45 57
REMARK SMILES IDX 56 59 74 60 47 61 34 62 35 63 40 64 36 65 37 66 39 67 41 68
REMARK SMILES IDX 38 69 60 70 61 71 66 72 62 73 63 74 65 75 67 76 64 77 48 78
REMARK SMILES IDX 49 79 54 80 50 81 51 82 53 83 55 84 52 85
REMARK H PARENT 4 20 4 21 4 22 72 47 46 58
REMARK Flexibility Score: inf
ROOT
ATOM      1  C   UNL A   1      39.979  21.470  26.393  1.00  0.00     0.188 C 
ENDROOT
BRANCH   1   2
ATOM      2  O   UNL A   1      39.643  22.673  27.058  1.00  0.00    -0.376 OA
BRANCH   2   3
ATOM      3  C   UNL A   1      38.604  23.468  26.501  1.00  0.00     0.202 C 
BRANCH   3   4
ATOM      4  C   UNL A   1      37.784  22.924  25.317  1.00  0.00     0.261 C 
BRANCH   4   5
ATOM      5  O   UNL A   1      36.495  23.540  25.168  1.00  0.00    -0.463 OA
BRANCH   5   6
ATOM      6  C   UNL A   1      35.552  22.925  24.407  1.00  0.00     0.311 C 
ATOM      7  O   UNL A   1      35.529  22.934  23.186  1.00  0.00    -0.252 OA
BRANCH   6   8
ATOM      8  C   UNL A   1      34.534  22.250  25.320  1.00  0.00     0.123 C 
ATOM      9  N   UNL A   1      33.460  20.273  24.536  1.00  0.00    -0.334 N 
ATOM     10  C   UNL A   1      32.840  21.418  23.886  1.00  0.00     0.121 C 
ATOM     11  C   UNL A   1      34.566  20.705  25.393  1.00  0.00     0.096 C 
ATOM     12  C   UNL A   1      33.126  22.568  24.835  1.00  0.00     0.039 C 
ATOM     13  C   UNL A   1      35.910  20.093  25.002  1.00  0.00     0.032 C 
BRANCH   9  14
ATOM     14  C   UNL A   1      32.846  19.045  24.415  1.00  0.00     0.280 C 
ATOM     15  O   UNL A   1      32.153  18.608  25.345  1.00  0.00    -0.268 OA
BRANCH  14  16
ATOM     16  C   UNL A   1      33.203  18.074  23.252  1.00  0.00     0.270 C 
BRANCH  16  17
ATOM     17  C   UNL A   1      33.652  16.654  23.592  1.00  0.00     0.072 C 
ATOM     18  C   UNL A   1      34.777  16.610  24.624  1.00  0.00     0.011 C 
ENDBRANCH  16  17
BRANCH  16  19
ATOM     19  N   UNL A   1      32.080  18.073  22.285  1.00  0.00    -0.347 N 
ATOM     20  H   UNL A   1      32.058  18.965  21.790  1.00  0.00     0.345 HD
ATOM     21  H   UNL A   1      31.201  17.941  22.786  1.00  0.00     0.345 HD
ATOM     22  H   UNL A   1      32.207  17.315  21.616  1.00  0.00     0.345 HD
ENDBRANCH  16  19
ENDBRANCH  14  16
ENDBRANCH   9  14
ENDBRANCH   6   8
ENDBRANCH   5   6
ENDBRANCH   4   5
ENDBRANCH   3   4
ENDBRANCH   2   3
ENDBRANCH   1   2
BRANCH   1  23
ATOM     23  C   UNL A   1      41.361  20.910  26.793  1.00  0.00     0.188 C 
BRANCH  23  24
ATOM     24  O   UNL A   1      42.160  20.253  25.820  1.00  0.00    -0.376 OA
BRANCH  24  25
ATOM     25  C   UNL A   1      43.501  20.696  25.637  1.00  0.00     0.202 C 
BRANCH  25  26
ATOM     26  C   UNL A   1      43.760  22.116  25.099  1.00  0.00     0.261 C 
BRANCH  26  27
ATOM     27  O   UNL A   1      44.065  23.106  26.103  1.00  0.00    -0.460 OA
BRANCH  27  28
ATOM     28  C   UNL A   1      44.182  24.377  25.643  1.00  0.00     0.338 C 
ATOM     29  O   UNL A   1      44.746  24.746  24.627  1.00  0.00    -0.246 OA
BRANCH  28  30
ATOM     30  C   UNL A   1      43.354  25.301  26.445  1.00  0.00     0.060 A 
ATOM     31  C   UNL A   1      43.787  26.630  26.566  1.00  0.00     0.016 A 
ATOM     32  C   UNL A   1      42.256  24.849  27.176  1.00  0.00     0.016 A 
ATOM     33  C   UNL A   1      43.163  27.495  27.463  1.00  0.00     0.010 A 
ATOM     34  C   UNL A   1      41.645  25.711  28.097  1.00  0.00     0.010 A 
ATOM     35  C   UNL A   1      42.130  27.020  28.280  1.00  0.00    -0.014 A 
BRANCH  35  36
ATOM     36  C   UNL A   1      41.754  27.806  29.484  1.00  0.00     0.031 A 
ATOM     37  C   UNL A   1      40.553  28.712  29.393  1.00  0.00     0.074 A 
ATOM     38  C   UNL A   1      42.408  27.673  30.650  1.00  0.00     0.049 A 
ATOM     39  N   UNL A   1      40.025  29.490  30.304  1.00  0.00    -0.248 NA
ATOM     40  C   UNL A   1      39.853  28.740  28.099  1.00  0.00     0.031 C 
ATOM     41  C   UNL A   1      43.549  26.791  30.890  1.00  0.00     0.029 A 
ATOM     42  N   UNL A   1      42.197  28.288  31.859  1.00  0.00    -0.354 N 
ATOM     43  C   UNL A   1      38.929  30.091  29.695  1.00  0.00     0.074 A 
ATOM     44  C   UNL A   1      38.892  29.622  28.328  1.00  0.00     0.031 C 
ATOM     45  C   UNL A   1      43.942  26.929  32.170  1.00  0.00     0.029 A 
ATOM     46  C   UNL A   1      43.095  27.922  32.830  1.00  0.00     0.049 A 
ATOM     47  H   UNL A   1      41.468  28.933  32.016  1.00  0.00     0.167 HD
ATOM     48  C   UNL A   1      38.024  30.948  30.226  1.00  0.00     0.037 A 
ATOM     49  C   UNL A   1      43.224  28.352  34.100  1.00  0.00     0.037 A 
ATOM     50  C   UNL A   1      38.061  31.431  31.581  1.00  0.00     0.049 A 
ATOM     51  C   UNL A   1      42.255  29.372  34.643  1.00  0.00     0.074 A 
ATOM     52  C   UNL A   1      37.203  32.320  32.204  1.00  0.00     0.029 A 
ATOM     53  N   UNL A   1      39.010  31.063  32.522  1.00  0.00    -0.354 N 
ATOM     54  N   UNL A   1      41.220  29.930  34.061  1.00  0.00    -0.248 NA
ATOM     55  C   UNL A   1      42.469  29.813  36.030  1.00  0.00     0.031 C 
ATOM     56  C   UNL A   1      37.655  32.517  33.515  1.00  0.00     0.029 A 
ATOM     57  C   UNL A   1      38.764  31.714  33.719  1.00  0.00     0.049 A 
ATOM     58  H   UNL A   1      39.750  30.433  32.362  1.00  0.00     0.167 HD
ATOM     59  C   UNL A   1      40.640  30.752  35.021  1.00  0.00     0.074 A 
ATOM     60  C   UNL A   1      41.431  30.613  36.225  1.00  0.00     0.031 C 
ATOM     61  C   UNL A   1      39.548  31.548  34.917  1.00  0.00     0.037 A 
BRANCH  48  62
ATOM     62  C   UNL A   1      36.925  31.427  29.325  1.00  0.00     0.057 A 
ATOM     63  C   UNL A   1      35.855  30.598  28.964  1.00  0.00     0.134 A 
ATOM     64  C   UNL A   1      36.928  32.734  28.824  1.00  0.00     0.134 A 
ATOM     65  F   UNL A   1      35.803  29.329  29.395  1.00  0.00    -0.206 F 
ATOM     66  C   UNL A   1      34.838  31.046  28.119  1.00  0.00     0.040 A 
ATOM     67  C   UNL A   1      35.904  33.202  27.998  1.00  0.00     0.040 A 
ATOM     68  F   UNL A   1      37.923  33.580  29.131  1.00  0.00    -0.206 F 
ATOM     69  C   UNL A   1      34.858  32.354  27.638  1.00  0.00     0.006 A 
ENDBRANCH  48  62
BRANCH  49  70
ATOM     70  C   UNL A   1      44.313  27.829  34.967  1.00  0.00     0.057 A 
ATOM     71  C   UNL A   1      44.122  26.694  35.764  1.00  0.00     0.134 A 
ATOM     72  C   UNL A   1      45.543  28.488  35.065  1.00  0.00     0.134 A 
ATOM     73  F   UNL A   1      42.954  26.036  35.733  1.00  0.00    -0.206 F 
ATOM     74  C   UNL A   1      45.105  26.249  36.650  1.00  0.00     0.040 A 
ATOM     75  C   UNL A   1      46.545  28.039  35.927  1.00  0.00     0.040 A 
ATOM     76  F   UNL A   1      45.787  29.583  34.329  1.00  0.00    -0.206 F 
ATOM     77  C   UNL A   1      46.323  26.923  36.731  1.00  0.00     0.006 A 
ENDBRANCH  49  70
BRANCH  61  78
ATOM     78  C   UNL A   1      39.108  32.279  36.153  1.00  0.00     0.057 A 
ATOM     79  C   UNL A   1      39.556  33.572  36.455  1.00  0.00     0.134 A 
ATOM     80  C   UNL A   1      38.209  31.683  37.047  1.00  0.00     0.134 A 
ATOM     81  F   UNL A   1      40.427  34.195  35.646  1.00  0.00    -0.206 F 
ATOM     82  C   UNL A   1      39.154  34.230  37.619  1.00  0.00     0.040 A 
ATOM     83  C   UNL A   1      37.777  32.342  38.199  1.00  0.00     0.040 A 
ATOM     84  F   UNL A   1      37.730  30.451  36.813  1.00  0.00    -0.206 F 
ATOM     85  C   UNL A   1      38.258  33.616  38.492  1.00  0.00     0.006 A 
ENDBRANCH  61  78
ENDBRANCH  35  36
ENDBRANCH  28  30
ENDBRANCH  27  28
ENDBRANCH  26  27
ENDBRANCH  25  26
ENDBRANCH  24  25
ENDBRANCH  23  24
ENDBRANCH   1  23
TORSDOF 21
ENDMDL
MODEL 2
REMARK VINA RESULT:      -9.8      4.822      9.868
REMARK SMILES CC[C@@H]([NH3+])C(=O)N1CC[C@H](C(=O)OCCOCCOCCOC(=O)c2ccc(-c3c4nc(c(-c5c(F)cccc5F)c5ccc([nH]5)c(-c5c(F)cccc5F)c5nc(c(-c6c(F)cccc6F)c6ccc3[nH]6)C=C5)C=C4)cc2)[C@@H]1C
REMARK SMILES IDX 17 1 16 2 15 3 14 4 13 5 11 6 12 7 10 8 7 9 8 10 79 11 9 12
REMARK SMILES IDX 80 13 5 14 6 15 3 16 2 17 1 18 4 19 18 23 19 24 20 25 21 26
REMARK SMILES IDX 22 27 23 28 24 29 25 30 26 31 78 32 27 33 77 34 28 35 29 36
REMARK SMILES IDX 30 37 71 38 31 39 76 40 70 41 72 42 32 43 75 44 69 45 68 46
REMARK SMILES IDX 33 48 59 49 42 50 58 51 43 52 46 53 57 54 73 55 44 56 45 57
REMARK SMILES IDX 56 59 74 60 47 61 34 62 35 63 40 64 36 65 37 66 39 67 41 68
REMARK SMILES IDX 38 69 60 70 61 71 66 72 62 73 63 74 65 75 67 76 64 77 48 78
REMARK SMILES IDX 49 79 54 80 50 81 51 82 53 83 55 84 52 85
REMARK H PARENT 4 20 4 21 4 22 72 47 46 58
REMARK Flexibility Score: inf
ROOT
ATOM      1  C   UNL A   1      34.052  32.290  27.998  1.00  0.00     0.188 C 
ENDROOT
BRANCH   1   2
ATOM      2  O   UNL A   1      34.332  31.071  27.336  1.00  0.00    -0.376 OA
BRANCH   2   3
ATOM      3  C   UNL A   1      33.274  30.129  27.211  1.00  0.00     0.202 C 
BRANCH   3   4
ATOM      4  C   UNL A   1      32.654  29.865  25.827  1.00  0.00     0.261 C 
BRANCH   4   5
ATOM      5  O   UNL A   1      31.450  29.082  25.866  1.00  0.00    -0.463 OA
BRANCH   5   6
ATOM      6  C   UNL A   1      31.376  27.943  25.130  1.00  0.00     0.311 C 
ATOM      7  O   UNL A   1      31.368  27.903  23.909  1.00  0.00    -0.252 OA
BRANCH   6   8
ATOM      8  C   UNL A   1      31.287  26.745  26.069  1.00  0.00     0.123 C 
ATOM      9  N   UNL A   1      32.029  24.630  25.261  1.00  0.00    -0.334 N 
ATOM     10  C   UNL A   1      30.715  24.898  24.697  1.00  0.00     0.121 C 
ATOM     11  C   UNL A   1      32.482  25.761  26.073  1.00  0.00     0.096 C 
ATOM     12  C   UNL A   1      30.098  25.879  25.678  1.00  0.00     0.039 C 
ATOM     13  C   UNL A   1      33.792  26.374  25.581  1.00  0.00     0.032 C 
BRANCH   9  14
ATOM     14  C   UNL A   1      32.550  23.360  25.123  1.00  0.00     0.280 C 
ATOM     15  O   UNL A   1      32.749  22.895  23.992  1.00  0.00    -0.268 OA
BRANCH  14  16
ATOM     16  C   UNL A   1      32.655  22.394  26.339  1.00  0.00     0.270 C 
BRANCH  16  17
ATOM     17  C   UNL A   1      33.919  22.425  27.195  1.00  0.00     0.072 C 
ATOM     18  C   UNL A   1      35.117  23.043  26.476  1.00  0.00     0.011 C 
ENDBRANCH  16  17
BRANCH  16  19
ATOM     19  N   UNL A   1      31.434  22.552  27.165  1.00  0.00    -0.347 N 
ATOM     20  H   UNL A   1      30.616  22.588  26.557  1.00  0.00     0.345 HD
ATOM     21  H   UNL A   1      31.497  23.417  27.702  1.00  0.00     0.345 HD
ATOM     22  H   UNL A   1      31.350  21.761  27.802  1.00  0.00     0.345 HD
ENDBRANCH  16  19
ENDBRANCH  14  16
ENDBRANCH   9  14
ENDBRANCH   6   8
ENDBRANCH   5   6
ENDBRANCH   4   5
ENDBRANCH   3   4
ENDBRANCH   2   3
ENDBRANCH   1   2
BRANCH   1  23
ATOM     23  C   UNL A   1      35.264  33.245  28.068  1.00  0.00     0.188 C 
BRANCH  23  24
ATOM     24  O   UNL A   1      35.441  34.071  29.210  1.00  0.00    -0.376 OA
BRANCH  24  25
ATOM     25  C   UNL A   1      34.312  34.321  30.042  1.00  0.00     0.202 C 
BRANCH  25  26
ATOM     26  C   UNL A   1      34.379  33.949  31.536  1.00  0.00     0.261 C 
BRANCH  26  27
ATOM     27  O   UNL A   1      34.520  32.541  31.812  1.00  0.00    -0.460 OA
BRANCH  27  28
ATOM     28  C   UNL A   1      35.543  32.215  32.640  1.00  0.00     0.338 C 
ATOM     29  O   UNL A   1      35.657  32.498  33.821  1.00  0.00    -0.246 OA
BRANCH  28  30
ATOM     30  C   UNL A   1      36.473  31.277  31.978  1.00  0.00     0.060 A 
ATOM     31  C   UNL A   1      37.586  30.833  32.708  1.00  0.00     0.016 A 
ATOM     32  C   UNL A   1      36.338  30.946  30.630  1.00  0.00     0.016 A 
ATOM     33  C   UNL A   1      38.597  30.109  32.080  1.00  0.00     0.010 A 
ATOM     34  C   UNL A   1      37.367  30.240  29.992  1.00  0.00     0.010 A 
ATOM     35  C   UNL A   1      38.523  29.865  30.703  1.00  0.00    -0.014 A 
BRANCH  35  36
ATOM     36  C   UNL A   1      39.759  29.463  29.983  1.00  0.00     0.031 A 
ATOM     37  C   UNL A   1      40.857  30.484  29.833  1.00  0.00     0.074 A 
ATOM     38  C   UNL A   1      39.941  28.210  29.533  1.00  0.00     0.049 A 
ATOM     39  N   UNL A   1      42.027  30.373  29.255  1.00  0.00    -0.248 NA
ATOM     40  C   UNL A   1      40.601  31.809  30.419  1.00  0.00     0.031 C 
ATOM     41  C   UNL A   1      38.985  27.112  29.662  1.00  0.00     0.029 A 
ATOM     42  N   UNL A   1      41.009  27.652  28.875  1.00  0.00    -0.354 N 
ATOM     43  C   UNL A   1      42.644  31.607  29.415  1.00  0.00     0.074 A 
ATOM     44  C   UNL A   1      41.708  32.465  30.107  1.00  0.00     0.031 C 
ATOM     45  C   UNL A   1      39.508  26.011  29.092  1.00  0.00     0.029 A 
ATOM     46  C   UNL A   1      40.824  26.334  28.540  1.00  0.00     0.049 A 
ATOM     47  H   UNL A   1      41.831  28.151  28.661  1.00  0.00     0.167 HD
ATOM     48  C   UNL A   1      43.886  31.994  29.035  1.00  0.00     0.037 A 
ATOM     49  C   UNL A   1      41.624  25.491  27.857  1.00  0.00     0.037 A 
ATOM     50  C   UNL A   1      44.820  31.152  28.334  1.00  0.00     0.049 A 
ATOM     51  C   UNL A   1      42.967  25.971  27.368  1.00  0.00     0.074 A 
ATOM     52  C   UNL A   1      46.091  31.460  27.884  1.00  0.00     0.029 A 
ATOM     53  N   UNL A   1      44.579  29.833  27.983  1.00  0.00    -0.354 N 
ATOM     54  N   UNL A   1      43.543  27.138  27.529  1.00  0.00    -0.248 NA
ATOM     55  C   UNL A   1      43.776  25.006  26.608  1.00  0.00     0.031 C 
ATOM     56  C   UNL A   1      46.607  30.337  27.228  1.00  0.00     0.029 A 
ATOM     57  C   UNL A   1      45.675  29.316  27.313  1.00  0.00     0.049 A 
ATOM     58  H   UNL A   1      43.750  29.338  28.180  1.00  0.00     0.167 HD
ATOM     59  C   UNL A   1      44.793  27.033  26.929  1.00  0.00     0.074 A 
ATOM     60  C   UNL A   1      44.896  25.685  26.410  1.00  0.00     0.031 C 
ATOM     61  C   UNL A   1      45.771  27.965  26.821  1.00  0.00     0.037 A 
BRANCH  48  62
ATOM     62  C   UNL A   1      44.294  33.400  29.358  1.00  0.00     0.057 A 
ATOM     63  C   UNL A   1      44.945  33.720  30.558  1.00  0.00     0.134 A 
ATOM     64  C   UNL A   1      44.047  34.444  28.459  1.00  0.00     0.134 A 
ATOM     65  F   UNL A   1      45.193  32.769  31.471  1.00  0.00    -0.206 F 
ATOM     66  C   UNL A   1      45.316  35.031  30.858  1.00  0.00     0.040 A 
ATOM     67  C   UNL A   1      44.436  35.755  28.737  1.00  0.00     0.040 A 
ATOM     68  F   UNL A   1      43.428  34.206  27.292  1.00  0.00    -0.206 F 
ATOM     69  C   UNL A   1      45.067  36.053  29.944  1.00  0.00     0.006 A 
ENDBRANCH  48  62
BRANCH  49  70
ATOM     70  C   UNL A   1      41.189  24.097  27.582  1.00  0.00     0.057 A 
ATOM     71  C   UNL A   1      40.189  23.823  26.641  1.00  0.00     0.134 A 
ATOM     72  C   UNL A   1      41.718  23.016  28.296  1.00  0.00     0.134 A 
ATOM     73  F   UNL A   1      39.624  24.820  25.946  1.00  0.00    -0.206 F 
ATOM     74  C   UNL A   1      39.708  22.527  26.442  1.00  0.00     0.040 A 
ATOM     75  C   UNL A   1      41.265  21.712  28.087  1.00  0.00     0.040 A 
ATOM     76  F   UNL A   1      42.677  23.213  29.212  1.00  0.00    -0.206 F 
ATOM     77  C   UNL A   1      40.250  21.466  27.166  1.00  0.00     0.006 A 
ENDBRANCH  49  70
BRANCH  61  78
ATOM     78  C   UNL A   1      47.058  27.542  26.173  1.00  0.00     0.057 A 
ATOM     79  C   UNL A   1      47.296  27.716  24.803  1.00  0.00     0.134 A 
ATOM     80  C   UNL A   1      48.081  26.964  26.937  1.00  0.00     0.134 A 
ATOM     81  F   UNL A   1      46.354  28.252  24.013  1.00  0.00    -0.206 F 
ATOM     82  C   UNL A   1      48.490  27.297  24.212  1.00  0.00     0.040 A 
ATOM     83  C   UNL A   1      49.290  26.569  26.362  1.00  0.00     0.040 A 
ATOM     84  F   UNL A   1      47.924  26.780  28.257  1.00  0.00    -0.206 F 
ATOM     85  C   UNL A   1      49.492  26.727  24.993  1.00  0.00     0.006 A 
ENDBRANCH  61  78
ENDBRANCH  35  36
ENDBRANCH  28  30
ENDBRANCH  27  28
ENDBRANCH  26  27
ENDBRANCH  25  26
ENDBRANCH  24  25
ENDBRANCH  23  24
ENDBRANCH   1  23
TORSDOF 21
ENDMDL
MODEL 3
REMARK VINA RESULT:      -9.6      4.916      9.879
REMARK SMILES CC[C@@H]([NH3+])C(=O)N1CC[C@H](C(=O)OCCOCCOCCOC(=O)c2ccc(-c3c4nc(c(-c5c(F)cccc5F)c5ccc([nH]5)c(-c5c(F)cccc5F)c5nc(c(-c6c(F)cccc6F)c6ccc3[nH]6)C=C5)C=C4)cc2)[C@@H]1C
REMARK SMILES IDX 17 1 16 2 15 3 14 4 13 5 11 6 12 7 10 8 7 9 8 10 79 11 9 12
REMARK SMILES IDX 80 13 5 14 6 15 3 16 2 17 1 18 4 19 18 23 19 24 20 25 21 26
REMARK SMILES IDX 22 27 23 28 24 29 25 30 26 31 78 32 27 33 77 34 28 35 29 36
REMARK SMILES IDX 30 37 71 38 31 39 76 40 70 41 72 42 32 43 75 44 69 45 68 46
REMARK SMILES IDX 33 48 59 49 42 50 58 51 43 52 46 53 57 54 73 55 44 56 45 57
REMARK SMILES IDX 56 59 74 60 47 61 34 62 35 63 40 64 36 65 37 66 39 67 41 68
REMARK SMILES IDX 38 69 60 70 61 71 66 72 62 73 63 74 65 75 67 76 64 77 48 78
REMARK SMILES IDX 49 79 54 80 50 81 51 82 53 83 55 84 52 85
REMARK H PARENT 4 20 4 21 4 22 72 47 46 58
REMARK Flexibility Score: inf
ROOT
ATOM      1  C   UNL A   1      33.840  32.187  28.019  1.00  0.00     0.188 C 
ENDROOT
BRANCH   1   2
ATOM      2  O   UNL A   1      33.934  30.967  27.307  1.00  0.00    -0.376 OA
BRANCH   2   3
ATOM      3  C   UNL A   1      32.723  30.297  26.982  1.00  0.00     0.202 C 
BRANCH   3   4
ATOM      4  C   UNL A   1      32.483  29.823  25.537  1.00  0.00     0.261 C 
BRANCH   4   5
ATOM      5  O   UNL A   1      31.344  28.961  25.386  1.00  0.00    -0.463 OA
BRANCH   5   6
ATOM      6  C   UNL A   1      31.410  27.923  24.513  1.00  0.00     0.311 C 
ATOM      7  O   UNL A   1      32.132  27.886  23.529  1.00  0.00    -0.252 OA
BRANCH   6   8
ATOM      8  C   UNL A   1      30.432  26.838  24.950  1.00  0.00     0.123 C 
ATOM      9  N   UNL A   1      31.140  24.567  24.810  1.00  0.00    -0.334 N 
ATOM     10  C   UNL A   1      30.791  25.019  23.472  1.00  0.00     0.121 C 
ATOM     11  C   UNL A   1      31.005  25.661  25.775  1.00  0.00     0.096 C 
ATOM     12  C   UNL A   1      29.831  26.169  23.721  1.00  0.00     0.039 C 
ATOM     13  C   UNL A   1      32.308  25.990  26.503  1.00  0.00     0.032 C 
BRANCH   9  14
ATOM     14  C   UNL A   1      31.350  23.219  25.008  1.00  0.00     0.280 C 
ATOM     15  O   UNL A   1      30.649  22.598  25.820  1.00  0.00    -0.268 OA
BRANCH  14  16
ATOM     16  C   UNL A   1      32.608  22.505  24.433  1.00  0.00     0.270 C 
BRANCH  16  17
ATOM     17  C   UNL A   1      33.976  23.155  24.631  1.00  0.00     0.072 C 
ATOM     18  C   UNL A   1      34.942  22.887  23.479  1.00  0.00     0.011 C 
ENDBRANCH  16  17
BRANCH  16  19
ATOM     19  N   UNL A   1      32.599  21.099  24.903  1.00  0.00    -0.347 N 
ATOM     20  H   UNL A   1      32.136  20.512  24.209  1.00  0.00     0.345 HD
ATOM     21  H   UNL A   1      32.097  21.040  25.789  1.00  0.00     0.345 HD
ATOM     22  H   UNL A   1      33.558  20.778  25.033  1.00  0.00     0.345 HD
ENDBRANCH  16  19
ENDBRANCH  14  16
ENDBRANCH   9  14
ENDBRANCH   6   8
ENDBRANCH   5   6
ENDBRANCH   4   5
ENDBRANCH   3   4
ENDBRANCH   2   3
ENDBRANCH   1   2
BRANCH   1  23
ATOM     23  C   UNL A   1      35.132  33.030  27.970  1.00  0.00     0.188 C 
BRANCH  23  24
ATOM     24  O   UNL A   1      35.444  33.899  29.049  1.00  0.00    -0.376 OA
BRANCH  24  25
ATOM     25  C   UNL A   1      34.396  34.270  29.940  1.00  0.00     0.202 C 
BRANCH  25  26
ATOM     26  C   UNL A   1      34.585  34.065  31.455  1.00  0.00     0.261 C 
BRANCH  26  27
ATOM     27  O   UNL A   1      34.556  32.692  31.896  1.00  0.00    -0.460 OA
BRANCH  27  28
ATOM     28  C   UNL A   1      35.555  32.338  32.743  1.00  0.00     0.338 C 
ATOM     29  O   UNL A   1      35.654  32.617  33.927  1.00  0.00    -0.246 OA
BRANCH  28  30
ATOM     30  C   UNL A   1      36.471  31.375  32.098  1.00  0.00     0.060 A 
ATOM     31  C   UNL A   1      37.630  31.005  32.796  1.00  0.00     0.016 A 
ATOM     32  C   UNL A   1      36.274  30.950  30.784  1.00  0.00     0.016 A 
ATOM     33  C   UNL A   1      38.624  30.259  32.165  1.00  0.00     0.010 A 
ATOM     34  C   UNL A   1      37.285  30.222  30.141  1.00  0.00     0.010 A 
ATOM     35  C   UNL A   1      38.484  29.920  30.814  1.00  0.00    -0.014 A 
BRANCH  35  36
ATOM     36  C   UNL A   1      39.690  29.493  30.057  1.00  0.00     0.031 A 
ATOM     37  C   UNL A   1      40.801  30.495  29.869  1.00  0.00     0.074 A 
ATOM     38  C   UNL A   1      39.838  28.236  29.609  1.00  0.00     0.049 A 
ATOM     39  N   UNL A   1      41.950  30.362  29.256  1.00  0.00    -0.248 NA
ATOM     40  C   UNL A   1      40.585  31.827  30.456  1.00  0.00     0.031 C 
ATOM     41  C   UNL A   1      38.868  27.155  29.772  1.00  0.00     0.029 A 
ATOM     42  N   UNL A   1      40.875  27.657  28.920  1.00  0.00    -0.354 N 
ATOM     43  C   UNL A   1      42.593  31.586  29.391  1.00  0.00     0.074 A 
ATOM     44  C   UNL A   1      41.693  32.462  30.107  1.00  0.00     0.031 C 
ATOM     45  C   UNL A   1      39.354  26.043  29.191  1.00  0.00     0.029 A 
ATOM     46  C   UNL A   1      40.658  26.341  28.598  1.00  0.00     0.049 A 
ATOM     47  H   UNL A   1      41.698  28.141  28.679  1.00  0.00     0.167 HD
ATOM     48  C   UNL A   1      43.828  31.950  28.970  1.00  0.00     0.037 A 
ATOM     49  C   UNL A   1      41.421  25.482  27.894  1.00  0.00     0.037 A 
ATOM     50  C   UNL A   1      44.725  31.090  28.245  1.00  0.00     0.049 A 
ATOM     51  C   UNL A   1      42.756  25.937  27.362  1.00  0.00     0.074 A 
ATOM     52  C   UNL A   1      45.987  31.374  27.755  1.00  0.00     0.029 A 
ATOM     53  N   UNL A   1      44.452  29.773  27.908  1.00  0.00    -0.354 N 
ATOM     54  N   UNL A   1      43.357  27.095  27.499  1.00  0.00    -0.248 NA
ATOM     55  C   UNL A   1      43.525  24.954  26.582  1.00  0.00     0.031 C 
ATOM     56  C   UNL A   1      46.464  30.239  27.089  1.00  0.00     0.029 A 
ATOM     57  C   UNL A   1      45.517  29.235  27.207  1.00  0.00     0.049 A 
ATOM     58  H   UNL A   1      43.621  29.293  28.132  1.00  0.00     0.167 HD
ATOM     59  C   UNL A   1      44.586  26.965  26.862  1.00  0.00     0.074 A 
ATOM     60  C   UNL A   1      44.650  25.614  26.346  1.00  0.00     0.031 C 
ATOM     61  C   UNL A   1      45.576  27.880  26.719  1.00  0.00     0.037 A 
BRANCH  48  62
ATOM     62  C   UNL A   1      44.270  33.350  29.274  1.00  0.00     0.057 A 
ATOM     63  C   UNL A   1      44.025  34.408  28.388  1.00  0.00     0.134 A 
ATOM     64  C   UNL A   1      44.936  33.648  30.469  1.00  0.00     0.134 A 
ATOM     65  F   UNL A   1      43.409  34.186  27.218  1.00  0.00    -0.206 F 
ATOM     66  C   UNL A   1      44.446  35.709  28.672  1.00  0.00     0.040 A 
ATOM     67  C   UNL A   1      45.340  34.950  30.775  1.00  0.00     0.040 A 
ATOM     68  F   UNL A   1      45.202  32.682  31.361  1.00  0.00    -0.206 F 
ATOM     69  C   UNL A   1      45.100  35.983  29.871  1.00  0.00     0.006 A 
ENDBRANCH  48  62
BRANCH  49  70
ATOM     70  C   UNL A   1      40.955  24.094  27.639  1.00  0.00     0.057 A 
ATOM     71  C   UNL A   1      41.531  23.003  28.301  1.00  0.00     0.134 A 
ATOM     72  C   UNL A   1      39.969  23.822  26.684  1.00  0.00     0.134 A 
ATOM     73  F   UNL A   1      42.499  23.199  29.207  1.00  0.00    -0.206 F 
ATOM     74  C   UNL A   1      41.166  21.689  28.001  1.00  0.00     0.040 A 
ATOM     75  C   UNL A   1      39.575  22.514  26.393  1.00  0.00     0.040 A 
ATOM     76  F   UNL A   1      39.380  24.823  26.013  1.00  0.00    -0.206 F 
ATOM     77  C   UNL A   1      40.182  21.443  27.045  1.00  0.00     0.006 A 
ENDBRANCH  49  70
BRANCH  61  78
ATOM     78  C   UNL A   1      46.834  27.432  26.033  1.00  0.00     0.057 A 
ATOM     79  C   UNL A   1      47.004  27.531  24.646  1.00  0.00     0.134 A 
ATOM     80  C   UNL A   1      47.899  26.908  26.778  1.00  0.00     0.134 A 
ATOM     81  F   UNL A   1      46.019  28.014  23.874  1.00  0.00    -0.206 F 
ATOM     82  C   UNL A   1      48.173  27.091  24.021  1.00  0.00     0.040 A 
ATOM     83  C   UNL A   1      49.084  26.491  26.167  1.00  0.00     0.040 A 
ATOM     84  F   UNL A   1      47.809  26.796  28.111  1.00  0.00    -0.206 F 
ATOM     85  C   UNL A   1      49.219  26.574  24.783  1.00  0.00     0.006 A 
ENDBRANCH  61  78
ENDBRANCH  35  36
ENDBRANCH  28  30
ENDBRANCH  27  28
ENDBRANCH  26  27
ENDBRANCH  25  26
ENDBRANCH  24  25
ENDBRANCH  23  24
ENDBRANCH   1  23
TORSDOF 21
ENDMDL
