MODEL 1
REMARK VINA RESULT:     -10.5      0.000      0.000
REMARK SMILES CC(C)(C)N(CC(=O)OCCOCCOCCOC(=O)c1ccc(-c2c3nc(c(-c4c(F)cccc4F)c4ccc([nH]4)c(-c4c(F)cccc4F)c4nc(c(-c5c(F)cccc5F)c5ccc2[nH]5)C=C4)C=C3)cc1)C(=O)C1(c2ccccc2)CCC1
REMARK SMILES IDX 13 1 12 2 11 3 10 4 9 5 7 6 8 7 6 8 5 9 2 10 1 11 3 12 4 13
REMARK SMILES IDX 75 14 76 15 77 16 84 17 86 18 85 19 78 20 79 21 83 22 80 23
REMARK SMILES IDX 82 24 81 25 14 26 15 27 16 28 17 29 18 30 19 31 20 32 21 33
REMARK SMILES IDX 22 34 74 35 23 36 73 37 24 38 25 39 26 40 67 41 27 42 72 43
REMARK SMILES IDX 66 44 68 45 28 46 71 47 65 48 64 49 29 51 55 52 38 53 54 54
REMARK SMILES IDX 39 55 42 56 53 57 69 58 40 59 41 60 52 62 70 63 43 64 30 65
REMARK SMILES IDX 31 66 36 67 32 68 33 69 35 70 37 71 34 72 56 73 57 74 62 75
REMARK SMILES IDX 58 76 59 77 61 78 63 79 60 80 44 81 45 82 50 83 46 84 47 85
REMARK SMILES IDX 49 86 51 87 48 88
REMARK H PARENT 68 50 42 61
REMARK Flexibility Score: inf
ROOT
ATOM      1  C   UNL A   1      40.832  20.216  26.928  1.00  0.00     0.188 C 
ENDROOT
BRANCH   1   2
ATOM      2  O   UNL A   1      40.243  21.297  26.212  1.00  0.00    -0.376 OA
BRANCH   2   3
ATOM      3  C   UNL A   1      38.862  21.199  25.891  1.00  0.00     0.202 C 
BRANCH   3   4
ATOM      4  C   UNL A   1      38.139  22.531  25.654  1.00  0.00     0.261 C 
BRANCH   4   5
ATOM      5  O   UNL A   1      36.688  22.465  25.710  1.00  0.00    -0.462 OA
BRANCH   5   6
ATOM      6  C   UNL A   1      36.040  23.288  24.843  1.00  0.00     0.325 C 
ATOM      7  O   UNL A   1      36.369  23.441  23.669  1.00  0.00    -0.250 OA
BRANCH   6   8
ATOM      8  C   UNL A   1      34.827  24.056  25.408  1.00  0.00     0.242 C 
BRANCH   8   9
ATOM      9  N   UNL A   1      33.548  24.307  24.716  1.00  0.00    -0.326 N 
BRANCH   9  10
ATOM     10  C   UNL A   1      32.396  23.361  25.004  1.00  0.00     0.035 C 
ATOM     11  C   UNL A   1      31.564  23.739  26.257  1.00  0.00     0.034 C 
ATOM     12  C   UNL A   1      32.931  21.936  25.265  1.00  0.00     0.034 C 
ATOM     13  C   UNL A   1      31.383  23.352  23.826  1.00  0.00     0.034 C 
ENDBRANCH   9  10
BRANCH   9  14
ATOM     14  C   UNL A   1      33.232  25.522  24.025  1.00  0.00     0.234 C 
ATOM     15  O   UNL A   1      33.297  25.516  22.779  1.00  0.00    -0.274 OA
BRANCH  14  16
ATOM     16  C   UNL A   1      32.785  26.891  24.698  1.00  0.00     0.074 C 
ATOM     17  C   UNL A   1      32.907  26.852  26.278  1.00  0.00     0.022 C 
ATOM     18  C   UNL A   1      33.675  28.155  24.752  1.00  0.00     0.022 C 
ATOM     19  C   UNL A   1      34.027  27.890  26.217  1.00  0.00     0.003 C 
BRANCH  16  20
ATOM     20  C   UNL A   1      31.234  27.238  24.107  1.00  0.00    -0.032 A 
ATOM     21  C   UNL A   1      30.957  28.358  23.289  1.00  0.00     0.005 A 
ATOM     22  C   UNL A   1      30.116  26.418  24.390  1.00  0.00     0.005 A 
ATOM     23  C   UNL A   1      29.672  28.648  22.808  1.00  0.00     0.000 A 
ATOM     24  C   UNL A   1      28.826  26.706  23.924  1.00  0.00     0.000 A 
ATOM     25  C   UNL A   1      28.605  27.821  23.128  1.00  0.00     0.000 A 
ENDBRANCH  16  20
ENDBRANCH  14  16
ENDBRANCH   9  14
ENDBRANCH   8   9
ENDBRANCH   6   8
ENDBRANCH   5   6
ENDBRANCH   4   5
ENDBRANCH   3   4
ENDBRANCH   2   3
ENDBRANCH   1   2
BRANCH   1  26
ATOM     26  C   UNL A   1      41.663  19.200  26.134  1.00  0.00     0.188 C 
BRANCH  26  27
ATOM     27  O   UNL A   1      42.506  19.862  25.194  1.00  0.00    -0.376 OA
BRANCH  27  28
ATOM     28  C   UNL A   1      43.897  19.784  25.496  1.00  0.00     0.202 C 
BRANCH  28  29
ATOM     29  C   UNL A   1      44.537  21.171  25.489  1.00  0.00     0.261 C 
BRANCH  29  30
ATOM     30  O   UNL A   1      43.715  22.120  26.199  1.00  0.00    -0.460 OA
BRANCH  30  31
ATOM     31  C   UNL A   1      43.152  23.113  25.464  1.00  0.00     0.338 C 
ATOM     32  O   UNL A   1      43.027  23.141  24.253  1.00  0.00    -0.246 OA
BRANCH  31  33
ATOM     33  C   UNL A   1      42.710  24.220  26.354  1.00  0.00     0.060 A 
ATOM     34  C   UNL A   1      43.096  25.531  26.109  1.00  0.00     0.016 A 
ATOM     35  C   UNL A   1      41.953  23.948  27.493  1.00  0.00     0.016 A 
ATOM     36  C   UNL A   1      42.836  26.542  27.041  1.00  0.00     0.010 A 
ATOM     37  C   UNL A   1      41.590  24.988  28.369  1.00  0.00     0.010 A 
ATOM     38  C   UNL A   1      42.055  26.303  28.177  1.00  0.00    -0.014 A 
BRANCH  38  39
ATOM     39  C   UNL A   1      41.746  27.389  29.171  1.00  0.00     0.031 A 
ATOM     40  C   UNL A   1      42.605  27.556  30.403  1.00  0.00     0.074 A 
ATOM     41  C   UNL A   1      40.722  28.256  29.001  1.00  0.00     0.049 A 
ATOM     42  N   UNL A   1      42.343  28.186  31.522  1.00  0.00    -0.248 NA
ATOM     43  C   UNL A   1      43.939  26.935  30.365  1.00  0.00     0.031 C 
ATOM     44  C   UNL A   1      39.850  28.341  27.829  1.00  0.00     0.029 A 
ATOM     45  N   UNL A   1      40.240  29.245  29.833  1.00  0.00    -0.354 N 
ATOM     46  C   UNL A   1      43.441  27.970  32.348  1.00  0.00     0.074 A 
ATOM     47  C   UNL A   1      44.385  27.175  31.590  1.00  0.00     0.031 C 
ATOM     48  C   UNL A   1      38.983  29.351  27.990  1.00  0.00     0.029 A 
ATOM     49  C   UNL A   1      39.132  29.893  29.335  1.00  0.00     0.049 A 
ATOM     50  H   UNL A   1      40.650  29.467  30.699  1.00  0.00     0.167 HD
ATOM     51  C   UNL A   1      43.635  28.377  33.626  1.00  0.00     0.037 A 
ATOM     52  C   UNL A   1      38.271  30.757  29.910  1.00  0.00     0.037 A 
ATOM     53  C   UNL A   1      42.720  29.209  34.367  1.00  0.00     0.049 A 
ATOM     54  C   UNL A   1      38.437  31.111  31.362  1.00  0.00     0.074 A 
ATOM     55  C   UNL A   1      42.797  29.621  35.687  1.00  0.00     0.029 A 
ATOM     56  N   UNL A   1      41.570  29.775  33.840  1.00  0.00    -0.354 N 
ATOM     57  N   UNL A   1      39.393  30.773  32.191  1.00  0.00    -0.248 NA
ATOM     58  C   UNL A   1      37.375  31.927  31.970  1.00  0.00     0.031 C 
ATOM     59  C   UNL A   1      41.676  30.410  35.968  1.00  0.00     0.029 A 
ATOM     60  C   UNL A   1      40.922  30.522  34.812  1.00  0.00     0.049 A 
ATOM     61  H   UNL A   1      41.259  29.665  32.913  1.00  0.00     0.167 HD
ATOM     62  C   UNL A   1      39.050  31.337  33.414  1.00  0.00     0.074 A 
ATOM     63  C   UNL A   1      37.813  32.061  33.213  1.00  0.00     0.031 C 
ATOM     64  C   UNL A   1      39.697  31.247  34.602  1.00  0.00     0.037 A 
BRANCH  51  65
ATOM     65  C   UNL A   1      44.854  27.866  34.337  1.00  0.00     0.057 A 
ATOM     66  C   UNL A   1      44.866  26.651  35.031  1.00  0.00     0.134 A 
ATOM     67  C   UNL A   1      46.048  28.601  34.300  1.00  0.00     0.134 A 
ATOM     68  F   UNL A   1      43.754  25.906  35.117  1.00  0.00    -0.206 F 
ATOM     69  C   UNL A   1      46.016  26.196  35.682  1.00  0.00     0.040 A 
ATOM     70  C   UNL A   1      47.208  28.146  34.927  1.00  0.00     0.040 A 
ATOM     71  F   UNL A   1      46.105  29.770  33.644  1.00  0.00    -0.206 F 
ATOM     72  C   UNL A   1      47.192  26.942  35.627  1.00  0.00     0.006 A 
ENDBRANCH  51  65
BRANCH  52  73
ATOM     73  C   UNL A   1      37.100  31.267  29.147  1.00  0.00     0.057 A 
ATOM     74  C   UNL A   1      37.056  32.585  28.677  1.00  0.00     0.134 A 
ATOM     75  C   UNL A   1      35.986  30.457  28.889  1.00  0.00     0.134 A 
ATOM     76  F   UNL A   1      38.073  33.423  28.924  1.00  0.00    -0.206 F 
ATOM     77  C   UNL A   1      35.947  33.079  27.986  1.00  0.00     0.040 A 
ATOM     78  C   UNL A   1      34.887  30.925  28.168  1.00  0.00     0.040 A 
ATOM     79  F   UNL A   1      35.956  29.187  29.321  1.00  0.00    -0.206 F 
ATOM     80  C   UNL A   1      34.863  32.243  27.720  1.00  0.00     0.006 A 
ENDBRANCH  52  73
BRANCH  64  81
ATOM     81  C   UNL A   1      39.094  31.975  35.766  1.00  0.00     0.057 A 
ATOM     82  C   UNL A   1      38.197  31.351  36.641  1.00  0.00     0.134 A 
ATOM     83  C   UNL A   1      39.430  33.309  36.024  1.00  0.00     0.134 A 
ATOM     84  F   UNL A   1      37.821  30.079  36.437  1.00  0.00    -0.206 F 
ATOM     85  C   UNL A   1      37.640  32.034  37.723  1.00  0.00     0.040 A 
ATOM     86  C   UNL A   1      38.896  33.998  37.116  1.00  0.00     0.040 A 
ATOM     87  F   UNL A   1      40.286  33.964  35.225  1.00  0.00    -0.206 F 
ATOM     88  C   UNL A   1      37.994  33.361  37.965  1.00  0.00     0.006 A 
ENDBRANCH  64  81
ENDBRANCH  38  39
ENDBRANCH  31  33
ENDBRANCH  30  31
ENDBRANCH  29  30
ENDBRANCH  28  29
ENDBRANCH  27  28
ENDBRANCH  26  27
ENDBRANCH   1  26
TORSDOF 22
ENDMDL
MODEL 2
REMARK VINA RESULT:     -10.3      1.163      3.103
REMARK SMILES CC(C)(C)N(CC(=O)OCCOCCOCCOC(=O)c1ccc(-c2c3nc(c(-c4c(F)cccc4F)c4ccc([nH]4)c(-c4c(F)cccc4F)c4nc(c(-c5c(F)cccc5F)c5ccc2[nH]5)C=C4)C=C3)cc1)C(=O)C1(c2ccccc2)CCC1
REMARK SMILES IDX 13 1 12 2 11 3 10 4 9 5 7 6 8 7 6 8 5 9 2 10 1 11 3 12 4 13
REMARK SMILES IDX 75 14 76 15 77 16 84 17 86 18 85 19 78 20 79 21 83 22 80 23
REMARK SMILES IDX 82 24 81 25 14 26 15 27 16 28 17 29 18 30 19 31 20 32 21 33
REMARK SMILES IDX 22 34 74 35 23 36 73 37 24 38 25 39 26 40 67 41 27 42 72 43
REMARK SMILES IDX 66 44 68 45 28 46 71 47 65 48 64 49 29 51 55 52 38 53 54 54
REMARK SMILES IDX 39 55 42 56 53 57 69 58 40 59 41 60 52 62 70 63 43 64 30 65
REMARK SMILES IDX 31 66 36 67 32 68 33 69 35 70 37 71 34 72 56 73 57 74 62 75
REMARK SMILES IDX 58 76 59 77 61 78 63 79 60 80 44 81 45 82 50 83 46 84 47 85
REMARK SMILES IDX 49 86 51 87 48 88
REMARK H PARENT 68 50 42 61
REMARK Flexibility Score: inf
ROOT
ATOM      1  C   UNL A   1      39.645  22.173  26.323  1.00  0.00     0.188 C 
ENDROOT
BRANCH   1   2
ATOM      2  O   UNL A   1      39.140  23.309  27.017  1.00  0.00    -0.376 OA
BRANCH   2   3
ATOM      3  C   UNL A   1      38.064  24.021  26.419  1.00  0.00     0.202 C 
BRANCH   3   4
ATOM      4  C   UNL A   1      37.129  23.189  25.533  1.00  0.00     0.261 C 
BRANCH   4   5
ATOM      5  O   UNL A   1      36.204  23.959  24.718  1.00  0.00    -0.462 OA
BRANCH   5   6
ATOM      6  C   UNL A   1      36.022  23.491  23.454  1.00  0.00     0.325 C 
ATOM      7  O   UNL A   1      36.865  22.845  22.835  1.00  0.00    -0.250 OA
BRANCH   6   8
ATOM      8  C   UNL A   1      34.664  23.811  22.796  1.00  0.00     0.242 C 
BRANCH   8   9
ATOM      9  N   UNL A   1      33.416  24.181  23.493  1.00  0.00    -0.326 N 
BRANCH   9  10
ATOM     10  C   UNL A   1      33.081  25.659  23.595  1.00  0.00     0.035 C 
ATOM     11  C   UNL A   1      31.590  25.949  23.912  1.00  0.00     0.034 C 
ATOM     12  C   UNL A   1      33.372  26.364  22.252  1.00  0.00     0.034 C 
ATOM     13  C   UNL A   1      33.884  26.328  24.744  1.00  0.00     0.034 C 
ENDBRANCH   9  10
BRANCH   9  14
ATOM     14  C   UNL A   1      32.374  23.255  23.825  1.00  0.00     0.234 C 
ATOM     15  O   UNL A   1      31.475  23.065  22.982  1.00  0.00    -0.274 OA
BRANCH  14  16
ATOM     16  C   UNL A   1      32.260  22.424  25.175  1.00  0.00     0.074 C 
ATOM     17  C   UNL A   1      32.816  23.225  26.425  1.00  0.00     0.022 C 
ATOM     18  C   UNL A   1      30.947  22.262  25.978  1.00  0.00     0.022 C 
ATOM     19  C   UNL A   1      31.403  23.302  27.004  1.00  0.00     0.003 C 
BRANCH  16  20
ATOM     20  C   UNL A   1      33.010  20.931  24.889  1.00  0.00    -0.032 A 
ATOM     21  C   UNL A   1      34.391  20.710  25.105  1.00  0.00     0.005 A 
ATOM     22  C   UNL A   1      32.295  19.802  24.421  1.00  0.00     0.005 A 
ATOM     23  C   UNL A   1      35.010  19.477  24.860  1.00  0.00     0.000 A 
ATOM     24  C   UNL A   1      32.908  18.569  24.161  1.00  0.00     0.000 A 
ATOM     25  C   UNL A   1      34.268  18.405  24.385  1.00  0.00     0.000 A 
ENDBRANCH  16  20
ENDBRANCH  14  16
ENDBRANCH   9  14
ENDBRANCH   8   9
ENDBRANCH   6   8
ENDBRANCH   5   6
ENDBRANCH   4   5
ENDBRANCH   3   4
ENDBRANCH   2   3
ENDBRANCH   1   2
BRANCH   1  26
ATOM     26  C   UNL A   1      40.454  21.146  27.125  1.00  0.00     0.188 C 
BRANCH  26  27
ATOM     27  O   UNL A   1      40.973  20.131  26.269  1.00  0.00    -0.376 OA
BRANCH  27  28
ATOM     28  C   UNL A   1      42.387  19.962  26.349  1.00  0.00     0.202 C 
BRANCH  28  29
ATOM     29  C   UNL A   1      43.112  20.995  25.490  1.00  0.00     0.261 C 
BRANCH  29  30
ATOM     30  O   UNL A   1      43.486  22.146  26.274  1.00  0.00    -0.460 OA
BRANCH  30  31
ATOM     31  C   UNL A   1      43.350  23.360  25.684  1.00  0.00     0.338 C 
ATOM     32  O   UNL A   1      43.415  23.601  24.492  1.00  0.00    -0.246 OA
BRANCH  31  33
ATOM     33  C   UNL A   1      43.127  24.408  26.716  1.00  0.00     0.060 A 
ATOM     34  C   UNL A   1      42.474  24.113  27.905  1.00  0.00     0.016 A 
ATOM     35  C   UNL A   1      43.513  25.727  26.475  1.00  0.00     0.016 A 
ATOM     36  C   UNL A   1      42.102  25.130  28.792  1.00  0.00     0.010 A 
ATOM     37  C   UNL A   1      43.243  26.729  27.425  1.00  0.00     0.010 A 
ATOM     38  C   UNL A   1      42.501  26.456  28.589  1.00  0.00    -0.014 A 
BRANCH  38  39
ATOM     39  C   UNL A   1      42.131  27.551  29.550  1.00  0.00     0.031 A 
ATOM     40  C   UNL A   1      42.953  27.773  30.799  1.00  0.00     0.074 A 
ATOM     41  C   UNL A   1      41.085  28.381  29.335  1.00  0.00     0.049 A 
ATOM     42  N   UNL A   1      42.642  28.417  31.897  1.00  0.00    -0.248 NA
ATOM     43  C   UNL A   1      44.306  27.195  30.809  1.00  0.00     0.031 C 
ATOM     44  C   UNL A   1      40.242  28.412  28.140  1.00  0.00     0.029 A 
ATOM     45  N   UNL A   1      40.551  29.371  30.133  1.00  0.00    -0.354 N 
ATOM     46  C   UNL A   1      43.725  28.255  32.756  1.00  0.00     0.074 A 
ATOM     47  C   UNL A   1      44.713  27.475  32.040  1.00  0.00     0.031 C 
ATOM     48  C   UNL A   1      39.339  29.397  28.258  1.00  0.00     0.029 A 
ATOM     49  C   UNL A   1      39.435  29.972  29.594  1.00  0.00     0.049 A 
ATOM     50  H   UNL A   1      40.930  29.625  31.005  1.00  0.00     0.167 HD
ATOM     51  C   UNL A   1      43.872  28.695  34.029  1.00  0.00     0.037 A 
ATOM     52  C   UNL A   1      38.533  30.820  30.127  1.00  0.00     0.037 A 
ATOM     53  C   UNL A   1      42.912  29.512  34.727  1.00  0.00     0.049 A 
ATOM     54  C   UNL A   1      38.650  31.210  31.574  1.00  0.00     0.074 A 
ATOM     55  C   UNL A   1      42.942  29.955  36.040  1.00  0.00     0.029 A 
ATOM     56  N   UNL A   1      41.759  30.030  34.160  1.00  0.00    -0.354 N 
ATOM     57  N   UNL A   1      39.595  30.921  32.435  1.00  0.00    -0.248 NA
ATOM     58  C   UNL A   1      37.547  32.004  32.138  1.00  0.00     0.031 C 
ATOM     59  C   UNL A   1      41.789  30.713  36.275  1.00  0.00     0.029 A 
ATOM     60  C   UNL A   1      41.062  30.775  35.098  1.00  0.00     0.049 A 
ATOM     61  H   UNL A   1      41.476  29.889  33.228  1.00  0.00     0.167 HD
ATOM     62  C   UNL A   1      39.202  31.499  33.636  1.00  0.00     0.074 A 
ATOM     63  C   UNL A   1      37.948  32.178  33.388  1.00  0.00     0.031 C 
ATOM     64  C   UNL A   1      39.820  31.455  34.842  1.00  0.00     0.037 A 
BRANCH  51  65
ATOM     65  C   UNL A   1      45.088  28.239  34.782  1.00  0.00     0.057 A 
ATOM     66  C   UNL A   1      45.125  27.035  35.493  1.00  0.00     0.134 A 
ATOM     67  C   UNL A   1      46.254  29.018  34.768  1.00  0.00     0.134 A 
ATOM     68  F   UNL A   1      44.039  26.250  35.557  1.00  0.00    -0.206 F 
ATOM     69  C   UNL A   1      46.271  26.632  36.183  1.00  0.00     0.040 A 
ATOM     70  C   UNL A   1      47.412  28.615  35.434  1.00  0.00     0.040 A 
ATOM     71  F   UNL A   1      46.288  30.179  34.097  1.00  0.00    -0.206 F 
ATOM     72  C   UNL A   1      47.421  27.420  36.150  1.00  0.00     0.006 A 
ENDBRANCH  51  65
BRANCH  52  73
ATOM     73  C   UNL A   1      37.366  31.275  29.323  1.00  0.00     0.057 A 
ATOM     74  C   UNL A   1      37.324  32.558  28.765  1.00  0.00     0.134 A 
ATOM     75  C   UNL A   1      36.254  30.448  29.114  1.00  0.00     0.134 A 
ATOM     76  F   UNL A   1      38.339  33.412  28.961  1.00  0.00    -0.206 F 
ATOM     77  C   UNL A   1      36.219  33.002  28.034  1.00  0.00     0.040 A 
ATOM     78  C   UNL A   1      35.160  30.864  28.356  1.00  0.00     0.040 A 
ATOM     79  F   UNL A   1      36.223  29.210  29.631  1.00  0.00    -0.206 F 
ATOM     80  C   UNL A   1      35.137  32.149  27.819  1.00  0.00     0.006 A 
ENDBRANCH  52  73
BRANCH  64  81
ATOM     81  C   UNL A   1      39.165  32.188  35.973  1.00  0.00     0.057 A 
ATOM     82  C   UNL A   1      39.439  33.537  36.234  1.00  0.00     0.134 A 
ATOM     83  C   UNL A   1      38.235  31.545  36.798  1.00  0.00     0.134 A 
ATOM     84  F   UNL A   1      40.334  34.205  35.490  1.00  0.00    -0.206 F 
ATOM     85  C   UNL A   1      38.825  34.214  37.289  1.00  0.00     0.040 A 
ATOM     86  C   UNL A   1      37.598  32.218  37.843  1.00  0.00     0.040 A 
ATOM     87  F   UNL A   1      37.926  30.254  36.600  1.00  0.00    -0.206 F 
ATOM     88  C   UNL A   1      37.898  33.555  38.093  1.00  0.00     0.006 A 
ENDBRANCH  64  81
ENDBRANCH  38  39
ENDBRANCH  31  33
ENDBRANCH  30  31
ENDBRANCH  29  30
ENDBRANCH  28  29
ENDBRANCH  27  28
ENDBRANCH  26  27
ENDBRANCH   1  26
TORSDOF 22
ENDMDL
MODEL 3
REMARK VINA RESULT:     -10.3      1.809      6.546
REMARK SMILES CC(C)(C)N(CC(=O)OCCOCCOCCOC(=O)c1ccc(-c2c3nc(c(-c4c(F)cccc4F)c4ccc([nH]4)c(-c4c(F)cccc4F)c4nc(c(-c5c(F)cccc5F)c5ccc2[nH]5)C=C4)C=C3)cc1)C(=O)C1(c2ccccc2)CCC1
REMARK SMILES IDX 13 1 12 2 11 3 10 4 9 5 7 6 8 7 6 8 5 9 2 10 1 11 3 12 4 13
REMARK SMILES IDX 75 14 76 15 77 16 84 17 86 18 85 19 78 20 79 21 83 22 80 23
REMARK SMILES IDX 82 24 81 25 14 26 15 27 16 28 17 29 18 30 19 31 20 32 21 33
REMARK SMILES IDX 22 34 74 35 23 36 73 37 24 38 25 39 26 40 67 41 27 42 72 43
REMARK SMILES IDX 66 44 68 45 28 46 71 47 65 48 64 49 29 51 55 52 38 53 54 54
REMARK SMILES IDX 39 55 42 56 53 57 69 58 40 59 41 60 52 62 70 63 43 64 30 65
REMARK SMILES IDX 31 66 36 67 32 68 33 69 35 70 37 71 34 72 56 73 57 74 62 75
REMARK SMILES IDX 58 76 59 77 61 78 63 79 60 80 44 81 45 82 50 83 46 84 47 85
REMARK SMILES IDX 49 86 51 87 48 88
REMARK H PARENT 68 50 42 61
REMARK Flexibility Score: inf
ROOT
ATOM      1  C   UNL A   1      40.780  21.392  26.671  1.00  0.00     0.188 C 
ENDROOT
BRANCH   1   2
ATOM      2  O   UNL A   1      39.781  22.250  27.211  1.00  0.00    -0.376 OA
BRANCH   2   3
ATOM      3  C   UNL A   1      38.943  22.942  26.295  1.00  0.00     0.202 C 
BRANCH   3   4
ATOM      4  C   UNL A   1      38.026  22.060  25.438  1.00  0.00     0.261 C 
BRANCH   4   5
ATOM      5  O   UNL A   1      36.636  22.021  25.862  1.00  0.00    -0.462 OA
BRANCH   5   6
ATOM      6  C   UNL A   1      35.871  23.056  25.425  1.00  0.00     0.325 C 
ATOM      7  O   UNL A   1      36.096  23.688  24.395  1.00  0.00    -0.250 OA
BRANCH   6   8
ATOM      8  C   UNL A   1      34.658  23.428  26.304  1.00  0.00     0.242 C 
BRANCH   8   9
ATOM      9  N   UNL A   1      33.234  23.296  25.937  1.00  0.00    -0.326 N 
BRANCH   9  10
ATOM     10  C   UNL A   1      32.770  21.955  25.395  1.00  0.00     0.035 C 
ATOM     11  C   UNL A   1      33.166  21.700  23.917  1.00  0.00     0.034 C 
ATOM     12  C   UNL A   1      31.229  21.868  25.441  1.00  0.00     0.034 C 
ATOM     13  C   UNL A   1      33.405  20.787  26.198  1.00  0.00     0.034 C 
ENDBRANCH   9  10
BRANCH   9  14
ATOM     14  C   UNL A   1      32.216  24.231  26.314  1.00  0.00     0.234 C 
ATOM     15  O   UNL A   1      31.710  24.115  27.448  1.00  0.00    -0.274 OA
BRANCH  14  16
ATOM     16  C   UNL A   1      31.672  25.428  25.421  1.00  0.00     0.074 C 
ATOM     17  C   UNL A   1      31.983  25.221  23.881  1.00  0.00     0.022 C 
ATOM     18  C   UNL A   1      30.190  25.588  25.007  1.00  0.00     0.022 C 
ATOM     19  C   UNL A   1      30.488  25.066  23.600  1.00  0.00     0.003 C 
BRANCH  16  20
ATOM     20  C   UNL A   1      32.295  26.855  26.093  1.00  0.00    -0.032 A 
ATOM     21  C   UNL A   1      33.667  27.194  26.039  1.00  0.00     0.005 A 
ATOM     22  C   UNL A   1      31.473  27.805  26.744  1.00  0.00     0.005 A 
ATOM     23  C   UNL A   1      34.181  28.371  26.603  1.00  0.00     0.000 A 
ATOM     24  C   UNL A   1      31.979  28.978  27.321  1.00  0.00     0.000 A 
ATOM     25  C   UNL A   1      33.336  29.263  27.246  1.00  0.00     0.000 A 
ENDBRANCH  16  20
ENDBRANCH  14  16
ENDBRANCH   9  14
ENDBRANCH   8   9
ENDBRANCH   6   8
ENDBRANCH   5   6
ENDBRANCH   4   5
ENDBRANCH   3   4
ENDBRANCH   2   3
ENDBRANCH   1   2
BRANCH   1  26
ATOM     26  C   UNL A   1      42.141  21.345  27.377  1.00  0.00     0.188 C 
BRANCH  26  27
ATOM     27  O   UNL A   1      43.205  21.418  26.431  1.00  0.00    -0.376 OA
BRANCH  27  28
ATOM     28  C   UNL A   1      43.080  22.481  25.488  1.00  0.00     0.202 C 
BRANCH  28  29
ATOM     29  C   UNL A   1      43.091  23.837  26.189  1.00  0.00     0.261 C 
BRANCH  29  30
ATOM     30  O   UNL A   1      41.975  24.646  25.763  1.00  0.00    -0.460 OA
BRANCH  30  31
ATOM     31  C   UNL A   1      42.214  25.969  25.572  1.00  0.00     0.338 C 
ATOM     32  O   UNL A   1      42.759  26.478  24.610  1.00  0.00    -0.246 OA
BRANCH  31  33
ATOM     33  C   UNL A   1      41.729  26.749  26.741  1.00  0.00     0.060 A 
ATOM     34  C   UNL A   1      42.176  28.044  26.971  1.00  0.00     0.016 A 
ATOM     35  C   UNL A   1      40.866  26.167  27.669  1.00  0.00     0.016 A 
ATOM     36  C   UNL A   1      41.866  28.710  28.162  1.00  0.00     0.010 A 
ATOM     37  C   UNL A   1      40.460  26.885  28.809  1.00  0.00     0.010 A 
ATOM     38  C   UNL A   1      40.980  28.161  29.095  1.00  0.00    -0.014 A 
BRANCH  38  39
ATOM     39  C   UNL A   1      40.618  28.880  30.365  1.00  0.00     0.031 A 
ATOM     40  C   UNL A   1      39.466  29.859  30.380  1.00  0.00     0.074 A 
ATOM     41  C   UNL A   1      41.278  28.674  31.527  1.00  0.00     0.049 A 
ATOM     42  N   UNL A   1      39.189  30.807  31.241  1.00  0.00    -0.248 NA
ATOM     43  C   UNL A   1      38.496  29.750  29.279  1.00  0.00     0.031 C 
ATOM     44  C   UNL A   1      42.336  27.690  31.755  1.00  0.00     0.029 A 
ATOM     45  N   UNL A   1      41.146  29.295  32.752  1.00  0.00    -0.354 N 
ATOM     46  C   UNL A   1      38.063  31.457  30.746  1.00  0.00     0.074 A 
ATOM     47  C   UNL A   1      37.691  30.776  29.523  1.00  0.00     0.031 C 
ATOM     48  C   UNL A   1      42.718  27.736  33.040  1.00  0.00     0.029 A 
ATOM     49  C   UNL A   1      42.044  28.849  33.696  1.00  0.00     0.049 A 
ATOM     50  H   UNL A   1      40.475  29.991  32.935  1.00  0.00     0.167 HD
ATOM     51  C   UNL A   1      37.413  32.533  31.252  1.00  0.00     0.037 A 
ATOM     52  C   UNL A   1      42.365  29.323  34.917  1.00  0.00     0.037 A 
ATOM     53  C   UNL A   1      37.751  33.183  32.493  1.00  0.00     0.049 A 
ATOM     54  C   UNL A   1      41.714  30.584  35.415  1.00  0.00     0.074 A 
ATOM     55  C   UNL A   1      37.193  34.318  33.058  1.00  0.00     0.029 A 
ATOM     56  N   UNL A   1      38.722  32.737  33.375  1.00  0.00    -0.354 N 
ATOM     57  N   UNL A   1      40.757  31.292  34.868  1.00  0.00    -0.248 NA
ATOM     58  C   UNL A   1      42.223  31.137  36.679  1.00  0.00     0.031 C 
ATOM     59  C   UNL A   1      37.851  34.578  34.266  1.00  0.00     0.029 A 
ATOM     60  C   UNL A   1      38.790  33.582  34.472  1.00  0.00     0.049 A 
ATOM     61  H   UNL A   1      39.282  31.939  33.243  1.00  0.00     0.167 HD
ATOM     62  C   UNL A   1      40.549  32.370  35.720  1.00  0.00     0.074 A 
ATOM     63  C   UNL A   1      41.459  32.208  36.834  1.00  0.00     0.031 C 
ATOM     64  C   UNL A   1      39.691  33.410  35.581  1.00  0.00     0.037 A 
BRANCH  51  65
ATOM     65  C   UNL A   1      36.312  33.128  30.423  1.00  0.00     0.057 A 
ATOM     66  C   UNL A   1      34.960  32.876  30.677  1.00  0.00     0.134 A 
ATOM     67  C   UNL A   1      36.621  33.993  29.364  1.00  0.00     0.134 A 
ATOM     68  F   UNL A   1      34.596  32.047  31.667  1.00  0.00    -0.206 F 
ATOM     69  C   UNL A   1      33.953  33.445  29.892  1.00  0.00     0.040 A 
ATOM     70  C   UNL A   1      35.625  34.586  28.587  1.00  0.00     0.040 A 
ATOM     71  F   UNL A   1      37.898  34.283  29.074  1.00  0.00    -0.206 F 
ATOM     72  C   UNL A   1      34.285  34.307  28.847  1.00  0.00     0.006 A 
ENDBRANCH  51  65
BRANCH  52  73
ATOM     73  C   UNL A   1      43.436  28.671  35.716  1.00  0.00     0.057 A 
ATOM     74  C   UNL A   1      43.144  27.654  36.632  1.00  0.00     0.134 A 
ATOM     75  C   UNL A   1      44.777  29.065  35.602  1.00  0.00     0.134 A 
ATOM     76  F   UNL A   1      41.876  27.257  36.816  1.00  0.00    -0.206 F 
ATOM     77  C   UNL A   1      44.141  27.057  37.407  1.00  0.00     0.040 A 
ATOM     78  C   UNL A   1      45.789  28.453  36.343  1.00  0.00     0.040 A 
ATOM     79  F   UNL A   1      45.126  30.042  34.753  1.00  0.00    -0.206 F 
ATOM     80  C   UNL A   1      45.470  27.450  37.255  1.00  0.00     0.006 A 
ENDBRANCH  52  73
BRANCH  64  81
ATOM     81  C   UNL A   1      39.674  34.434  36.676  1.00  0.00     0.057 A 
ATOM     82  C   UNL A   1      38.865  34.285  37.810  1.00  0.00     0.134 A 
ATOM     83  C   UNL A   1      40.489  35.569  36.605  1.00  0.00     0.134 A 
ATOM     84  F   UNL A   1      38.048  33.228  37.929  1.00  0.00    -0.206 F 
ATOM     85  C   UNL A   1      38.854  35.241  38.827  1.00  0.00     0.040 A 
ATOM     86  C   UNL A   1      40.502  36.523  37.625  1.00  0.00     0.040 A 
ATOM     87  F   UNL A   1      41.288  35.769  35.546  1.00  0.00    -0.206 F 
ATOM     88  C   UNL A   1      39.679  36.362  38.737  1.00  0.00     0.006 A 
ENDBRANCH  64  81
ENDBRANCH  38  39
ENDBRANCH  31  33
ENDBRANCH  30  31
ENDBRANCH  29  30
ENDBRANCH  28  29
ENDBRANCH  27  28
ENDBRANCH  26  27
ENDBRANCH   1  26
TORSDOF 22
ENDMDL
