MODEL 1
REMARK VINA RESULT:     -10.8      0.000      0.000
REMARK SMILES [NH3+][C@]1(C(=O)OCCOCCOCCOC(=O)c2ccc(-c3c4nc(c(-c5c(F)cccc5F)c5ccc([nH]5)c(-c5c(F)cccc5F)c5nc(c(-c6c(F)cccc6F)c6ccc3[nH]6)C=C5)C=C4)cc2)CC[C@@H]([NH+]2CCC(C(F)(F)F)CC2)C1
REMARK SMILES IDX 9 1 8 2 7 3 6 4 5 5 3 6 4 7 2 8 71 9 84 10 72 11 73 12 1 13
REMARK SMILES IDX 74 17 75 18 83 19 76 21 82 22 77 23 78 24 79 25 80 26 81 27
REMARK SMILES IDX 10 28 11 29 12 30 13 31 14 32 15 33 16 34 17 35 18 36 70 37
REMARK SMILES IDX 19 38 69 39 20 40 21 41 22 42 63 43 23 44 68 45 62 46 64 47
REMARK SMILES IDX 24 48 67 49 61 50 60 51 25 53 51 54 34 55 50 56 35 57 38 58
REMARK SMILES IDX 49 59 65 60 36 61 37 62 48 64 66 65 39 66 26 67 27 68 32 69
REMARK SMILES IDX 28 70 29 71 31 72 33 73 30 74 52 75 53 76 58 77 54 78 55 79
REMARK SMILES IDX 57 80 59 81 56 82 40 83 41 84 46 85 42 86 43 87 45 88 47 89
REMARK SMILES IDX 44 90
REMARK H PARENT 1 14 1 15 1 16 74 20 64 52 38 63
REMARK Flexibility Score: inf
ROOT
ATOM      1  C   UNL A   1      42.850  19.429  26.120  1.00  0.00     0.188 C 
ENDROOT
BRANCH   1   2
ATOM      2  O   UNL A   1      41.938  20.465  25.781  1.00  0.00    -0.376 OA
BRANCH   2   3
ATOM      3  C   UNL A   1      40.617  20.440  26.296  1.00  0.00     0.202 C 
BRANCH   3   4
ATOM      4  C   UNL A   1      39.911  21.789  26.467  1.00  0.00     0.261 C 
BRANCH   4   5
ATOM      5  O   UNL A   1      38.544  21.837  26.014  1.00  0.00    -0.459 OA
BRANCH   5   6
ATOM      6  C   UNL A   1      37.938  23.054  26.011  1.00  0.00     0.368 C 
ATOM      7  O   UNL A   1      38.460  24.089  26.413  1.00  0.00    -0.245 OA
BRANCH   6   8
ATOM      8  C   UNL A   1      36.478  23.026  25.466  1.00  0.00     0.198 C 
ATOM      9  C   UNL A   1      36.452  22.736  23.958  1.00  0.00     0.087 C 
ATOM     10  C   UNL A   1      35.534  21.943  26.019  1.00  0.00     0.145 C 
ATOM     11  C   UNL A   1      34.991  22.413  23.662  1.00  0.00     0.072 C 
ATOM     12  C   UNL A   1      34.487  21.649  24.906  1.00  0.00     0.191 C 
BRANCH   8  13
ATOM     13  N   UNL A   1      35.887  24.374  25.689  1.00  0.00    -0.343 N 
ATOM     14  H   UNL A   1      36.516  25.088  25.321  1.00  0.00     0.345 HD
ATOM     15  H   UNL A   1      35.749  24.524  26.688  1.00  0.00     0.345 HD
ATOM     16  H   UNL A   1      34.988  24.434  25.209  1.00  0.00     0.345 HD
ENDBRANCH   8  13
BRANCH  12  17
ATOM     17  N   UNL A   1      34.155  20.224  24.655  1.00  0.00    -0.332 N 
ATOM     18  C   UNL A   1      35.247  19.281  24.903  1.00  0.00     0.263 C 
ATOM     19  C   UNL A   1      32.923  19.814  25.349  1.00  0.00     0.263 C 
ATOM     20  H   UNL A   1      33.990  20.177  23.650  1.00  0.00     0.348 HD
ATOM     21  C   UNL A   1      34.886  17.857  24.490  1.00  0.00     0.074 C 
ATOM     22  C   UNL A   1      32.510  18.377  25.007  1.00  0.00     0.074 C 
ATOM     23  C   UNL A   1      33.652  17.389  25.259  1.00  0.00     0.106 C 
BRANCH  23  24
ATOM     24  C   UNL A   1      33.273  15.970  24.883  1.00  0.00     0.392 C 
ATOM     25  F   UNL A   1      32.043  15.661  25.350  1.00  0.00    -0.171 F 
ATOM     26  F   UNL A   1      33.237  15.826  23.539  1.00  0.00    -0.171 F 
ATOM     27  F   UNL A   1      34.143  15.064  25.372  1.00  0.00    -0.171 F 
ENDBRANCH  23  24
ENDBRANCH  12  17
ENDBRANCH   6   8
ENDBRANCH   5   6
ENDBRANCH   4   5
ENDBRANCH   3   4
ENDBRANCH   2   3
ENDBRANCH   1   2
BRANCH   1  28
ATOM     28  C   UNL A   1      44.016  19.080  25.185  1.00  0.00     0.188 C 
BRANCH  28  29
ATOM     29  O   UNL A   1      44.651  20.202  24.600  1.00  0.00    -0.376 OA
BRANCH  29  30
ATOM     30  C   UNL A   1      45.559  20.906  25.430  1.00  0.00     0.202 C 
BRANCH  30  31
ATOM     31  C   UNL A   1      45.796  22.340  24.947  1.00  0.00     0.261 C 
BRANCH  31  32
ATOM     32  O   UNL A   1      45.030  23.348  25.637  1.00  0.00    -0.460 OA
BRANCH  32  33
ATOM     33  C   UNL A   1      43.831  23.664  25.108  1.00  0.00     0.338 C 
ATOM     34  O   UNL A   1      43.305  23.143  24.131  1.00  0.00    -0.246 OA
BRANCH  33  35
ATOM     35  C   UNL A   1      43.133  24.603  26.011  1.00  0.00     0.060 A 
ATOM     36  C   UNL A   1      43.557  25.938  26.048  1.00  0.00     0.016 A 
ATOM     37  C   UNL A   1      42.095  24.174  26.841  1.00  0.00     0.016 A 
ATOM     38  C   UNL A   1      42.983  26.833  26.952  1.00  0.00     0.010 A 
ATOM     39  C   UNL A   1      41.527  25.070  27.756  1.00  0.00     0.010 A 
ATOM     40  C   UNL A   1      41.994  26.393  27.845  1.00  0.00    -0.014 A 
BRANCH  40  41
ATOM     41  C   UNL A   1      41.585  27.273  28.972  1.00  0.00     0.031 A 
ATOM     42  C   UNL A   1      42.366  27.220  30.259  1.00  0.00     0.074 A 
ATOM     43  C   UNL A   1      40.569  28.145  28.847  1.00  0.00     0.049 A 
ATOM     44  N   UNL A   1      42.200  27.903  31.364  1.00  0.00    -0.248 NA
ATOM     45  C   UNL A   1      43.487  26.268  30.305  1.00  0.00     0.031 C 
ATOM     46  C   UNL A   1      39.749  28.325  27.651  1.00  0.00     0.029 A 
ATOM     47  N   UNL A   1      40.055  29.049  29.745  1.00  0.00    -0.354 N 
ATOM     48  C   UNL A   1      43.192  27.465  32.234  1.00  0.00     0.074 A 
ATOM     49  C   UNL A   1      43.930  26.430  31.542  1.00  0.00     0.031 C 
ATOM     50  C   UNL A   1      38.835  29.281  27.889  1.00  0.00     0.029 A 
ATOM     51  C   UNL A   1      38.986  29.762  29.262  1.00  0.00     0.049 A 
ATOM     52  H   UNL A   1      40.420  29.173  30.651  1.00  0.00     0.167 HD
ATOM     53  C   UNL A   1      43.475  27.892  33.488  1.00  0.00     0.037 A 
ATOM     54  C   UNL A   1      38.211  30.688  29.862  1.00  0.00     0.037 A 
ATOM     55  C   UNL A   1      42.742  28.919  34.184  1.00  0.00     0.049 A 
ATOM     56  C   UNL A   1      38.503  31.099  31.281  1.00  0.00     0.074 A 
ATOM     57  C   UNL A   1      42.961  29.425  35.453  1.00  0.00     0.029 A 
ATOM     58  N   UNL A   1      41.643  29.592  33.671  1.00  0.00    -0.354 N 
ATOM     59  N   UNL A   1      39.460  30.697  32.083  1.00  0.00    -0.248 NA
ATOM     60  C   UNL A   1      37.610  32.104  31.877  1.00  0.00     0.031 C 
ATOM     61  C   UNL A   1      41.964  30.366  35.729  1.00  0.00     0.029 A 
ATOM     62  C   UNL A   1      41.160  30.491  34.609  1.00  0.00     0.049 A 
ATOM     63  H   UNL A   1      41.262  29.450  32.775  1.00  0.00     0.167 HD
ATOM     64  C   UNL A   1      39.303  31.421  33.260  1.00  0.00     0.074 A 
ATOM     65  C   UNL A   1      38.171  32.300  33.061  1.00  0.00     0.031 C 
ATOM     66  C   UNL A   1      40.032  31.365  34.403  1.00  0.00     0.037 A 
BRANCH  53  67
ATOM     67  C   UNL A   1      44.616  27.226  34.203  1.00  0.00     0.057 A 
ATOM     68  C   UNL A   1      45.943  27.645  34.033  1.00  0.00     0.134 A 
ATOM     69  C   UNL A   1      44.381  26.170  35.093  1.00  0.00     0.134 A 
ATOM     70  F   UNL A   1      46.238  28.640  33.184  1.00  0.00    -0.206 F 
ATOM     71  C   UNL A   1      46.996  27.020  34.704  1.00  0.00     0.040 A 
ATOM     72  C   UNL A   1      45.423  25.558  35.791  1.00  0.00     0.040 A 
ATOM     73  F   UNL A   1      43.134  25.723  35.307  1.00  0.00    -0.206 F 
ATOM     74  C   UNL A   1      46.737  25.978  35.592  1.00  0.00     0.006 A 
ENDBRANCH  53  67
BRANCH  54  75
ATOM     75  C   UNL A   1      37.072  31.297  29.126  1.00  0.00     0.057 A 
ATOM     76  C   UNL A   1      37.135  32.611  28.646  1.00  0.00     0.134 A 
ATOM     77  C   UNL A   1      35.880  30.593  28.922  1.00  0.00     0.134 A 
ATOM     78  F   UNL A   1      38.238  33.347  28.837  1.00  0.00    -0.206 F 
ATOM     79  C   UNL A   1      36.045  33.210  28.009  1.00  0.00     0.040 A 
ATOM     80  C   UNL A   1      34.793  31.169  28.261  1.00  0.00     0.040 A 
ATOM     81  F   UNL A   1      35.754  29.332  29.360  1.00  0.00    -0.206 F 
ATOM     82  C   UNL A   1      34.872  32.486  27.810  1.00  0.00     0.006 A 
ENDBRANCH  54  75
BRANCH  66  83
ATOM     83  C   UNL A   1      39.656  32.312  35.508  1.00  0.00     0.057 A 
ATOM     84  C   UNL A   1      40.276  33.557  35.668  1.00  0.00     0.134 A 
ATOM     85  C   UNL A   1      38.646  31.976  36.421  1.00  0.00     0.134 A 
ATOM     86  F   UNL A   1      41.258  33.940  34.837  1.00  0.00    -0.206 F 
ATOM     87  C   UNL A   1      39.936  34.416  36.716  1.00  0.00     0.040 A 
ATOM     88  C   UNL A   1      38.274  32.839  37.453  1.00  0.00     0.040 A 
ATOM     89  F   UNL A   1      37.998  30.805  36.320  1.00  0.00    -0.206 F 
ATOM     90  C   UNL A   1      38.928  34.059  37.610  1.00  0.00     0.006 A 
ENDBRANCH  66  83
ENDBRANCH  40  41
ENDBRANCH  33  35
ENDBRANCH  32  33
ENDBRANCH  31  32
ENDBRANCH  30  31
ENDBRANCH  29  30
ENDBRANCH  28  29
ENDBRANCH   1  28
TORSDOF 20
ENDMDL
MODEL 2
REMARK VINA RESULT:     -10.7      2.472      3.198
REMARK SMILES [NH3+][C@]1(C(=O)OCCOCCOCCOC(=O)c2ccc(-c3c4nc(c(-c5c(F)cccc5F)c5ccc([nH]5)c(-c5c(F)cccc5F)c5nc(c(-c6c(F)cccc6F)c6ccc3[nH]6)C=C5)C=C4)cc2)CC[C@@H]([NH+]2CCC(C(F)(F)F)CC2)C1
REMARK SMILES IDX 9 1 8 2 7 3 6 4 5 5 3 6 4 7 2 8 71 9 84 10 72 11 73 12 1 13
REMARK SMILES IDX 74 17 75 18 83 19 76 21 82 22 77 23 78 24 79 25 80 26 81 27
REMARK SMILES IDX 10 28 11 29 12 30 13 31 14 32 15 33 16 34 17 35 18 36 70 37
REMARK SMILES IDX 19 38 69 39 20 40 21 41 22 42 63 43 23 44 68 45 62 46 64 47
REMARK SMILES IDX 24 48 67 49 61 50 60 51 25 53 51 54 34 55 50 56 35 57 38 58
REMARK SMILES IDX 49 59 65 60 36 61 37 62 48 64 66 65 39 66 26 67 27 68 32 69
REMARK SMILES IDX 28 70 29 71 31 72 33 73 30 74 52 75 53 76 58 77 54 78 55 79
REMARK SMILES IDX 57 80 59 81 56 82 40 83 41 84 46 85 42 86 43 87 45 88 47 89
REMARK SMILES IDX 44 90
REMARK H PARENT 1 14 1 15 1 16 74 20 64 52 38 63
REMARK Flexibility Score: inf
ROOT
ATOM      1  C   UNL A   1      45.444  18.761  25.371  1.00  0.00     0.188 C 
ENDROOT
BRANCH   1   2
ATOM      2  O   UNL A   1      44.121  18.403  24.996  1.00  0.00    -0.376 OA
BRANCH   2   3
ATOM      3  C   UNL A   1      43.092  18.374  25.971  1.00  0.00     0.202 C 
BRANCH   3   4
ATOM      4  C   UNL A   1      42.108  19.548  25.980  1.00  0.00     0.261 C 
BRANCH   4   5
ATOM      5  O   UNL A   1      42.653  20.812  26.405  1.00  0.00    -0.459 OA
BRANCH   5   6
ATOM      6  C   UNL A   1      42.065  21.934  25.911  1.00  0.00     0.368 C 
ATOM      7  O   UNL A   1      42.497  22.580  24.961  1.00  0.00    -0.245 OA
BRANCH   6   8
ATOM      8  C   UNL A   1      40.781  22.362  26.681  1.00  0.00     0.198 C 
ATOM      9  C   UNL A   1      40.602  23.888  26.663  1.00  0.00     0.087 C 
ATOM     10  C   UNL A   1      39.427  21.873  26.132  1.00  0.00     0.145 C 
ATOM     11  C   UNL A   1      39.171  24.105  27.144  1.00  0.00     0.072 C 
ATOM     12  C   UNL A   1      38.365  22.927  26.554  1.00  0.00     0.191 C 
BRANCH   8  13
ATOM     13  N   UNL A   1      40.937  21.930  28.098  1.00  0.00    -0.343 N 
ATOM     14  H   UNL A   1      40.017  21.796  28.516  1.00  0.00     0.345 HD
ATOM     15  H   UNL A   1      41.445  22.646  28.617  1.00  0.00     0.345 HD
ATOM     16  H   UNL A   1      41.456  21.053  28.130  1.00  0.00     0.345 HD
ENDBRANCH   8  13
BRANCH  12  17
ATOM     17  N   UNL A   1      37.367  23.324  25.527  1.00  0.00    -0.332 N 
ATOM     18  C   UNL A   1      37.108  22.320  24.495  1.00  0.00     0.263 C 
ATOM     19  C   UNL A   1      36.116  23.809  26.133  1.00  0.00     0.263 C 
ATOM     20  H   UNL A   1      37.808  24.101  25.034  1.00  0.00     0.348 HD
ATOM     21  C   UNL A   1      36.186  22.844  23.398  1.00  0.00     0.074 C 
ATOM     22  C   UNL A   1      35.122  24.327  25.086  1.00  0.00     0.074 C 
ATOM     23  C   UNL A   1      34.852  23.280  24.001  1.00  0.00     0.106 C 
BRANCH  23  24
ATOM     24  C   UNL A   1      33.906  23.794  22.935  1.00  0.00     0.392 C 
ATOM     25  F   UNL A   1      32.631  23.799  23.384  1.00  0.00    -0.171 F 
ATOM     26  F   UNL A   1      34.214  25.066  22.596  1.00  0.00    -0.171 F 
ATOM     27  F   UNL A   1      33.948  23.046  21.813  1.00  0.00    -0.171 F 
ENDBRANCH  23  24
ENDBRANCH  12  17
ENDBRANCH   6   8
ENDBRANCH   5   6
ENDBRANCH   4   5
ENDBRANCH   3   4
ENDBRANCH   2   3
ENDBRANCH   1   2
BRANCH   1  28
ATOM     28  C   UNL A   1      46.109  20.014  24.784  1.00  0.00     0.188 C 
BRANCH  28  29
ATOM     29  O   UNL A   1      45.203  20.951  24.232  1.00  0.00    -0.376 OA
BRANCH  29  30
ATOM     30  C   UNL A   1      45.736  22.232  23.938  1.00  0.00     0.202 C 
BRANCH  30  31
ATOM     31  C   UNL A   1      46.292  22.929  25.184  1.00  0.00     0.261 C 
BRANCH  31  32
ATOM     32  O   UNL A   1      45.344  23.751  25.895  1.00  0.00    -0.460 OA
BRANCH  32  33
ATOM     33  C   UNL A   1      45.349  25.068  25.604  1.00  0.00     0.338 C 
ATOM     34  O   UNL A   1      45.884  25.600  24.638  1.00  0.00    -0.246 OA
BRANCH  33  35
ATOM     35  C   UNL A   1      44.426  25.771  26.519  1.00  0.00     0.060 A 
ATOM     36  C   UNL A   1      44.394  27.171  26.494  1.00  0.00     0.016 A 
ATOM     37  C   UNL A   1      43.624  25.068  27.421  1.00  0.00     0.016 A 
ATOM     38  C   UNL A   1      43.602  27.872  27.404  1.00  0.00     0.010 A 
ATOM     39  C   UNL A   1      42.838  25.773  28.342  1.00  0.00     0.010 A 
ATOM     40  C   UNL A   1      42.853  27.179  28.366  1.00  0.00    -0.014 A 
BRANCH  40  41
ATOM     41  C   UNL A   1      42.232  27.929  29.489  1.00  0.00     0.031 A 
ATOM     42  C   UNL A   1      42.888  27.888  30.845  1.00  0.00     0.074 A 
ATOM     43  C   UNL A   1      41.130  28.679  29.307  1.00  0.00     0.049 A 
ATOM     44  N   UNL A   1      42.535  28.475  31.961  1.00  0.00    -0.248 NA
ATOM     45  C   UNL A   1      44.110  27.076  30.955  1.00  0.00     0.031 C 
ATOM     46  C   UNL A   1      40.411  28.836  28.045  1.00  0.00     0.029 A 
ATOM     47  N   UNL A   1      40.425  29.456  30.194  1.00  0.00    -0.354 N 
ATOM     48  C   UNL A   1      43.487  28.103  32.903  1.00  0.00     0.074 A 
ATOM     49  C   UNL A   1      44.411  27.210  32.238  1.00  0.00     0.031 C 
ATOM     50  C   UNL A   1      39.366  29.658  28.238  1.00  0.00     0.029 A 
ATOM     51  C   UNL A   1      39.325  30.066  29.642  1.00  0.00     0.049 A 
ATOM     52  H   UNL A   1      40.684  29.565  31.138  1.00  0.00     0.167 HD
ATOM     53  C   UNL A   1      43.594  28.481  34.200  1.00  0.00     0.037 A 
ATOM     54  C   UNL A   1      38.387  30.852  30.207  1.00  0.00     0.037 A 
ATOM     55  C   UNL A   1      42.675  29.365  34.870  1.00  0.00     0.049 A 
ATOM     56  C   UNL A   1      38.490  31.203  31.669  1.00  0.00     0.074 A 
ATOM     57  C   UNL A   1      42.709  29.812  36.179  1.00  0.00     0.029 A 
ATOM     58  N   UNL A   1      41.554  29.933  34.284  1.00  0.00    -0.354 N 
ATOM     59  N   UNL A   1      39.410  30.868  32.542  1.00  0.00    -0.248 NA
ATOM     60  C   UNL A   1      37.426  32.054  32.222  1.00  0.00     0.031 C 
ATOM     61  C   UNL A   1      41.580  30.608  36.401  1.00  0.00     0.029 A 
ATOM     62  C   UNL A   1      40.876  30.706  35.213  1.00  0.00     0.049 A 
ATOM     63  H   UNL A   1      41.280  29.805  33.347  1.00  0.00     0.167 HD
ATOM     64  C   UNL A   1      39.052  31.492  33.732  1.00  0.00     0.074 A 
ATOM     65  C   UNL A   1      37.843  32.240  33.465  1.00  0.00     0.031 C 
ATOM     66  C   UNL A   1      39.672  31.451  34.939  1.00  0.00     0.037 A 
BRANCH  53  67
ATOM     67  C   UNL A   1      44.737  27.911  34.992  1.00  0.00     0.057 A 
ATOM     68  C   UNL A   1      45.969  28.571  35.093  1.00  0.00     0.134 A 
ATOM     69  C   UNL A   1      44.594  26.702  35.683  1.00  0.00     0.134 A 
ATOM     70  F   UNL A   1      46.178  29.726  34.443  1.00  0.00    -0.206 F 
ATOM     71  C   UNL A   1      47.025  28.034  35.833  1.00  0.00     0.040 A 
ATOM     72  C   UNL A   1      45.632  26.171  36.450  1.00  0.00     0.040 A 
ATOM     73  F   UNL A   1      43.438  26.021  35.633  1.00  0.00    -0.206 F 
ATOM     74  C   UNL A   1      46.855  26.834  36.521  1.00  0.00     0.006 A 
ENDBRANCH  53  67
BRANCH  54  75
ATOM     75  C   UNL A   1      37.255  31.366  29.393  1.00  0.00     0.057 A 
ATOM     76  C   UNL A   1      37.270  32.662  28.862  1.00  0.00     0.134 A 
ATOM     77  C   UNL A   1      36.116  30.588  29.160  1.00  0.00     0.134 A 
ATOM     78  F   UNL A   1      38.321  33.467  29.075  1.00  0.00    -0.206 F 
ATOM     79  C   UNL A   1      36.184  33.172  28.148  1.00  0.00     0.040 A 
ATOM     80  C   UNL A   1      35.034  31.075  28.424  1.00  0.00     0.040 A 
ATOM     81  F   UNL A   1      36.037  29.340  29.644  1.00  0.00    -0.206 F 
ATOM     82  C   UNL A   1      35.063  32.375  27.922  1.00  0.00     0.006 A 
ENDBRANCH  54  75
BRANCH  66  83
ATOM     83  C   UNL A   1      39.077  32.273  36.048  1.00  0.00     0.057 A 
ATOM     84  C   UNL A   1      38.156  31.742  36.960  1.00  0.00     0.134 A 
ATOM     85  C   UNL A   1      39.441  33.617  36.213  1.00  0.00     0.134 A 
ATOM     86  F   UNL A   1      37.755  30.465  36.856  1.00  0.00    -0.206 F 
ATOM     87  C   UNL A   1      37.590  32.524  37.968  1.00  0.00     0.040 A 
ATOM     88  C   UNL A   1      38.907  34.401  37.236  1.00  0.00     0.040 A 
ATOM     89  F   UNL A   1      40.329  34.190  35.384  1.00  0.00    -0.206 F 
ATOM     90  C   UNL A   1      37.969  33.858  38.112  1.00  0.00     0.006 A 
ENDBRANCH  66  83
ENDBRANCH  40  41
ENDBRANCH  33  35
ENDBRANCH  32  33
ENDBRANCH  31  32
ENDBRANCH  30  31
ENDBRANCH  29  30
ENDBRANCH  28  29
ENDBRANCH   1  28
TORSDOF 20
ENDMDL
MODEL 3
REMARK VINA RESULT:     -10.6      2.997      7.233
REMARK SMILES [NH3+][C@]1(C(=O)OCCOCCOCCOC(=O)c2ccc(-c3c4nc(c(-c5c(F)cccc5F)c5ccc([nH]5)c(-c5c(F)cccc5F)c5nc(c(-c6c(F)cccc6F)c6ccc3[nH]6)C=C5)C=C4)cc2)CC[C@@H]([NH+]2CCC(C(F)(F)F)CC2)C1
REMARK SMILES IDX 9 1 8 2 7 3 6 4 5 5 3 6 4 7 2 8 71 9 84 10 72 11 73 12 1 13
REMARK SMILES IDX 74 17 75 18 83 19 76 21 82 22 77 23 78 24 79 25 80 26 81 27
REMARK SMILES IDX 10 28 11 29 12 30 13 31 14 32 15 33 16 34 17 35 18 36 70 37
REMARK SMILES IDX 19 38 69 39 20 40 21 41 22 42 63 43 23 44 68 45 62 46 64 47
REMARK SMILES IDX 24 48 67 49 61 50 60 51 25 53 51 54 34 55 50 56 35 57 38 58
REMARK SMILES IDX 49 59 65 60 36 61 37 62 48 64 66 65 39 66 26 67 27 68 32 69
REMARK SMILES IDX 28 70 29 71 31 72 33 73 30 74 52 75 53 76 58 77 54 78 55 79
REMARK SMILES IDX 57 80 59 81 56 82 40 83 41 84 46 85 42 86 43 87 45 88 47 89
REMARK SMILES IDX 44 90
REMARK H PARENT 1 14 1 15 1 16 74 20 64 52 38 63
REMARK Flexibility Score: inf
ROOT
ATOM      1  C   UNL A   1      41.177  20.784  27.218  1.00  0.00     0.188 C 
ENDROOT
BRANCH   1   2
ATOM      2  O   UNL A   1      40.227  21.618  26.568  1.00  0.00    -0.376 OA
BRANCH   2   3
ATOM      3  C   UNL A   1      39.105  21.041  25.921  1.00  0.00     0.202 C 
BRANCH   3   4
ATOM      4  C   UNL A   1      38.062  22.004  25.346  1.00  0.00     0.261 C 
BRANCH   4   5
ATOM      5  O   UNL A   1      36.782  22.000  26.008  1.00  0.00    -0.459 OA
BRANCH   5   6
ATOM      6  C   UNL A   1      35.883  21.062  25.608  1.00  0.00     0.368 C 
ATOM      7  O   UNL A   1      36.177  20.035  25.003  1.00  0.00    -0.245 OA
BRANCH   6   8
ATOM      8  C   UNL A   1      34.408  21.412  25.966  1.00  0.00     0.198 C 
ATOM      9  C   UNL A   1      34.322  22.164  27.302  1.00  0.00     0.087 C 
ATOM     10  C   UNL A   1      33.652  22.359  25.014  1.00  0.00     0.145 C 
ATOM     11  C   UNL A   1      32.900  22.715  27.333  1.00  0.00     0.072 C 
ATOM     12  C   UNL A   1      32.584  23.096  25.871  1.00  0.00     0.191 C 
BRANCH   8  13
ATOM     13  N   UNL A   1      33.659  20.133  26.105  1.00  0.00    -0.343 N 
ATOM     14  H   UNL A   1      32.673  20.291  25.898  1.00  0.00     0.345 HD
ATOM     15  H   UNL A   1      33.756  19.785  27.058  1.00  0.00     0.345 HD
ATOM     16  H   UNL A   1      34.036  19.446  25.452  1.00  0.00     0.345 HD
ENDBRANCH   8  13
BRANCH  12  17
ATOM     17  N   UNL A   1      32.427  24.555  25.640  1.00  0.00    -0.332 N 
ATOM     18  C   UNL A   1      31.446  25.216  26.502  1.00  0.00     0.263 C 
ATOM     19  C   UNL A   1      33.720  25.258  25.659  1.00  0.00     0.263 C 
ATOM     20  H   UNL A   1      32.038  24.621  24.700  1.00  0.00     0.348 HD
ATOM     21  C   UNL A   1      31.231  26.677  26.118  1.00  0.00     0.074 C 
ATOM     22  C   UNL A   1      33.582  26.746  25.310  1.00  0.00     0.074 C 
ATOM     23  C   UNL A   1      32.552  27.439  26.208  1.00  0.00     0.106 C 
BRANCH  23  24
ATOM     24  C   UNL A   1      32.372  28.899  25.845  1.00  0.00     0.392 C 
ATOM     25  F   UNL A   1      31.838  29.589  26.878  1.00  0.00    -0.171 F 
ATOM     26  F   UNL A   1      33.563  29.471  25.559  1.00  0.00    -0.171 F 
ATOM     27  F   UNL A   1      31.567  29.064  24.776  1.00  0.00    -0.171 F 
ENDBRANCH  23  24
ENDBRANCH  12  17
ENDBRANCH   6   8
ENDBRANCH   5   6
ENDBRANCH   4   5
ENDBRANCH   3   4
ENDBRANCH   2   3
ENDBRANCH   1   2
BRANCH   1  28
ATOM     28  C   UNL A   1      41.927  19.697  26.436  1.00  0.00     0.188 C 
BRANCH  28  29
ATOM     29  O   UNL A   1      42.767  20.192  25.409  1.00  0.00    -0.376 OA
BRANCH  29  30
ATOM     30  C   UNL A   1      43.561  21.318  25.744  1.00  0.00     0.202 C 
BRANCH  30  31
ATOM     31  C   UNL A   1      43.636  22.336  24.602  1.00  0.00     0.261 C 
BRANCH  31  32
ATOM     32  O   UNL A   1      43.029  23.613  24.886  1.00  0.00    -0.460 OA
BRANCH  32  33
ATOM     33  C   UNL A   1      43.860  24.608  25.257  1.00  0.00     0.338 C 
ATOM     34  O   UNL A   1      44.943  24.881  24.752  1.00  0.00    -0.246 OA
BRANCH  33  35
ATOM     35  C   UNL A   1      43.177  25.469  26.245  1.00  0.00     0.060 A 
ATOM     36  C   UNL A   1      43.605  26.795  26.388  1.00  0.00     0.016 A 
ATOM     37  C   UNL A   1      42.149  24.974  27.050  1.00  0.00     0.016 A 
ATOM     38  C   UNL A   1      43.045  27.612  27.371  1.00  0.00     0.010 A 
ATOM     39  C   UNL A   1      41.596  25.791  28.045  1.00  0.00     0.010 A 
ATOM     40  C   UNL A   1      42.068  27.102  28.238  1.00  0.00    -0.014 A 
BRANCH  40  41
ATOM     41  C   UNL A   1      41.676  27.885  29.440  1.00  0.00     0.031 A 
ATOM     42  C   UNL A   1      40.466  28.779  29.364  1.00  0.00     0.074 A 
ATOM     43  C   UNL A   1      42.347  27.771  30.599  1.00  0.00     0.049 A 
ATOM     44  N   UNL A   1      39.932  29.539  30.287  1.00  0.00    -0.248 NA
ATOM     45  C   UNL A   1      39.762  28.821  28.073  1.00  0.00     0.031 C 
ATOM     46  C   UNL A   1      43.513  26.921  30.824  1.00  0.00     0.029 A 
ATOM     47  N   UNL A   1      42.136  28.379  31.813  1.00  0.00    -0.354 N 
ATOM     48  C   UNL A   1      38.834  30.148  29.689  1.00  0.00     0.074 A 
ATOM     49  C   UNL A   1      38.801  29.698  28.314  1.00  0.00     0.031 C 
ATOM     50  C   UNL A   1      43.916  27.061  32.098  1.00  0.00     0.029 A 
ATOM     51  C   UNL A   1      43.053  28.029  32.774  1.00  0.00     0.049 A 
ATOM     52  H   UNL A   1      41.396  29.008  31.979  1.00  0.00     0.167 HD
ATOM     53  C   UNL A   1      37.926  30.992  30.236  1.00  0.00     0.037 A 
ATOM     54  C   UNL A   1      43.188  28.452  34.047  1.00  0.00     0.037 A 
ATOM     55  C   UNL A   1      37.955  31.447  31.602  1.00  0.00     0.049 A 
ATOM     56  C   UNL A   1      42.205  29.443  34.612  1.00  0.00     0.074 A 
ATOM     57  C   UNL A   1      37.071  32.294  32.248  1.00  0.00     0.029 A 
ATOM     58  N   UNL A   1      38.922  31.096  32.532  1.00  0.00    -0.354 N 
ATOM     59  N   UNL A   1      41.156  29.990  34.045  1.00  0.00    -0.248 NA
ATOM     60  C   UNL A   1      42.421  29.869  36.003  1.00  0.00     0.031 C 
ATOM     61  C   UNL A   1      37.533  32.499  33.552  1.00  0.00     0.029 A 
ATOM     62  C   UNL A   1      38.669  31.730  33.739  1.00  0.00     0.049 A 
ATOM     63  H   UNL A   1      39.677  30.488  32.360  1.00  0.00     0.167 HD
ATOM     64  C   UNL A   1      40.572  30.795  35.018  1.00  0.00     0.074 A 
ATOM     65  C   UNL A   1      41.372  30.651  36.215  1.00  0.00     0.031 C 
ATOM     66  C   UNL A   1      39.470  31.581  34.928  1.00  0.00     0.037 A 
BRANCH  53  67
ATOM     67  C   UNL A   1      36.833  31.503  29.340  1.00  0.00     0.057 A 
ATOM     68  C   UNL A   1      36.870  32.790  28.785  1.00  0.00     0.134 A 
ATOM     69  C   UNL A   1      35.744  30.688  29.006  1.00  0.00     0.134 A 
ATOM     70  F   UNL A   1      37.877  33.627  29.076  1.00  0.00    -0.206 F 
ATOM     71  C   UNL A   1      35.851  33.254  27.952  1.00  0.00     0.040 A 
ATOM     72  C   UNL A   1      34.735  31.131  28.151  1.00  0.00     0.040 A 
ATOM     73  F   UNL A   1      35.649  29.443  29.498  1.00  0.00    -0.206 F 
ATOM     74  C   UNL A   1      34.782  32.420  27.626  1.00  0.00     0.006 A 
ENDBRANCH  53  67
BRANCH  54  75
ATOM     75  C   UNL A   1      44.305  27.944  34.886  1.00  0.00     0.057 A 
ATOM     76  C   UNL A   1      44.172  26.773  35.644  1.00  0.00     0.134 A 
ATOM     77  C   UNL A   1      45.516  28.638  34.982  1.00  0.00     0.134 A 
ATOM     78  F   UNL A   1      43.025  26.079  35.617  1.00  0.00    -0.206 F 
ATOM     79  C   UNL A   1      45.195  26.324  36.482  1.00  0.00     0.040 A 
ATOM     80  C   UNL A   1      46.558  28.185  35.794  1.00  0.00     0.040 A 
ATOM     81  F   UNL A   1      45.706  29.768  34.286  1.00  0.00    -0.206 F 
ATOM     82  C   UNL A   1      46.394  27.028  36.554  1.00  0.00     0.006 A 
ENDBRANCH  54  75
BRANCH  66  83
ATOM     83  C   UNL A   1      39.040  32.310  36.171  1.00  0.00     0.057 A 
ATOM     84  C   UNL A   1      39.460  33.616  36.453  1.00  0.00     0.134 A 
ATOM     85  C   UNL A   1      38.181  31.698  37.095  1.00  0.00     0.134 A 
ATOM     86  F   UNL A   1      40.290  34.259  35.617  1.00  0.00    -0.206 F 
ATOM     87  C   UNL A   1      39.075  34.271  37.625  1.00  0.00     0.040 A 
ATOM     88  C   UNL A   1      37.763  32.354  38.253  1.00  0.00     0.040 A 
ATOM     89  F   UNL A   1      37.727  30.452  36.883  1.00  0.00    -0.206 F 
ATOM     90  C   UNL A   1      38.220  33.642  38.527  1.00  0.00     0.006 A 
ENDBRANCH  66  83
ENDBRANCH  40  41
ENDBRANCH  33  35
ENDBRANCH  32  33
ENDBRANCH  31  32
ENDBRANCH  30  31
ENDBRANCH  29  30
ENDBRANCH  28  29
ENDBRANCH   1  28
TORSDOF 20
ENDMDL
