MODEL 1
REMARK VINA RESULT:     -10.6      0.000      0.000
REMARK SMILES Cc1ccccc1OCC(=O)c1nc(C)c(C(=O)OCCOCCOCCOC(=O)c2ccc(-c3c4nc(c(-c5c(F)cccc5F)c5ccc([nH]5)c(-c5c(F)cccc5F)c5nc(c(-c6c(F)cccc6F)c6ccc3[nH]6)C=C5)C=C4)cc2)s1
REMARK SMILES IDX 23 1 22 2 21 3 20 4 19 5 17 6 18 7 16 8 12 9 13 10 85 11
REMARK SMILES IDX 14 12 15 13 10 14 11 15 9 16 8 17 7 18 1 19 2 20 3 21 4 22
REMARK SMILES IDX 6 23 5 24 24 25 25 26 26 27 27 28 28 29 29 30 30 31 31 32
REMARK SMILES IDX 32 33 84 34 33 35 83 36 34 37 35 38 36 39 77 40 37 41 82 42
REMARK SMILES IDX 76 43 78 44 38 45 81 46 75 47 74 48 39 50 65 51 48 52 64 53
REMARK SMILES IDX 49 54 52 55 63 56 79 57 50 58 51 59 62 61 80 62 53 63 40 64
REMARK SMILES IDX 41 65 46 66 42 67 43 68 45 69 47 70 44 71 66 72 67 73 72 74
REMARK SMILES IDX 68 75 69 76 71 77 73 78 70 79 54 80 55 81 60 82 56 83 57 84
REMARK SMILES IDX 59 85 61 86 58 87
REMARK H PARENT 78 49 52 60
REMARK Flexibility Score: inf
ROOT
ATOM      1  C   UNL A   1      35.788  24.040  25.259  1.00  0.00     0.188 C 
ENDROOT
BRANCH   1   2
ATOM      2  O   UNL A   1      34.567  23.362  25.505  1.00  0.00    -0.376 OA
BRANCH   2   3
ATOM      3  C   UNL A   1      34.163  23.241  26.867  1.00  0.00     0.202 C 
BRANCH   3   4
ATOM      4  C   UNL A   1      33.066  22.217  27.200  1.00  0.00     0.261 C 
BRANCH   4   5
ATOM      5  O   UNL A   1      31.971  22.103  26.250  1.00  0.00    -0.459 OA
BRANCH   5   6
ATOM      6  C   UNL A   1      31.070  23.137  26.282  1.00  0.00     0.350 C 
ATOM      7  O   UNL A   1      30.358  23.396  27.241  1.00  0.00    -0.245 OA
BRANCH   6   8
ATOM      8  C   UNL A   1      31.027  23.857  25.026  1.00  0.00     0.136 A 
ATOM      9  C   UNL A   1      31.769  25.593  23.570  1.00  0.00     0.164 A 
ATOM     10  N   UNL A   1      31.119  24.690  22.882  1.00  0.00    -0.237 NA
ATOM     11  S   UNL A   1      31.239  25.590  25.201  1.00  0.00    -0.103 S 
ATOM     12  C   UNL A   1      31.256  23.578  23.665  1.00  0.00     0.064 A 
ATOM     13  C   UNL A   1      31.889  22.467  22.904  1.00  0.00     0.068 C 
BRANCH   9  14
ATOM     14  C   UNL A   1      33.091  26.040  23.173  1.00  0.00     0.228 C 
ATOM     15  O   UNL A   1      33.934  25.285  22.670  1.00  0.00    -0.288 OA
BRANCH  14  16
ATOM     16  C   UNL A   1      33.474  27.479  23.500  1.00  0.00     0.313 C 
BRANCH  16  17
ATOM     17  O   UNL A   1      34.016  27.842  24.761  1.00  0.00    -0.485 OA
BRANCH  17  18
ATOM     18  C   UNL A   1      33.338  28.836  25.417  1.00  0.00     0.122 A 
ATOM     19  C   UNL A   1      35.099  29.142  27.260  1.00  0.00     0.048 C 
ATOM     20  C   UNL A   1      33.809  29.482  26.569  1.00  0.00    -0.009 A 
ATOM     21  C   UNL A   1      33.050  30.541  27.092  1.00  0.00     0.007 A 
ATOM     22  C   UNL A   1      31.843  30.923  26.503  1.00  0.00     0.001 A 
ATOM     23  C   UNL A   1      32.110  29.197  24.849  1.00  0.00     0.047 A 
ATOM     24  C   UNL A   1      31.371  30.248  25.383  1.00  0.00     0.004 A 
ENDBRANCH  17  18
ENDBRANCH  16  17
ENDBRANCH  14  16
ENDBRANCH   9  14
ENDBRANCH   6   8
ENDBRANCH   5   6
ENDBRANCH   4   5
ENDBRANCH   3   4
ENDBRANCH   2   3
ENDBRANCH   1   2
BRANCH   1  25
ATOM     25  C   UNL A   1      37.049  23.201  24.937  1.00  0.00     0.188 C 
BRANCH  25  26
ATOM     26  O   UNL A   1      37.213  22.032  25.741  1.00  0.00    -0.376 OA
BRANCH  26  27
ATOM     27  C   UNL A   1      38.317  21.209  25.341  1.00  0.00     0.202 C 
BRANCH  27  28
ATOM     28  C   UNL A   1      39.589  21.418  26.175  1.00  0.00     0.261 C 
BRANCH  28  29
ATOM     29  O   UNL A   1      40.187  20.132  26.396  1.00  0.00    -0.460 OA
BRANCH  29  30
ATOM     30  C   UNL A   1      41.478  20.030  26.007  1.00  0.00     0.338 C 
ATOM     31  O   UNL A   1      41.997  19.054  25.497  1.00  0.00    -0.246 OA
BRANCH  30  32
ATOM     32  C   UNL A   1      42.222  21.207  26.532  1.00  0.00     0.060 A 
ATOM     33  C   UNL A   1      42.191  21.439  27.899  1.00  0.00     0.016 A 
ATOM     34  C   UNL A   1      42.747  22.196  25.693  1.00  0.00     0.016 A 
ATOM     35  C   UNL A   1      42.530  22.705  28.395  1.00  0.00     0.010 A 
ATOM     36  C   UNL A   1      43.049  23.467  26.198  1.00  0.00     0.010 A 
ATOM     37  C   UNL A   1      42.855  23.773  27.550  1.00  0.00    -0.014 A 
BRANCH  37  38
ATOM     38  C   UNL A   1      42.990  25.207  27.924  1.00  0.00     0.031 A 
ATOM     39  C   UNL A   1      41.799  26.106  27.873  1.00  0.00     0.074 A 
ATOM     40  C   UNL A   1      44.100  25.843  28.395  1.00  0.00     0.049 A 
ATOM     41  N   UNL A   1      41.862  27.405  27.931  1.00  0.00    -0.248 NA
ATOM     42  C   UNL A   1      40.456  25.610  27.580  1.00  0.00     0.031 C 
ATOM     43  C   UNL A   1      44.049  26.860  29.445  1.00  0.00     0.029 A 
ATOM     44  N   UNL A   1      45.437  25.874  28.003  1.00  0.00    -0.354 N 
ATOM     45  C   UNL A   1      40.579  27.837  28.135  1.00  0.00     0.074 A 
ATOM     46  C   UNL A   1      39.775  26.761  27.614  1.00  0.00     0.031 C 
ATOM     47  C   UNL A   1      45.207  27.525  29.485  1.00  0.00     0.029 A 
ATOM     48  C   UNL A   1      46.070  27.051  28.418  1.00  0.00     0.049 A 
ATOM     49  H   UNL A   1      45.882  25.155  27.498  1.00  0.00     0.167 HD
ATOM     50  C   UNL A   1      40.345  28.888  28.975  1.00  0.00     0.037 A 
ATOM     51  C   UNL A   1      47.068  27.755  27.807  1.00  0.00     0.037 A 
ATOM     52  C   UNL A   1      41.560  29.658  29.313  1.00  0.00     0.049 A 
ATOM     53  C   UNL A   1      46.766  29.232  27.714  1.00  0.00     0.074 A 
ATOM     54  C   UNL A   1      42.240  29.887  30.501  1.00  0.00     0.029 A 
ATOM     55  N   UNL A   1      42.334  30.257  28.323  1.00  0.00    -0.354 N 
ATOM     56  N   UNL A   1      45.717  29.757  28.272  1.00  0.00    -0.248 NA
ATOM     57  C   UNL A   1      47.479  30.202  26.876  1.00  0.00     0.031 C 
ATOM     58  C   UNL A   1      43.360  30.718  30.234  1.00  0.00     0.029 A 
ATOM     59  C   UNL A   1      43.397  30.961  28.874  1.00  0.00     0.049 A 
ATOM     60  H   UNL A   1      42.152  30.190  27.359  1.00  0.00     0.167 HD
ATOM     61  C   UNL A   1      45.505  30.999  27.761  1.00  0.00     0.074 A 
ATOM     62  C   UNL A   1      46.649  31.260  26.915  1.00  0.00     0.031 C 
ATOM     63  C   UNL A   1      44.349  31.662  28.022  1.00  0.00     0.037 A 
BRANCH  50  64
ATOM     64  C   UNL A   1      39.051  29.056  29.789  1.00  0.00     0.057 A 
ATOM     65  C   UNL A   1      38.075  29.990  29.372  1.00  0.00     0.134 A 
ATOM     66  C   UNL A   1      38.753  28.471  31.039  1.00  0.00     0.134 A 
ATOM     67  F   UNL A   1      38.117  30.562  28.161  1.00  0.00    -0.206 F 
ATOM     68  C   UNL A   1      36.997  30.394  30.174  1.00  0.00     0.040 A 
ATOM     69  C   UNL A   1      37.659  28.840  31.834  1.00  0.00     0.040 A 
ATOM     70  F   UNL A   1      39.487  27.508  31.596  1.00  0.00    -0.206 F 
ATOM     71  C   UNL A   1      36.793  29.832  31.420  1.00  0.00     0.006 A 
ENDBRANCH  50  64
BRANCH  51  72
ATOM     72  C   UNL A   1      48.071  27.065  26.963  1.00  0.00     0.057 A 
ATOM     73  C   UNL A   1      47.786  26.871  25.601  1.00  0.00     0.134 A 
ATOM     74  C   UNL A   1      49.315  26.609  27.402  1.00  0.00     0.134 A 
ATOM     75  F   UNL A   1      46.570  27.177  25.121  1.00  0.00    -0.206 F 
ATOM     76  C   UNL A   1      48.730  26.374  24.700  1.00  0.00     0.040 A 
ATOM     77  C   UNL A   1      50.253  26.053  26.520  1.00  0.00     0.040 A 
ATOM     78  F   UNL A   1      49.666  26.709  28.691  1.00  0.00    -0.206 F 
ATOM     79  C   UNL A   1      49.979  25.976  25.158  1.00  0.00     0.006 A 
ENDBRANCH  51  72
BRANCH  63  80
ATOM     80  C   UNL A   1      44.067  33.031  27.503  1.00  0.00     0.057 A 
ATOM     81  C   UNL A   1      43.823  33.289  26.146  1.00  0.00     0.134 A 
ATOM     82  C   UNL A   1      44.153  34.151  28.344  1.00  0.00     0.134 A 
ATOM     83  F   UNL A   1      43.767  32.291  25.251  1.00  0.00    -0.206 F 
ATOM     84  C   UNL A   1      43.650  34.588  25.658  1.00  0.00     0.040 A 
ATOM     85  C   UNL A   1      44.021  35.455  27.863  1.00  0.00     0.040 A 
ATOM     86  F   UNL A   1      44.355  34.014  29.664  1.00  0.00    -0.206 F 
ATOM     87  C   UNL A   1      43.764  35.677  26.515  1.00  0.00     0.006 A 
ENDBRANCH  63  80
ENDBRANCH  37  38
ENDBRANCH  30  32
ENDBRANCH  29  30
ENDBRANCH  28  29
ENDBRANCH  27  28
ENDBRANCH  26  27
ENDBRANCH  25  26
ENDBRANCH   1  25
TORSDOF 21
ENDMDL
MODEL 2
REMARK VINA RESULT:     -10.5      1.609      2.412
REMARK SMILES Cc1ccccc1OCC(=O)c1nc(C)c(C(=O)OCCOCCOCCOC(=O)c2ccc(-c3c4nc(c(-c5c(F)cccc5F)c5ccc([nH]5)c(-c5c(F)cccc5F)c5nc(c(-c6c(F)cccc6F)c6ccc3[nH]6)C=C5)C=C4)cc2)s1
REMARK SMILES IDX 23 1 22 2 21 3 20 4 19 5 17 6 18 7 16 8 12 9 13 10 85 11
REMARK SMILES IDX 14 12 15 13 10 14 11 15 9 16 8 17 7 18 1 19 2 20 3 21 4 22
REMARK SMILES IDX 6 23 5 24 24 25 25 26 26 27 27 28 28 29 29 30 30 31 31 32
REMARK SMILES IDX 32 33 84 34 33 35 83 36 34 37 35 38 36 39 77 40 37 41 82 42
REMARK SMILES IDX 76 43 78 44 38 45 81 46 75 47 74 48 39 50 65 51 48 52 64 53
REMARK SMILES IDX 49 54 52 55 63 56 79 57 50 58 51 59 62 61 80 62 53 63 40 64
REMARK SMILES IDX 41 65 46 66 42 67 43 68 45 69 47 70 44 71 66 72 67 73 72 74
REMARK SMILES IDX 68 75 69 76 71 77 73 78 70 79 54 80 55 81 60 82 56 83 57 84
REMARK SMILES IDX 59 85 61 86 58 87
REMARK H PARENT 78 49 52 60
REMARK Flexibility Score: inf
ROOT
ATOM      1  C   UNL A   1      34.645  22.841  24.957  1.00  0.00     0.188 C 
ENDROOT
BRANCH   1   2
ATOM      2  O   UNL A   1      33.406  22.173  24.784  1.00  0.00    -0.376 OA
BRANCH   2   3
ATOM      3  C   UNL A   1      32.662  21.884  25.966  1.00  0.00     0.202 C 
BRANCH   3   4
ATOM      4  C   UNL A   1      31.350  22.655  26.192  1.00  0.00     0.261 C 
BRANCH   4   5
ATOM      5  O   UNL A   1      30.907  23.517  25.109  1.00  0.00    -0.459 OA
BRANCH   5   6
ATOM      6  C   UNL A   1      30.911  24.858  25.401  1.00  0.00     0.350 C 
ATOM      7  O   UNL A   1      29.965  25.455  25.892  1.00  0.00    -0.245 OA
BRANCH   6   8
ATOM      8  C   UNL A   1      32.154  25.493  25.013  1.00  0.00     0.136 A 
ATOM      9  C   UNL A   1      33.477  26.781  23.507  1.00  0.00     0.164 A 
ATOM     10  N   UNL A   1      34.057  26.746  24.679  1.00  0.00    -0.237 NA
ATOM     11  S   UNL A   1      32.484  25.400  23.292  1.00  0.00    -0.103 S 
ATOM     12  C   UNL A   1      33.002  26.499  25.514  1.00  0.00     0.064 A 
ATOM     13  C   UNL A   1      32.890  27.558  26.553  1.00  0.00     0.068 C 
BRANCH   9  14
ATOM     14  C   UNL A   1      33.237  28.038  22.820  1.00  0.00     0.228 C 
ATOM     15  O   UNL A   1      34.029  28.518  21.999  1.00  0.00    -0.288 OA
BRANCH  14  16
ATOM     16  C   UNL A   1      32.002  28.835  23.226  1.00  0.00     0.313 C 
BRANCH  16  17
ATOM     17  O   UNL A   1      31.032  29.249  22.274  1.00  0.00    -0.485 OA
BRANCH  17  18
ATOM     18  C   UNL A   1      29.731  29.062  22.658  1.00  0.00     0.122 A 
ATOM     19  C   UNL A   1      28.951  31.414  21.985  1.00  0.00     0.048 C 
ATOM     20  C   UNL A   1      28.725  30.031  22.526  1.00  0.00    -0.009 A 
ATOM     21  C   UNL A   1      27.414  29.677  22.883  1.00  0.00     0.007 A 
ATOM     22  C   UNL A   1      27.121  28.409  23.387  1.00  0.00     0.001 A 
ATOM     23  C   UNL A   1      29.441  27.803  23.196  1.00  0.00     0.047 A 
ATOM     24  C   UNL A   1      28.136  27.472  23.548  1.00  0.00     0.004 A 
ENDBRANCH  17  18
ENDBRANCH  16  17
ENDBRANCH  14  16
ENDBRANCH   9  14
ENDBRANCH   6   8
ENDBRANCH   5   6
ENDBRANCH   4   5
ENDBRANCH   3   4
ENDBRANCH   2   3
ENDBRANCH   1   2
BRANCH   1  25
ATOM     25  C   UNL A   1      35.945  22.113  24.536  1.00  0.00     0.188 C 
BRANCH  25  26
ATOM     26  O   UNL A   1      36.435  21.165  25.484  1.00  0.00    -0.376 OA
BRANCH  26  27
ATOM     27  C   UNL A   1      37.743  20.665  25.172  1.00  0.00     0.202 C 
BRANCH  27  28
ATOM     28  C   UNL A   1      38.889  21.472  25.799  1.00  0.00     0.261 C 
BRANCH  28  29
ATOM     29  O   UNL A   1      39.666  20.576  26.608  1.00  0.00    -0.460 OA
BRANCH  29  30
ATOM     30  C   UNL A   1      40.946  20.409  26.202  1.00  0.00     0.338 C 
ATOM     31  O   UNL A   1      41.410  19.406  25.693  1.00  0.00    -0.246 OA
BRANCH  30  32
ATOM     32  C   UNL A   1      41.753  21.552  26.708  1.00  0.00     0.060 A 
ATOM     33  C   UNL A   1      41.783  21.772  28.078  1.00  0.00     0.016 A 
ATOM     34  C   UNL A   1      42.283  22.529  25.858  1.00  0.00     0.016 A 
ATOM     35  C   UNL A   1      42.189  23.019  28.571  1.00  0.00     0.010 A 
ATOM     36  C   UNL A   1      42.652  23.782  26.361  1.00  0.00     0.010 A 
ATOM     37  C   UNL A   1      42.521  24.082  27.722  1.00  0.00    -0.014 A 
BRANCH  37  38
ATOM     38  C   UNL A   1      42.725  25.506  28.102  1.00  0.00     0.031 A 
ATOM     39  C   UNL A   1      41.569  26.451  28.103  1.00  0.00     0.074 A 
ATOM     40  C   UNL A   1      43.875  26.095  28.537  1.00  0.00     0.049 A 
ATOM     41  N   UNL A   1      41.684  27.746  28.169  1.00  0.00    -0.248 NA
ATOM     42  C   UNL A   1      40.198  26.009  27.856  1.00  0.00     0.031 C 
ATOM     43  C   UNL A   1      43.901  27.103  29.596  1.00  0.00     0.029 A 
ATOM     44  N   UNL A   1      45.198  26.079  28.097  1.00  0.00    -0.354 N 
ATOM     45  C   UNL A   1      40.427  28.225  28.424  1.00  0.00     0.074 A 
ATOM     46  C   UNL A   1      39.563  27.185  27.923  1.00  0.00     0.031 C 
ATOM     47  C   UNL A   1      45.086  27.723  29.600  1.00  0.00     0.029 A 
ATOM     48  C   UNL A   1      45.890  27.227  28.497  1.00  0.00     0.049 A 
ATOM     49  H   UNL A   1      45.596  25.349  27.570  1.00  0.00     0.167 HD
ATOM     50  C   UNL A   1      40.264  29.276  29.280  1.00  0.00     0.037 A 
ATOM     51  C   UNL A   1      46.892  27.898  27.856  1.00  0.00     0.037 A 
ATOM     52  C   UNL A   1      41.519  29.995  29.579  1.00  0.00     0.049 A 
ATOM     53  C   UNL A   1      46.643  29.387  27.787  1.00  0.00     0.074 A 
ATOM     54  C   UNL A   1      42.250  30.187  30.743  1.00  0.00     0.029 A 
ATOM     55  N   UNL A   1      42.279  30.574  28.567  1.00  0.00    -0.354 N 
ATOM     56  N   UNL A   1      45.636  29.945  28.387  1.00  0.00    -0.248 NA
ATOM     57  C   UNL A   1      47.362  30.337  26.931  1.00  0.00     0.031 C 
ATOM     58  C   UNL A   1      43.391  30.977  30.442  1.00  0.00     0.029 A 
ATOM     59  C   UNL A   1      43.387  31.232  29.084  1.00  0.00     0.049 A 
ATOM     60  H   UNL A   1      42.059  30.523  27.609  1.00  0.00     0.167 HD
ATOM     61  C   UNL A   1      45.453  31.200  27.894  1.00  0.00     0.074 A 
ATOM     62  C   UNL A   1      46.575  31.425  27.009  1.00  0.00     0.031 C 
ATOM     63  C   UNL A   1      44.334  31.904  28.202  1.00  0.00     0.037 A 
BRANCH  50  64
ATOM     64  C   UNL A   1      39.008  29.485  30.143  1.00  0.00     0.057 A 
ATOM     65  C   UNL A   1      38.289  30.699  30.053  1.00  0.00     0.134 A 
ATOM     66  C   UNL A   1      38.531  28.638  31.166  1.00  0.00     0.134 A 
ATOM     67  F   UNL A   1      38.512  31.581  29.070  1.00  0.00    -0.206 F 
ATOM     68  C   UNL A   1      37.297  31.081  30.970  1.00  0.00     0.040 A 
ATOM     69  C   UNL A   1      37.515  28.993  32.065  1.00  0.00     0.040 A 
ATOM     70  F   UNL A   1      39.002  27.411  31.388  1.00  0.00    -0.206 F 
ATOM     71  C   UNL A   1      36.917  30.234  31.994  1.00  0.00     0.006 A 
ENDBRANCH  50  64
BRANCH  51  72
ATOM     72  C   UNL A   1      47.835  27.178  26.970  1.00  0.00     0.057 A 
ATOM     73  C   UNL A   1      47.435  26.885  25.656  1.00  0.00     0.134 A 
ATOM     74  C   UNL A   1      49.128  26.785  27.322  1.00  0.00     0.134 A 
ATOM     75  F   UNL A   1      46.172  27.128  25.270  1.00  0.00    -0.206 F 
ATOM     76  C   UNL A   1      48.309  26.353  24.706  1.00  0.00     0.040 A 
ATOM     77  C   UNL A   1      49.999  26.195  26.395  1.00  0.00     0.040 A 
ATOM     78  F   UNL A   1      49.590  26.981  28.564  1.00  0.00    -0.206 F 
ATOM     79  C   UNL A   1      49.607  26.019  25.072  1.00  0.00     0.006 A 
ENDBRANCH  51  72
BRANCH  63  80
ATOM     80  C   UNL A   1      44.086  33.287  27.706  1.00  0.00     0.057 A 
ATOM     81  C   UNL A   1      44.054  34.402  28.557  1.00  0.00     0.134 A 
ATOM     82  C   UNL A   1      43.752  33.520  26.362  1.00  0.00     0.134 A 
ATOM     83  F   UNL A   1      44.313  34.279  29.867  1.00  0.00    -0.206 F 
ATOM     84  C   UNL A   1      43.730  35.680  28.092  1.00  0.00     0.040 A 
ATOM     85  C   UNL A   1      43.389  34.784  25.894  1.00  0.00     0.040 A 
ATOM     86  F   UNL A   1      43.779  32.528  25.458  1.00  0.00    -0.206 F 
ATOM     87  C   UNL A   1      43.381  35.871  26.760  1.00  0.00     0.006 A 
ENDBRANCH  63  80
ENDBRANCH  37  38
ENDBRANCH  30  32
ENDBRANCH  29  30
ENDBRANCH  28  29
ENDBRANCH  27  28
ENDBRANCH  26  27
ENDBRANCH  25  26
ENDBRANCH   1  25
TORSDOF 21
ENDMDL
MODEL 3
REMARK VINA RESULT:     -10.3      1.785      3.221
REMARK SMILES Cc1ccccc1OCC(=O)c1nc(C)c(C(=O)OCCOCCOCCOC(=O)c2ccc(-c3c4nc(c(-c5c(F)cccc5F)c5ccc([nH]5)c(-c5c(F)cccc5F)c5nc(c(-c6c(F)cccc6F)c6ccc3[nH]6)C=C5)C=C4)cc2)s1
REMARK SMILES IDX 23 1 22 2 21 3 20 4 19 5 17 6 18 7 16 8 12 9 13 10 85 11
REMARK SMILES IDX 14 12 15 13 10 14 11 15 9 16 8 17 7 18 1 19 2 20 3 21 4 22
REMARK SMILES IDX 6 23 5 24 24 25 25 26 26 27 27 28 28 29 29 30 30 31 31 32
REMARK SMILES IDX 32 33 84 34 33 35 83 36 34 37 35 38 36 39 77 40 37 41 82 42
REMARK SMILES IDX 76 43 78 44 38 45 81 46 75 47 74 48 39 50 65 51 48 52 64 53
REMARK SMILES IDX 49 54 52 55 63 56 79 57 50 58 51 59 62 61 80 62 53 63 40 64
REMARK SMILES IDX 41 65 46 66 42 67 43 68 45 69 47 70 44 71 66 72 67 73 72 74
REMARK SMILES IDX 68 75 69 76 71 77 73 78 70 79 54 80 55 81 60 82 56 83 57 84
REMARK SMILES IDX 59 85 61 86 58 87
REMARK H PARENT 78 49 52 60
REMARK Flexibility Score: inf
ROOT
ATOM      1  C   UNL A   1      40.368  22.422  27.260  1.00  0.00     0.188 C 
ENDROOT
BRANCH   1   2
ATOM      2  O   UNL A   1      39.321  22.084  26.364  1.00  0.00    -0.376 OA
BRANCH   2   3
ATOM      3  C   UNL A   1      38.336  23.086  26.122  1.00  0.00     0.202 C 
BRANCH   3   4
ATOM      4  C   UNL A   1      37.125  22.703  25.254  1.00  0.00     0.261 C 
BRANCH   4   5
ATOM      5  O   UNL A   1      35.811  22.919  25.838  1.00  0.00    -0.459 OA
BRANCH   5   6
ATOM      6  C   UNL A   1      34.825  23.233  24.937  1.00  0.00     0.350 C 
ATOM      7  O   UNL A   1      34.967  24.017  24.010  1.00  0.00    -0.245 OA
BRANCH   6   8
ATOM      8  C   UNL A   1      33.578  22.561  25.242  1.00  0.00     0.136 A 
ATOM      9  C   UNL A   1      31.530  22.375  26.446  1.00  0.00     0.164 A 
ATOM     10  N   UNL A   1      31.486  21.612  25.385  1.00  0.00    -0.237 NA
ATOM     11  S   UNL A   1      33.154  22.606  26.945  1.00  0.00    -0.103 S 
ATOM     12  C   UNL A   1      32.397  22.214  24.561  1.00  0.00     0.064 A 
ATOM     13  C   UNL A   1      31.771  22.591  23.265  1.00  0.00     0.068 C 
BRANCH   9  14
ATOM     14  C   UNL A   1      30.474  23.328  26.738  1.00  0.00     0.228 C 
ATOM     15  O   UNL A   1      29.561  23.096  27.541  1.00  0.00    -0.288 OA
BRANCH  14  16
ATOM     16  C   UNL A   1      30.449  24.619  25.927  1.00  0.00     0.313 C 
BRANCH  16  17
ATOM     17  O   UNL A   1      30.711  25.882  26.521  1.00  0.00    -0.485 OA
BRANCH  17  18
ATOM     18  C   UNL A   1      31.644  26.644  25.870  1.00  0.00     0.122 A 
ATOM     19  C   UNL A   1      31.709  28.499  27.644  1.00  0.00     0.048 C 
ATOM     20  C   UNL A   1      32.151  27.856  26.360  1.00  0.00    -0.009 A 
ATOM     21  C   UNL A   1      33.166  28.494  25.629  1.00  0.00     0.007 A 
ATOM     22  C   UNL A   1      33.637  27.958  24.430  1.00  0.00     0.001 A 
ATOM     23  C   UNL A   1      32.093  26.126  24.649  1.00  0.00     0.047 A 
ATOM     24  C   UNL A   1      33.097  26.774  23.937  1.00  0.00     0.004 A 
ENDBRANCH  17  18
ENDBRANCH  16  17
ENDBRANCH  14  16
ENDBRANCH   9  14
ENDBRANCH   6   8
ENDBRANCH   5   6
ENDBRANCH   4   5
ENDBRANCH   3   4
ENDBRANCH   2   3
ENDBRANCH   1   2
BRANCH   1  25
ATOM     25  C   UNL A   1      41.831  22.177  26.818  1.00  0.00     0.188 C 
BRANCH  25  26
ATOM     26  O   UNL A   1      42.431  20.999  27.358  1.00  0.00    -0.376 OA
BRANCH  26  27
ATOM     27  C   UNL A   1      41.857  19.782  26.861  1.00  0.00     0.202 C 
BRANCH  27  28
ATOM     28  C   UNL A   1      42.636  19.150  25.699  1.00  0.00     0.261 C 
BRANCH  28  29
ATOM     29  O   UNL A   1      43.966  19.690  25.716  1.00  0.00    -0.460 OA
BRANCH  29  30
ATOM     30  C   UNL A   1      44.366  20.256  24.554  1.00  0.00     0.338 C 
ATOM     31  O   UNL A   1      44.521  19.680  23.493  1.00  0.00    -0.246 OA
BRANCH  30  32
ATOM     32  C   UNL A   1      44.826  21.642  24.840  1.00  0.00     0.060 A 
ATOM     33  C   UNL A   1      45.610  21.848  25.966  1.00  0.00     0.016 A 
ATOM     34  C   UNL A   1      44.316  22.755  24.162  1.00  0.00     0.016 A 
ATOM     35  C   UNL A   1      45.745  23.140  26.491  1.00  0.00     0.010 A 
ATOM     36  C   UNL A   1      44.429  24.036  24.717  1.00  0.00     0.010 A 
ATOM     37  C   UNL A   1      45.068  24.238  25.946  1.00  0.00    -0.014 A 
BRANCH  37  38
ATOM     38  C   UNL A   1      44.926  25.593  26.543  1.00  0.00     0.031 A 
ATOM     39  C   UNL A   1      43.632  26.328  26.427  1.00  0.00     0.074 A 
ATOM     40  C   UNL A   1      45.846  26.278  27.281  1.00  0.00     0.049 A 
ATOM     41  N   UNL A   1      43.486  27.596  26.684  1.00  0.00    -0.248 NA
ATOM     42  C   UNL A   1      42.437  25.722  25.845  1.00  0.00     0.031 C 
ATOM     43  C   UNL A   1      45.488  27.087  28.446  1.00  0.00     0.029 A 
ATOM     44  N   UNL A   1      47.205  26.545  27.128  1.00  0.00    -0.354 N 
ATOM     45  C   UNL A   1      42.137  27.820  26.733  1.00  0.00     0.074 A 
ATOM     46  C   UNL A   1      41.590  26.753  25.932  1.00  0.00     0.031 C 
ATOM     47  C   UNL A   1      46.514  27.878  28.777  1.00  0.00     0.029 A 
ATOM     48  C   UNL A   1      47.584  27.706  27.811  1.00  0.00     0.049 A 
ATOM     49  H   UNL A   1      47.823  25.985  26.604  1.00  0.00     0.167 HD
ATOM     50  C   UNL A   1      41.626  28.675  27.667  1.00  0.00     0.037 A 
ATOM     51  C   UNL A   1      48.541  28.625  27.485  1.00  0.00     0.037 A 
ATOM     52  C   UNL A   1      42.647  29.525  28.312  1.00  0.00     0.049 A 
ATOM     53  C   UNL A   1      48.032  30.045  27.561  1.00  0.00     0.074 A 
ATOM     54  C   UNL A   1      43.104  29.636  29.618  1.00  0.00     0.029 A 
ATOM     55  N   UNL A   1      43.455  30.377  27.564  1.00  0.00    -0.354 N 
ATOM     56  N   UNL A   1      46.846  30.330  28.007  1.00  0.00    -0.248 NA
ATOM     57  C   UNL A   1      48.702  31.226  27.006  1.00  0.00     0.031 C 
ATOM     58  C   UNL A   1      44.111  30.636  29.666  1.00  0.00     0.029 A 
ATOM     59  C   UNL A   1      44.307  31.108  28.382  1.00  0.00     0.049 A 
ATOM     60  H   UNL A   1      43.427  30.452  26.584  1.00  0.00     0.167 HD
ATOM     61  C   UNL A   1      46.523  31.603  27.655  1.00  0.00     0.074 A 
ATOM     62  C   UNL A   1      47.724  32.147  27.060  1.00  0.00     0.031 C 
ATOM     63  C   UNL A   1      45.254  32.060  27.813  1.00  0.00     0.037 A 
BRANCH  50  64
ATOM     64  C   UNL A   1      40.217  28.536  28.268  1.00  0.00     0.057 A 
ATOM     65  C   UNL A   1      39.116  29.148  27.627  1.00  0.00     0.134 A 
ATOM     66  C   UNL A   1      39.880  27.965  29.515  1.00  0.00     0.134 A 
ATOM     67  F   UNL A   1      39.206  29.641  26.384  1.00  0.00    -0.206 F 
ATOM     68  C   UNL A   1      37.854  29.294  28.225  1.00  0.00     0.040 A 
ATOM     69  C   UNL A   1      38.613  28.072  30.106  1.00  0.00     0.040 A 
ATOM     70  F   UNL A   1      40.735  27.269  30.262  1.00  0.00    -0.206 F 
ATOM     71  C   UNL A   1      37.602  28.770  29.479  1.00  0.00     0.006 A 
ENDBRANCH  50  64
BRANCH  51  72
ATOM     72  C   UNL A   1      49.748  28.221  26.729  1.00  0.00     0.057 A 
ATOM     73  C   UNL A   1      50.970  28.120  27.414  1.00  0.00     0.134 A 
ATOM     74  C   UNL A   1      49.775  27.894  25.372  1.00  0.00     0.134 A 
ATOM     75  F   UNL A   1      51.056  28.522  28.692  1.00  0.00    -0.206 F 
ATOM     76  C   UNL A   1      52.122  27.598  26.822  1.00  0.00     0.040 A 
ATOM     77  C   UNL A   1      50.939  27.425  24.747  1.00  0.00     0.040 A 
ATOM     78  F   UNL A   1      48.672  27.998  24.620  1.00  0.00    -0.206 F 
ATOM     79  C   UNL A   1      52.105  27.232  25.482  1.00  0.00     0.006 A 
ENDBRANCH  51  72
BRANCH  63  80
ATOM     80  C   UNL A   1      44.844  33.448  27.461  1.00  0.00     0.057 A 
ATOM     81  C   UNL A   1      45.071  34.542  28.310  1.00  0.00     0.134 A 
ATOM     82  C   UNL A   1      44.096  33.705  26.302  1.00  0.00     0.134 A 
ATOM     83  F   UNL A   1      45.736  34.394  29.466  1.00  0.00    -0.206 F 
ATOM     84  C   UNL A   1      44.601  35.824  28.009  1.00  0.00     0.040 A 
ATOM     85  C   UNL A   1      43.588  34.973  26.010  1.00  0.00     0.040 A 
ATOM     86  F   UNL A   1      43.845  32.736  25.408  1.00  0.00    -0.206 F 
ATOM     87  C   UNL A   1      43.843  36.039  26.863  1.00  0.00     0.006 A 
ENDBRANCH  63  80
ENDBRANCH  37  38
ENDBRANCH  30  32
ENDBRANCH  29  30
ENDBRANCH  28  29
ENDBRANCH  27  28
ENDBRANCH  26  27
ENDBRANCH  25  26
ENDBRANCH   1  25
TORSDOF 21
ENDMDL
