MODEL 1
REMARK VINA RESULT:     -12.8      0.000      0.000
REMARK SMILES CC(=O)O[C@@H]1CC[C@@]23C(=O)O[C@]4(CC[C@]2(O)C1)[C@H]3CC[C@]1(C)[C@H](C(=O)OCCOCCOCCOC(=O)c2ccc(-c3c5nc(c(-c6c(F)cccc6F)c6ccc([nH]6)c(-c6c(F)cccc6F)c6nc(c(-c7c(F)cccc7F)c7ccc3[nH]7)C=C6)C=C5)cc2)CC[C@@H]14
REMARK SMILES IDX 30 1 29 2 28 3 27 4 26 5 24 6 25 7 23 8 5 9 6 10 17 11 7 12
REMARK SMILES IDX 15 13 8 14 14 15 9 16 18 17 13 18 10 19 11 20 12 21 19 22
REMARK SMILES IDX 94 23 20 24 21 25 93 26 22 27 92 28 4 29 2 30 1 31 3 32
REMARK SMILES IDX 16 33 31 35 32 36 33 37 34 38 35 39 36 40 37 41 38 42 39 43
REMARK SMILES IDX 91 44 40 45 90 46 41 47 42 48 43 49 84 50 44 51 89 52 83 53
REMARK SMILES IDX 85 54 45 55 88 56 82 57 81 58 46 60 72 61 55 62 71 63 56 64
REMARK SMILES IDX 59 65 70 66 86 67 57 68 58 69 69 71 87 72 60 73 47 74 48 75
REMARK SMILES IDX 53 76 49 77 50 78 52 79 54 80 51 81 73 82 74 83 79 84 75 85
REMARK SMILES IDX 76 86 78 87 80 88 77 89 61 90 62 91 67 92 63 93 64 94 66 95
REMARK SMILES IDX 68 96 65 97
REMARK H PARENT 16 34 85 59 59 70
REMARK Flexibility Score: inf
ROOT
ATOM      1  C   UNL A   1      39.493  20.612  25.693  1.00  0.00     0.188 C 
ENDROOT
BRANCH   1   2
ATOM      2  O   UNL A   1      38.270  20.288  25.034  1.00  0.00    -0.376 OA
BRANCH   2   3
ATOM      3  C   UNL A   1      37.113  21.085  25.243  1.00  0.00     0.202 C 
BRANCH   3   4
ATOM      4  C   UNL A   1      35.753  20.414  24.996  1.00  0.00     0.261 C 
BRANCH   4   5
ATOM      5  O   UNL A   1      34.801  21.214  24.260  1.00  0.00    -0.463 OA
BRANCH   5   6
ATOM      6  C   UNL A   1      33.495  20.964  24.513  1.00  0.00     0.309 C 
ATOM      7  O   UNL A   1      32.886  20.029  23.993  1.00  0.00    -0.252 OA
BRANCH   6   8
ATOM      8  C   UNL A   1      32.829  21.811  25.627  1.00  0.00     0.105 C 
ATOM      9  C   UNL A   1      31.092  28.797  22.488  1.00  0.00     0.179 C 
ATOM     10  C   UNL A   1      30.898  27.319  22.261  1.00  0.00     0.047 C 
ATOM     11  C   UNL A   1      32.375  29.114  23.260  1.00  0.00     0.081 C 
ATOM     12  C   UNL A   1      31.199  26.531  23.515  1.00  0.00     0.026 C 
ATOM     13  C   UNL A   1      32.735  28.218  24.462  1.00  0.00     0.085 C 
ATOM     14  C   UNL A   1      32.852  26.782  24.128  1.00  0.00     0.103 C 
ATOM     15  C   UNL A   1      31.688  28.105  25.674  1.00  0.00     0.041 C 
ATOM     16  C   UNL A   1      33.236  25.588  23.455  1.00  0.00     0.316 C 
ATOM     17  C   UNL A   1      33.511  26.127  25.571  1.00  0.00     0.054 C 
ATOM     18  C   UNL A   1      31.392  26.542  26.227  1.00  0.00     0.052 C 
ATOM     19  O   UNL A   1      33.791  25.350  22.386  1.00  0.00    -0.251 OA
ATOM     20  O   UNL A   1      32.531  24.718  24.294  1.00  0.00    -0.458 OA
ATOM     21  C   UNL A   1      32.320  25.307  25.665  1.00  0.00     0.120 C 
ATOM     22  C   UNL A   1      34.797  25.284  25.732  1.00  0.00     0.009 C 
ATOM     23  C   UNL A   1      32.155  24.070  26.493  1.00  0.00     0.040 C 
ATOM     24  C   UNL A   1      34.651  23.743  25.727  1.00  0.00     0.008 C 
ATOM     25  C   UNL A   1      33.383  23.105  26.385  1.00  0.00    -0.013 C 
ATOM     26  C   UNL A   1      30.940  23.274  25.973  1.00  0.00     0.009 C 
ATOM     27  C   UNL A   1      33.669  22.805  27.882  1.00  0.00     0.013 C 
ATOM     28  C   UNL A   1      31.497  22.257  25.005  1.00  0.00     0.016 C 
BRANCH   9  29
ATOM     29  O   UNL A   1      30.005  29.333  23.261  1.00  0.00    -0.462 OA
BRANCH  29  30
ATOM     30  C   UNL A   1      29.017  29.906  22.518  1.00  0.00     0.302 C 
ATOM     31  C   UNL A   1      28.082  30.659  23.410  1.00  0.00     0.139 C 
ATOM     32  O   UNL A   1      28.943  29.895  21.299  1.00  0.00    -0.253 OA
ENDBRANCH  29  30
ENDBRANCH   9  29
BRANCH  13  33
ATOM     33  O   UNL A   1      33.975  28.719  24.970  1.00  0.00    -0.389 OA
ATOM     34  H   UNL A   1      34.359  28.072  25.581  1.00  0.00     0.211 HD
ENDBRANCH  13  33
ENDBRANCH   6   8
ENDBRANCH   5   6
ENDBRANCH   4   5
ENDBRANCH   3   4
ENDBRANCH   2   3
ENDBRANCH   1   2
BRANCH   1  35
ATOM     35  C   UNL A   1      40.445  19.501  26.153  1.00  0.00     0.188 C 
BRANCH  35  36
ATOM     36  O   UNL A   1      41.709  19.574  25.540  1.00  0.00    -0.376 OA
BRANCH  36  37
ATOM     37  C   UNL A   1      42.680  20.404  26.131  1.00  0.00     0.202 C 
BRANCH  37  38
ATOM     38  C   UNL A   1      43.416  21.371  25.193  1.00  0.00     0.261 C 
BRANCH  38  39
ATOM     39  O   UNL A   1      42.820  22.663  24.974  1.00  0.00    -0.460 OA
BRANCH  39  40
ATOM     40  C   UNL A   1      43.630  23.746  25.045  1.00  0.00     0.338 C 
ATOM     41  O   UNL A   1      44.628  23.956  24.381  1.00  0.00    -0.246 OA
BRANCH  40  42
ATOM     42  C   UNL A   1      42.989  24.748  25.931  1.00  0.00     0.060 A 
ATOM     43  C   UNL A   1      43.422  26.080  25.886  1.00  0.00     0.016 A 
ATOM     44  C   UNL A   1      41.990  24.369  26.828  1.00  0.00     0.016 A 
ATOM     45  C   UNL A   1      42.888  27.029  26.762  1.00  0.00     0.010 A 
ATOM     46  C   UNL A   1      41.468  25.315  27.717  1.00  0.00     0.010 A 
ATOM     47  C   UNL A   1      41.938  26.643  27.714  1.00  0.00    -0.014 A 
BRANCH  47  48
ATOM     48  C   UNL A   1      41.559  27.560  28.820  1.00  0.00     0.031 A 
ATOM     49  C   UNL A   1      42.326  27.487  30.112  1.00  0.00     0.074 A 
ATOM     50  C   UNL A   1      40.554  28.444  28.692  1.00  0.00     0.049 A 
ATOM     51  N   UNL A   1      42.102  28.086  31.254  1.00  0.00    -0.248 NA
ATOM     52  C   UNL A   1      43.506  26.607  30.115  1.00  0.00     0.031 C 
ATOM     53  C   UNL A   1      39.763  28.656  27.483  1.00  0.00     0.029 A 
ATOM     54  N   UNL A   1      40.013  29.314  29.608  1.00  0.00    -0.354 N 
ATOM     55  C   UNL A   1      43.097  27.642  32.115  1.00  0.00     0.074 A 
ATOM     56  C   UNL A   1      43.907  26.698  31.373  1.00  0.00     0.031 C 
ATOM     57  C   UNL A   1      38.819  29.579  27.738  1.00  0.00     0.029 A 
ATOM     58  C   UNL A   1      38.912  29.987  29.139  1.00  0.00     0.049 A 
ATOM     59  H   UNL A   1      40.379  29.441  30.513  1.00  0.00     0.167 HD
ATOM     60  C   UNL A   1      43.324  27.990  33.405  1.00  0.00     0.037 A 
ATOM     61  C   UNL A   1      38.052  30.806  29.777  1.00  0.00     0.037 A 
ATOM     62  C   UNL A   1      42.512  28.923  34.143  1.00  0.00     0.049 A 
ATOM     63  C   UNL A   1      38.267  31.120  31.235  1.00  0.00     0.074 A 
ATOM     64  C   UNL A   1      42.658  29.347  35.452  1.00  0.00     0.029 A 
ATOM     65  N   UNL A   1      41.392  29.569  33.638  1.00  0.00    -0.354 N 
ATOM     66  N   UNL A   1      39.210  30.699  32.043  1.00  0.00    -0.248 NA
ATOM     67  C   UNL A   1      37.296  32.025  31.870  1.00  0.00     0.031 C 
ATOM     68  C   UNL A   1      41.595  30.204  35.756  1.00  0.00     0.029 A 
ATOM     69  C   UNL A   1      40.823  30.367  34.617  1.00  0.00     0.049 A 
ATOM     70  H   UNL A   1      41.053  29.474  32.718  1.00  0.00     0.167 HD
ATOM     71  C   UNL A   1      38.964  31.305  33.269  1.00  0.00     0.074 A 
ATOM     72  C   UNL A   1      37.789  32.133  33.096  1.00  0.00     0.031 C 
ATOM     73  C   UNL A   1      39.652  31.189  34.433  1.00  0.00     0.037 A 
BRANCH  60  74
ATOM     74  C   UNL A   1      44.473  27.321  34.103  1.00  0.00     0.057 A 
ATOM     75  C   UNL A   1      45.754  27.892  34.146  1.00  0.00     0.134 A 
ATOM     76  C   UNL A   1      44.300  26.083  34.736  1.00  0.00     0.134 A 
ATOM     77  F   UNL A   1      45.995  29.068  33.548  1.00  0.00    -0.206 F 
ATOM     78  C   UNL A   1      46.827  27.236  34.754  1.00  0.00     0.040 A 
ATOM     79  C   UNL A   1      45.358  25.434  35.376  1.00  0.00     0.040 A 
ATOM     80  F   UNL A   1      43.101  25.482  34.741  1.00  0.00    -0.206 F 
ATOM     81  C   UNL A   1      46.628  26.005  35.375  1.00  0.00     0.006 A 
ENDBRANCH  60  74
BRANCH  61  82
ATOM     82  C   UNL A   1      36.888  31.365  29.044  1.00  0.00     0.057 A 
ATOM     83  C   UNL A   1      35.757  30.588  28.769  1.00  0.00     0.134 A 
ATOM     84  C   UNL A   1      36.877  32.696  28.604  1.00  0.00     0.134 A 
ATOM     85  F   UNL A   1      35.717  29.300  29.140  1.00  0.00    -0.206 F 
ATOM     86  C   UNL A   1      34.661  31.111  28.079  1.00  0.00     0.040 A 
ATOM     87  C   UNL A   1      35.778  33.238  27.938  1.00  0.00     0.040 A 
ATOM     88  F   UNL A   1      37.932  33.492  28.832  1.00  0.00    -0.206 F 
ATOM     89  C   UNL A   1      34.666  32.443  27.670  1.00  0.00     0.006 A 
ENDBRANCH  61  82
BRANCH  73  90
ATOM     90  C   UNL A   1      39.178  32.005  35.604  1.00  0.00     0.057 A 
ATOM     91  C   UNL A   1      38.346  31.472  36.597  1.00  0.00     0.134 A 
ATOM     92  C   UNL A   1      39.597  33.333  35.761  1.00  0.00     0.134 A 
ATOM     93  F   UNL A   1      37.898  30.210  36.504  1.00  0.00    -0.206 F 
ATOM     94  C   UNL A   1      37.929  32.236  37.688  1.00  0.00     0.040 A 
ATOM     95  C   UNL A   1      39.211  34.098  36.863  1.00  0.00     0.040 A 
ATOM     96  F   UNL A   1      40.404  33.905  34.854  1.00  0.00    -0.206 F 
ATOM     97  C   UNL A   1      38.368  33.552  37.827  1.00  0.00     0.006 A 
ENDBRANCH  73  90
ENDBRANCH  47  48
ENDBRANCH  40  42
ENDBRANCH  39  40
ENDBRANCH  38  39
ENDBRANCH  37  38
ENDBRANCH  36  37
ENDBRANCH  35  36
ENDBRANCH   1  35
TORSDOF 20
ENDMDL
MODEL 2
REMARK VINA RESULT:     -12.8      1.112      2.030
REMARK SMILES CC(=O)O[C@@H]1CC[C@@]23C(=O)O[C@]4(CC[C@]2(O)C1)[C@H]3CC[C@]1(C)[C@H](C(=O)OCCOCCOCCOC(=O)c2ccc(-c3c5nc(c(-c6c(F)cccc6F)c6ccc([nH]6)c(-c6c(F)cccc6F)c6nc(c(-c7c(F)cccc7F)c7ccc3[nH]7)C=C6)C=C5)cc2)CC[C@@H]14
REMARK SMILES IDX 30 1 29 2 28 3 27 4 26 5 24 6 25 7 23 8 5 9 6 10 17 11 7 12
REMARK SMILES IDX 15 13 8 14 14 15 9 16 18 17 13 18 10 19 11 20 12 21 19 22
REMARK SMILES IDX 94 23 20 24 21 25 93 26 22 27 92 28 4 29 2 30 1 31 3 32
REMARK SMILES IDX 16 33 31 35 32 36 33 37 34 38 35 39 36 40 37 41 38 42 39 43
REMARK SMILES IDX 91 44 40 45 90 46 41 47 42 48 43 49 84 50 44 51 89 52 83 53
REMARK SMILES IDX 85 54 45 55 88 56 82 57 81 58 46 60 72 61 55 62 71 63 56 64
REMARK SMILES IDX 59 65 70 66 86 67 57 68 58 69 69 71 87 72 60 73 47 74 48 75
REMARK SMILES IDX 53 76 49 77 50 78 52 79 54 80 51 81 73 82 74 83 79 84 75 85
REMARK SMILES IDX 76 86 78 87 80 88 77 89 61 90 62 91 67 92 63 93 64 94 66 95
REMARK SMILES IDX 68 96 65 97
REMARK H PARENT 16 34 85 59 59 70
REMARK Flexibility Score: inf
ROOT
ATOM      1  C   UNL A   1      41.910  20.123  27.289  1.00  0.00     0.188 C 
ENDROOT
BRANCH   1   2
ATOM      2  O   UNL A   1      40.689  20.861  27.302  1.00  0.00    -0.376 OA
BRANCH   2   3
ATOM      3  C   UNL A   1      39.993  21.112  26.089  1.00  0.00     0.202 C 
BRANCH   3   4
ATOM      4  C   UNL A   1      38.754  22.018  26.174  1.00  0.00     0.261 C 
BRANCH   4   5
ATOM      5  O   UNL A   1      37.632  21.595  25.368  1.00  0.00    -0.463 OA
BRANCH   5   6
ATOM      6  C   UNL A   1      36.781  22.572  24.978  1.00  0.00     0.309 C 
ATOM      7  O   UNL A   1      37.085  23.765  25.002  1.00  0.00    -0.252 OA
BRANCH   6   8
ATOM      8  C   UNL A   1      35.448  22.115  24.332  1.00  0.00     0.105 C 
ATOM      9  C   UNL A   1      30.892  28.481  23.693  1.00  0.00     0.179 C 
ATOM     10  C   UNL A   1      32.268  27.972  23.341  1.00  0.00     0.047 C 
ATOM     11  C   UNL A   1      30.314  27.809  24.940  1.00  0.00     0.081 C 
ATOM     12  C   UNL A   1      32.336  26.466  23.448  1.00  0.00     0.026 C 
ATOM     13  C   UNL A   1      30.505  26.287  25.096  1.00  0.00     0.085 C 
ATOM     14  C   UNL A   1      31.918  25.853  25.066  1.00  0.00     0.103 C 
ATOM     15  C   UNL A   1      29.925  25.322  23.952  1.00  0.00     0.041 C 
ATOM     16  C   UNL A   1      33.311  25.794  25.356  1.00  0.00     0.316 C 
ATOM     17  C   UNL A   1      31.799  24.203  25.528  1.00  0.00     0.054 C 
ATOM     18  C   UNL A   1      30.975  24.112  23.429  1.00  0.00     0.052 C 
ATOM     19  O   UNL A   1      34.089  26.527  25.960  1.00  0.00    -0.251 OA
ATOM     20  O   UNL A   1      33.593  24.733  24.489  1.00  0.00    -0.458 OA
ATOM     21  C   UNL A   1      32.382  23.870  24.244  1.00  0.00     0.120 C 
ATOM     22  C   UNL A   1      32.528  23.486  26.688  1.00  0.00     0.009 C 
ATOM     23  C   UNL A   1      33.022  22.569  23.869  1.00  0.00     0.040 C 
ATOM     24  C   UNL A   1      33.850  22.750  26.359  1.00  0.00     0.008 C 
ATOM     25  C   UNL A   1      33.987  22.030  24.977  1.00  0.00    -0.013 C 
ATOM     26  C   UNL A   1      33.891  22.778  22.611  1.00  0.00     0.009 C 
ATOM     27  C   UNL A   1      33.511  20.557  25.108  1.00  0.00     0.013 C 
ATOM     28  C   UNL A   1      35.290  23.040  23.116  1.00  0.00     0.016 C 
BRANCH   9  29
ATOM     29  O   UNL A   1      29.972  28.217  22.621  1.00  0.00    -0.462 OA
BRANCH  29  30
ATOM     30  C   UNL A   1      29.364  29.328  22.117  1.00  0.00     0.302 C 
ATOM     31  C   UNL A   1      28.091  29.591  22.857  1.00  0.00     0.139 C 
ATOM     32  O   UNL A   1      29.821  30.062  21.254  1.00  0.00    -0.253 OA
ENDBRANCH  29  30
ENDBRANCH   9  29
BRANCH  13  33
ATOM     33  O   UNL A   1      29.898  25.939  26.343  1.00  0.00    -0.389 OA
ATOM     34  H   UNL A   1      30.020  24.992  26.510  1.00  0.00     0.211 HD
ENDBRANCH  13  33
ENDBRANCH   6   8
ENDBRANCH   5   6
ENDBRANCH   4   5
ENDBRANCH   3   4
ENDBRANCH   2   3
ENDBRANCH   1   2
BRANCH   1  35
ATOM     35  C   UNL A   1      42.290  19.274  26.070  1.00  0.00     0.188 C 
BRANCH  35  36
ATOM     36  O   UNL A   1      43.173  19.933  25.196  1.00  0.00    -0.376 OA
BRANCH  36  37
ATOM     37  C   UNL A   1      44.481  20.186  25.651  1.00  0.00     0.202 C 
BRANCH  37  38
ATOM     38  C   UNL A   1      44.987  21.629  25.509  1.00  0.00     0.261 C 
BRANCH  38  39
ATOM     39  O   UNL A   1      44.223  22.665  26.154  1.00  0.00    -0.460 OA
BRANCH  39  40
ATOM     40  C   UNL A   1      43.384  23.395  25.384  1.00  0.00     0.338 C 
ATOM     41  O   UNL A   1      43.026  23.141  24.248  1.00  0.00    -0.246 OA
BRANCH  40  42
ATOM     42  C   UNL A   1      42.797  24.468  26.223  1.00  0.00     0.060 A 
ATOM     43  C   UNL A   1      43.392  25.737  26.231  1.00  0.00     0.016 A 
ATOM     44  C   UNL A   1      41.685  24.215  27.027  1.00  0.00     0.016 A 
ATOM     45  C   UNL A   1      42.905  26.744  27.069  1.00  0.00     0.010 A 
ATOM     46  C   UNL A   1      41.208  25.216  27.879  1.00  0.00     0.010 A 
ATOM     47  C   UNL A   1      41.836  26.476  27.931  1.00  0.00    -0.014 A 
BRANCH  47  48
ATOM     48  C   UNL A   1      41.478  27.433  29.011  1.00  0.00     0.031 A 
ATOM     49  C   UNL A   1      42.242  27.376  30.306  1.00  0.00     0.074 A 
ATOM     50  C   UNL A   1      40.496  28.338  28.857  1.00  0.00     0.049 A 
ATOM     51  N   UNL A   1      42.031  28.010  31.431  1.00  0.00    -0.248 NA
ATOM     52  C   UNL A   1      43.400  26.468  30.336  1.00  0.00     0.031 C 
ATOM     53  C   UNL A   1      39.712  28.536  27.642  1.00  0.00     0.029 A 
ATOM     54  N   UNL A   1      39.975  29.245  29.748  1.00  0.00    -0.354 N 
ATOM     55  C   UNL A   1      43.014  27.565  32.306  1.00  0.00     0.074 A 
ATOM     56  C   UNL A   1      43.801  26.582  31.592  1.00  0.00     0.031 C 
ATOM     57  C   UNL A   1      38.791  29.488  27.869  1.00  0.00     0.029 A 
ATOM     58  C   UNL A   1      38.892  29.932  29.259  1.00  0.00     0.049 A 
ATOM     59  H   UNL A   1      40.344  29.388  30.650  1.00  0.00     0.167 HD
ATOM     60  C   UNL A   1      43.247  27.943  33.587  1.00  0.00     0.037 A 
ATOM     61  C   UNL A   1      38.052  30.789  29.873  1.00  0.00     0.037 A 
ATOM     62  C   UNL A   1      42.457  28.916  34.298  1.00  0.00     0.049 A 
ATOM     63  C   UNL A   1      38.272  31.137  31.322  1.00  0.00     0.074 A 
ATOM     64  C   UNL A   1      42.612  29.371  35.595  1.00  0.00     0.029 A 
ATOM     65  N   UNL A   1      41.355  29.575  33.773  1.00  0.00    -0.354 N 
ATOM     66  N   UNL A   1      39.204  30.715  32.143  1.00  0.00    -0.248 NA
ATOM     67  C   UNL A   1      37.324  32.082  31.930  1.00  0.00     0.031 C 
ATOM     68  C   UNL A   1      41.570  30.262  35.874  1.00  0.00     0.029 A 
ATOM     69  C   UNL A   1      40.804  30.413  34.728  1.00  0.00     0.049 A 
ATOM     70  H   UNL A   1      41.015  29.463  32.855  1.00  0.00     0.167 HD
ATOM     71  C   UNL A   1      38.971  31.360  33.352  1.00  0.00     0.074 A 
ATOM     72  C   UNL A   1      37.817  32.212  33.154  1.00  0.00     0.031 C 
ATOM     73  C   UNL A   1      39.654  31.259  34.520  1.00  0.00     0.037 A 
BRANCH  60  74
ATOM     74  C   UNL A   1      44.379  27.265  34.305  1.00  0.00     0.057 A 
ATOM     75  C   UNL A   1      44.209  26.052  34.988  1.00  0.00     0.134 A 
ATOM     76  C   UNL A   1      45.658  27.839  34.322  1.00  0.00     0.134 A 
ATOM     77  F   UNL A   1      43.008  25.455  35.026  1.00  0.00    -0.206 F 
ATOM     78  C   UNL A   1      45.257  25.458  35.695  1.00  0.00     0.040 A 
ATOM     79  C   UNL A   1      46.721  27.237  34.997  1.00  0.00     0.040 A 
ATOM     80  F   UNL A   1      45.894  28.994  33.684  1.00  0.00    -0.206 F 
ATOM     81  C   UNL A   1      46.518  26.049  35.697  1.00  0.00     0.006 A 
ENDBRANCH  60  74
BRANCH  61  82
ATOM     82  C   UNL A   1      36.903  31.357  29.122  1.00  0.00     0.057 A 
ATOM     83  C   UNL A   1      35.771  30.587  28.829  1.00  0.00     0.134 A 
ATOM     84  C   UNL A   1      36.907  32.688  28.685  1.00  0.00     0.134 A 
ATOM     85  F   UNL A   1      35.718  29.299  29.196  1.00  0.00    -0.206 F 
ATOM     86  C   UNL A   1      34.690  31.118  28.122  1.00  0.00     0.040 A 
ATOM     87  C   UNL A   1      35.822  33.238  28.002  1.00  0.00     0.040 A 
ATOM     88  F   UNL A   1      37.964  33.477  28.931  1.00  0.00    -0.206 F 
ATOM     89  C   UNL A   1      34.709  32.450  27.715  1.00  0.00     0.006 A 
ENDBRANCH  61  82
BRANCH  73  90
ATOM     90  C   UNL A   1      39.199  32.118  35.667  1.00  0.00     0.057 A 
ATOM     91  C   UNL A   1      38.312  31.648  36.645  1.00  0.00     0.134 A 
ATOM     92  C   UNL A   1      39.692  33.421  35.819  1.00  0.00     0.134 A 
ATOM     93  F   UNL A   1      37.793  30.414  36.556  1.00  0.00    -0.206 F 
ATOM     94  C   UNL A   1      37.912  32.451  37.714  1.00  0.00     0.040 A 
ATOM     95  C   UNL A   1      39.323  34.223  36.900  1.00  0.00     0.040 A 
ATOM     96  F   UNL A   1      40.554  33.932  34.926  1.00  0.00    -0.206 F 
ATOM     97  C   UNL A   1      38.424  33.741  37.848  1.00  0.00     0.006 A 
ENDBRANCH  73  90
ENDBRANCH  47  48
ENDBRANCH  40  42
ENDBRANCH  39  40
ENDBRANCH  38  39
ENDBRANCH  37  38
ENDBRANCH  36  37
ENDBRANCH  35  36
ENDBRANCH   1  35
TORSDOF 20
ENDMDL
MODEL 3
REMARK VINA RESULT:     -12.6      1.165      2.339
REMARK SMILES CC(=O)O[C@@H]1CC[C@@]23C(=O)O[C@]4(CC[C@]2(O)C1)[C@H]3CC[C@]1(C)[C@H](C(=O)OCCOCCOCCOC(=O)c2ccc(-c3c5nc(c(-c6c(F)cccc6F)c6ccc([nH]6)c(-c6c(F)cccc6F)c6nc(c(-c7c(F)cccc7F)c7ccc3[nH]7)C=C6)C=C5)cc2)CC[C@@H]14
REMARK SMILES IDX 30 1 29 2 28 3 27 4 26 5 24 6 25 7 23 8 5 9 6 10 17 11 7 12
REMARK SMILES IDX 15 13 8 14 14 15 9 16 18 17 13 18 10 19 11 20 12 21 19 22
REMARK SMILES IDX 94 23 20 24 21 25 93 26 22 27 92 28 4 29 2 30 1 31 3 32
REMARK SMILES IDX 16 33 31 35 32 36 33 37 34 38 35 39 36 40 37 41 38 42 39 43
REMARK SMILES IDX 91 44 40 45 90 46 41 47 42 48 43 49 84 50 44 51 89 52 83 53
REMARK SMILES IDX 85 54 45 55 88 56 82 57 81 58 46 60 72 61 55 62 71 63 56 64
REMARK SMILES IDX 59 65 70 66 86 67 57 68 58 69 69 71 87 72 60 73 47 74 48 75
REMARK SMILES IDX 53 76 49 77 50 78 52 79 54 80 51 81 73 82 74 83 79 84 75 85
REMARK SMILES IDX 76 86 78 87 80 88 77 89 61 90 62 91 67 92 63 93 64 94 66 95
REMARK SMILES IDX 68 96 65 97
REMARK H PARENT 16 34 85 59 59 70
REMARK Flexibility Score: inf
ROOT
ATOM      1  C   UNL A   1      42.488  19.862  26.297  1.00  0.00     0.188 C 
ENDROOT
BRANCH   1   2
ATOM      2  O   UNL A   1      41.432  20.668  25.776  1.00  0.00    -0.376 OA
BRANCH   2   3
ATOM      3  C   UNL A   1      40.273  20.918  26.559  1.00  0.00     0.202 C 
BRANCH   3   4
ATOM      4  C   UNL A   1      39.341  22.043  26.079  1.00  0.00     0.261 C 
BRANCH   4   5
ATOM      5  O   UNL A   1      38.175  21.602  25.349  1.00  0.00    -0.463 OA
BRANCH   5   6
ATOM      6  C   UNL A   1      37.220  22.536  25.138  1.00  0.00     0.309 C 
ATOM      7  O   UNL A   1      37.412  23.737  25.327  1.00  0.00    -0.252 OA
BRANCH   6   8
ATOM      8  C   UNL A   1      35.904  22.048  24.479  1.00  0.00     0.105 C 
ATOM      9  C   UNL A   1      31.220  28.310  23.756  1.00  0.00     0.179 C 
ATOM     10  C   UNL A   1      32.611  27.830  23.423  1.00  0.00     0.047 C 
ATOM     11  C   UNL A   1      30.642  27.632  24.999  1.00  0.00     0.081 C 
ATOM     12  C   UNL A   1      32.710  26.326  23.537  1.00  0.00     0.026 C 
ATOM     13  C   UNL A   1      30.864  26.116  25.164  1.00  0.00     0.085 C 
ATOM     14  C   UNL A   1      32.286  25.711  25.153  1.00  0.00     0.103 C 
ATOM     15  C   UNL A   1      30.318  25.132  24.018  1.00  0.00     0.041 C 
ATOM     16  C   UNL A   1      33.677  25.684  25.460  1.00  0.00     0.316 C 
ATOM     17  C   UNL A   1      32.198  24.062  25.621  1.00  0.00     0.054 C 
ATOM     18  C   UNL A   1      31.401  23.944  23.514  1.00  0.00     0.052 C 
ATOM     19  O   UNL A   1      34.431  26.436  26.069  1.00  0.00    -0.251 OA
ATOM     20  O   UNL A   1      33.992  24.625  24.601  1.00  0.00    -0.458 OA
ATOM     21  C   UNL A   1      32.802  23.735  24.346  1.00  0.00     0.120 C 
ATOM     22  C   UNL A   1      32.928  23.366  26.793  1.00  0.00     0.009 C 
ATOM     23  C   UNL A   1      33.474  22.447  23.984  1.00  0.00     0.040 C 
ATOM     24  C   UNL A   1      34.269  22.657  26.483  1.00  0.00     0.008 C 
ATOM     25  C   UNL A   1      34.438  21.934  25.106  1.00  0.00    -0.013 C 
ATOM     26  C   UNL A   1      34.354  22.669  22.736  1.00  0.00     0.009 C 
ATOM     27  C   UNL A   1      33.992  20.452  25.239  1.00  0.00     0.013 C 
ATOM     28  C   UNL A   1      35.740  22.963  23.256  1.00  0.00     0.016 C 
BRANCH   9  29
ATOM     29  O   UNL A   1      30.318  28.023  22.674  1.00  0.00    -0.462 OA
BRANCH  29  30
ATOM     30  C   UNL A   1      29.253  28.867  22.592  1.00  0.00     0.302 C 
ATOM     31  C   UNL A   1      29.675  30.160  21.969  1.00  0.00     0.139 C 
ATOM     32  O   UNL A   1      28.101  28.593  22.891  1.00  0.00    -0.253 OA
ENDBRANCH  29  30
ENDBRANCH   9  29
BRANCH  13  33
ATOM     33  O   UNL A   1      30.249  25.760  26.406  1.00  0.00    -0.389 OA
ATOM     34  H   UNL A   1      29.729  26.509  26.736  1.00  0.00     0.211 HD
ENDBRANCH  13  33
ENDBRANCH   6   8
ENDBRANCH   5   6
ENDBRANCH   4   5
ENDBRANCH   3   4
ENDBRANCH   2   3
ENDBRANCH   1   2
BRANCH   1  35
ATOM     35  C   UNL A   1      43.455  19.143  25.349  1.00  0.00     0.188 C 
BRANCH  35  36
ATOM     36  O   UNL A   1      44.769  19.640  25.426  1.00  0.00    -0.376 OA
BRANCH  36  37
ATOM     37  C   UNL A   1      45.071  20.812  24.708  1.00  0.00     0.202 C 
BRANCH  37  38
ATOM     38  C   UNL A   1      45.615  21.993  25.524  1.00  0.00     0.261 C 
BRANCH  38  39
ATOM     39  O   UNL A   1      44.659  22.803  26.233  1.00  0.00    -0.460 OA
BRANCH  39  40
ATOM     40  C   UNL A   1      43.694  23.414  25.506  1.00  0.00     0.338 C 
ATOM     41  O   UNL A   1      43.272  23.070  24.417  1.00  0.00    -0.246 OA
BRANCH  40  42
ATOM     42  C   UNL A   1      43.078  24.471  26.345  1.00  0.00     0.060 A 
ATOM     43  C   UNL A   1      43.593  25.773  26.297  1.00  0.00     0.016 A 
ATOM     44  C   UNL A   1      42.019  24.171  27.202  1.00  0.00     0.016 A 
ATOM     45  C   UNL A   1      43.079  26.770  27.131  1.00  0.00     0.010 A 
ATOM     46  C   UNL A   1      41.517  25.163  28.050  1.00  0.00     0.010 A 
ATOM     47  C   UNL A   1      42.066  26.460  28.045  1.00  0.00    -0.014 A 
BRANCH  47  48
ATOM     48  C   UNL A   1      41.696  27.421  29.117  1.00  0.00     0.031 A 
ATOM     49  C   UNL A   1      42.457  27.382  30.414  1.00  0.00     0.074 A 
ATOM     50  C   UNL A   1      40.704  28.314  28.954  1.00  0.00     0.049 A 
ATOM     51  N   UNL A   1      42.236  28.023  31.534  1.00  0.00    -0.248 NA
ATOM     52  C   UNL A   1      43.624  26.487  30.453  1.00  0.00     0.031 C 
ATOM     53  C   UNL A   1      39.921  28.495  27.735  1.00  0.00     0.029 A 
ATOM     54  N   UNL A   1      40.171  29.222  29.836  1.00  0.00    -0.354 N 
ATOM     55  C   UNL A   1      43.222  27.596  32.415  1.00  0.00     0.074 A 
ATOM     56  C   UNL A   1      44.021  26.616  31.710  1.00  0.00     0.031 C 
ATOM     57  C   UNL A   1      38.989  29.438  27.953  1.00  0.00     0.029 A 
ATOM     58  C   UNL A   1      39.081  29.894  29.340  1.00  0.00     0.049 A 
ATOM     59  H   UNL A   1      40.536  29.376  30.738  1.00  0.00     0.167 HD
ATOM     60  C   UNL A   1      43.447  27.986  33.693  1.00  0.00     0.037 A 
ATOM     61  C   UNL A   1      38.231  30.746  29.944  1.00  0.00     0.037 A 
ATOM     62  C   UNL A   1      42.645  28.955  34.394  1.00  0.00     0.049 A 
ATOM     63  C   UNL A   1      38.444  31.108  31.392  1.00  0.00     0.074 A 
ATOM     64  C   UNL A   1      42.792  29.422  35.688  1.00  0.00     0.029 A 
ATOM     65  N   UNL A   1      41.537  29.598  33.861  1.00  0.00    -0.354 N 
ATOM     66  N   UNL A   1      39.378  30.702  32.218  1.00  0.00    -0.248 NA
ATOM     67  C   UNL A   1      37.483  32.047  31.990  1.00  0.00     0.031 C 
ATOM     68  C   UNL A   1      41.740  30.304  35.958  1.00  0.00     0.029 A 
ATOM     69  C   UNL A   1      40.975  30.437  34.809  1.00  0.00     0.049 A 
ATOM     70  H   UNL A   1      41.200  29.476  32.944  1.00  0.00     0.167 HD
ATOM     71  C   UNL A   1      39.135  31.354  33.422  1.00  0.00     0.074 A 
ATOM     72  C   UNL A   1      37.972  32.192  33.214  1.00  0.00     0.031 C 
ATOM     73  C   UNL A   1      39.816  31.269  34.592  1.00  0.00     0.037 A 
BRANCH  60  74
ATOM     74  C   UNL A   1      44.585  27.326  34.419  1.00  0.00     0.057 A 
ATOM     75  C   UNL A   1      45.860  27.906  34.491  1.00  0.00     0.134 A 
ATOM     76  C   UNL A   1      44.405  26.087  35.049  1.00  0.00     0.134 A 
ATOM     77  F   UNL A   1      46.107  29.083  33.898  1.00  0.00    -0.206 F 
ATOM     78  C   UNL A   1      46.922  27.258  35.126  1.00  0.00     0.040 A 
ATOM     79  C   UNL A   1      45.451  25.446  35.715  1.00  0.00     0.040 A 
ATOM     80  F   UNL A   1      43.210  25.478  35.026  1.00  0.00    -0.206 F 
ATOM     81  C   UNL A   1      46.718  26.026  35.744  1.00  0.00     0.006 A 
ENDBRANCH  60  74
BRANCH  61  82
ATOM     82  C   UNL A   1      37.077  31.295  29.187  1.00  0.00     0.057 A 
ATOM     83  C   UNL A   1      37.087  32.603  28.689  1.00  0.00     0.134 A 
ATOM     84  C   UNL A   1      35.937  30.520  28.937  1.00  0.00     0.134 A 
ATOM     85  F   UNL A   1      38.138  33.404  28.918  1.00  0.00    -0.206 F 
ATOM     86  C   UNL A   1      36.004  33.122  27.977  1.00  0.00     0.040 A 
ATOM     87  C   UNL A   1      34.859  31.017  28.204  1.00  0.00     0.040 A 
ATOM     88  F   UNL A   1      35.864  29.259  29.390  1.00  0.00    -0.206 F 
ATOM     89  C   UNL A   1      34.889  32.325  27.724  1.00  0.00     0.006 A 
ENDBRANCH  61  82
BRANCH  73  90
ATOM     90  C   UNL A   1      39.349  32.132  35.731  1.00  0.00     0.057 A 
ATOM     91  C   UNL A   1      39.794  33.449  35.901  1.00  0.00     0.134 A 
ATOM     92  C   UNL A   1      38.405  31.649  36.648  1.00  0.00     0.134 A 
ATOM     93  F   UNL A   1      40.706  33.972  35.067  1.00  0.00    -0.206 F 
ATOM     94  C   UNL A   1      39.338  34.245  36.954  1.00  0.00     0.040 A 
ATOM     95  C   UNL A   1      37.918  32.445  37.686  1.00  0.00     0.040 A 
ATOM     96  F   UNL A   1      37.926  30.400  36.539  1.00  0.00    -0.206 F 
ATOM     97  C   UNL A   1      38.391  33.745  37.846  1.00  0.00     0.006 A 
ENDBRANCH  73  90
ENDBRANCH  47  48
ENDBRANCH  40  42
ENDBRANCH  39  40
ENDBRANCH  38  39
ENDBRANCH  37  38
ENDBRANCH  36  37
ENDBRANCH  35  36
ENDBRANCH   1  35
TORSDOF 20
ENDMDL
