MODEL 1
REMARK VINA RESULT:     -10.9      0.000      0.000
REMARK SMILES C[C@@H](Sc1nc2ccccc2c(=O)n1N)C(=O)OCCOCCOCCOC(=O)c1ccc(-c2c3nc(c(-c4c(F)cccc4F)c4ccc([nH]4)c(-c4c(F)cccc4F)c4nc(c(-c5c(F)cccc5F)c5ccc2[nH]5)C=C4)C=C3)cc1
REMARK SMILES IDX 22 1 21 2 20 3 19 4 18 5 16 6 17 7 2 8 1 9 3 10 4 11 5 12
REMARK SMILES IDX 14 13 6 14 12 15 7 16 11 17 13 18 8 19 10 20 9 21 15 22
REMARK SMILES IDX 23 25 24 26 25 27 26 28 27 29 28 30 29 31 30 32 31 33 83 34
REMARK SMILES IDX 32 35 82 36 33 37 34 38 35 39 76 40 36 41 81 42 75 43 77 44
REMARK SMILES IDX 37 45 80 46 74 47 73 48 38 50 64 51 47 52 63 53 48 54 51 55
REMARK SMILES IDX 62 56 78 57 49 58 50 59 61 61 79 62 52 63 39 64 40 65 45 66
REMARK SMILES IDX 41 67 42 68 44 69 46 70 43 71 65 72 66 73 71 74 67 75 68 76
REMARK SMILES IDX 70 77 72 78 69 79 53 80 54 81 59 82 55 83 56 84 58 85 60 86
REMARK SMILES IDX 57 87
REMARK H PARENT 15 23 15 24 77 49 51 60
REMARK Flexibility Score: inf
ROOT
ATOM      1  C   UNL A   1      38.653  21.074  25.568  1.00  0.00     0.188 C 
ENDROOT
BRANCH   1   2
ATOM      2  O   UNL A   1      37.372  21.354  25.023  1.00  0.00    -0.376 OA
BRANCH   2   3
ATOM      3  C   UNL A   1      36.386  20.327  25.001  1.00  0.00     0.202 C 
BRANCH   3   4
ATOM      4  C   UNL A   1      34.892  20.694  25.090  1.00  0.00     0.261 C 
BRANCH   4   5
ATOM      5  O   UNL A   1      34.453  21.758  24.219  1.00  0.00    -0.462 OA
BRANCH   5   6
ATOM      6  C   UNL A   1      33.225  22.280  24.477  1.00  0.00     0.319 C 
ATOM      7  O   UNL A   1      32.265  22.159  23.719  1.00  0.00    -0.251 OA
BRANCH   6   8
ATOM      8  C   UNL A   1      33.103  22.976  25.844  1.00  0.00     0.161 C 
ATOM      9  C   UNL A   1      33.878  24.276  26.073  1.00  0.00     0.032 C 
BRANCH   8  10
ATOM     10  S   UNL A   1      31.310  23.203  26.120  1.00  0.00    -0.071 SA
BRANCH  10  11
ATOM     11  C   UNL A   1      31.103  24.883  25.703  1.00  0.00     0.191 A 
ATOM     12  N   UNL A   1      31.408  25.738  26.622  1.00  0.00    -0.222 NA
ATOM     13  N   UNL A   1      30.716  25.231  24.413  1.00  0.00    -0.202 N 
ATOM     14  C   UNL A   1      31.403  27.094  26.290  1.00  0.00     0.079 A 
ATOM     15  C   UNL A   1      30.741  26.560  23.984  1.00  0.00     0.280 A 
ATOM     16  C   UNL A   1      31.751  28.016  27.279  1.00  0.00     0.029 A 
ATOM     17  C   UNL A   1      31.142  27.553  24.998  1.00  0.00     0.068 A 
ATOM     18  O   UNL A   1      30.470  26.906  22.834  1.00  0.00    -0.267 OA
ATOM     19  C   UNL A   1      31.877  29.371  26.970  1.00  0.00     0.002 A 
ATOM     20  C   UNL A   1      31.272  28.907  24.677  1.00  0.00     0.016 A 
ATOM     21  C   UNL A   1      31.651  29.815  25.667  1.00  0.00     0.001 A 
BRANCH  13  22
ATOM     22  N   UNL A   1      30.279  24.253  23.457  1.00  0.00    -0.334 N 
ATOM     23  H   UNL A   1      30.064  23.339  23.751  1.00  0.00     0.178 HD
ATOM     24  H   UNL A   1      30.194  24.497  22.507  1.00  0.00     0.178 HD
ENDBRANCH  13  22
ENDBRANCH  10  11
ENDBRANCH   8  10
ENDBRANCH   6   8
ENDBRANCH   5   6
ENDBRANCH   4   5
ENDBRANCH   3   4
ENDBRANCH   2   3
ENDBRANCH   1   2
BRANCH   1  25
ATOM     25  C   UNL A   1      39.110  19.613  25.701  1.00  0.00     0.188 C 
BRANCH  25  26
ATOM     26  O   UNL A   1      40.479  19.401  25.470  1.00  0.00    -0.376 OA
BRANCH  26  27
ATOM     27  C   UNL A   1      41.429  19.828  26.433  1.00  0.00     0.202 C 
BRANCH  27  28
ATOM     28  C   UNL A   1      42.441  20.950  26.126  1.00  0.00     0.261 C 
BRANCH  28  29
ATOM     29  O   UNL A   1      41.922  22.215  25.697  1.00  0.00    -0.460 OA
BRANCH  29  30
ATOM     30  C   UNL A   1      42.809  23.207  25.452  1.00  0.00     0.338 C 
ATOM     31  O   UNL A   1      43.640  23.250  24.558  1.00  0.00    -0.246 OA
BRANCH  30  32
ATOM     32  C   UNL A   1      42.416  24.352  26.304  1.00  0.00     0.060 A 
ATOM     33  C   UNL A   1      43.131  25.558  26.218  1.00  0.00     0.016 A 
ATOM     34  C   UNL A   1      41.305  24.248  27.142  1.00  0.00     0.016 A 
ATOM     35  C   UNL A   1      42.740  26.664  26.976  1.00  0.00     0.010 A 
ATOM     36  C   UNL A   1      40.935  25.343  27.922  1.00  0.00     0.010 A 
ATOM     37  C   UNL A   1      41.663  26.547  27.860  1.00  0.00    -0.014 A 
BRANCH  37  38
ATOM     38  C   UNL A   1      41.402  27.578  28.893  1.00  0.00     0.031 A 
ATOM     39  C   UNL A   1      42.174  27.487  30.177  1.00  0.00     0.074 A 
ATOM     40  C   UNL A   1      40.452  28.515  28.740  1.00  0.00     0.049 A 
ATOM     41  N   UNL A   1      41.982  28.102  31.313  1.00  0.00    -0.248 NA
ATOM     42  C   UNL A   1      43.309  26.551  30.177  1.00  0.00     0.031 C 
ATOM     43  C   UNL A   1      39.668  28.740  27.530  1.00  0.00     0.029 A 
ATOM     44  N   UNL A   1      39.961  29.428  29.643  1.00  0.00    -0.354 N 
ATOM     45  C   UNL A   1      42.947  27.601  32.176  1.00  0.00     0.074 A 
ATOM     46  C   UNL A   1      43.710  26.619  31.436  1.00  0.00     0.031 C 
ATOM     47  C   UNL A   1      38.760  29.700  27.777  1.00  0.00     0.029 A 
ATOM     48  C   UNL A   1      38.869  30.117  29.176  1.00  0.00     0.049 A 
ATOM     49  H   UNL A   1      40.352  29.572  30.535  1.00  0.00     0.167 HD
ATOM     50  C   UNL A   1      43.170  27.924  33.471  1.00  0.00     0.037 A 
ATOM     51  C   UNL A   1      38.024  30.947  29.820  1.00  0.00     0.037 A 
ATOM     52  C   UNL A   1      42.399  28.894  34.202  1.00  0.00     0.049 A 
ATOM     53  C   UNL A   1      38.240  31.245  31.281  1.00  0.00     0.074 A 
ATOM     54  C   UNL A   1      42.561  29.315  35.509  1.00  0.00     0.029 A 
ATOM     55  N   UNL A   1      41.305  29.578  33.691  1.00  0.00    -0.354 N 
ATOM     56  N   UNL A   1      39.161  30.784  32.094  1.00  0.00    -0.248 NA
ATOM     57  C   UNL A   1      37.297  32.178  31.918  1.00  0.00     0.031 C 
ATOM     58  C   UNL A   1      41.524  30.204  35.810  1.00  0.00     0.029 A 
ATOM     59  C   UNL A   1      40.762  30.396  34.668  1.00  0.00     0.049 A 
ATOM     60  H   UNL A   1      40.966  29.496  32.770  1.00  0.00     0.167 HD
ATOM     61  C   UNL A   1      38.933  31.395  33.322  1.00  0.00     0.074 A 
ATOM     62  C   UNL A   1      37.782  32.258  33.150  1.00  0.00     0.031 C 
ATOM     63  C   UNL A   1      39.622  31.260  34.483  1.00  0.00     0.037 A 
BRANCH  50  64
ATOM     64  C   UNL A   1      44.256  27.170  34.185  1.00  0.00     0.057 A 
ATOM     65  C   UNL A   1      44.018  25.954  34.840  1.00  0.00     0.134 A 
ATOM     66  C   UNL A   1      45.558  27.684  34.234  1.00  0.00     0.134 A 
ATOM     67  F   UNL A   1      42.790  25.412  34.848  1.00  0.00    -0.206 F 
ATOM     68  C   UNL A   1      45.024  25.301  35.556  1.00  0.00     0.040 A 
ATOM     69  C   UNL A   1      46.580  27.023  34.916  1.00  0.00     0.040 A 
ATOM     70  F   UNL A   1      45.858  28.840  33.626  1.00  0.00    -0.206 F 
ATOM     71  C   UNL A   1      46.311  25.835  35.591  1.00  0.00     0.006 A 
ENDBRANCH  50  64
BRANCH  51  72
ATOM     72  C   UNL A   1      36.875  31.533  29.084  1.00  0.00     0.057 A 
ATOM     73  C   UNL A   1      35.723  30.783  28.822  1.00  0.00     0.134 A 
ATOM     74  C   UNL A   1      36.891  32.864  28.648  1.00  0.00     0.134 A 
ATOM     75  F   UNL A   1      35.658  29.496  29.190  1.00  0.00    -0.206 F 
ATOM     76  C   UNL A   1      34.629  31.335  28.152  1.00  0.00     0.040 A 
ATOM     77  C   UNL A   1      35.795  33.437  28.002  1.00  0.00     0.040 A 
ATOM     78  F   UNL A   1      37.967  33.635  28.868  1.00  0.00    -0.206 F 
ATOM     79  C   UNL A   1      34.659  32.669  27.749  1.00  0.00     0.006 A 
ENDBRANCH  51  72
BRANCH  63  80
ATOM     80  C   UNL A   1      39.198  32.102  35.654  1.00  0.00     0.057 A 
ATOM     81  C   UNL A   1      39.640  33.419  35.829  1.00  0.00     0.134 A 
ATOM     82  C   UNL A   1      38.267  31.607  36.578  1.00  0.00     0.134 A 
ATOM     83  F   UNL A   1      40.538  33.954  34.987  1.00  0.00    -0.206 F 
ATOM     84  C   UNL A   1      39.178  34.208  36.885  1.00  0.00     0.040 A 
ATOM     85  C   UNL A   1      37.777  32.394  37.621  1.00  0.00     0.040 A 
ATOM     86  F   UNL A   1      37.794  30.356  36.464  1.00  0.00    -0.206 F 
ATOM     87  C   UNL A   1      38.236  33.700  37.778  1.00  0.00     0.006 A 
ENDBRANCH  63  80
ENDBRANCH  37  38
ENDBRANCH  30  32
ENDBRANCH  29  30
ENDBRANCH  28  29
ENDBRANCH  27  28
ENDBRANCH  26  27
ENDBRANCH  25  26
ENDBRANCH   1  25
TORSDOF 20
ENDMDL
MODEL 2
REMARK VINA RESULT:     -10.7      1.206      1.884
REMARK SMILES C[C@@H](Sc1nc2ccccc2c(=O)n1N)C(=O)OCCOCCOCCOC(=O)c1ccc(-c2c3nc(c(-c4c(F)cccc4F)c4ccc([nH]4)c(-c4c(F)cccc4F)c4nc(c(-c5c(F)cccc5F)c5ccc2[nH]5)C=C4)C=C3)cc1
REMARK SMILES IDX 22 1 21 2 20 3 19 4 18 5 16 6 17 7 2 8 1 9 3 10 4 11 5 12
REMARK SMILES IDX 14 13 6 14 12 15 7 16 11 17 13 18 8 19 10 20 9 21 15 22
REMARK SMILES IDX 23 25 24 26 25 27 26 28 27 29 28 30 29 31 30 32 31 33 83 34
REMARK SMILES IDX 32 35 82 36 33 37 34 38 35 39 76 40 36 41 81 42 75 43 77 44
REMARK SMILES IDX 37 45 80 46 74 47 73 48 38 50 64 51 47 52 63 53 48 54 51 55
REMARK SMILES IDX 62 56 78 57 49 58 50 59 61 61 79 62 52 63 39 64 40 65 45 66
REMARK SMILES IDX 41 67 42 68 44 69 46 70 43 71 65 72 66 73 71 74 67 75 68 76
REMARK SMILES IDX 70 77 72 78 69 79 53 80 54 81 59 82 55 83 56 84 58 85 60 86
REMARK SMILES IDX 57 87
REMARK H PARENT 15 23 15 24 77 49 51 60
REMARK Flexibility Score: inf
ROOT
ATOM      1  C   UNL A   1      39.192  21.678  25.822  1.00  0.00     0.188 C 
ENDROOT
BRANCH   1   2
ATOM      2  O   UNL A   1      38.149  21.023  25.114  1.00  0.00    -0.376 OA
BRANCH   2   3
ATOM      3  C   UNL A   1      37.031  21.782  24.665  1.00  0.00     0.202 C 
BRANCH   3   4
ATOM      4  C   UNL A   1      36.096  22.452  25.690  1.00  0.00     0.261 C 
BRANCH   4   5
ATOM      5  O   UNL A   1      35.445  21.563  26.622  1.00  0.00    -0.462 OA
BRANCH   5   6
ATOM      6  C   UNL A   1      34.095  21.459  26.514  1.00  0.00     0.319 C 
ATOM      7  O   UNL A   1      33.326  21.619  27.460  1.00  0.00    -0.251 OA
BRANCH   6   8
ATOM      8  C   UNL A   1      33.588  21.199  25.084  1.00  0.00     0.161 C 
ATOM      9  C   UNL A   1      33.659  19.773  24.533  1.00  0.00     0.032 C 
BRANCH   8  10
ATOM     10  S   UNL A   1      31.881  21.853  25.043  1.00  0.00    -0.071 SA
BRANCH  10  11
ATOM     11  C   UNL A   1      32.166  23.569  24.952  1.00  0.00     0.191 A 
ATOM     12  N   UNL A   1      32.739  23.993  23.874  1.00  0.00    -0.222 NA
ATOM     13  N   UNL A   1      31.703  24.400  25.967  1.00  0.00    -0.202 N 
ATOM     14  C   UNL A   1      32.854  25.372  23.686  1.00  0.00     0.079 A 
ATOM     15  C   UNL A   1      31.728  25.790  25.831  1.00  0.00     0.280 A 
ATOM     16  C   UNL A   1      33.456  25.830  22.512  1.00  0.00     0.029 A 
ATOM     17  C   UNL A   1      32.325  26.302  24.583  1.00  0.00     0.068 A 
ATOM     18  O   UNL A   1      31.271  26.562  26.674  1.00  0.00    -0.267 OA
ATOM     19  C   UNL A   1      33.490  27.194  22.220  1.00  0.00     0.002 A 
ATOM     20  C   UNL A   1      32.349  27.670  24.296  1.00  0.00     0.016 A 
ATOM     21  C   UNL A   1      32.925  28.112  23.105  1.00  0.00     0.001 A 
BRANCH  13  22
ATOM     22  N   UNL A   1      31.174  23.882  27.196  1.00  0.00    -0.334 N 
ATOM     23  H   UNL A   1      30.421  24.336  27.638  1.00  0.00     0.178 HD
ATOM     24  H   UNL A   1      31.564  23.072  27.597  1.00  0.00     0.178 HD
ENDBRANCH  13  22
ENDBRANCH  10  11
ENDBRANCH   8  10
ENDBRANCH   6   8
ENDBRANCH   5   6
ENDBRANCH   4   5
ENDBRANCH   3   4
ENDBRANCH   2   3
ENDBRANCH   1   2
BRANCH   1  25
ATOM     25  C   UNL A   1      40.268  20.836  26.524  1.00  0.00     0.188 C 
BRANCH  25  26
ATOM     26  O   UNL A   1      41.110  20.116  25.659  1.00  0.00    -0.376 OA
BRANCH  26  27
ATOM     27  C   UNL A   1      42.436  19.814  26.059  1.00  0.00     0.202 C 
BRANCH  27  28
ATOM     28  C   UNL A   1      43.605  20.779  25.773  1.00  0.00     0.261 C 
BRANCH  28  29
ATOM     29  O   UNL A   1      43.533  22.096  26.333  1.00  0.00    -0.460 OA
BRANCH  29  30
ATOM     30  C   UNL A   1      43.241  23.119  25.497  1.00  0.00     0.338 C 
ATOM     31  O   UNL A   1      43.145  23.073  24.280  1.00  0.00    -0.246 OA
BRANCH  30  32
ATOM     32  C   UNL A   1      42.798  24.249  26.343  1.00  0.00     0.060 A 
ATOM     33  C   UNL A   1      43.357  25.523  26.146  1.00  0.00     0.016 A 
ATOM     34  C   UNL A   1      41.790  24.058  27.289  1.00  0.00     0.016 A 
ATOM     35  C   UNL A   1      42.913  26.611  26.901  1.00  0.00     0.010 A 
ATOM     36  C   UNL A   1      41.369  25.140  28.063  1.00  0.00     0.010 A 
ATOM     37  C   UNL A   1      41.943  26.413  27.890  1.00  0.00    -0.014 A 
BRANCH  37  38
ATOM     38  C   UNL A   1      41.661  27.453  28.907  1.00  0.00     0.031 A 
ATOM     39  C   UNL A   1      42.445  27.405  30.187  1.00  0.00     0.074 A 
ATOM     40  C   UNL A   1      40.685  28.362  28.747  1.00  0.00     0.049 A 
ATOM     41  N   UNL A   1      42.244  28.034  31.315  1.00  0.00    -0.248 NA
ATOM     42  C   UNL A   1      43.605  26.500  30.194  1.00  0.00     0.031 C 
ATOM     43  C   UNL A   1      39.887  28.545  27.539  1.00  0.00     0.029 A 
ATOM     44  N   UNL A   1      40.175  29.276  29.638  1.00  0.00    -0.354 N 
ATOM     45  C   UNL A   1      43.229  27.574  32.178  1.00  0.00     0.074 A 
ATOM     46  C   UNL A   1      44.013  26.601  31.448  1.00  0.00     0.031 C 
ATOM     47  C   UNL A   1      38.955  29.484  27.777  1.00  0.00     0.029 A 
ATOM     48  C   UNL A   1      39.062  29.927  29.168  1.00  0.00     0.049 A 
ATOM     49  H   UNL A   1      40.569  29.446  30.524  1.00  0.00     0.167 HD
ATOM     50  C   UNL A   1      43.452  27.924  33.466  1.00  0.00     0.037 A 
ATOM     51  C   UNL A   1      38.199  30.744  29.804  1.00  0.00     0.037 A 
ATOM     52  C   UNL A   1      42.659  28.884  34.186  1.00  0.00     0.049 A 
ATOM     53  C   UNL A   1      38.417  31.073  31.259  1.00  0.00     0.074 A 
ATOM     54  C   UNL A   1      42.819  29.332  35.485  1.00  0.00     0.029 A 
ATOM     55  N   UNL A   1      41.544  29.530  33.673  1.00  0.00    -0.354 N 
ATOM     56  N   UNL A   1      39.356  30.651  32.072  1.00  0.00    -0.248 NA
ATOM     57  C   UNL A   1      37.454  31.990  31.887  1.00  0.00     0.031 C 
ATOM     58  C   UNL A   1      41.760  30.197  35.780  1.00  0.00     0.029 A 
ATOM     59  C   UNL A   1      40.985  30.349  34.640  1.00  0.00     0.049 A 
ATOM     60  H   UNL A   1      41.200  29.423  32.756  1.00  0.00     0.167 HD
ATOM     61  C   UNL A   1      39.120  31.275  33.292  1.00  0.00     0.074 A 
ATOM     62  C   UNL A   1      37.944  32.103  33.114  1.00  0.00     0.031 C 
ATOM     63  C   UNL A   1      39.820  31.178  34.450  1.00  0.00     0.037 A 
BRANCH  50  64
ATOM     64  C   UNL A   1      44.562  27.212  34.185  1.00  0.00     0.057 A 
ATOM     65  C   UNL A   1      45.888  27.667  34.155  1.00  0.00     0.134 A 
ATOM     66  C   UNL A   1      44.301  26.038  34.903  1.00  0.00     0.134 A 
ATOM     67  F   UNL A   1      46.213  28.776  33.472  1.00  0.00    -0.206 F 
ATOM     68  C   UNL A   1      46.918  26.955  34.772  1.00  0.00     0.040 A 
ATOM     69  C   UNL A   1      45.316  25.337  35.554  1.00  0.00     0.040 A 
ATOM     70  F   UNL A   1      43.055  25.547  34.978  1.00  0.00    -0.206 F 
ATOM     71  C   UNL A   1      46.632  25.788  35.478  1.00  0.00     0.006 A 
ENDBRANCH  50  64
BRANCH  51  72
ATOM     72  C   UNL A   1      37.029  31.286  29.067  1.00  0.00     0.057 A 
ATOM     73  C   UNL A   1      35.888  30.509  28.845  1.00  0.00     0.134 A 
ATOM     74  C   UNL A   1      37.015  32.603  28.590  1.00  0.00     0.134 A 
ATOM     75  F   UNL A   1      35.851  29.232  29.255  1.00  0.00    -0.206 F 
ATOM     76  C   UNL A   1      34.775  31.020  28.175  1.00  0.00     0.040 A 
ATOM     77  C   UNL A   1      35.900  33.136  27.942  1.00  0.00     0.040 A 
ATOM     78  F   UNL A   1      38.079  33.400  28.770  1.00  0.00    -0.206 F 
ATOM     79  C   UNL A   1      34.775  32.341  27.730  1.00  0.00     0.006 A 
ENDBRANCH  51  72
BRANCH  63  80
ATOM     80  C   UNL A   1      39.382  32.028  35.610  1.00  0.00     0.057 A 
ATOM     81  C   UNL A   1      39.802  33.354  35.769  1.00  0.00     0.134 A 
ATOM     82  C   UNL A   1      38.458  31.529  36.539  1.00  0.00     0.134 A 
ATOM     83  F   UNL A   1      40.693  33.892  34.921  1.00  0.00    -0.206 F 
ATOM     84  C   UNL A   1      39.327  34.149  36.815  1.00  0.00     0.040 A 
ATOM     85  C   UNL A   1      37.955  32.322  37.571  1.00  0.00     0.040 A 
ATOM     86  F   UNL A   1      38.005  30.270  36.440  1.00  0.00    -0.206 F 
ATOM     87  C   UNL A   1      38.392  33.637  37.713  1.00  0.00     0.006 A 
ENDBRANCH  63  80
ENDBRANCH  37  38
ENDBRANCH  30  32
ENDBRANCH  29  30
ENDBRANCH  28  29
ENDBRANCH  27  28
ENDBRANCH  26  27
ENDBRANCH  25  26
ENDBRANCH   1  25
TORSDOF 20
ENDMDL
MODEL 3
REMARK VINA RESULT:     -10.4      1.388      2.927
REMARK SMILES C[C@@H](Sc1nc2ccccc2c(=O)n1N)C(=O)OCCOCCOCCOC(=O)c1ccc(-c2c3nc(c(-c4c(F)cccc4F)c4ccc([nH]4)c(-c4c(F)cccc4F)c4nc(c(-c5c(F)cccc5F)c5ccc2[nH]5)C=C4)C=C3)cc1
REMARK SMILES IDX 22 1 21 2 20 3 19 4 18 5 16 6 17 7 2 8 1 9 3 10 4 11 5 12
REMARK SMILES IDX 14 13 6 14 12 15 7 16 11 17 13 18 8 19 10 20 9 21 15 22
REMARK SMILES IDX 23 25 24 26 25 27 26 28 27 29 28 30 29 31 30 32 31 33 83 34
REMARK SMILES IDX 32 35 82 36 33 37 34 38 35 39 76 40 36 41 81 42 75 43 77 44
REMARK SMILES IDX 37 45 80 46 74 47 73 48 38 50 64 51 47 52 63 53 48 54 51 55
REMARK SMILES IDX 62 56 78 57 49 58 50 59 61 61 79 62 52 63 39 64 40 65 45 66
REMARK SMILES IDX 41 67 42 68 44 69 46 70 43 71 65 72 66 73 71 74 67 75 68 76
REMARK SMILES IDX 70 77 72 78 69 79 53 80 54 81 59 82 55 83 56 84 58 85 60 86
REMARK SMILES IDX 57 87
REMARK H PARENT 15 23 15 24 77 49 51 60
REMARK Flexibility Score: inf
ROOT
ATOM      1  C   UNL A   1      37.521  23.216  25.076  1.00  0.00     0.188 C 
ENDROOT
BRANCH   1   2
ATOM      2  O   UNL A   1      36.627  22.371  24.367  1.00  0.00    -0.376 OA
BRANCH   2   3
ATOM      3  C   UNL A   1      35.270  22.773  24.207  1.00  0.00     0.202 C 
BRANCH   3   4
ATOM      4  C   UNL A   1      34.911  23.881  23.199  1.00  0.00     0.261 C 
BRANCH   4   5
ATOM      5  O   UNL A   1      34.425  25.116  23.768  1.00  0.00    -0.462 OA
BRANCH   5   6
ATOM      6  C   UNL A   1      33.645  25.884  22.962  1.00  0.00     0.319 C 
ATOM      7  O   UNL A   1      33.677  25.827  21.735  1.00  0.00    -0.251 OA
BRANCH   6   8
ATOM      8  C   UNL A   1      32.650  26.788  23.712  1.00  0.00     0.161 C 
ATOM      9  C   UNL A   1      32.677  28.292  23.432  1.00  0.00     0.032 C 
BRANCH   8  10
ATOM     10  S   UNL A   1      30.999  26.072  23.390  1.00  0.00    -0.071 SA
BRANCH  10  11
ATOM     11  C   UNL A   1      31.166  24.482  24.082  1.00  0.00     0.191 A 
ATOM     12  N   UNL A   1      31.446  23.529  23.255  1.00  0.00    -0.222 NA
ATOM     13  N   UNL A   1      31.084  24.317  25.461  1.00  0.00    -0.202 N 
ATOM     14  C   UNL A   1      31.738  22.267  23.777  1.00  0.00     0.079 A 
ATOM     15  C   UNL A   1      31.416  23.103  26.065  1.00  0.00     0.280 A 
ATOM     16  C   UNL A   1      32.058  21.243  22.883  1.00  0.00     0.029 A 
ATOM     17  C   UNL A   1      31.796  22.013  25.148  1.00  0.00     0.068 A 
ATOM     18  O   UNL A   1      31.420  22.932  27.285  1.00  0.00    -0.267 OA
ATOM     19  C   UNL A   1      32.472  19.996  23.356  1.00  0.00     0.002 A 
ATOM     20  C   UNL A   1      32.215  20.770  25.630  1.00  0.00     0.016 A 
ATOM     21  C   UNL A   1      32.564  19.764  24.728  1.00  0.00     0.001 A 
BRANCH  13  22
ATOM     22  N   UNL A   1      30.661  25.377  26.332  1.00  0.00    -0.334 N 
ATOM     23  H   UNL A   1      31.086  26.263  26.271  1.00  0.00     0.178 HD
ATOM     24  H   UNL A   1      29.946  25.219  26.990  1.00  0.00     0.178 HD
ENDBRANCH  13  22
ENDBRANCH  10  11
ENDBRANCH   8  10
ENDBRANCH   6   8
ENDBRANCH   5   6
ENDBRANCH   4   5
ENDBRANCH   3   4
ENDBRANCH   2   3
ENDBRANCH   1   2
BRANCH   1  25
ATOM     25  C   UNL A   1      38.463  22.603  26.124  1.00  0.00     0.188 C 
BRANCH  25  26
ATOM     26  O   UNL A   1      39.115  21.428  25.714  1.00  0.00    -0.376 OA
BRANCH  26  27
ATOM     27  C   UNL A   1      40.181  20.908  26.491  1.00  0.00     0.202 C 
BRANCH  27  28
ATOM     28  C   UNL A   1      41.634  20.914  25.974  1.00  0.00     0.261 C 
BRANCH  28  29
ATOM     29  O   UNL A   1      42.533  21.884  26.527  1.00  0.00    -0.460 OA
BRANCH  29  30
ATOM     30  C   UNL A   1      42.820  22.973  25.777  1.00  0.00     0.338 C 
ATOM     31  O   UNL A   1      43.122  22.996  24.594  1.00  0.00    -0.246 OA
BRANCH  30  32
ATOM     32  C   UNL A   1      42.447  24.157  26.583  1.00  0.00     0.060 A 
ATOM     33  C   UNL A   1      43.146  25.362  26.409  1.00  0.00     0.016 A 
ATOM     34  C   UNL A   1      41.368  24.087  27.465  1.00  0.00     0.016 A 
ATOM     35  C   UNL A   1      42.773  26.503  27.124  1.00  0.00     0.010 A 
ATOM     36  C   UNL A   1      41.016  25.218  28.201  1.00  0.00     0.010 A 
ATOM     37  C   UNL A   1      41.729  26.423  28.051  1.00  0.00    -0.014 A 
BRANCH  37  38
ATOM     38  C   UNL A   1      41.495  27.503  29.039  1.00  0.00     0.031 A 
ATOM     39  C   UNL A   1      42.297  27.472  30.308  1.00  0.00     0.074 A 
ATOM     40  C   UNL A   1      40.545  28.436  28.864  1.00  0.00     0.049 A 
ATOM     41  N   UNL A   1      42.133  28.142  31.417  1.00  0.00    -0.248 NA
ATOM     42  C   UNL A   1      43.429  26.532  30.327  1.00  0.00     0.031 C 
ATOM     43  C   UNL A   1      39.734  28.605  27.662  1.00  0.00     0.029 A 
ATOM     44  N   UNL A   1      40.077  29.393  29.732  1.00  0.00    -0.354 N 
ATOM     45  C   UNL A   1      43.117  27.679  32.280  1.00  0.00     0.074 A 
ATOM     46  C   UNL A   1      43.860  26.659  31.571  1.00  0.00     0.031 C 
ATOM     47  C   UNL A   1      38.834  29.580  27.884  1.00  0.00     0.029 A 
ATOM     48  C   UNL A   1      38.977  30.063  29.258  1.00  0.00     0.049 A 
ATOM     49  H   UNL A   1      40.490  29.579  30.606  1.00  0.00     0.167 HD
ATOM     50  C   UNL A   1      43.371  28.063  33.553  1.00  0.00     0.037 A 
ATOM     51  C   UNL A   1      38.150  30.927  29.880  1.00  0.00     0.037 A 
ATOM     52  C   UNL A   1      42.620  29.070  34.253  1.00  0.00     0.049 A 
ATOM     53  C   UNL A   1      38.401  31.295  31.320  1.00  0.00     0.074 A 
ATOM     54  C   UNL A   1      42.814  29.553  35.535  1.00  0.00     0.029 A 
ATOM     55  N   UNL A   1      41.517  29.733  33.736  1.00  0.00    -0.354 N 
ATOM     56  N   UNL A   1      39.339  30.870  32.132  1.00  0.00    -0.248 NA
ATOM     57  C   UNL A   1      37.476  32.261  31.933  1.00  0.00     0.031 C 
ATOM     58  C   UNL A   1      41.787  30.460  35.817  1.00  0.00     0.029 A 
ATOM     59  C   UNL A   1      40.999  30.599  34.684  1.00  0.00     0.049 A 
ATOM     60  H   UNL A   1      41.156  29.608  32.828  1.00  0.00     0.167 HD
ATOM     61  C   UNL A   1      39.142  31.539  33.335  1.00  0.00     0.074 A 
ATOM     62  C   UNL A   1      37.990  32.398  33.148  1.00  0.00     0.031 C 
ATOM     63  C   UNL A   1      39.857  31.458  34.485  1.00  0.00     0.037 A 
BRANCH  50  64
ATOM     64  C   UNL A   1      44.471  27.340  34.277  1.00  0.00     0.057 A 
ATOM     65  C   UNL A   1      45.796  27.798  34.279  1.00  0.00     0.134 A 
ATOM     66  C   UNL A   1      44.200  26.152  34.968  1.00  0.00     0.134 A 
ATOM     67  F   UNL A   1      46.129  28.921  33.624  1.00  0.00    -0.206 F 
ATOM     68  C   UNL A   1      46.817  27.077  34.902  1.00  0.00     0.040 A 
ATOM     69  C   UNL A   1      45.206  25.441  35.624  1.00  0.00     0.040 A 
ATOM     70  F   UNL A   1      42.954  25.657  35.012  1.00  0.00    -0.206 F 
ATOM     71  C   UNL A   1      46.521  25.896  35.580  1.00  0.00     0.006 A 
ENDBRANCH  50  64
BRANCH  51  72
ATOM     72  C   UNL A   1      36.986  31.481  29.144  1.00  0.00     0.057 A 
ATOM     73  C   UNL A   1      35.817  30.734  28.967  1.00  0.00     0.134 A 
ATOM     74  C   UNL A   1      37.005  32.781  28.623  1.00  0.00     0.134 A 
ATOM     75  F   UNL A   1      35.746  29.474  29.420  1.00  0.00    -0.206 F 
ATOM     76  C   UNL A   1      34.709  31.258  28.297  1.00  0.00     0.040 A 
ATOM     77  C   UNL A   1      35.897  33.327  27.974  1.00  0.00     0.040 A 
ATOM     78  F   UNL A   1      38.097  33.549  28.758  1.00  0.00    -0.206 F 
ATOM     79  C   UNL A   1      34.744  32.562  27.807  1.00  0.00     0.006 A 
ENDBRANCH  51  72
BRANCH  63  80
ATOM     80  C   UNL A   1      39.464  32.357  35.623  1.00  0.00     0.057 A 
ATOM     81  C   UNL A   1      39.962  33.659  35.757  1.00  0.00     0.134 A 
ATOM     82  C   UNL A   1      38.505  31.936  36.556  1.00  0.00     0.134 A 
ATOM     83  F   UNL A   1      40.889  34.124  34.906  1.00  0.00    -0.206 F 
ATOM     84  C   UNL A   1      39.529  34.503  36.783  1.00  0.00     0.040 A 
ATOM     85  C   UNL A   1      38.044  32.779  37.567  1.00  0.00     0.040 A 
ATOM     86  F   UNL A   1      37.978  30.704  36.479  1.00  0.00    -0.206 F 
ATOM     87  C   UNL A   1      38.559  34.068  37.684  1.00  0.00     0.006 A 
ENDBRANCH  63  80
ENDBRANCH  37  38
ENDBRANCH  30  32
ENDBRANCH  29  30
ENDBRANCH  28  29
ENDBRANCH  27  28
ENDBRANCH  26  27
ENDBRANCH  25  26
ENDBRANCH   1  25
TORSDOF 20
ENDMDL
