MODEL 1
REMARK VINA RESULT:     -10.8      0.000      0.000
REMARK SMILES C[C@@H]1[C@H](C(=O)OCCOCCOCCOC(=O)c2ccc(-c3c4nc(c(-c5c(F)cccc5F)c5ccc([nH]5)c(-c5c(F)cccc5F)c5nc(c(-c6c(F)cccc6F)c6ccc3[nH]6)C=C5)C=C4)cc2)CC[N@@H+]1Cc1ccc2c(c1)CCN2C
REMARK SMILES IDX 10 1 9 2 8 3 7 4 6 5 4 6 5 7 3 8 1 9 2 10 74 11 72 12 73 13
REMARK SMILES IDX 75 15 76 16 77 17 81 18 78 19 80 20 79 21 82 22 84 23 83 24
REMARK SMILES IDX 85 25 11 26 12 27 13 28 14 29 15 30 16 31 17 32 18 33 19 34
REMARK SMILES IDX 71 35 20 36 70 37 21 38 22 39 23 40 64 41 24 42 69 43 63 44
REMARK SMILES IDX 65 45 25 46 68 47 62 48 61 49 26 51 52 52 35 53 51 54 36 55
REMARK SMILES IDX 39 56 50 57 66 58 37 59 38 60 49 62 67 63 40 64 27 65 28 66
REMARK SMILES IDX 33 67 29 68 30 69 32 70 34 71 31 72 53 73 54 74 59 75 55 76
REMARK SMILES IDX 56 77 58 78 60 79 57 80 41 81 42 82 47 83 43 84 44 85 46 86
REMARK SMILES IDX 48 87 45 88
REMARK H PARENT 74 14 65 50 39 61
REMARK Flexibility Score: inf
ROOT
ATOM      1  C   UNL A   1      34.541  34.885  28.289  1.00  0.00     0.188 C 
ENDROOT
BRANCH   1   2
ATOM      2  O   UNL A   1      34.652  33.476  28.328  1.00  0.00    -0.376 OA
BRANCH   2   3
ATOM      3  C   UNL A   1      33.646  32.732  27.643  1.00  0.00     0.202 C 
BRANCH   3   4
ATOM      4  C   UNL A   1      33.823  31.212  27.563  1.00  0.00     0.261 C 
BRANCH   4   5
ATOM      5  O   UNL A   1      32.548  30.570  27.371  1.00  0.00    -0.463 OA
BRANCH   5   6
ATOM      6  C   UNL A   1      32.262  30.141  26.120  1.00  0.00     0.315 C 
ATOM      7  O   UNL A   1      31.354  30.602  25.436  1.00  0.00    -0.252 OA
BRANCH   6   8
ATOM      8  C   UNL A   1      33.299  29.176  25.564  1.00  0.00     0.162 C 
ATOM      9  C   UNL A   1      32.174  27.148  26.776  1.00  0.00     0.076 C 
ATOM     10  C   UNL A   1      33.339  27.679  25.952  1.00  0.00     0.195 C 
ATOM     11  N   UNL A   1      33.671  26.954  24.704  1.00  0.00    -0.328 N 
ATOM     12  C   UNL A   1      33.203  29.164  24.043  1.00  0.00     0.083 C 
ATOM     13  C   UNL A   1      33.946  27.911  23.642  1.00  0.00     0.263 C 
ATOM     14  H   UNL A   1      34.521  26.445  24.942  1.00  0.00     0.348 HD
BRANCH  11  15
ATOM     15  C   UNL A   1      32.959  25.728  24.325  1.00  0.00     0.299 C 
BRANCH  15  16
ATOM     16  C   UNL A   1      33.612  24.412  24.709  1.00  0.00     0.007 A 
ATOM     17  C   UNL A   1      32.905  23.450  25.475  1.00  0.00     0.012 A 
ATOM     18  C   UNL A   1      34.890  24.093  24.245  1.00  0.00     0.015 A 
ATOM     19  C   UNL A   1      33.413  22.157  25.681  1.00  0.00     0.026 A 
ATOM     20  C   UNL A   1      35.370  22.818  24.452  1.00  0.00    -0.022 A 
ATOM     21  C   UNL A   1      34.652  21.849  25.160  1.00  0.00     0.040 A 
ATOM     22  C   UNL A   1      36.607  22.199  23.896  1.00  0.00     0.059 C 
ATOM     23  N   UNL A   1      35.361  20.634  25.249  1.00  0.00    -0.374 N 
ATOM     24  C   UNL A   1      36.732  21.020  24.868  1.00  0.00     0.121 C 
ATOM     25  C   UNL A   1      34.761  19.473  24.619  1.00  0.00     0.143 C 
ENDBRANCH  15  16
ENDBRANCH  11  15
ENDBRANCH   6   8
ENDBRANCH   5   6
ENDBRANCH   4   5
ENDBRANCH   3   4
ENDBRANCH   2   3
ENDBRANCH   1   2
BRANCH   1  26
ATOM     26  C   UNL A   1      33.348  35.531  28.992  1.00  0.00     0.188 C 
BRANCH  26  27
ATOM     27  O   UNL A   1      32.907  35.150  30.278  1.00  0.00    -0.376 OA
BRANCH  27  28
ATOM     28  C   UNL A   1      33.738  35.323  31.420  1.00  0.00     0.202 C 
BRANCH  28  29
ATOM     29  C   UNL A   1      34.270  34.144  32.265  1.00  0.00     0.261 C 
BRANCH  29  30
ATOM     30  O   UNL A   1      35.425  33.468  31.773  1.00  0.00    -0.460 OA
BRANCH  30  31
ATOM     31  C   UNL A   1      36.070  32.691  32.688  1.00  0.00     0.338 C 
ATOM     32  O   UNL A   1      35.750  32.493  33.835  1.00  0.00    -0.246 OA
BRANCH  31  33
ATOM     33  C   UNL A   1      37.109  31.914  31.958  1.00  0.00     0.060 A 
ATOM     34  C   UNL A   1      37.970  31.102  32.711  1.00  0.00     0.016 A 
ATOM     35  C   UNL A   1      37.167  31.898  30.563  1.00  0.00     0.016 A 
ATOM     36  C   UNL A   1      38.920  30.302  32.071  1.00  0.00     0.010 A 
ATOM     37  C   UNL A   1      38.129  31.112  29.923  1.00  0.00     0.010 A 
ATOM     38  C   UNL A   1      39.033  30.338  30.675  1.00  0.00    -0.014 A 
BRANCH  38  39
ATOM     39  C   UNL A   1      40.233  29.776  30.006  1.00  0.00     0.031 A 
ATOM     40  C   UNL A   1      41.396  30.702  29.774  1.00  0.00     0.074 A 
ATOM     41  C   UNL A   1      40.301  28.495  29.606  1.00  0.00     0.049 A 
ATOM     42  N   UNL A   1      42.507  30.498  29.115  1.00  0.00    -0.248 NA
ATOM     43  C   UNL A   1      41.280  32.048  30.362  1.00  0.00     0.031 C 
ATOM     44  C   UNL A   1      39.272  27.480  29.815  1.00  0.00     0.029 A 
ATOM     45  N   UNL A   1      41.291  27.834  28.918  1.00  0.00    -0.354 N 
ATOM     46  C   UNL A   1      43.216  31.689  29.203  1.00  0.00     0.074 A 
ATOM     47  C   UNL A   1      42.398  32.621  29.946  1.00  0.00     0.031 C 
ATOM     48  C   UNL A   1      39.678  26.326  29.251  1.00  0.00     0.029 A 
ATOM     49  C   UNL A   1      40.976  26.534  28.609  1.00  0.00     0.049 A 
ATOM     50  H   UNL A   1      42.147  28.254  28.670  1.00  0.00     0.167 HD
ATOM     51  C   UNL A   1      44.445  31.980  28.718  1.00  0.00     0.037 A 
ATOM     52  C   UNL A   1      41.648  25.629  27.868  1.00  0.00     0.037 A 
ATOM     53  C   UNL A   1      45.259  31.059  27.971  1.00  0.00     0.049 A 
ATOM     54  C   UNL A   1      42.971  26.010  27.249  1.00  0.00     0.074 A 
ATOM     55  C   UNL A   1      46.517  31.261  27.435  1.00  0.00     0.029 A 
ATOM     56  N   UNL A   1      44.888  29.762  27.652  1.00  0.00    -0.354 N 
ATOM     57  N   UNL A   1      43.641  27.133  27.345  1.00  0.00    -0.248 NA
ATOM     58  C   UNL A   1      43.631  24.993  26.414  1.00  0.00     0.031 C 
ATOM     59  C   UNL A   1      46.888  30.102  26.745  1.00  0.00     0.029 A 
ATOM     60  C   UNL A   1      45.885  29.159  26.904  1.00  0.00     0.049 A 
ATOM     61  H   UNL A   1      44.042  29.333  27.917  1.00  0.00     0.167 HD
ATOM     62  C   UNL A   1      44.814  26.944  26.621  1.00  0.00     0.074 A 
ATOM     63  C   UNL A   1      44.769  25.595  26.098  1.00  0.00     0.031 C 
ATOM     64  C   UNL A   1      45.837  27.807  26.407  1.00  0.00     0.037 A 
BRANCH  51  65
ATOM     65  C   UNL A   1      44.971  33.365  28.960  1.00  0.00     0.057 A 
ATOM     66  C   UNL A   1      45.777  33.667  30.066  1.00  0.00     0.134 A 
ATOM     67  C   UNL A   1      44.688  34.402  28.063  1.00  0.00     0.134 A 
ATOM     68  F   UNL A   1      46.068  32.723  30.974  1.00  0.00    -0.206 F 
ATOM     69  C   UNL A   1      46.262  34.958  30.283  1.00  0.00     0.040 A 
ATOM     70  C   UNL A   1      45.193  35.689  28.253  1.00  0.00     0.040 A 
ATOM     71  F   UNL A   1      43.923  34.180  26.983  1.00  0.00    -0.206 F 
ATOM     72  C   UNL A   1      45.977  35.970  29.370  1.00  0.00     0.006 A 
ENDBRANCH  51  65
BRANCH  52  73
ATOM     73  C   UNL A   1      41.084  24.272  27.638  1.00  0.00     0.057 A 
ATOM     74  C   UNL A   1      41.614  23.148  28.285  1.00  0.00     0.134 A 
ATOM     75  C   UNL A   1      40.044  24.056  26.726  1.00  0.00     0.134 A 
ATOM     76  F   UNL A   1      42.632  23.284  29.148  1.00  0.00    -0.206 F 
ATOM     77  C   UNL A   1      41.151  21.859  28.014  1.00  0.00     0.040 A 
ATOM     78  C   UNL A   1      39.550  22.776  26.468  1.00  0.00     0.040 A 
ATOM     79  F   UNL A   1      39.495  25.087  26.068  1.00  0.00    -0.206 F 
ATOM     80  C   UNL A   1      40.112  21.671  27.105  1.00  0.00     0.006 A 
ENDBRANCH  52  73
BRANCH  64  81
ATOM     81  C   UNL A   1      47.020  27.309  25.626  1.00  0.00     0.057 A 
ATOM     82  C   UNL A   1      47.164  27.552  24.254  1.00  0.00     0.134 A 
ATOM     83  C   UNL A   1      48.056  26.619  26.270  1.00  0.00     0.134 A 
ATOM     84  F   UNL A   1      46.206  28.199  23.574  1.00  0.00    -0.206 F 
ATOM     85  C   UNL A   1      48.283  27.106  23.547  1.00  0.00     0.040 A 
ATOM     86  C   UNL A   1      49.192  26.193  25.580  1.00  0.00     0.040 A 
ATOM     87  F   UNL A   1      47.989  26.362  27.586  1.00  0.00    -0.206 F 
ATOM     88  C   UNL A   1      49.304  26.431  24.213  1.00  0.00     0.006 A 
ENDBRANCH  64  81
ENDBRANCH  38  39
ENDBRANCH  31  33
ENDBRANCH  30  31
ENDBRANCH  29  30
ENDBRANCH  28  29
ENDBRANCH  27  28
ENDBRANCH  26  27
ENDBRANCH   1  26
TORSDOF 19
ENDMDL
MODEL 2
REMARK VINA RESULT:     -10.0      4.138      9.204
REMARK SMILES C[C@@H]1[C@H](C(=O)OCCOCCOCCOC(=O)c2ccc(-c3c4nc(c(-c5c(F)cccc5F)c5ccc([nH]5)c(-c5c(F)cccc5F)c5nc(c(-c6c(F)cccc6F)c6ccc3[nH]6)C=C5)C=C4)cc2)CC[N@@H+]1Cc1ccc2c(c1)CCN2C
REMARK SMILES IDX 10 1 9 2 8 3 7 4 6 5 4 6 5 7 3 8 1 9 2 10 74 11 72 12 73 13
REMARK SMILES IDX 75 15 76 16 77 17 81 18 78 19 80 20 79 21 82 22 84 23 83 24
REMARK SMILES IDX 85 25 11 26 12 27 13 28 14 29 15 30 16 31 17 32 18 33 19 34
REMARK SMILES IDX 71 35 20 36 70 37 21 38 22 39 23 40 64 41 24 42 69 43 63 44
REMARK SMILES IDX 65 45 25 46 68 47 62 48 61 49 26 51 52 52 35 53 51 54 36 55
REMARK SMILES IDX 39 56 50 57 66 58 37 59 38 60 49 62 67 63 40 64 27 65 28 66
REMARK SMILES IDX 33 67 29 68 30 69 32 70 34 71 31 72 53 73 54 74 59 75 55 76
REMARK SMILES IDX 56 77 58 78 60 79 57 80 41 81 42 82 47 83 43 84 44 85 46 86
REMARK SMILES IDX 48 87 45 88
REMARK H PARENT 74 14 65 50 39 61
REMARK Flexibility Score: inf
ROOT
ATOM      1  C   UNL A   1      39.851  21.982  26.130  1.00  0.00     0.188 C 
ENDROOT
BRANCH   1   2
ATOM      2  O   UNL A   1      38.470  22.178  26.357  1.00  0.00    -0.376 OA
BRANCH   2   3
ATOM      3  C   UNL A   1      37.830  23.198  25.593  1.00  0.00     0.202 C 
BRANCH   3   4
ATOM      4  C   UNL A   1      36.908  22.755  24.452  1.00  0.00     0.261 C 
BRANCH   4   5
ATOM      5  O   UNL A   1      35.529  22.870  24.850  1.00  0.00    -0.463 OA
BRANCH   5   6
ATOM      6  C   UNL A   1      34.931  21.749  25.315  1.00  0.00     0.315 C 
ATOM      7  O   UNL A   1      35.508  20.902  25.990  1.00  0.00    -0.252 OA
BRANCH   6   8
ATOM      8  C   UNL A   1      33.425  21.736  25.095  1.00  0.00     0.162 C 
ATOM      9  C   UNL A   1      32.977  22.322  27.606  1.00  0.00     0.076 C 
ATOM     10  C   UNL A   1      32.412  21.926  26.248  1.00  0.00     0.195 C 
ATOM     11  N   UNL A   1      31.332  22.774  25.693  1.00  0.00    -0.328 N 
ATOM     12  C   UNL A   1      33.058  22.825  24.094  1.00  0.00     0.083 C 
ATOM     13  C   UNL A   1      31.568  22.997  24.274  1.00  0.00     0.263 C 
ATOM     14  H   UNL A   1      30.494  22.207  25.821  1.00  0.00     0.348 HD
BRANCH  11  15
ATOM     15  C   UNL A   1      30.775  23.896  26.459  1.00  0.00     0.299 C 
BRANCH  15  16
ATOM     16  C   UNL A   1      31.103  25.292  25.960  1.00  0.00     0.007 A 
ATOM     17  C   UNL A   1      32.351  25.893  26.265  1.00  0.00     0.012 A 
ATOM     18  C   UNL A   1      30.216  25.973  25.125  1.00  0.00     0.015 A 
ATOM     19  C   UNL A   1      32.754  27.096  25.663  1.00  0.00     0.026 A 
ATOM     20  C   UNL A   1      30.630  27.150  24.539  1.00  0.00    -0.022 A 
ATOM     21  C   UNL A   1      31.882  27.718  24.794  1.00  0.00     0.040 A 
ATOM     22  C   UNL A   1      29.939  27.945  23.484  1.00  0.00     0.059 C 
ATOM     23  N   UNL A   1      32.061  28.926  24.090  1.00  0.00    -0.374 N 
ATOM     24  C   UNL A   1      30.692  29.268  23.662  1.00  0.00     0.121 C 
ATOM     25  C   UNL A   1      33.130  28.964  23.109  1.00  0.00     0.143 C 
ENDBRANCH  15  16
ENDBRANCH  11  15
ENDBRANCH   6   8
ENDBRANCH   5   6
ENDBRANCH   4   5
ENDBRANCH   3   4
ENDBRANCH   2   3
ENDBRANCH   1   2
BRANCH   1  26
ATOM     26  C   UNL A   1      40.681  21.359  27.251  1.00  0.00     0.188 C 
BRANCH  26  27
ATOM     27  O   UNL A   1      40.786  19.965  27.455  1.00  0.00    -0.376 OA
BRANCH  27  28
ATOM     28  C   UNL A   1      42.049  19.311  27.422  1.00  0.00     0.202 C 
BRANCH  28  29
ATOM     29  C   UNL A   1      42.596  18.590  26.169  1.00  0.00     0.261 C 
BRANCH  29  30
ATOM     30  O   UNL A   1      42.843  19.395  25.018  1.00  0.00    -0.460 OA
BRANCH  30  31
ATOM     31  C   UNL A   1      44.160  19.583  24.721  1.00  0.00     0.338 C 
ATOM     32  O   UNL A   1      44.895  18.821  24.140  1.00  0.00    -0.246 OA
BRANCH  31  33
ATOM     33  C   UNL A   1      44.482  21.007  25.011  1.00  0.00     0.060 A 
ATOM     34  C   UNL A   1      45.015  21.315  26.271  1.00  0.00     0.016 A 
ATOM     35  C   UNL A   1      44.367  21.998  24.035  1.00  0.00     0.016 A 
ATOM     36  C   UNL A   1      45.395  22.625  26.572  1.00  0.00     0.010 A 
ATOM     37  C   UNL A   1      44.729  23.312  24.341  1.00  0.00     0.010 A 
ATOM     38  C   UNL A   1      45.212  23.638  25.622  1.00  0.00    -0.014 A 
BRANCH  38  39
ATOM     39  C   UNL A   1      45.284  25.065  26.025  1.00  0.00     0.031 A 
ATOM     40  C   UNL A   1      46.629  25.738  25.959  1.00  0.00     0.074 A 
ATOM     41  C   UNL A   1      44.207  25.751  26.444  1.00  0.00     0.049 A 
ATOM     42  N   UNL A   1      46.987  26.929  26.359  1.00  0.00    -0.248 NA
ATOM     43  C   UNL A   1      47.721  24.946  25.366  1.00  0.00     0.031 C 
ATOM     44  C   UNL A   1      42.841  25.240  26.506  1.00  0.00     0.029 A 
ATOM     45  N   UNL A   1      44.107  27.038  26.915  1.00  0.00    -0.354 N 
ATOM     46  C   UNL A   1      48.342  27.028  26.073  1.00  0.00     0.074 A 
ATOM     47  C   UNL A   1      48.751  25.765  25.500  1.00  0.00     0.031 C 
ATOM     48  C   UNL A   1      42.039  26.200  27.004  1.00  0.00     0.029 A 
ATOM     49  C   UNL A   1      42.843  27.377  27.332  1.00  0.00     0.049 A 
ATOM     50  H   UNL A   1      44.870  27.660  26.951  1.00  0.00     0.167 HD
ATOM     51  C   UNL A   1      49.173  28.079  26.261  1.00  0.00     0.037 A 
ATOM     52  C   UNL A   1      42.397  28.498  27.935  1.00  0.00     0.037 A 
ATOM     53  C   UNL A   1      48.772  29.334  26.838  1.00  0.00     0.049 A 
ATOM     54  C   UNL A   1      43.366  29.619  28.228  1.00  0.00     0.074 A 
ATOM     55  C   UNL A   1      49.541  30.459  27.072  1.00  0.00     0.029 A 
ATOM     56  N   UNL A   1      47.490  29.623  27.277  1.00  0.00    -0.354 N 
ATOM     57  N   UNL A   1      44.643  29.710  27.946  1.00  0.00    -0.248 NA
ATOM     58  C   UNL A   1      42.826  30.796  28.929  1.00  0.00     0.031 C 
ATOM     59  C   UNL A   1      48.737  31.414  27.701  1.00  0.00     0.029 A 
ATOM     60  C   UNL A   1      47.452  30.904  27.803  1.00  0.00     0.049 A 
ATOM     61  H   UNL A   1      46.720  29.011  27.223  1.00  0.00     0.167 HD
ATOM     62  C   UNL A   1      45.047  30.963  28.396  1.00  0.00     0.074 A 
ATOM     63  C   UNL A   1      43.879  31.601  28.962  1.00  0.00     0.031 C 
ATOM     64  C   UNL A   1      46.276  31.536  28.345  1.00  0.00     0.037 A 
BRANCH  51  65
ATOM     65  C   UNL A   1      50.609  27.903  25.859  1.00  0.00     0.057 A 
ATOM     66  C   UNL A   1      51.619  27.678  26.804  1.00  0.00     0.134 A 
ATOM     67  C   UNL A   1      50.980  27.934  24.510  1.00  0.00     0.134 A 
ATOM     68  F   UNL A   1      51.332  27.657  28.115  1.00  0.00    -0.206 F 
ATOM     69  C   UNL A   1      52.951  27.514  26.422  1.00  0.00     0.040 A 
ATOM     70  C   UNL A   1      52.304  27.741  24.113  1.00  0.00     0.040 A 
ATOM     71  F   UNL A   1      50.062  28.145  23.554  1.00  0.00    -0.206 F 
ATOM     72  C   UNL A   1      53.295  27.537  25.072  1.00  0.00     0.006 A 
ENDBRANCH  51  65
BRANCH  52  73
ATOM     73  C   UNL A   1      40.970  28.627  28.332  1.00  0.00     0.057 A 
ATOM     74  C   UNL A   1      40.551  28.335  29.637  1.00  0.00     0.134 A 
ATOM     75  C   UNL A   1      39.982  28.986  27.407  1.00  0.00     0.134 A 
ATOM     76  F   UNL A   1      41.445  27.954  30.562  1.00  0.00    -0.206 F 
ATOM     77  C   UNL A   1      39.204  28.369  30.000  1.00  0.00     0.040 A 
ATOM     78  C   UNL A   1      38.634  29.055  27.764  1.00  0.00     0.040 A 
ATOM     79  F   UNL A   1      40.313  29.274  26.140  1.00  0.00    -0.206 F 
ATOM     80  C   UNL A   1      38.241  28.734  29.062  1.00  0.00     0.006 A 
ENDBRANCH  52  73
BRANCH  64  81
ATOM     81  C   UNL A   1      46.413  32.942  28.859  1.00  0.00     0.057 A 
ATOM     82  C   UNL A   1      46.771  33.219  30.184  1.00  0.00     0.134 A 
ATOM     83  C   UNL A   1      46.232  34.032  27.997  1.00  0.00     0.134 A 
ATOM     84  F   UNL A   1      46.950  32.223  31.063  1.00  0.00    -0.206 F 
ATOM     85  C   UNL A   1      46.921  34.531  30.639  1.00  0.00     0.040 A 
ATOM     86  C   UNL A   1      46.408  35.346  28.433  1.00  0.00     0.040 A 
ATOM     87  F   UNL A   1      45.900  33.838  26.711  1.00  0.00    -0.206 F 
ATOM     88  C   UNL A   1      46.747  35.598  29.759  1.00  0.00     0.006 A 
ENDBRANCH  64  81
ENDBRANCH  38  39
ENDBRANCH  31  33
ENDBRANCH  30  31
ENDBRANCH  29  30
ENDBRANCH  28  29
ENDBRANCH  27  28
ENDBRANCH  26  27
ENDBRANCH   1  26
TORSDOF 19
ENDMDL
MODEL 3
REMARK VINA RESULT:      -9.9      4.034      9.163
REMARK SMILES C[C@@H]1[C@H](C(=O)OCCOCCOCCOC(=O)c2ccc(-c3c4nc(c(-c5c(F)cccc5F)c5ccc([nH]5)c(-c5c(F)cccc5F)c5nc(c(-c6c(F)cccc6F)c6ccc3[nH]6)C=C5)C=C4)cc2)CC[N@@H+]1Cc1ccc2c(c1)CCN2C
REMARK SMILES IDX 10 1 9 2 8 3 7 4 6 5 4 6 5 7 3 8 1 9 2 10 74 11 72 12 73 13
REMARK SMILES IDX 75 15 76 16 77 17 81 18 78 19 80 20 79 21 82 22 84 23 83 24
REMARK SMILES IDX 85 25 11 26 12 27 13 28 14 29 15 30 16 31 17 32 18 33 19 34
REMARK SMILES IDX 71 35 20 36 70 37 21 38 22 39 23 40 64 41 24 42 69 43 63 44
REMARK SMILES IDX 65 45 25 46 68 47 62 48 61 49 26 51 52 52 35 53 51 54 36 55
REMARK SMILES IDX 39 56 50 57 66 58 37 59 38 60 49 62 67 63 40 64 27 65 28 66
REMARK SMILES IDX 33 67 29 68 30 69 32 70 34 71 31 72 53 73 54 74 59 75 55 76
REMARK SMILES IDX 56 77 58 78 60 79 57 80 41 81 42 82 47 83 43 84 44 85 46 86
REMARK SMILES IDX 48 87 45 88
REMARK H PARENT 74 14 65 50 39 61
REMARK Flexibility Score: inf
ROOT
ATOM      1  C   UNL A   1      39.024  21.355  25.601  1.00  0.00     0.188 C 
ENDROOT
BRANCH   1   2
ATOM      2  O   UNL A   1      37.724  21.797  25.938  1.00  0.00    -0.376 OA
BRANCH   2   3
ATOM      3  C   UNL A   1      37.371  23.121  25.541  1.00  0.00     0.202 C 
BRANCH   3   4
ATOM      4  C   UNL A   1      36.682  23.293  24.184  1.00  0.00     0.261 C 
BRANCH   4   5
ATOM      5  O   UNL A   1      35.294  23.630  24.367  1.00  0.00    -0.463 OA
BRANCH   5   6
ATOM      6  C   UNL A   1      34.387  22.674  24.057  1.00  0.00     0.315 C 
ATOM      7  O   UNL A   1      34.342  21.577  24.605  1.00  0.00    -0.252 OA
BRANCH   6   8
ATOM      8  C   UNL A   1      33.301  23.163  23.108  1.00  0.00     0.162 C 
ATOM      9  C   UNL A   1      31.472  22.937  24.967  1.00  0.00     0.076 C 
ATOM     10  C   UNL A   1      31.807  23.215  23.508  1.00  0.00     0.195 C 
ATOM     11  N   UNL A   1      31.283  24.470  22.921  1.00  0.00    -0.328 N 
ATOM     12  C   UNL A   1      33.621  24.589  22.677  1.00  0.00     0.083 C 
ATOM     13  C   UNL A   1      32.317  25.098  22.110  1.00  0.00     0.263 C 
ATOM     14  H   UNL A   1      30.518  24.155  22.325  1.00  0.00     0.348 HD
BRANCH  11  15
ATOM     15  C   UNL A   1      30.409  25.363  23.691  1.00  0.00     0.299 C 
BRANCH  15  16
ATOM     16  C   UNL A   1      31.028  26.651  24.202  1.00  0.00     0.007 A 
ATOM     17  C   UNL A   1      30.911  27.854  23.458  1.00  0.00     0.012 A 
ATOM     18  C   UNL A   1      31.652  26.693  25.451  1.00  0.00     0.015 A 
ATOM     19  C   UNL A   1      31.306  29.090  23.992  1.00  0.00     0.026 A 
ATOM     20  C   UNL A   1      32.028  27.916  25.962  1.00  0.00    -0.022 A 
ATOM     21  C   UNL A   1      31.864  29.111  25.254  1.00  0.00     0.040 A 
ATOM     22  C   UNL A   1      32.533  28.225  27.330  1.00  0.00     0.059 C 
ATOM     23  N   UNL A   1      32.341  30.219  25.981  1.00  0.00    -0.374 N 
ATOM     24  C   UNL A   1      33.155  29.596  27.042  1.00  0.00     0.121 C 
ATOM     25  C   UNL A   1      31.370  31.233  26.350  1.00  0.00     0.143 C 
ENDBRANCH  15  16
ENDBRANCH  11  15
ENDBRANCH   6   8
ENDBRANCH   5   6
ENDBRANCH   4   5
ENDBRANCH   3   4
ENDBRANCH   2   3
ENDBRANCH   1   2
BRANCH   1  26
ATOM     26  C   UNL A   1      40.133  21.533  26.637  1.00  0.00     0.188 C 
BRANCH  26  27
ATOM     27  O   UNL A   1      40.580  20.492  27.480  1.00  0.00    -0.376 OA
BRANCH  27  28
ATOM     28  C   UNL A   1      41.868  19.912  27.312  1.00  0.00     0.202 C 
BRANCH  28  29
ATOM     29  C   UNL A   1      42.197  18.895  26.196  1.00  0.00     0.261 C 
BRANCH  29  30
ATOM     30  O   UNL A   1      42.691  19.423  24.967  1.00  0.00    -0.460 OA
BRANCH  30  31
ATOM     31  C   UNL A   1      44.044  19.585  24.913  1.00  0.00     0.338 C 
ATOM     32  O   UNL A   1      44.863  18.781  24.540  1.00  0.00    -0.246 OA
BRANCH  31  33
ATOM     33  C   UNL A   1      44.328  21.026  25.156  1.00  0.00     0.060 A 
ATOM     34  C   UNL A   1      45.173  21.357  26.226  1.00  0.00     0.016 A 
ATOM     35  C   UNL A   1      43.866  22.021  24.292  1.00  0.00     0.016 A 
ATOM     36  C   UNL A   1      45.525  22.688  26.457  1.00  0.00     0.010 A 
ATOM     37  C   UNL A   1      44.202  23.354  24.534  1.00  0.00     0.010 A 
ATOM     38  C   UNL A   1      45.005  23.698  25.639  1.00  0.00    -0.014 A 
BRANCH  38  39
ATOM     39  C   UNL A   1      45.082  25.119  26.060  1.00  0.00     0.031 A 
ATOM     40  C   UNL A   1      46.427  25.791  25.991  1.00  0.00     0.074 A 
ATOM     41  C   UNL A   1      44.010  25.801  26.498  1.00  0.00     0.049 A 
ATOM     42  N   UNL A   1      46.790  26.977  26.404  1.00  0.00    -0.248 NA
ATOM     43  C   UNL A   1      47.513  25.006  25.377  1.00  0.00     0.031 C 
ATOM     44  C   UNL A   1      42.644  25.291  26.566  1.00  0.00     0.029 A 
ATOM     45  N   UNL A   1      43.916  27.082  26.988  1.00  0.00    -0.354 N 
ATOM     46  C   UNL A   1      48.143  27.077  26.107  1.00  0.00     0.074 A 
ATOM     47  C   UNL A   1      48.546  25.822  25.513  1.00  0.00     0.031 C 
ATOM     48  C   UNL A   1      41.848  26.245  27.085  1.00  0.00     0.029 A 
ATOM     49  C   UNL A   1      42.656  27.416  27.421  1.00  0.00     0.049 A 
ATOM     50  H   UNL A   1      44.681  27.702  27.025  1.00  0.00     0.167 HD
ATOM     51  C   UNL A   1      48.977  28.125  26.301  1.00  0.00     0.037 A 
ATOM     52  C   UNL A   1      42.218  28.530  28.043  1.00  0.00     0.037 A 
ATOM     53  C   UNL A   1      48.583  29.372  26.899  1.00  0.00     0.049 A 
ATOM     54  C   UNL A   1      43.190  29.645  28.343  1.00  0.00     0.074 A 
ATOM     55  C   UNL A   1      49.356  30.493  27.141  1.00  0.00     0.029 A 
ATOM     56  N   UNL A   1      47.306  29.657  27.354  1.00  0.00    -0.354 N 
ATOM     57  N   UNL A   1      44.465  29.739  28.050  1.00  0.00    -0.248 NA
ATOM     58  C   UNL A   1      42.659  30.813  29.065  1.00  0.00     0.031 C 
ATOM     59  C   UNL A   1      48.559  31.440  27.791  1.00  0.00     0.029 A 
ATOM     60  C   UNL A   1      47.274  30.931  27.898  1.00  0.00     0.049 A 
ATOM     61  H   UNL A   1      46.535  29.047  27.298  1.00  0.00     0.167 HD
ATOM     62  C   UNL A   1      44.876  30.985  28.514  1.00  0.00     0.074 A 
ATOM     63  C   UNL A   1      43.713  31.616  29.099  1.00  0.00     0.031 C 
ATOM     64  C   UNL A   1      46.104  31.556  28.459  1.00  0.00     0.037 A 
BRANCH  51  65
ATOM     65  C   UNL A   1      50.409  27.952  25.884  1.00  0.00     0.057 A 
ATOM     66  C   UNL A   1      50.795  27.983  24.537  1.00  0.00     0.134 A 
ATOM     67  C   UNL A   1      51.414  27.777  26.842  1.00  0.00     0.134 A 
ATOM     68  F   UNL A   1      49.877  28.128  23.569  1.00  0.00    -0.206 F 
ATOM     69  C   UNL A   1      52.129  27.823  24.158  1.00  0.00     0.040 A 
ATOM     70  C   UNL A   1      52.755  27.646  26.477  1.00  0.00     0.040 A 
ATOM     71  F   UNL A   1      51.112  27.738  28.149  1.00  0.00    -0.206 F 
ATOM     72  C   UNL A   1      53.114  27.662  25.130  1.00  0.00     0.006 A 
ENDBRANCH  51  65
BRANCH  52  73
ATOM     73  C   UNL A   1      40.794  28.655  28.455  1.00  0.00     0.057 A 
ATOM     74  C   UNL A   1      39.810  29.061  27.545  1.00  0.00     0.134 A 
ATOM     75  C   UNL A   1      40.393  28.430  29.778  1.00  0.00     0.134 A 
ATOM     76  F   UNL A   1      40.136  29.323  26.271  1.00  0.00    -0.206 F 
ATOM     77  C   UNL A   1      38.486  29.265  27.939  1.00  0.00     0.040 A 
ATOM     78  C   UNL A   1      39.066  28.600  30.179  1.00  0.00     0.040 A 
ATOM     79  F   UNL A   1      41.285  28.045  30.701  1.00  0.00    -0.206 F 
ATOM     80  C   UNL A   1      38.110  29.030  29.260  1.00  0.00     0.006 A 
ENDBRANCH  52  73
BRANCH  64  81
ATOM     81  C   UNL A   1      46.248  32.955  28.991  1.00  0.00     0.057 A 
ATOM     82  C   UNL A   1      46.024  34.083  28.191  1.00  0.00     0.134 A 
ATOM     83  C   UNL A   1      46.567  33.172  30.338  1.00  0.00     0.134 A 
ATOM     84  F   UNL A   1      45.724  33.947  26.891  1.00  0.00    -0.206 F 
ATOM     85  C   UNL A   1      46.135  35.376  28.707  1.00  0.00     0.040 A 
ATOM     86  C   UNL A   1      46.652  34.459  30.872  1.00  0.00     0.040 A 
ATOM     87  F   UNL A   1      46.783  32.136  31.163  1.00  0.00    -0.206 F 
ATOM     88  C   UNL A   1      46.443  35.566  30.053  1.00  0.00     0.006 A 
ENDBRANCH  64  81
ENDBRANCH  38  39
ENDBRANCH  31  33
ENDBRANCH  30  31
ENDBRANCH  29  30
ENDBRANCH  28  29
ENDBRANCH  27  28
ENDBRANCH  26  27
ENDBRANCH   1  26
TORSDOF 19
ENDMDL
