MODEL 1
REMARK VINA RESULT:     -10.9      0.000      0.000
REMARK SMILES C[C@H](Nc1cccc(F)c1C(=O)OCCOCCOCCOC(=O)c1ccc(-c2c3nc(c(-c4c(F)cccc4F)c4ccc([nH]4)c(-c4c(F)cccc4F)c4nc(c(-c5c(F)cccc5F)c5ccc2[nH]5)C=C4)C=C3)cc1)c1cccc(Cl)c1
REMARK SMILES IDX 17 1 16 2 15 3 14 4 13 5 11 6 12 7 10 8 4 9 5 10 6 11 8 12
REMARK SMILES IDX 7 13 9 14 3 15 2 17 1 18 79 19 80 20 85 21 81 22 83 23 82 24
REMARK SMILES IDX 84 25 18 26 19 27 20 28 21 29 22 30 23 31 24 32 25 33 26 34
REMARK SMILES IDX 78 35 27 36 77 37 28 38 29 39 30 40 71 41 31 42 76 43 70 44
REMARK SMILES IDX 72 45 32 46 75 47 69 48 68 49 33 51 59 52 42 53 58 54 43 55
REMARK SMILES IDX 46 56 57 57 73 58 44 59 45 60 56 62 74 63 47 64 34 65 35 66
REMARK SMILES IDX 40 67 36 68 37 69 39 70 41 71 38 72 60 73 61 74 66 75 62 76
REMARK SMILES IDX 63 77 65 78 67 79 64 80 48 81 49 82 54 83 50 84 51 85 53 86
REMARK SMILES IDX 55 87 52 88
REMARK H PARENT 3 16 72 50 46 61
REMARK Flexibility Score: inf
ROOT
ATOM      1  C   UNL A   1      41.343  21.073  27.307  1.00  0.00     0.188 C 
ENDROOT
BRANCH   1   2
ATOM      2  O   UNL A   1      40.033  21.603  27.345  1.00  0.00    -0.376 OA
BRANCH   2   3
ATOM      3  C   UNL A   1      39.413  22.083  26.162  1.00  0.00     0.202 C 
BRANCH   3   4
ATOM      4  C   UNL A   1      38.273  21.322  25.479  1.00  0.00     0.261 C 
BRANCH   4   5
ATOM      5  O   UNL A   1      36.968  21.847  25.752  1.00  0.00    -0.460 OA
BRANCH   5   6
ATOM      6  C   UNL A   1      36.196  22.050  24.648  1.00  0.00     0.343 C 
ATOM      7  O   UNL A   1      36.558  22.533  23.602  1.00  0.00    -0.246 OA
BRANCH   6   8
ATOM      8  C   UNL A   1      34.894  21.365  24.806  1.00  0.00     0.118 A 
ATOM      9  C   UNL A   1      33.720  22.130  25.012  1.00  0.00     0.052 A 
ATOM     10  C   UNL A   1      32.504  21.446  25.162  1.00  0.00     0.027 A 
ATOM     11  C   UNL A   1      32.456  20.049  25.133  1.00  0.00     0.005 A 
ATOM     12  C   UNL A   1      34.838  19.975  24.780  1.00  0.00     0.139 A 
ATOM     13  C   UNL A   1      33.625  19.314  24.948  1.00  0.00     0.040 A 
ATOM     14  F   UNL A   1      35.950  19.243  24.624  1.00  0.00    -0.206 F 
BRANCH   9  15
ATOM     15  N   UNL A   1      33.761  23.531  25.122  1.00  0.00    -0.378 N 
ATOM     16  H   UNL A   1      34.612  24.022  25.051  1.00  0.00     0.161 HD
BRANCH  15  17
ATOM     17  C   UNL A   1      32.494  24.237  25.344  1.00  0.00     0.106 C 
ATOM     18  C   UNL A   1      32.094  24.086  26.826  1.00  0.00     0.036 C 
BRANCH  17  19
ATOM     19  C   UNL A   1      32.604  25.734  25.064  1.00  0.00    -0.025 A 
ATOM     20  C   UNL A   1      33.355  26.277  24.011  1.00  0.00     0.006 A 
ATOM     21  C   UNL A   1      32.061  26.616  26.018  1.00  0.00     0.026 A 
ATOM     22  C   UNL A   1      33.651  27.640  23.982  1.00  0.00     0.002 A 
ATOM     23  C   UNL A   1      32.358  27.973  25.983  1.00  0.00     0.041 A 
ATOM     24  C   UNL A   1      33.167  28.488  24.979  1.00  0.00     0.020 A 
ATOM     25  Cl  UNL A   1      31.791  28.984  27.252  1.00  0.00    -0.084 Cl
ENDBRANCH  17  19
ENDBRANCH  15  17
ENDBRANCH   9  15
ENDBRANCH   6   8
ENDBRANCH   5   6
ENDBRANCH   4   5
ENDBRANCH   3   4
ENDBRANCH   2   3
ENDBRANCH   1   2
BRANCH   1  26
ATOM     26  C   UNL A   1      41.771  20.088  26.200  1.00  0.00     0.188 C 
BRANCH  26  27
ATOM     27  O   UNL A   1      42.891  20.344  25.380  1.00  0.00    -0.376 OA
BRANCH  27  28
ATOM     28  C   UNL A   1      43.729  21.453  25.653  1.00  0.00     0.202 C 
BRANCH  28  29
ATOM     29  C   UNL A   1      44.078  22.486  24.576  1.00  0.00     0.261 C 
BRANCH  29  30
ATOM     30  O   UNL A   1      43.368  23.729  24.661  1.00  0.00    -0.460 OA
BRANCH  30  31
ATOM     31  C   UNL A   1      44.112  24.786  25.063  1.00  0.00     0.338 C 
ATOM     32  O   UNL A   1      45.196  25.144  24.626  1.00  0.00    -0.246 OA
BRANCH  31  33
ATOM     33  C   UNL A   1      43.364  25.569  26.059  1.00  0.00     0.060 A 
ATOM     34  C   UNL A   1      43.686  26.921  26.239  1.00  0.00     0.016 A 
ATOM     35  C   UNL A   1      42.419  24.947  26.873  1.00  0.00     0.016 A 
ATOM     36  C   UNL A   1      43.075  27.651  27.260  1.00  0.00     0.010 A 
ATOM     37  C   UNL A   1      41.829  25.672  27.911  1.00  0.00     0.010 A 
ATOM     38  C   UNL A   1      42.174  27.018  28.128  1.00  0.00    -0.014 A 
BRANCH  38  39
ATOM     39  C   UNL A   1      41.700  27.712  29.348  1.00  0.00     0.031 A 
ATOM     40  C   UNL A   1      40.454  28.544  29.277  1.00  0.00     0.074 A 
ATOM     41  C   UNL A   1      42.390  27.643  30.500  1.00  0.00     0.049 A 
ATOM     42  N   UNL A   1      39.915  29.299  30.198  1.00  0.00    -0.248 NA
ATOM     43  C   UNL A   1      39.743  28.555  27.989  1.00  0.00     0.031 C 
ATOM     44  C   UNL A   1      43.639  26.916  30.677  1.00  0.00     0.029 A 
ATOM     45  N   UNL A   1      42.144  28.203  31.730  1.00  0.00    -0.354 N 
ATOM     46  C   UNL A   1      38.828  29.910  29.592  1.00  0.00     0.074 A 
ATOM     47  C   UNL A   1      38.779  29.434  28.225  1.00  0.00     0.031 C 
ATOM     48  C   UNL A   1      44.036  27.055  31.952  1.00  0.00     0.029 A 
ATOM     49  C   UNL A   1      43.073  27.864  32.684  1.00  0.00     0.049 A 
ATOM     50  H   UNL A   1      41.374  28.789  31.911  1.00  0.00     0.167 HD
ATOM     51  C   UNL A   1      37.963  30.804  30.125  1.00  0.00     0.037 A 
ATOM     52  C   UNL A   1      43.140  28.163  33.997  1.00  0.00     0.037 A 
ATOM     53  C   UNL A   1      38.017  31.277  31.483  1.00  0.00     0.049 A 
ATOM     54  C   UNL A   1      42.126  29.106  34.580  1.00  0.00     0.074 A 
ATOM     55  C   UNL A   1      37.184  32.191  32.106  1.00  0.00     0.029 A 
ATOM     56  N   UNL A   1      38.950  30.877  32.427  1.00  0.00    -0.354 N 
ATOM     57  N   UNL A   1      41.100  29.675  33.997  1.00  0.00    -0.248 NA
ATOM     58  C   UNL A   1      42.301  29.484  35.991  1.00  0.00     0.031 C 
ATOM     59  C   UNL A   1      37.635  32.372  33.416  1.00  0.00     0.029 A 
ATOM     60  C   UNL A   1      38.717  31.533  33.624  1.00  0.00     0.049 A 
ATOM     61  H   UNL A   1      39.669  30.224  32.270  1.00  0.00     0.167 HD
ATOM     62  C   UNL A   1      40.523  30.491  34.959  1.00  0.00     0.074 A 
ATOM     63  C   UNL A   1      41.277  30.305  36.180  1.00  0.00     0.031 C 
ATOM     64  C   UNL A   1      39.479  31.343  34.831  1.00  0.00     0.037 A 
BRANCH  51  65
ATOM     65  C   UNL A   1      36.897  31.354  29.228  1.00  0.00     0.057 A 
ATOM     66  C   UNL A   1      36.972  32.674  28.764  1.00  0.00     0.134 A 
ATOM     67  C   UNL A   1      35.771  30.603  28.873  1.00  0.00     0.134 A 
ATOM     68  F   UNL A   1      38.025  33.447  29.070  1.00  0.00    -0.206 F 
ATOM     69  C   UNL A   1      35.953  33.234  27.993  1.00  0.00     0.040 A 
ATOM     70  C   UNL A   1      34.758  31.144  28.080  1.00  0.00     0.040 A 
ATOM     71  F   UNL A   1      35.652  29.328  29.271  1.00  0.00    -0.206 F 
ATOM     72  C   UNL A   1      34.843  32.467  27.647  1.00  0.00     0.006 A 
ENDBRANCH  51  65
BRANCH  52  73
ATOM     73  C   UNL A   1      44.177  27.549  34.870  1.00  0.00     0.057 A 
ATOM     74  C   UNL A   1      45.391  28.181  35.162  1.00  0.00     0.134 A 
ATOM     75  C   UNL A   1      43.953  26.295  35.455  1.00  0.00     0.134 A 
ATOM     76  F   UNL A   1      45.671  29.384  34.637  1.00  0.00    -0.206 F 
ATOM     77  C   UNL A   1      46.353  27.583  35.978  1.00  0.00     0.040 A 
ATOM     78  C   UNL A   1      44.889  25.704  36.306  1.00  0.00     0.040 A 
ATOM     79  F   UNL A   1      42.803  25.642  35.231  1.00  0.00    -0.206 F 
ATOM     80  C   UNL A   1      46.101  26.340  36.558  1.00  0.00     0.006 A 
ENDBRANCH  52  73
BRANCH  64  81
ATOM     81  C   UNL A   1      39.095  32.153  36.032  1.00  0.00     0.057 A 
ATOM     82  C   UNL A   1      38.154  31.672  36.950  1.00  0.00     0.134 A 
ATOM     83  C   UNL A   1      39.600  33.444  36.233  1.00  0.00     0.134 A 
ATOM     84  F   UNL A   1      37.628  30.447  36.809  1.00  0.00    -0.206 F 
ATOM     85  C   UNL A   1      37.715  32.456  38.018  1.00  0.00     0.040 A 
ATOM     86  C   UNL A   1      39.185  34.228  37.310  1.00  0.00     0.040 A 
ATOM     87  F   UNL A   1      40.513  33.956  35.395  1.00  0.00    -0.206 F 
ATOM     88  C   UNL A   1      38.232  33.737  38.201  1.00  0.00     0.006 A 
ENDBRANCH  64  81
ENDBRANCH  38  39
ENDBRANCH  31  33
ENDBRANCH  30  31
ENDBRANCH  29  30
ENDBRANCH  28  29
ENDBRANCH  27  28
ENDBRANCH  26  27
ENDBRANCH   1  26
TORSDOF 20
ENDMDL
MODEL 2
REMARK VINA RESULT:     -10.9      4.157      7.463
REMARK SMILES C[C@H](Nc1cccc(F)c1C(=O)OCCOCCOCCOC(=O)c1ccc(-c2c3nc(c(-c4c(F)cccc4F)c4ccc([nH]4)c(-c4c(F)cccc4F)c4nc(c(-c5c(F)cccc5F)c5ccc2[nH]5)C=C4)C=C3)cc1)c1cccc(Cl)c1
REMARK SMILES IDX 17 1 16 2 15 3 14 4 13 5 11 6 12 7 10 8 4 9 5 10 6 11 8 12
REMARK SMILES IDX 7 13 9 14 3 15 2 17 1 18 79 19 80 20 85 21 81 22 83 23 82 24
REMARK SMILES IDX 84 25 18 26 19 27 20 28 21 29 22 30 23 31 24 32 25 33 26 34
REMARK SMILES IDX 78 35 27 36 77 37 28 38 29 39 30 40 71 41 31 42 76 43 70 44
REMARK SMILES IDX 72 45 32 46 75 47 69 48 68 49 33 51 59 52 42 53 58 54 43 55
REMARK SMILES IDX 46 56 57 57 73 58 44 59 45 60 56 62 74 63 47 64 34 65 35 66
REMARK SMILES IDX 40 67 36 68 37 69 39 70 41 71 38 72 60 73 61 74 66 75 62 76
REMARK SMILES IDX 63 77 65 78 67 79 64 80 48 81 49 82 54 83 50 84 51 85 53 86
REMARK SMILES IDX 55 87 52 88
REMARK H PARENT 3 16 72 50 46 61
REMARK Flexibility Score: inf
ROOT
ATOM      1  C   UNL A   1      32.483  22.928  22.889  1.00  0.00     0.188 C 
ENDROOT
BRANCH   1   2
ATOM      2  O   UNL A   1      33.384  23.839  22.292  1.00  0.00    -0.376 OA
BRANCH   2   3
ATOM      3  C   UNL A   1      32.904  24.924  21.512  1.00  0.00     0.202 C 
BRANCH   3   4
ATOM      4  C   UNL A   1      32.830  26.350  22.067  1.00  0.00     0.261 C 
BRANCH   4   5
ATOM      5  O   UNL A   1      31.546  26.971  21.927  1.00  0.00    -0.460 OA
BRANCH   5   6
ATOM      6  C   UNL A   1      31.307  27.983  22.807  1.00  0.00     0.343 C 
ATOM      7  O   UNL A   1      32.123  28.759  23.242  1.00  0.00    -0.246 OA
BRANCH   6   8
ATOM      8  C   UNL A   1      29.850  28.172  22.979  1.00  0.00     0.118 A 
ATOM      9  C   UNL A   1      29.097  27.209  23.694  1.00  0.00     0.052 A 
ATOM     10  C   UNL A   1      27.717  27.419  23.832  1.00  0.00     0.027 A 
ATOM     11  C   UNL A   1      27.098  28.535  23.261  1.00  0.00     0.005 A 
ATOM     12  C   UNL A   1      29.226  29.279  22.412  1.00  0.00     0.139 A 
ATOM     13  C   UNL A   1      27.853  29.462  22.546  1.00  0.00     0.040 A 
ATOM     14  F   UNL A   1      29.925  30.175  21.700  1.00  0.00    -0.206 F 
BRANCH   9  15
ATOM     15  N   UNL A   1      29.690  26.041  24.208  1.00  0.00    -0.378 N 
ATOM     16  H   UNL A   1      29.928  25.290  23.618  1.00  0.00     0.161 HD
BRANCH  15  17
ATOM     17  C   UNL A   1      29.941  25.982  25.652  1.00  0.00     0.106 C 
ATOM     18  C   UNL A   1      29.793  24.521  26.123  1.00  0.00     0.036 C 
BRANCH  17  19
ATOM     19  C   UNL A   1      31.357  26.424  26.015  1.00  0.00    -0.025 A 
ATOM     20  C   UNL A   1      31.673  27.699  26.510  1.00  0.00     0.006 A 
ATOM     21  C   UNL A   1      32.416  25.563  25.672  1.00  0.00     0.026 A 
ATOM     22  C   UNL A   1      32.998  28.136  26.545  1.00  0.00     0.002 A 
ATOM     23  C   UNL A   1      33.734  26.003  25.710  1.00  0.00     0.041 A 
ATOM     24  C   UNL A   1      34.029  27.293  26.128  1.00  0.00     0.020 A 
ATOM     25  Cl  UNL A   1      34.978  24.962  25.143  1.00  0.00    -0.084 Cl
ENDBRANCH  17  19
ENDBRANCH  15  17
ENDBRANCH   9  15
ENDBRANCH   6   8
ENDBRANCH   5   6
ENDBRANCH   4   5
ENDBRANCH   3   4
ENDBRANCH   2   3
ENDBRANCH   1   2
BRANCH   1  26
ATOM     26  C   UNL A   1      32.992  21.660  23.606  1.00  0.00     0.188 C 
BRANCH  26  27
ATOM     27  O   UNL A   1      33.839  21.742  24.731  1.00  0.00    -0.376 OA
BRANCH  27  28
ATOM     28  C   UNL A   1      34.904  20.820  24.885  1.00  0.00     0.202 C 
BRANCH  28  29
ATOM     29  C   UNL A   1      36.114  21.124  25.773  1.00  0.00     0.261 C 
BRANCH  29  30
ATOM     30  O   UNL A   1      37.290  21.571  25.083  1.00  0.00    -0.460 OA
BRANCH  30  31
ATOM     31  C   UNL A   1      38.461  21.235  25.673  1.00  0.00     0.338 C 
ATOM     32  O   UNL A   1      39.032  20.155  25.637  1.00  0.00    -0.246 OA
BRANCH  31  33
ATOM     33  C   UNL A   1      39.063  22.425  26.294  1.00  0.00     0.060 A 
ATOM     34  C   UNL A   1      38.518  23.686  26.015  1.00  0.00     0.016 A 
ATOM     35  C   UNL A   1      40.215  22.303  27.071  1.00  0.00     0.016 A 
ATOM     36  C   UNL A   1      39.146  24.836  26.495  1.00  0.00     0.010 A 
ATOM     37  C   UNL A   1      40.855  23.456  27.528  1.00  0.00     0.010 A 
ATOM     38  C   UNL A   1      40.342  24.728  27.219  1.00  0.00    -0.014 A 
BRANCH  38  39
ATOM     39  C   UNL A   1      41.137  25.939  27.533  1.00  0.00     0.031 A 
ATOM     40  C   UNL A   1      40.530  27.008  28.391  1.00  0.00     0.074 A 
ATOM     41  C   UNL A   1      42.369  26.111  27.025  1.00  0.00     0.049 A 
ATOM     42  N   UNL A   1      41.016  28.178  28.714  1.00  0.00    -0.248 NA
ATOM     43  C   UNL A   1      39.185  26.740  28.924  1.00  0.00     0.031 C 
ATOM     44  C   UNL A   1      43.040  25.172  26.137  1.00  0.00     0.029 A 
ATOM     45  N   UNL A   1      43.267  27.141  27.174  1.00  0.00    -0.354 N 
ATOM     46  C   UNL A   1      40.022  28.805  29.451  1.00  0.00     0.074 A 
ATOM     47  C   UNL A   1      38.908  27.885  29.533  1.00  0.00     0.031 C 
ATOM     48  C   UNL A   1      44.256  25.661  25.841  1.00  0.00     0.029 A 
ATOM     49  C   UNL A   1      44.458  26.931  26.522  1.00  0.00     0.049 A 
ATOM     50  H   UNL A   1      43.076  27.950  27.700  1.00  0.00     0.167 HD
ATOM     51  C   UNL A   1      40.035  30.046  29.991  1.00  0.00     0.037 A 
ATOM     52  C   UNL A   1      45.584  27.671  26.479  1.00  0.00     0.037 A 
ATOM     53  C   UNL A   1      41.143  30.960  29.904  1.00  0.00     0.049 A 
ATOM     54  C   UNL A   1      45.595  29.018  27.146  1.00  0.00     0.074 A 
ATOM     55  C   UNL A   1      41.239  32.243  30.416  1.00  0.00     0.029 A 
ATOM     56  N   UNL A   1      42.345  30.691  29.268  1.00  0.00    -0.354 N 
ATOM     57  N   UNL A   1      44.650  29.599  27.843  1.00  0.00    -0.248 NA
ATOM     58  C   UNL A   1      46.809  29.832  26.985  1.00  0.00     0.031 C 
ATOM     59  C   UNL A   1      42.485  32.765  30.058  1.00  0.00     0.029 A 
ATOM     60  C   UNL A   1      43.185  31.789  29.368  1.00  0.00     0.049 A 
ATOM     61  H   UNL A   1      42.570  29.847  28.814  1.00  0.00     0.167 HD
ATOM     62  C   UNL A   1      45.145  30.848  28.184  1.00  0.00     0.074 A 
ATOM     63  C   UNL A   1      46.494  30.925  27.665  1.00  0.00     0.031 C 
ATOM     64  C   UNL A   1      44.523  31.855  28.842  1.00  0.00     0.037 A 
BRANCH  51  65
ATOM     65  C   UNL A   1      38.798  30.503  30.702  1.00  0.00     0.057 A 
ATOM     66  C   UNL A   1      38.647  30.279  32.077  1.00  0.00     0.134 A 
ATOM     67  C   UNL A   1      37.736  31.108  30.021  1.00  0.00     0.134 A 
ATOM     68  F   UNL A   1      39.628  29.702  32.787  1.00  0.00    -0.206 F 
ATOM     69  C   UNL A   1      37.473  30.625  32.746  1.00  0.00     0.040 A 
ATOM     70  C   UNL A   1      36.567  31.482  30.684  1.00  0.00     0.040 A 
ATOM     71  F   UNL A   1      37.830  31.365  28.708  1.00  0.00    -0.206 F 
ATOM     72  C   UNL A   1      36.429  31.230  32.049  1.00  0.00     0.006 A 
ENDBRANCH  51  65
BRANCH  52  73
ATOM     73  C   UNL A   1      46.813  27.157  25.815  1.00  0.00     0.057 A 
ATOM     74  C   UNL A   1      47.131  27.449  24.484  1.00  0.00     0.134 A 
ATOM     75  C   UNL A   1      47.719  26.361  26.529  1.00  0.00     0.134 A 
ATOM     76  F   UNL A   1      46.309  28.206  23.742  1.00  0.00    -0.206 F 
ATOM     77  C   UNL A   1      48.286  26.949  23.879  1.00  0.00     0.040 A 
ATOM     78  C   UNL A   1      48.899  25.891  25.949  1.00  0.00     0.040 A 
ATOM     79  F   UNL A   1      47.485  26.059  27.815  1.00  0.00    -0.206 F 
ATOM     80  C   UNL A   1      49.178  26.171  24.614  1.00  0.00     0.006 A 
ENDBRANCH  52  73
BRANCH  64  81
ATOM     81  C   UNL A   1      45.282  33.133  29.028  1.00  0.00     0.057 A 
ATOM     82  C   UNL A   1      45.275  34.123  28.037  1.00  0.00     0.134 A 
ATOM     83  C   UNL A   1      46.085  33.347  30.156  1.00  0.00     0.134 A 
ATOM     84  F   UNL A   1      44.532  33.974  26.931  1.00  0.00    -0.206 F 
ATOM     85  C   UNL A   1      46.055  35.274  28.154  1.00  0.00     0.040 A 
ATOM     86  C   UNL A   1      46.852  34.505  30.293  1.00  0.00     0.040 A 
ATOM     87  F   UNL A   1      46.125  32.442  31.144  1.00  0.00    -0.206 F 
ATOM     88  C   UNL A   1      46.846  35.467  29.286  1.00  0.00     0.006 A 
ENDBRANCH  64  81
ENDBRANCH  38  39
ENDBRANCH  31  33
ENDBRANCH  30  31
ENDBRANCH  29  30
ENDBRANCH  28  29
ENDBRANCH  27  28
ENDBRANCH  26  27
ENDBRANCH   1  26
TORSDOF 20
ENDMDL
MODEL 3
REMARK VINA RESULT:     -10.8      3.172      8.372
REMARK SMILES C[C@H](Nc1cccc(F)c1C(=O)OCCOCCOCCOC(=O)c1ccc(-c2c3nc(c(-c4c(F)cccc4F)c4ccc([nH]4)c(-c4c(F)cccc4F)c4nc(c(-c5c(F)cccc5F)c5ccc2[nH]5)C=C4)C=C3)cc1)c1cccc(Cl)c1
REMARK SMILES IDX 17 1 16 2 15 3 14 4 13 5 11 6 12 7 10 8 4 9 5 10 6 11 8 12
REMARK SMILES IDX 7 13 9 14 3 15 2 17 1 18 79 19 80 20 85 21 81 22 83 23 82 24
REMARK SMILES IDX 84 25 18 26 19 27 20 28 21 29 22 30 23 31 24 32 25 33 26 34
REMARK SMILES IDX 78 35 27 36 77 37 28 38 29 39 30 40 71 41 31 42 76 43 70 44
REMARK SMILES IDX 72 45 32 46 75 47 69 48 68 49 33 51 59 52 42 53 58 54 43 55
REMARK SMILES IDX 46 56 57 57 73 58 44 59 45 60 56 62 74 63 47 64 34 65 35 66
REMARK SMILES IDX 40 67 36 68 37 69 39 70 41 71 38 72 60 73 61 74 66 75 62 76
REMARK SMILES IDX 63 77 65 78 67 79 64 80 48 81 49 82 54 83 50 84 51 85 53 86
REMARK SMILES IDX 55 87 52 88
REMARK H PARENT 3 16 72 50 46 61
REMARK Flexibility Score: inf
ROOT
ATOM      1  C   UNL A   1      29.628  27.951  23.560  1.00  0.00     0.188 C 
ENDROOT
BRANCH   1   2
ATOM      2  O   UNL A   1      30.179  26.833  24.227  1.00  0.00    -0.376 OA
BRANCH   2   3
ATOM      3  C   UNL A   1      29.886  25.514  23.790  1.00  0.00     0.202 C 
BRANCH   3   4
ATOM      4  C   UNL A   1      30.865  24.710  22.929  1.00  0.00     0.261 C 
BRANCH   4   5
ATOM      5  O   UNL A   1      31.861  25.504  22.272  1.00  0.00    -0.460 OA
BRANCH   5   6
ATOM      6  C   UNL A   1      33.130  25.318  22.733  1.00  0.00     0.343 C 
ATOM      7  O   UNL A   1      33.971  24.605  22.241  1.00  0.00    -0.246 OA
BRANCH   6   8
ATOM      8  C   UNL A   1      33.435  26.305  23.792  1.00  0.00     0.118 A 
ATOM      9  C   UNL A   1      33.407  25.907  25.151  1.00  0.00     0.052 A 
ATOM     10  C   UNL A   1      33.697  26.872  26.127  1.00  0.00     0.027 A 
ATOM     11  C   UNL A   1      33.984  28.193  25.771  1.00  0.00     0.005 A 
ATOM     12  C   UNL A   1      33.720  27.623  23.446  1.00  0.00     0.139 A 
ATOM     13  C   UNL A   1      33.989  28.569  24.430  1.00  0.00     0.040 A 
ATOM     14  F   UNL A   1      33.710  28.016  22.164  1.00  0.00    -0.206 F 
BRANCH   9  15
ATOM     15  N   UNL A   1      33.045  24.603  25.531  1.00  0.00    -0.378 N 
ATOM     16  H   UNL A   1      32.252  24.162  25.147  1.00  0.00     0.161 HD
BRANCH  15  17
ATOM     17  C   UNL A   1      33.888  23.920  26.519  1.00  0.00     0.106 C 
ATOM     18  C   UNL A   1      33.038  22.863  27.253  1.00  0.00     0.036 C 
BRANCH  17  19
ATOM     19  C   UNL A   1      35.058  23.181  25.874  1.00  0.00    -0.025 A 
ATOM     20  C   UNL A   1      36.154  23.824  25.280  1.00  0.00     0.006 A 
ATOM     21  C   UNL A   1      34.941  21.786  25.720  1.00  0.00     0.026 A 
ATOM     22  C   UNL A   1      37.033  23.113  24.461  1.00  0.00     0.002 A 
ATOM     23  C   UNL A   1      35.820  21.083  24.905  1.00  0.00     0.041 A 
ATOM     24  C   UNL A   1      36.856  21.744  24.259  1.00  0.00     0.020 A 
ATOM     25  Cl  UNL A   1      35.548  19.409  24.633  1.00  0.00    -0.084 Cl
ENDBRANCH  17  19
ENDBRANCH  15  17
ENDBRANCH   9  15
ENDBRANCH   6   8
ENDBRANCH   5   6
ENDBRANCH   4   5
ENDBRANCH   3   4
ENDBRANCH   2   3
ENDBRANCH   1   2
BRANCH   1  26
ATOM     26  C   UNL A   1      30.372  29.302  23.525  1.00  0.00     0.188 C 
BRANCH  26  27
ATOM     27  O   UNL A   1      30.846  29.912  24.706  1.00  0.00    -0.376 OA
BRANCH  27  28
ATOM     28  C   UNL A   1      30.537  31.267  24.978  1.00  0.00     0.202 C 
BRANCH  28  29
ATOM     29  C   UNL A   1      30.962  31.947  26.283  1.00  0.00     0.261 C 
BRANCH  29  30
ATOM     30  O   UNL A   1      32.267  31.598  26.764  1.00  0.00    -0.460 OA
BRANCH  30  31
ATOM     31  C   UNL A   1      32.935  32.599  27.383  1.00  0.00     0.338 C 
ATOM     32  O   UNL A   1      32.529  33.726  27.630  1.00  0.00    -0.246 OA
BRANCH  31  33
ATOM     33  C   UNL A   1      34.236  32.107  27.862  1.00  0.00     0.060 A 
ATOM     34  C   UNL A   1      34.383  30.743  28.145  1.00  0.00     0.016 A 
ATOM     35  C   UNL A   1      35.272  33.004  28.119  1.00  0.00     0.016 A 
ATOM     36  C   UNL A   1      35.568  30.274  28.714  1.00  0.00     0.010 A 
ATOM     37  C   UNL A   1      36.447  32.537  28.713  1.00  0.00     0.010 A 
ATOM     38  C   UNL A   1      36.590  31.177  29.039  1.00  0.00    -0.014 A 
BRANCH  38  39
ATOM     39  C   UNL A   1      37.749  30.733  29.850  1.00  0.00     0.031 A 
ATOM     40  C   UNL A   1      38.790  29.860  29.217  1.00  0.00     0.074 A 
ATOM     41  C   UNL A   1      37.855  31.063  31.149  1.00  0.00     0.049 A 
ATOM     42  N   UNL A   1      39.833  29.293  29.765  1.00  0.00    -0.248 NA
ATOM     43  C   UNL A   1      38.615  29.558  27.788  1.00  0.00     0.031 C 
ATOM     44  C   UNL A   1      36.882  31.856  31.887  1.00  0.00     0.029 A 
ATOM     45  N   UNL A   1      38.823  30.761  32.077  1.00  0.00    -0.354 N 
ATOM     46  C   UNL A   1      40.414  28.530  28.764  1.00  0.00     0.074 A 
ATOM     47  C   UNL A   1      39.613  28.712  27.571  1.00  0.00     0.031 C 
ATOM     48  C   UNL A   1      37.317  31.997  33.149  1.00  0.00     0.029 A 
ATOM     49  C   UNL A   1      38.597  31.322  33.310  1.00  0.00     0.049 A 
ATOM     50  H   UNL A   1      39.604  30.197  31.876  1.00  0.00     0.167 HD
ATOM     51  C   UNL A   1      41.506  27.735  28.841  1.00  0.00     0.037 A 
ATOM     52  C   UNL A   1      39.335  31.303  34.438  1.00  0.00     0.037 A 
ATOM     53  C   UNL A   1      42.298  27.554  30.030  1.00  0.00     0.049 A 
ATOM     54  C   UNL A   1      40.581  30.465  34.476  1.00  0.00     0.074 A 
ATOM     55  C   UNL A   1      43.418  26.759  30.201  1.00  0.00     0.029 A 
ATOM     56  N   UNL A   1      42.057  28.174  31.246  1.00  0.00    -0.354 N 
ATOM     57  N   UNL A   1      41.123  29.751  33.521  1.00  0.00    -0.248 NA
ATOM     58  C   UNL A   1      41.297  30.393  35.760  1.00  0.00     0.031 C 
ATOM     59  C   UNL A   1      43.834  26.869  31.531  1.00  0.00     0.029 A 
ATOM     60  C   UNL A   1      43.004  27.772  32.173  1.00  0.00     0.049 A 
ATOM     61  H   UNL A   1      41.324  28.806  31.424  1.00  0.00     0.167 HD
ATOM     62  C   UNL A   1      42.225  29.131  34.091  1.00  0.00     0.074 A 
ATOM     63  C   UNL A   1      42.310  29.592  35.460  1.00  0.00     0.031 C 
ATOM     64  C   UNL A   1      43.073  28.233  33.535  1.00  0.00     0.037 A 
BRANCH  51  65
ATOM     65  C   UNL A   1      41.896  26.973  27.612  1.00  0.00     0.057 A 
ATOM     66  C   UNL A   1      41.491  25.643  27.443  1.00  0.00     0.134 A 
ATOM     67  C   UNL A   1      42.718  27.532  26.627  1.00  0.00     0.134 A 
ATOM     68  F   UNL A   1      40.703  25.049  28.352  1.00  0.00    -0.206 F 
ATOM     69  C   UNL A   1      41.906  24.889  26.346  1.00  0.00     0.040 A 
ATOM     70  C   UNL A   1      43.119  26.796  25.512  1.00  0.00     0.040 A 
ATOM     71  F   UNL A   1      43.124  28.807  26.724  1.00  0.00    -0.206 F 
ATOM     72  C   UNL A   1      42.722  25.466  25.375  1.00  0.00     0.006 A 
ENDBRANCH  51  65
BRANCH  52  73
ATOM     73  C   UNL A   1      38.949  32.121  35.619  1.00  0.00     0.057 A 
ATOM     74  C   UNL A   1      39.306  33.468  35.755  1.00  0.00     0.134 A 
ATOM     75  C   UNL A   1      38.180  31.557  36.647  1.00  0.00     0.134 A 
ATOM     76  F   UNL A   1      40.040  34.073  34.809  1.00  0.00    -0.206 F 
ATOM     77  C   UNL A   1      38.939  34.215  36.877  1.00  0.00     0.040 A 
ATOM     78  C   UNL A   1      37.771  32.304  37.753  1.00  0.00     0.040 A 
ATOM     79  F   UNL A   1      37.788  30.277  36.570  1.00  0.00    -0.206 F 
ATOM     80  C   UNL A   1      38.164  33.634  37.879  1.00  0.00     0.006 A 
ENDBRANCH  52  73
BRANCH  64  81
ATOM     81  C   UNL A   1      44.158  27.675  34.406  1.00  0.00     0.057 A 
ATOM     82  C   UNL A   1      45.407  28.304  34.487  1.00  0.00     0.134 A 
ATOM     83  C   UNL A   1      43.989  26.470  35.099  1.00  0.00     0.134 A 
ATOM     84  F   UNL A   1      45.633  29.456  33.841  1.00  0.00    -0.206 F 
ATOM     85  C   UNL A   1      46.456  27.742  35.216  1.00  0.00     0.040 A 
ATOM     86  C   UNL A   1      45.025  25.912  35.849  1.00  0.00     0.040 A 
ATOM     87  F   UNL A   1      42.813  25.827  35.070  1.00  0.00    -0.206 F 
ATOM     88  C   UNL A   1      46.266  26.543  35.900  1.00  0.00     0.006 A 
ENDBRANCH  64  81
ENDBRANCH  38  39
ENDBRANCH  31  33
ENDBRANCH  30  31
ENDBRANCH  29  30
ENDBRANCH  28  29
ENDBRANCH  27  28
ENDBRANCH  26  27
ENDBRANCH   1  26
TORSDOF 20
ENDMDL
