MODEL 1
REMARK VINA RESULT:      -9.2      0.000      0.000
REMARK SMILES O=C(CSc1nnc(-c2ccncc2)s1)Nc1cccc(C(=O)OCCOCCOCCOC(=O)c2ccc(-c3c4nc(c(-c5c(F)cccc5F)c5ccc([nH]5)c(-c5c(F)cccc5F)c5nc(c(-c6c(F)cccc6F)c6ccc3[nH]6)C=C5)C=C4)cc2)c1
REMARK SMILES IDX 27 1 26 2 25 3 24 4 22 5 23 6 21 7 17 8 18 9 90 10 19 11
REMARK SMILES IDX 20 12 16 13 1 14 2 15 3 17 4 18 5 19 6 20 15 21 7 22 8 23
REMARK SMILES IDX 9 24 10 25 14 26 11 27 13 28 12 29 28 30 29 31 30 32 31 33
REMARK SMILES IDX 32 34 33 35 34 36 35 37 36 38 37 39 89 40 38 41 88 42 39 43
REMARK SMILES IDX 40 44 41 45 82 46 42 47 87 48 81 49 83 50 43 51 86 52 80 53
REMARK SMILES IDX 79 54 44 56 70 57 53 58 69 59 54 60 57 61 68 62 84 63 55 64
REMARK SMILES IDX 56 65 67 67 85 68 58 69 45 70 46 71 51 72 47 73 48 74 50 75
REMARK SMILES IDX 52 76 49 77 71 78 72 79 77 80 73 81 74 82 76 83 78 84 75 85
REMARK SMILES IDX 59 86 60 87 65 88 61 89 62 90 64 91 66 92 63 93
REMARK H PARENT 16 16 83 55 57 66
REMARK Flexibility Score: inf
ROOT
ATOM      1  O   UNL A   1      32.543  36.639  30.073  1.00  0.00    -0.376 OA
ENDROOT
BRANCH   1   2
ATOM      2  C   UNL A   1      33.306  36.078  29.018  1.00  0.00     0.202 C 
BRANCH   2   3
ATOM      3  C   UNL A   1      33.372  34.565  28.757  1.00  0.00     0.261 C 
BRANCH   3   4
ATOM      4  O   UNL A   1      34.382  34.137  27.838  1.00  0.00    -0.460 OA
BRANCH   4   5
ATOM      5  C   UNL A   1      35.497  33.593  28.398  1.00  0.00     0.338 C 
ATOM      6  O   UNL A   1      36.328  34.154  29.078  1.00  0.00    -0.246 OA
BRANCH   5   7
ATOM      7  C   UNL A   1      35.436  32.124  28.228  1.00  0.00     0.062 A 
ATOM      8  C   UNL A   1      36.399  29.928  28.532  1.00  0.00     0.042 A 
ATOM      9  C   UNL A   1      35.364  29.380  27.763  1.00  0.00     0.026 A 
ATOM     10  C   UNL A   1      36.457  31.310  28.717  1.00  0.00     0.041 A 
ATOM     11  C   UNL A   1      34.342  30.198  27.269  1.00  0.00     0.003 A 
ATOM     12  C   UNL A   1      34.362  31.569  27.524  1.00  0.00     0.016 A 
BRANCH   8  13
ATOM     13  N   UNL A   1      37.343  29.053  29.108  1.00  0.00    -0.325 N 
ATOM     14  O   UNL A   1      38.968  29.103  27.442  1.00  0.00    -0.274 OA
ATOM     15  C   UNL A   1      38.537  28.676  28.511  1.00  0.00     0.234 C 
ATOM     16  H   UNL A   1      37.140  28.684  29.998  1.00  0.00     0.169 HD
BRANCH  15  17
ATOM     17  C   UNL A   1      39.333  27.643  29.278  1.00  0.00     0.177 C 
BRANCH  17  18
ATOM     18  S   UNL A   1      41.109  27.767  28.999  1.00  0.00    -0.084 SA
BRANCH  18  19
ATOM     19  C   UNL A   1      41.525  26.205  28.327  1.00  0.00     0.175 A 
ATOM     20  N   UNL A   1      40.644  25.232  28.368  1.00  0.00    -0.131 NA
ATOM     21  S   UNL A   1      42.969  25.815  27.491  1.00  0.00    -0.086 S 
ATOM     22  N   UNL A   1      41.070  24.114  27.680  1.00  0.00    -0.137 NA
ATOM     23  C   UNL A   1      42.272  24.273  27.165  1.00  0.00     0.148 A 
BRANCH  23  24
ATOM     24  C   UNL A   1      42.932  23.297  26.301  1.00  0.00     0.015 A 
ATOM     25  C   UNL A   1      42.960  21.935  26.602  1.00  0.00     0.031 A 
ATOM     26  C   UNL A   1      43.515  23.732  25.106  1.00  0.00     0.031 A 
ATOM     27  C   UNL A   1      43.571  21.075  25.702  1.00  0.00     0.111 A 
ATOM     28  C   UNL A   1      44.111  22.797  24.278  1.00  0.00     0.111 A 
ATOM     29  N   UNL A   1      44.154  21.478  24.553  1.00  0.00    -0.265 NA
ENDBRANCH  23  24
ENDBRANCH  18  19
ENDBRANCH  17  18
ENDBRANCH  15  17
ENDBRANCH   8  13
ENDBRANCH   5   7
ENDBRANCH   4   5
ENDBRANCH   3   4
ENDBRANCH   2   3
ENDBRANCH   1   2
BRANCH   1  30
ATOM     30  C   UNL A   1      33.154  36.960  31.309  1.00  0.00     0.188 C 
BRANCH  30  31
ATOM     31  C   UNL A   1      32.971  36.046  32.539  1.00  0.00     0.188 C 
BRANCH  31  32
ATOM     32  O   UNL A   1      32.964  34.654  32.337  1.00  0.00    -0.376 OA
BRANCH  32  33
ATOM     33  C   UNL A   1      33.953  33.830  32.928  1.00  0.00     0.202 C 
BRANCH  33  34
ATOM     34  C   UNL A   1      35.060  33.055  32.186  1.00  0.00     0.261 C 
BRANCH  34  35
ATOM     35  O   UNL A   1      35.706  31.973  32.861  1.00  0.00    -0.460 OA
BRANCH  35  36
ATOM     36  C   UNL A   1      36.648  32.328  33.770  1.00  0.00     0.338 C 
ATOM     37  O   UNL A   1      36.493  32.990  34.781  1.00  0.00    -0.246 OA
BRANCH  36  38
ATOM     38  C   UNL A   1      37.907  31.632  33.444  1.00  0.00     0.060 A 
ATOM     39  C   UNL A   1      39.061  31.949  34.174  1.00  0.00     0.016 A 
ATOM     40  C   UNL A   1      37.954  30.701  32.408  1.00  0.00     0.016 A 
ATOM     41  C   UNL A   1      40.275  31.341  33.856  1.00  0.00     0.010 A 
ATOM     42  C   UNL A   1      39.177  30.109  32.077  1.00  0.00     0.010 A 
ATOM     43  C   UNL A   1      40.347  30.444  32.783  1.00  0.00    -0.014 A 
BRANCH  43  44
ATOM     44  C   UNL A   1      41.665  29.969  32.297  1.00  0.00     0.031 A 
ATOM     45  C   UNL A   1      42.358  30.746  31.212  1.00  0.00     0.074 A 
ATOM     46  C   UNL A   1      42.242  28.867  32.807  1.00  0.00     0.049 A 
ATOM     47  N   UNL A   1      43.467  30.477  30.572  1.00  0.00    -0.248 NA
ATOM     48  C   UNL A   1      41.706  31.997  30.789  1.00  0.00     0.031 C 
ATOM     49  C   UNL A   1      41.698  28.051  33.891  1.00  0.00     0.029 A 
ATOM     50  N   UNL A   1      43.412  28.235  32.463  1.00  0.00    -0.354 N 
ATOM     51  C   UNL A   1      43.641  31.515  29.665  1.00  0.00     0.074 A 
ATOM     52  C   UNL A   1      42.510  32.406  29.819  1.00  0.00     0.031 C 
ATOM     53  C   UNL A   1      42.524  27.013  34.110  1.00  0.00     0.029 A 
ATOM     54  C   UNL A   1      43.632  27.071  33.158  1.00  0.00     0.049 A 
ATOM     55  H   UNL A   1      44.033  28.584  31.784  1.00  0.00     0.167 HD
ATOM     56  C   UNL A   1      44.653  31.710  28.788  1.00  0.00     0.037 A 
ATOM     57  C   UNL A   1      44.600  26.144  33.018  1.00  0.00     0.037 A 
ATOM     58  C   UNL A   1      45.773  30.820  28.631  1.00  0.00     0.049 A 
ATOM     59  C   UNL A   1      45.670  26.340  31.973  1.00  0.00     0.074 A 
ATOM     60  C   UNL A   1      46.858  30.940  27.780  1.00  0.00     0.029 A 
ATOM     61  N   UNL A   1      45.945  29.635  29.332  1.00  0.00    -0.354 N 
ATOM     62  N   UNL A   1      45.841  27.335  31.136  1.00  0.00    -0.248 NA
ATOM     63  C   UNL A   1      46.681  25.279  31.853  1.00  0.00     0.031 C 
ATOM     64  C   UNL A   1      47.655  29.801  27.923  1.00  0.00     0.029 A 
ATOM     65  C   UNL A   1      47.102  29.001  28.910  1.00  0.00     0.049 A 
ATOM     66  H   UNL A   1      45.335  29.296  30.026  1.00  0.00     0.167 HD
ATOM     67  C   UNL A   1      46.994  27.038  30.418  1.00  0.00     0.074 A 
ATOM     68  C   UNL A   1      47.487  25.775  30.925  1.00  0.00     0.031 C 
ATOM     69  C   UNL A   1      47.590  27.747  29.428  1.00  0.00     0.037 A 
BRANCH  56  70
ATOM     70  C   UNL A   1      44.577  32.921  27.904  1.00  0.00     0.057 A 
ATOM     71  C   UNL A   1      45.003  34.184  28.334  1.00  0.00     0.134 A 
ATOM     72  C   UNL A   1      44.103  32.814  26.590  1.00  0.00     0.134 A 
ATOM     73  F   UNL A   1      45.455  34.360  29.585  1.00  0.00    -0.206 F 
ATOM     74  C   UNL A   1      44.936  35.301  27.499  1.00  0.00     0.040 A 
ATOM     75  C   UNL A   1      44.059  33.917  25.736  1.00  0.00     0.040 A 
ATOM     76  F   UNL A   1      43.684  31.633  26.111  1.00  0.00    -0.206 F 
ATOM     77  C   UNL A   1      44.470  35.168  26.193  1.00  0.00     0.006 A 
ENDBRANCH  56  70
BRANCH  57  78
ATOM     78  C   UNL A   1      44.598  24.927  33.870  1.00  0.00     0.057 A 
ATOM     79  C   UNL A   1      45.073  24.962  35.186  1.00  0.00     0.134 A 
ATOM     80  C   UNL A   1      44.154  23.693  33.380  1.00  0.00     0.134 A 
ATOM     81  F   UNL A   1      45.539  26.107  35.706  1.00  0.00    -0.206 F 
ATOM     82  C   UNL A   1      45.127  23.812  35.977  1.00  0.00     0.040 A 
ATOM     83  C   UNL A   1      44.173  22.541  34.167  1.00  0.00     0.040 A 
ATOM     84  F   UNL A   1      43.689  23.591  32.125  1.00  0.00    -0.206 F 
ATOM     85  C   UNL A   1      44.670  22.597  35.468  1.00  0.00     0.006 A 
ENDBRANCH  57  78
BRANCH  69  86
ATOM     86  C   UNL A   1      48.869  27.202  28.857  1.00  0.00     0.057 A 
ATOM     87  C   UNL A   1      48.885  26.338  27.755  1.00  0.00     0.134 A 
ATOM     88  C   UNL A   1      50.107  27.583  29.395  1.00  0.00     0.134 A 
ATOM     89  F   UNL A   1      47.737  25.925  27.197  1.00  0.00    -0.206 F 
ATOM     90  C   UNL A   1      50.082  25.852  27.225  1.00  0.00     0.040 A 
ATOM     91  C   UNL A   1      51.311  27.128  28.855  1.00  0.00     0.040 A 
ATOM     92  F   UNL A   1      50.167  28.417  30.444  1.00  0.00    -0.206 F 
ATOM     93  C   UNL A   1      51.300  26.253  27.770  1.00  0.00     0.006 A 
ENDBRANCH  69  86
ENDBRANCH  43  44
ENDBRANCH  36  38
ENDBRANCH  35  36
ENDBRANCH  34  35
ENDBRANCH  33  34
ENDBRANCH  32  33
ENDBRANCH  31  32
ENDBRANCH  30  31
ENDBRANCH   1  30
TORSDOF 22
ENDMDL
MODEL 2
REMARK VINA RESULT:      -9.1      5.292     11.340
REMARK SMILES O=C(CSc1nnc(-c2ccncc2)s1)Nc1cccc(C(=O)OCCOCCOCCOC(=O)c2ccc(-c3c4nc(c(-c5c(F)cccc5F)c5ccc([nH]5)c(-c5c(F)cccc5F)c5nc(c(-c6c(F)cccc6F)c6ccc3[nH]6)C=C5)C=C4)cc2)c1
REMARK SMILES IDX 27 1 26 2 25 3 24 4 22 5 23 6 21 7 17 8 18 9 90 10 19 11
REMARK SMILES IDX 20 12 16 13 1 14 2 15 3 17 4 18 5 19 6 20 15 21 7 22 8 23
REMARK SMILES IDX 9 24 10 25 14 26 11 27 13 28 12 29 28 30 29 31 30 32 31 33
REMARK SMILES IDX 32 34 33 35 34 36 35 37 36 38 37 39 89 40 38 41 88 42 39 43
REMARK SMILES IDX 40 44 41 45 82 46 42 47 87 48 81 49 83 50 43 51 86 52 80 53
REMARK SMILES IDX 79 54 44 56 70 57 53 58 69 59 54 60 57 61 68 62 84 63 55 64
REMARK SMILES IDX 56 65 67 67 85 68 58 69 45 70 46 71 51 72 47 73 48 74 50 75
REMARK SMILES IDX 52 76 49 77 71 78 72 79 77 80 73 81 74 82 76 83 78 84 75 85
REMARK SMILES IDX 59 86 60 87 65 88 61 89 62 90 64 91 66 92 63 93
REMARK H PARENT 16 16 83 55 57 66
REMARK Flexibility Score: inf
ROOT
ATOM      1  O   UNL A   1      42.248  20.448  26.165  1.00  0.00    -0.376 OA
ENDROOT
BRANCH   1   2
ATOM      2  C   UNL A   1      40.971  19.973  26.559  1.00  0.00     0.202 C 
BRANCH   2   3
ATOM      3  C   UNL A   1      39.816  19.777  25.563  1.00  0.00     0.261 C 
BRANCH   3   4
ATOM      4  O   UNL A   1      38.525  20.191  26.021  1.00  0.00    -0.460 OA
BRANCH   4   5
ATOM      5  C   UNL A   1      38.185  21.479  25.742  1.00  0.00     0.338 C 
ATOM      6  O   UNL A   1      38.932  22.417  25.569  1.00  0.00    -0.246 OA
BRANCH   5   7
ATOM      7  C   UNL A   1      36.732  21.527  25.460  1.00  0.00     0.062 A 
ATOM      8  C   UNL A   1      34.624  22.710  25.472  1.00  0.00     0.042 A 
ATOM      9  C   UNL A   1      33.978  21.537  25.060  1.00  0.00     0.026 A 
ATOM     10  C   UNL A   1      35.997  22.683  25.720  1.00  0.00     0.041 A 
ATOM     11  C   UNL A   1      34.715  20.376  24.803  1.00  0.00     0.003 A 
ATOM     12  C   UNL A   1      36.099  20.377  24.977  1.00  0.00     0.016 A 
BRANCH   8  13
ATOM     13  N   UNL A   1      33.860  23.887  25.604  1.00  0.00    -0.325 N 
ATOM     14  O   UNL A   1      32.186  23.090  27.013  1.00  0.00    -0.274 OA
ATOM     15  C   UNL A   1      32.682  23.985  26.332  1.00  0.00     0.234 C 
ATOM     16  H   UNL A   1      34.185  24.697  25.149  1.00  0.00     0.169 HD
BRANCH  15  17
ATOM     17  C   UNL A   1      31.986  25.325  26.236  1.00  0.00     0.177 C 
BRANCH  17  18
ATOM     18  S   UNL A   1      33.132  26.715  26.170  1.00  0.00    -0.084 SA
BRANCH  18  19
ATOM     19  C   UNL A   1      32.159  28.012  25.513  1.00  0.00     0.175 A 
ATOM     20  N   UNL A   1      32.578  29.253  25.625  1.00  0.00    -0.131 NA
ATOM     21  S   UNL A   1      30.714  27.835  24.607  1.00  0.00    -0.086 S 
ATOM     22  N   UNL A   1      31.771  30.139  24.941  1.00  0.00    -0.137 NA
ATOM     23  C   UNL A   1      30.754  29.539  24.356  1.00  0.00     0.148 A 
BRANCH  23  24
ATOM     24  C   UNL A   1      29.796  30.210  23.480  1.00  0.00     0.015 A 
ATOM     25  C   UNL A   1      28.963  31.235  23.933  1.00  0.00     0.031 A 
ATOM     26  C   UNL A   1      29.744  29.851  22.129  1.00  0.00     0.031 A 
ATOM     27  C   UNL A   1      28.116  31.845  23.021  1.00  0.00     0.111 A 
ATOM     28  C   UNL A   1      28.856  30.514  21.298  1.00  0.00     0.111 A 
ATOM     29  N   UNL A   1      28.040  31.501  21.717  1.00  0.00    -0.265 NA
ENDBRANCH  23  24
ENDBRANCH  18  19
ENDBRANCH  17  18
ENDBRANCH  15  17
ENDBRANCH   8  13
ENDBRANCH   5   7
ENDBRANCH   4   5
ENDBRANCH   3   4
ENDBRANCH   2   3
ENDBRANCH   1   2
BRANCH   1  30
ATOM     30  C   UNL A   1      43.123  19.621  25.422  1.00  0.00     0.188 C 
BRANCH  30  31
ATOM     31  C   UNL A   1      44.539  20.107  25.048  1.00  0.00     0.188 C 
BRANCH  31  32
ATOM     32  O   UNL A   1      44.697  20.840  23.859  1.00  0.00    -0.376 OA
BRANCH  32  33
ATOM     33  C   UNL A   1      44.236  22.176  23.764  1.00  0.00     0.202 C 
BRANCH  33  34
ATOM     34  C   UNL A   1      44.012  23.152  24.937  1.00  0.00     0.261 C 
BRANCH  34  35
ATOM     35  O   UNL A   1      43.696  24.514  24.642  1.00  0.00    -0.460 OA
BRANCH  35  36
ATOM     36  C   UNL A   1      44.503  25.441  25.217  1.00  0.00     0.338 C 
ATOM     37  O   UNL A   1      45.615  25.783  24.860  1.00  0.00    -0.246 OA
BRANCH  36  38
ATOM     38  C   UNL A   1      43.748  26.129  26.282  1.00  0.00     0.060 A 
ATOM     39  C   UNL A   1      43.988  27.491  26.506  1.00  0.00     0.016 A 
ATOM     40  C   UNL A   1      42.839  25.427  27.073  1.00  0.00     0.016 A 
ATOM     41  C   UNL A   1      43.324  28.156  27.537  1.00  0.00     0.010 A 
ATOM     42  C   UNL A   1      42.191  26.090  28.119  1.00  0.00     0.010 A 
ATOM     43  C   UNL A   1      42.448  27.451  28.371  1.00  0.00    -0.014 A 
BRANCH  43  44
ATOM     44  C   UNL A   1      41.915  28.088  29.600  1.00  0.00     0.031 A 
ATOM     45  C   UNL A   1      40.659  28.909  29.502  1.00  0.00     0.074 A 
ATOM     46  C   UNL A   1      42.534  27.944  30.785  1.00  0.00     0.049 A 
ATOM     47  N   UNL A   1      40.059  29.626  30.417  1.00  0.00    -0.248 NA
ATOM     48  C   UNL A   1      39.991  28.924  28.190  1.00  0.00     0.031 C 
ATOM     49  C   UNL A   1      43.730  27.140  31.023  1.00  0.00     0.029 A 
ATOM     50  N   UNL A   1      42.243  28.489  32.012  1.00  0.00    -0.354 N 
ATOM     51  C   UNL A   1      38.952  30.186  29.792  1.00  0.00     0.074 A 
ATOM     52  C   UNL A   1      38.978  29.747  28.413  1.00  0.00     0.031 C 
ATOM     53  C   UNL A   1      44.085  27.260  32.315  1.00  0.00     0.029 A 
ATOM     54  C   UNL A   1      43.163  28.178  32.983  1.00  0.00     0.049 A 
ATOM     55  H   UNL A   1      41.450  29.048  32.179  1.00  0.00     0.167 HD
ATOM     56  C   UNL A   1      37.999  30.990  30.320  1.00  0.00     0.037 A 
ATOM     57  C   UNL A   1      43.266  28.612  34.255  1.00  0.00     0.037 A 
ATOM     58  C   UNL A   1      37.980  31.432  31.689  1.00  0.00     0.049 A 
ATOM     59  C   UNL A   1      42.241  29.576  34.795  1.00  0.00     0.074 A 
ATOM     60  C   UNL A   1      37.047  32.235  32.323  1.00  0.00     0.029 A 
ATOM     61  N   UNL A   1      38.946  31.121  32.634  1.00  0.00    -0.354 N 
ATOM     62  N   UNL A   1      41.184  30.082  34.206  1.00  0.00    -0.248 NA
ATOM     63  C   UNL A   1      42.426  30.031  36.181  1.00  0.00     0.031 C 
ATOM     64  C   UNL A   1      37.479  32.457  33.634  1.00  0.00     0.029 A 
ATOM     65  C   UNL A   1      38.647  31.740  33.837  1.00  0.00     0.049 A 
ATOM     66  H   UNL A   1      39.728  30.545  32.474  1.00  0.00     0.167 HD
ATOM     67  C   UNL A   1      40.562  30.884  35.156  1.00  0.00     0.074 A 
ATOM     68  C   UNL A   1      41.353  30.789  36.364  1.00  0.00     0.031 C 
ATOM     69  C   UNL A   1      39.437  31.632  35.038  1.00  0.00     0.037 A 
BRANCH  56  70
ATOM     70  C   UNL A   1      36.914  31.471  29.401  1.00  0.00     0.057 A 
ATOM     71  C   UNL A   1      36.919  32.760  28.853  1.00  0.00     0.134 A 
ATOM     72  C   UNL A   1      35.866  30.617  29.031  1.00  0.00     0.134 A 
ATOM     73  F   UNL A   1      37.885  33.632  29.177  1.00  0.00    -0.206 F 
ATOM     74  C   UNL A   1      35.908  33.192  27.992  1.00  0.00     0.040 A 
ATOM     75  C   UNL A   1      34.866  31.027  28.148  1.00  0.00     0.040 A 
ATOM     76  F   UNL A   1      35.802  29.368  29.515  1.00  0.00    -0.206 F 
ATOM     77  C   UNL A   1      34.882  32.321  27.631  1.00  0.00     0.006 A 
ENDBRANCH  56  70
BRANCH  57  78
ATOM     78  C   UNL A   1      44.395  28.161  35.108  1.00  0.00     0.057 A 
ATOM     79  C   UNL A   1      44.295  27.009  35.897  1.00  0.00     0.134 A 
ATOM     80  C   UNL A   1      45.590  28.889  35.183  1.00  0.00     0.134 A 
ATOM     81  F   UNL A   1      43.167  26.284  35.891  1.00  0.00    -0.206 F 
ATOM     82  C   UNL A   1      45.330  26.608  36.744  1.00  0.00     0.040 A 
ATOM     83  C   UNL A   1      46.645  28.485  36.002  1.00  0.00     0.040 A 
ATOM     84  F   UNL A   1      45.749  30.004  34.455  1.00  0.00    -0.206 F 
ATOM     85  C   UNL A   1      46.513  27.345  36.794  1.00  0.00     0.006 A 
ENDBRANCH  57  78
BRANCH  69  86
ATOM     86  C   UNL A   1      38.963  32.370  36.259  1.00  0.00     0.057 A 
ATOM     87  C   UNL A   1      38.123  31.775  37.210  1.00  0.00     0.134 A 
ATOM     88  C   UNL A   1      39.389  33.682  36.507  1.00  0.00     0.134 A 
ATOM     89  F   UNL A   1      37.670  30.525  37.030  1.00  0.00    -0.206 F 
ATOM     90  C   UNL A   1      37.703  32.466  38.347  1.00  0.00     0.040 A 
ATOM     91  C   UNL A   1      39.001  34.373  37.656  1.00  0.00     0.040 A 
ATOM     92  F   UNL A   1      40.203  34.309  35.645  1.00  0.00    -0.206 F 
ATOM     93  C   UNL A   1      38.148  33.767  38.577  1.00  0.00     0.006 A 
ENDBRANCH  69  86
ENDBRANCH  43  44
ENDBRANCH  36  38
ENDBRANCH  35  36
ENDBRANCH  34  35
ENDBRANCH  33  34
ENDBRANCH  32  33
ENDBRANCH  31  32
ENDBRANCH  30  31
ENDBRANCH   1  30
TORSDOF 22
ENDMDL
MODEL 3
REMARK VINA RESULT:      -8.8      0.791      5.975
REMARK SMILES O=C(CSc1nnc(-c2ccncc2)s1)Nc1cccc(C(=O)OCCOCCOCCOC(=O)c2ccc(-c3c4nc(c(-c5c(F)cccc5F)c5ccc([nH]5)c(-c5c(F)cccc5F)c5nc(c(-c6c(F)cccc6F)c6ccc3[nH]6)C=C5)C=C4)cc2)c1
REMARK SMILES IDX 27 1 26 2 25 3 24 4 22 5 23 6 21 7 17 8 18 9 90 10 19 11
REMARK SMILES IDX 20 12 16 13 1 14 2 15 3 17 4 18 5 19 6 20 15 21 7 22 8 23
REMARK SMILES IDX 9 24 10 25 14 26 11 27 13 28 12 29 28 30 29 31 30 32 31 33
REMARK SMILES IDX 32 34 33 35 34 36 35 37 36 38 37 39 89 40 38 41 88 42 39 43
REMARK SMILES IDX 40 44 41 45 82 46 42 47 87 48 81 49 83 50 43 51 86 52 80 53
REMARK SMILES IDX 79 54 44 56 70 57 53 58 69 59 54 60 57 61 68 62 84 63 55 64
REMARK SMILES IDX 56 65 67 67 85 68 58 69 45 70 46 71 51 72 47 73 48 74 50 75
REMARK SMILES IDX 52 76 49 77 71 78 72 79 77 80 73 81 74 82 76 83 78 84 75 85
REMARK SMILES IDX 59 86 60 87 65 88 61 89 62 90 64 91 66 92 63 93
REMARK H PARENT 16 16 83 55 57 66
REMARK Flexibility Score: inf
ROOT
ATOM      1  O   UNL A   1      32.522  36.381  29.995  1.00  0.00    -0.376 OA
ENDROOT
BRANCH   1   2
ATOM      2  C   UNL A   1      33.356  35.914  28.948  1.00  0.00     0.202 C 
BRANCH   2   3
ATOM      3  C   UNL A   1      33.396  34.439  28.515  1.00  0.00     0.261 C 
BRANCH   3   4
ATOM      4  O   UNL A   1      34.551  34.041  27.771  1.00  0.00    -0.460 OA
BRANCH   4   5
ATOM      5  C   UNL A   1      35.565  33.501  28.500  1.00  0.00     0.338 C 
ATOM      6  O   UNL A   1      36.259  34.057  29.322  1.00  0.00    -0.246 OA
BRANCH   5   7
ATOM      7  C   UNL A   1      35.559  32.035  28.291  1.00  0.00     0.062 A 
ATOM      8  C   UNL A   1      36.655  29.884  28.433  1.00  0.00     0.042 A 
ATOM      9  C   UNL A   1      35.578  29.304  27.750  1.00  0.00     0.026 A 
ATOM     10  C   UNL A   1      36.662  31.262  28.655  1.00  0.00     0.041 A 
ATOM     11  C   UNL A   1      34.473  30.081  27.382  1.00  0.00     0.003 A 
ATOM     12  C   UNL A   1      34.451  31.444  27.676  1.00  0.00     0.016 A 
BRANCH   8  13
ATOM     13  N   UNL A   1      37.691  29.045  28.889  1.00  0.00    -0.325 N 
ATOM     14  O   UNL A   1      39.201  29.329  27.140  1.00  0.00    -0.274 OA
ATOM     15  C   UNL A   1      38.869  28.800  28.198  1.00  0.00     0.234 C 
ATOM     16  H   UNL A   1      37.571  28.602  29.760  1.00  0.00     0.169 HD
BRANCH  15  17
ATOM     17  C   UNL A   1      39.781  27.778  28.841  1.00  0.00     0.177 C 
BRANCH  17  18
ATOM     18  S   UNL A   1      41.528  28.205  28.707  1.00  0.00    -0.084 SA
BRANCH  18  19
ATOM     19  C   UNL A   1      42.205  26.866  27.805  1.00  0.00     0.175 A 
ATOM     20  N   UNL A   1      41.407  25.924  27.355  1.00  0.00    -0.131 NA
ATOM     21  S   UNL A   1      43.842  26.690  27.330  1.00  0.00    -0.086 S 
ATOM     22  N   UNL A   1      42.071  25.019  26.554  1.00  0.00    -0.137 NA
ATOM     23  C   UNL A   1      43.355  25.294  26.447  1.00  0.00     0.148 A 
BRANCH  23  24
ATOM     24  C   UNL A   1      44.283  24.568  25.582  1.00  0.00     0.015 A 
ATOM     25  C   UNL A   1      45.663  24.764  25.640  1.00  0.00     0.031 A 
ATOM     26  C   UNL A   1      43.777  23.607  24.699  1.00  0.00     0.031 A 
ATOM     27  C   UNL A   1      46.471  23.999  24.812  1.00  0.00     0.111 A 
ATOM     28  C   UNL A   1      44.665  22.902  23.906  1.00  0.00     0.111 A 
ATOM     29  N   UNL A   1      46.000  23.080  23.942  1.00  0.00    -0.265 NA
ENDBRANCH  23  24
ENDBRANCH  18  19
ENDBRANCH  17  18
ENDBRANCH  15  17
ENDBRANCH   8  13
ENDBRANCH   5   7
ENDBRANCH   4   5
ENDBRANCH   3   4
ENDBRANCH   2   3
ENDBRANCH   1   2
BRANCH   1  30
ATOM     30  C   UNL A   1      33.082  36.810  31.222  1.00  0.00     0.188 C 
BRANCH  30  31
ATOM     31  C   UNL A   1      33.029  35.907  32.472  1.00  0.00     0.188 C 
BRANCH  31  32
ATOM     32  O   UNL A   1      33.174  34.520  32.295  1.00  0.00    -0.376 OA
BRANCH  32  33
ATOM     33  C   UNL A   1      34.136  33.791  33.037  1.00  0.00     0.202 C 
BRANCH  33  34
ATOM     34  C   UNL A   1      35.204  32.839  32.462  1.00  0.00     0.261 C 
BRANCH  34  35
ATOM     35  O   UNL A   1      35.897  31.969  33.359  1.00  0.00    -0.460 OA
BRANCH  35  36
ATOM     36  C   UNL A   1      36.962  32.514  33.999  1.00  0.00     0.338 C 
ATOM     37  O   UNL A   1      36.949  33.320  34.911  1.00  0.00    -0.246 OA
BRANCH  36  38
ATOM     38  C   UNL A   1      38.189  31.841  33.533  1.00  0.00     0.060 A 
ATOM     39  C   UNL A   1      39.404  32.144  34.161  1.00  0.00     0.016 A 
ATOM     40  C   UNL A   1      38.145  30.945  32.465  1.00  0.00     0.016 A 
ATOM     41  C   UNL A   1      40.588  31.558  33.711  1.00  0.00     0.010 A 
ATOM     42  C   UNL A   1      39.335  30.376  32.002  1.00  0.00     0.010 A 
ATOM     43  C   UNL A   1      40.564  30.698  32.606  1.00  0.00    -0.014 A 
BRANCH  43  44
ATOM     44  C   UNL A   1      41.834  30.252  31.982  1.00  0.00     0.031 A 
ATOM     45  C   UNL A   1      42.463  28.973  32.459  1.00  0.00     0.074 A 
ATOM     46  C   UNL A   1      42.422  30.968  31.008  1.00  0.00     0.049 A 
ATOM     47  N   UNL A   1      43.607  28.433  32.127  1.00  0.00    -0.248 NA
ATOM     48  C   UNL A   1      41.697  28.200  33.451  1.00  0.00     0.031 C 
ATOM     49  C   UNL A   1      41.892  32.199  30.425  1.00  0.00     0.029 A 
ATOM     50  N   UNL A   1      43.609  30.765  30.348  1.00  0.00    -0.354 N 
ATOM     51  C   UNL A   1      43.705  27.265  32.873  1.00  0.00     0.074 A 
ATOM     52  C   UNL A   1      42.516  27.189  33.696  1.00  0.00     0.031 C 
ATOM     53  C   UNL A   1      42.762  32.655  29.507  1.00  0.00     0.029 A 
ATOM     54  C   UNL A   1      43.925  31.769  29.466  1.00  0.00     0.049 A 
ATOM     55  H   UNL A   1      44.178  29.975  30.494  1.00  0.00     0.167 HD
ATOM     56  C   UNL A   1      44.693  26.340  32.870  1.00  0.00     0.037 A 
ATOM     57  C   UNL A   1      45.040  31.965  28.733  1.00  0.00     0.037 A 
ATOM     58  C   UNL A   1      45.877  26.421  32.057  1.00  0.00     0.049 A 
ATOM     59  C   UNL A   1      46.165  30.964  28.813  1.00  0.00     0.074 A 
ATOM     60  C   UNL A   1      46.928  25.524  31.972  1.00  0.00     0.029 A 
ATOM     61  N   UNL A   1      46.176  27.468  31.198  1.00  0.00    -0.354 N 
ATOM     62  N   UNL A   1      46.240  29.851  29.503  1.00  0.00    -0.248 NA
ATOM     63  C   UNL A   1      47.363  31.251  28.011  1.00  0.00     0.031 C 
ATOM     64  C   UNL A   1      47.889  26.056  31.107  1.00  0.00     0.029 A 
ATOM     65  C   UNL A   1      47.408  27.254  30.602  1.00  0.00     0.049 A 
ATOM     66  H   UNL A   1      45.598  28.248  31.036  1.00  0.00     0.167 HD
ATOM     67  C   UNL A   1      47.473  29.290  29.192  1.00  0.00     0.074 A 
ATOM     68  C   UNL A   1      48.108  30.179  28.243  1.00  0.00     0.031 C 
ATOM     69  C   UNL A   1      48.029  28.142  29.651  1.00  0.00     0.037 A 
BRANCH  56  70
ATOM     70  C   UNL A   1      44.548  25.171  33.802  1.00  0.00     0.057 A 
ATOM     71  C   UNL A   1      44.151  23.906  33.353  1.00  0.00     0.134 A 
ATOM     72  C   UNL A   1      44.845  25.308  35.165  1.00  0.00     0.134 A 
ATOM     73  F   UNL A   1      43.837  23.710  32.063  1.00  0.00    -0.206 F 
ATOM     74  C   UNL A   1      44.029  22.825  34.228  1.00  0.00     0.040 A 
ATOM     75  C   UNL A   1      44.755  24.228  36.044  1.00  0.00     0.040 A 
ATOM     76  F   UNL A   1      45.236  26.491  35.661  1.00  0.00    -0.206 F 
ATOM     77  C   UNL A   1      44.339  22.983  35.577  1.00  0.00     0.006 A 
ENDBRANCH  56  70
BRANCH  57  78
ATOM     78  C   UNL A   1      45.167  33.171  27.875  1.00  0.00     0.057 A 
ATOM     79  C   UNL A   1      45.783  34.336  28.346  1.00  0.00     0.134 A 
ATOM     80  C   UNL A   1      44.646  33.200  26.575  1.00  0.00     0.134 A 
ATOM     81  F   UNL A   1      46.277  34.382  29.592  1.00  0.00    -0.206 F 
ATOM     82  C   UNL A   1      45.858  35.492  27.566  1.00  0.00     0.040 A 
ATOM     83  C   UNL A   1      44.739  34.337  25.772  1.00  0.00     0.040 A 
ATOM     84  F   UNL A   1      44.040  32.117  26.064  1.00  0.00    -0.206 F 
ATOM     85  C   UNL A   1      45.339  35.492  26.272  1.00  0.00     0.006 A 
ENDBRANCH  57  78
BRANCH  69  86
ATOM     86  C   UNL A   1      49.371  27.751  29.099  1.00  0.00     0.057 A 
ATOM     87  C   UNL A   1      50.570  28.115  29.727  1.00  0.00     0.134 A 
ATOM     88  C   UNL A   1      49.463  26.963  27.944  1.00  0.00     0.134 A 
ATOM     89  F   UNL A   1      50.555  28.878  30.831  1.00  0.00    -0.206 F 
ATOM     90  C   UNL A   1      51.810  27.732  29.212  1.00  0.00     0.040 A 
ATOM     91  C   UNL A   1      50.696  26.547  27.437  1.00  0.00     0.040 A 
ATOM     92  F   UNL A   1      48.356  26.568  27.298  1.00  0.00    -0.206 F 
ATOM     93  C   UNL A   1      51.875  26.939  28.068  1.00  0.00     0.006 A 
ENDBRANCH  69  86
ENDBRANCH  43  44
ENDBRANCH  36  38
ENDBRANCH  35  36
ENDBRANCH  34  35
ENDBRANCH  33  34
ENDBRANCH  32  33
ENDBRANCH  31  32
ENDBRANCH  30  31
ENDBRANCH   1  30
TORSDOF 22
ENDMDL
