MODEL 1
REMARK VINA RESULT:     -10.3      0.000      0.000
REMARK SMILES CN(CC(=O)N1C[C@@H](O)C[C@H]1C(=O)OCCOCCOCCOC(=O)c1ccc(-c2c3nc(c(-c4c(F)cccc4F)c4ccc([nH]4)c(-c4c(F)cccc4F)c4nc(c(-c5c(F)cccc5F)c5ccc2[nH]5)C=C4)C=C3)cc1)C(=O)c1cccs1
REMARK SMILES IDX 17 1 16 2 15 3 14 4 12 5 13 6 11 7 6 8 7 9 8 10 10 11 4 12
REMARK SMILES IDX 5 13 3 14 2 15 1 16 80 17 81 18 82 19 83 20 86 21 84 22
REMARK SMILES IDX 85 23 9 24 18 26 19 27 20 28 21 29 22 30 23 31 24 32 25 33
REMARK SMILES IDX 26 34 27 35 79 36 28 37 78 38 29 39 30 40 31 41 72 42 32 43
REMARK SMILES IDX 77 44 71 45 73 46 33 47 76 48 70 49 69 50 34 52 60 53 43 54
REMARK SMILES IDX 59 55 44 56 47 57 58 58 74 59 45 60 46 61 57 63 75 64 48 65
REMARK SMILES IDX 35 66 36 67 41 68 37 69 38 70 40 71 42 72 39 73 61 74 62 75
REMARK SMILES IDX 67 76 63 77 64 78 66 79 68 80 65 81 49 82 50 83 55 84 51 85
REMARK SMILES IDX 52 86 54 87 56 88 53 89
REMARK H PARENT 9 25 73 51 47 62
REMARK Flexibility Score: inf
ROOT
ATOM      1  O   UNL A   1      38.882  21.582  25.614  1.00  0.00    -0.376 OA
ENDROOT
BRANCH   1   2
ATOM      2  C   UNL A   1      38.111  22.691  26.024  1.00  0.00     0.202 C 
BRANCH   2   3
ATOM      3  C   UNL A   1      37.132  23.253  24.995  1.00  0.00     0.261 C 
BRANCH   3   4
ATOM      4  O   UNL A   1      36.363  22.258  24.291  1.00  0.00    -0.462 OA
BRANCH   4   5
ATOM      5  C   UNL A   1      35.298  21.752  24.973  1.00  0.00     0.329 C 
ATOM      6  O   UNL A   1      35.197  20.576  25.314  1.00  0.00    -0.250 OA
BRANCH   5   7
ATOM      7  C   UNL A   1      34.102  22.719  25.054  1.00  0.00     0.197 C 
ATOM      8  N   UNL A   1      33.213  23.020  23.898  1.00  0.00    -0.325 N 
ATOM      9  C   UNL A   1      31.908  22.433  24.120  1.00  0.00     0.152 C 
ATOM     10  C   UNL A   1      31.768  22.467  25.638  1.00  0.00     0.136 C 
ATOM     11  C   UNL A   1      33.166  22.108  26.113  1.00  0.00     0.070 C 
BRANCH   8  12
ATOM     12  C   UNL A   1      33.568  24.023  23.023  1.00  0.00     0.243 C 
ATOM     13  O   UNL A   1      34.234  23.716  22.022  1.00  0.00    -0.273 OA
BRANCH  12  14
ATOM     14  C   UNL A   1      33.273  25.543  23.236  1.00  0.00     0.219 C 
BRANCH  14  15
ATOM     15  N   UNL A   1      32.155  26.075  24.019  1.00  0.00    -0.332 N 
ATOM     16  C   UNL A   1      30.817  25.835  23.487  1.00  0.00     0.147 C 
BRANCH  15  17
ATOM     17  C   UNL A   1      32.200  26.516  25.356  1.00  0.00     0.264 C 
ATOM     18  O   UNL A   1      32.481  25.707  26.244  1.00  0.00    -0.268 OA
BRANCH  17  19
ATOM     19  C   UNL A   1      31.992  27.924  25.661  1.00  0.00     0.092 A 
ATOM     20  C   UNL A   1      31.838  29.025  24.845  1.00  0.00     0.025 A 
ATOM     21  S   UNL A   1      31.877  28.377  27.320  1.00  0.00    -0.139 S 
ATOM     22  C   UNL A   1      31.762  30.244  25.578  1.00  0.00     0.012 A 
ATOM     23  C   UNL A   1      31.762  30.035  26.936  1.00  0.00     0.065 A 
ENDBRANCH  17  19
ENDBRANCH  15  17
ENDBRANCH  14  15
ENDBRANCH  12  14
ENDBRANCH   8  12
BRANCH  10  24
ATOM     24  O   UNL A   1      30.796  21.569  26.133  1.00  0.00    -0.391 OA
ATOM     25  H   UNL A   1      29.988  21.642  25.602  1.00  0.00     0.211 HD
ENDBRANCH  10  24
ENDBRANCH   5   7
ENDBRANCH   4   5
ENDBRANCH   3   4
ENDBRANCH   2   3
ENDBRANCH   1   2
BRANCH   1  26
ATOM     26  C   UNL A   1      39.976  21.145  26.407  1.00  0.00     0.188 C 
BRANCH  26  27
ATOM     27  C   UNL A   1      40.643  19.772  26.210  1.00  0.00     0.188 C 
BRANCH  27  28
ATOM     28  O   UNL A   1      41.711  19.559  25.306  1.00  0.00    -0.376 OA
BRANCH  28  29
ATOM     29  C   UNL A   1      43.058  19.631  25.728  1.00  0.00     0.202 C 
BRANCH  29  30
ATOM     30  C   UNL A   1      43.876  20.916  25.563  1.00  0.00     0.261 C 
BRANCH  30  31
ATOM     31  O   UNL A   1      43.360  22.064  26.242  1.00  0.00    -0.460 OA
BRANCH  31  32
ATOM     32  C   UNL A   1      43.121  23.146  25.472  1.00  0.00     0.338 C 
ATOM     33  O   UNL A   1      43.175  23.226  24.246  1.00  0.00    -0.246 OA
BRANCH  32  34
ATOM     34  C   UNL A   1      42.694  24.251  26.336  1.00  0.00     0.060 A 
ATOM     35  C   UNL A   1      43.311  25.501  26.222  1.00  0.00     0.016 A 
ATOM     36  C   UNL A   1      41.707  24.029  27.295  1.00  0.00     0.016 A 
ATOM     37  C   UNL A   1      42.937  26.546  27.065  1.00  0.00     0.010 A 
ATOM     38  C   UNL A   1      41.345  25.070  28.151  1.00  0.00     0.010 A 
ATOM     39  C   UNL A   1      41.968  26.329  28.051  1.00  0.00    -0.014 A 
BRANCH  39  40
ATOM     40  C   UNL A   1      41.679  27.359  29.075  1.00  0.00     0.031 A 
ATOM     41  C   UNL A   1      42.486  27.360  30.341  1.00  0.00     0.074 A 
ATOM     42  C   UNL A   1      40.691  28.253  28.902  1.00  0.00     0.049 A 
ATOM     43  N   UNL A   1      42.288  28.018  31.454  1.00  0.00    -0.248 NA
ATOM     44  C   UNL A   1      43.675  26.492  30.355  1.00  0.00     0.031 C 
ATOM     45  C   UNL A   1      39.878  28.394  27.696  1.00  0.00     0.029 A 
ATOM     46  N   UNL A   1      40.189  29.197  29.762  1.00  0.00    -0.354 N 
ATOM     47  C   UNL A   1      43.305  27.620  32.311  1.00  0.00     0.074 A 
ATOM     48  C   UNL A   1      44.114  26.657  31.594  1.00  0.00     0.031 C 
ATOM     49  C   UNL A   1      38.961  29.356  27.901  1.00  0.00     0.029 A 
ATOM     50  C   UNL A   1      39.091  29.858  29.267  1.00  0.00     0.049 A 
ATOM     51  H   UNL A   1      40.578  29.382  30.648  1.00  0.00     0.167 HD
ATOM     52  C   UNL A   1      43.540  28.020  33.583  1.00  0.00     0.037 A 
ATOM     53  C   UNL A   1      38.264  30.736  29.867  1.00  0.00     0.037 A 
ATOM     54  C   UNL A   1      42.741  28.987  34.286  1.00  0.00     0.049 A 
ATOM     55  C   UNL A   1      38.502  31.113  31.305  1.00  0.00     0.074 A 
ATOM     56  C   UNL A   1      42.898  29.466  35.575  1.00  0.00     0.029 A 
ATOM     57  N   UNL A   1      41.630  29.626  33.754  1.00  0.00    -0.354 N 
ATOM     58  N   UNL A   1      39.452  30.720  32.119  1.00  0.00    -0.248 NA
ATOM     59  C   UNL A   1      37.545  32.051  31.911  1.00  0.00     0.031 C 
ATOM     60  C   UNL A   1      41.859  30.365  35.837  1.00  0.00     0.029 A 
ATOM     61  C   UNL A   1      41.082  30.482  34.696  1.00  0.00     0.049 A 
ATOM     62  H   UNL A   1      41.282  29.491  32.844  1.00  0.00     0.167 HD
ATOM     63  C   UNL A   1      39.224  31.380  33.320  1.00  0.00     0.074 A 
ATOM     64  C   UNL A   1      38.052  32.208  33.127  1.00  0.00     0.031 C 
ATOM     65  C   UNL A   1      39.921  31.307  34.480  1.00  0.00     0.037 A 
BRANCH  52  66
ATOM     66  C   UNL A   1      44.690  27.383  34.304  1.00  0.00     0.057 A 
ATOM     67  C   UNL A   1      45.980  27.926  34.271  1.00  0.00     0.134 A 
ATOM     68  C   UNL A   1      44.498  26.217  35.056  1.00  0.00     0.134 A 
ATOM     69  F   UNL A   1      46.236  29.030  33.555  1.00  0.00    -0.206 F 
ATOM     70  C   UNL A   1      47.044  27.319  34.943  1.00  0.00     0.040 A 
ATOM     71  C   UNL A   1      45.547  25.615  35.752  1.00  0.00     0.040 A 
ATOM     72  F   UNL A   1      43.286  25.646  35.131  1.00  0.00    -0.206 F 
ATOM     73  C   UNL A   1      46.826  26.164  35.691  1.00  0.00     0.006 A 
ENDBRANCH  52  66
BRANCH  53  74
ATOM     74  C   UNL A   1      37.107  31.297  29.123  1.00  0.00     0.057 A 
ATOM     75  C   UNL A   1      37.135  32.602  28.621  1.00  0.00     0.134 A 
ATOM     76  C   UNL A   1      35.939  30.551  28.918  1.00  0.00     0.134 A 
ATOM     77  F   UNL A   1      38.215  33.375  28.810  1.00  0.00    -0.206 F 
ATOM     78  C   UNL A   1      36.039  33.154  27.957  1.00  0.00     0.040 A 
ATOM     79  C   UNL A   1      34.845  31.081  28.233  1.00  0.00     0.040 A 
ATOM     80  F   UNL A   1      35.848  29.295  29.378  1.00  0.00    -0.206 F 
ATOM     81  C   UNL A   1      34.890  32.390  27.755  1.00  0.00     0.006 A 
ENDBRANCH  53  74
BRANCH  65  82
ATOM     82  C   UNL A   1      39.464  32.177  35.614  1.00  0.00     0.057 A 
ATOM     83  C   UNL A   1      38.546  31.725  36.570  1.00  0.00     0.134 A 
ATOM     84  C   UNL A   1      39.983  33.469  35.774  1.00  0.00     0.134 A 
ATOM     85  F   UNL A   1      38.001  30.504  36.466  1.00  0.00    -0.206 F 
ATOM     86  C   UNL A   1      38.145  32.535  37.635  1.00  0.00     0.040 A 
ATOM     87  C   UNL A   1      39.610  34.277  36.848  1.00  0.00     0.040 A 
ATOM     88  F   UNL A   1      40.874  33.958  34.899  1.00  0.00    -0.206 F 
ATOM     89  C   UNL A   1      38.683  33.813  37.779  1.00  0.00     0.006 A 
ENDBRANCH  65  82
ENDBRANCH  39  40
ENDBRANCH  32  34
ENDBRANCH  31  32
ENDBRANCH  30  31
ENDBRANCH  29  30
ENDBRANCH  28  29
ENDBRANCH  27  28
ENDBRANCH  26  27
ENDBRANCH   1  26
TORSDOF 23
ENDMDL
MODEL 2
REMARK VINA RESULT:     -10.3      4.576      9.676
REMARK SMILES CN(CC(=O)N1C[C@@H](O)C[C@H]1C(=O)OCCOCCOCCOC(=O)c1ccc(-c2c3nc(c(-c4c(F)cccc4F)c4ccc([nH]4)c(-c4c(F)cccc4F)c4nc(c(-c5c(F)cccc5F)c5ccc2[nH]5)C=C4)C=C3)cc1)C(=O)c1cccs1
REMARK SMILES IDX 17 1 16 2 15 3 14 4 12 5 13 6 11 7 6 8 7 9 8 10 10 11 4 12
REMARK SMILES IDX 5 13 3 14 2 15 1 16 80 17 81 18 82 19 83 20 86 21 84 22
REMARK SMILES IDX 85 23 9 24 18 26 19 27 20 28 21 29 22 30 23 31 24 32 25 33
REMARK SMILES IDX 26 34 27 35 79 36 28 37 78 38 29 39 30 40 31 41 72 42 32 43
REMARK SMILES IDX 77 44 71 45 73 46 33 47 76 48 70 49 69 50 34 52 60 53 43 54
REMARK SMILES IDX 59 55 44 56 47 57 58 58 74 59 45 60 46 61 57 63 75 64 48 65
REMARK SMILES IDX 35 66 36 67 41 68 37 69 38 70 40 71 42 72 39 73 61 74 62 75
REMARK SMILES IDX 67 76 63 77 64 78 66 79 68 80 65 81 49 82 50 83 55 84 51 85
REMARK SMILES IDX 52 86 54 87 56 88 53 89
REMARK H PARENT 9 25 73 51 47 62
REMARK Flexibility Score: inf
ROOT
ATOM      1  O   UNL A   1      32.504  31.427  27.007  1.00  0.00    -0.376 OA
ENDROOT
BRANCH   1   2
ATOM      2  C   UNL A   1      32.402  30.037  26.780  1.00  0.00     0.202 C 
BRANCH   2   3
ATOM      3  C   UNL A   1      33.646  29.349  26.221  1.00  0.00     0.261 C 
BRANCH   3   4
ATOM      4  O   UNL A   1      33.405  28.053  25.638  1.00  0.00    -0.462 OA
BRANCH   4   5
ATOM      5  C   UNL A   1      33.441  28.008  24.278  1.00  0.00     0.329 C 
ATOM      6  O   UNL A   1      33.744  28.963  23.566  1.00  0.00    -0.250 OA
BRANCH   5   7
ATOM      7  C   UNL A   1      32.815  26.731  23.687  1.00  0.00     0.197 C 
ATOM      8  N   UNL A   1      31.403  26.650  23.223  1.00  0.00    -0.325 N 
ATOM      9  C   UNL A   1      31.370  26.542  21.778  1.00  0.00     0.152 C 
ATOM     10  C   UNL A   1      32.664  25.804  21.458  1.00  0.00     0.136 C 
ATOM     11  C   UNL A   1      33.653  26.417  22.434  1.00  0.00     0.070 C 
BRANCH   8  12
ATOM     12  C   UNL A   1      30.414  26.343  24.131  1.00  0.00     0.243 C 
ATOM     13  O   UNL A   1      29.271  26.778  23.920  1.00  0.00    -0.273 OA
BRANCH  12  14
ATOM     14  C   UNL A   1      30.635  25.560  25.465  1.00  0.00     0.219 C 
BRANCH  14  15
ATOM     15  N   UNL A   1      31.118  24.179  25.552  1.00  0.00    -0.332 N 
ATOM     16  C   UNL A   1      31.024  23.380  24.334  1.00  0.00     0.147 C 
BRANCH  15  17
ATOM     17  C   UNL A   1      31.930  23.635  26.567  1.00  0.00     0.264 C 
ATOM     18  O   UNL A   1      31.405  23.278  27.626  1.00  0.00    -0.268 OA
BRANCH  17  19
ATOM     19  C   UNL A   1      33.351  23.434  26.328  1.00  0.00     0.092 A 
ATOM     20  C   UNL A   1      34.365  24.321  26.034  1.00  0.00     0.025 A 
ATOM     21  S   UNL A   1      33.963  21.827  26.442  1.00  0.00    -0.139 S 
ATOM     22  C   UNL A   1      35.605  23.670  25.773  1.00  0.00     0.012 A 
ATOM     23  C   UNL A   1      35.530  22.311  25.968  1.00  0.00     0.065 A 
ENDBRANCH  17  19
ENDBRANCH  15  17
ENDBRANCH  14  15
ENDBRANCH  12  14
ENDBRANCH   8  12
BRANCH  10  24
ATOM     24  O   UNL A   1      33.082  25.956  20.117  1.00  0.00    -0.391 OA
ATOM     25  H   UNL A   1      32.986  26.885  19.852  1.00  0.00     0.211 HD
ENDBRANCH  10  24
ENDBRANCH   5   7
ENDBRANCH   4   5
ENDBRANCH   3   4
ENDBRANCH   2   3
ENDBRANCH   1   2
BRANCH   1  26
ATOM     26  C   UNL A   1      33.605  31.949  27.737  1.00  0.00     0.188 C 
BRANCH  26  27
ATOM     27  C   UNL A   1      33.739  33.444  28.074  1.00  0.00     0.188 C 
BRANCH  27  28
ATOM     28  O   UNL A   1      33.022  34.062  29.126  1.00  0.00    -0.376 OA
BRANCH  28  29
ATOM     29  C   UNL A   1      33.607  35.073  29.921  1.00  0.00     0.202 C 
BRANCH  29  30
ATOM     30  C   UNL A   1      34.385  34.733  31.197  1.00  0.00     0.261 C 
BRANCH  30  31
ATOM     31  O   UNL A   1      35.525  33.890  31.015  1.00  0.00    -0.460 OA
BRANCH  31  32
ATOM     32  C   UNL A   1      35.378  32.607  31.407  1.00  0.00     0.338 C 
ATOM     33  O   UNL A   1      34.415  32.098  31.977  1.00  0.00    -0.246 OA
BRANCH  32  34
ATOM     34  C   UNL A   1      36.554  31.846  30.972  1.00  0.00     0.060 A 
ATOM     35  C   UNL A   1      37.401  31.271  31.925  1.00  0.00     0.016 A 
ATOM     36  C   UNL A   1      36.840  31.746  29.611  1.00  0.00     0.016 A 
ATOM     37  C   UNL A   1      38.541  30.579  31.521  1.00  0.00     0.010 A 
ATOM     38  C   UNL A   1      37.991  31.068  29.208  1.00  0.00     0.010 A 
ATOM     39  C   UNL A   1      38.855  30.493  30.159  1.00  0.00    -0.014 A 
BRANCH  39  40
ATOM     40  C   UNL A   1      40.147  29.925  29.710  1.00  0.00     0.031 A 
ATOM     41  C   UNL A   1      41.331  30.840  29.588  1.00  0.00     0.074 A 
ATOM     42  C   UNL A   1      40.256  28.628  29.378  1.00  0.00     0.049 A 
ATOM     43  N   UNL A   1      42.493  30.625  29.027  1.00  0.00    -0.248 NA
ATOM     44  C   UNL A   1      41.178  32.183  30.170  1.00  0.00     0.031 C 
ATOM     45  C   UNL A   1      39.200  27.627  29.510  1.00  0.00     0.029 A 
ATOM     46  N   UNL A   1      41.310  27.938  28.834  1.00  0.00    -0.354 N 
ATOM     47  C   UNL A   1      43.198  31.814  29.160  1.00  0.00     0.074 A 
ATOM     48  C   UNL A   1      42.330  32.750  29.844  1.00  0.00     0.031 C 
ATOM     49  C   UNL A   1      39.653  26.452  29.037  1.00  0.00     0.029 A 
ATOM     50  C   UNL A   1      41.009  26.634  28.524  1.00  0.00     0.049 A 
ATOM     51  H   UNL A   1      42.197  28.339  28.680  1.00  0.00     0.167 HD
ATOM     52  C   UNL A   1      44.455  32.100  28.744  1.00  0.00     0.037 A 
ATOM     53  C   UNL A   1      41.732  25.709  27.864  1.00  0.00     0.037 A 
ATOM     54  C   UNL A   1      45.317  31.163  28.076  1.00  0.00     0.049 A 
ATOM     55  C   UNL A   1      43.100  26.071  27.348  1.00  0.00     0.074 A 
ATOM     56  C   UNL A   1      46.609  31.351  27.620  1.00  0.00     0.029 A 
ATOM     57  N   UNL A   1      44.970  29.855  27.770  1.00  0.00    -0.354 N 
ATOM     58  N   UNL A   1      43.755  27.201  27.456  1.00  0.00    -0.248 NA
ATOM     59  C   UNL A   1      43.826  25.028  26.607  1.00  0.00     0.031 C 
ATOM     60  C   UNL A   1      47.031  30.169  27.001  1.00  0.00     0.029 A 
ATOM     61  C   UNL A   1      46.019  29.230  27.115  1.00  0.00     0.049 A 
ATOM     62  H   UNL A   1      44.108  29.433  27.985  1.00  0.00     0.167 HD
ATOM     63  C   UNL A   1      44.976  26.998  26.824  1.00  0.00     0.074 A 
ATOM     64  C   UNL A   1      44.976  25.633  26.343  1.00  0.00     0.031 C 
ATOM     65  C   UNL A   1      46.004  27.865  26.655  1.00  0.00     0.037 A 
BRANCH  52  66
ATOM     66  C   UNL A   1      44.955  33.496  28.972  1.00  0.00     0.057 A 
ATOM     67  C   UNL A   1      44.711  34.530  28.060  1.00  0.00     0.134 A 
ATOM     68  C   UNL A   1      45.677  33.811  30.129  1.00  0.00     0.134 A 
ATOM     69  F   UNL A   1      44.042  34.290  26.922  1.00  0.00    -0.206 F 
ATOM     70  C   UNL A   1      45.186  35.824  28.281  1.00  0.00     0.040 A 
ATOM     71  C   UNL A   1      46.136  35.106  30.374  1.00  0.00     0.040 A 
ATOM     72  F   UNL A   1      45.944  32.866  31.045  1.00  0.00    -0.206 F 
ATOM     73  C   UNL A   1      45.896  36.115  29.445  1.00  0.00     0.006 A 
ENDBRANCH  52  66
BRANCH  53  74
ATOM     74  C   UNL A   1      41.168  24.358  27.618  1.00  0.00     0.057 A 
ATOM     75  C   UNL A   1      40.133  24.164  26.697  1.00  0.00     0.134 A 
ATOM     76  C   UNL A   1      41.631  23.235  28.315  1.00  0.00     0.134 A 
ATOM     77  F   UNL A   1      39.629  25.206  26.019  1.00  0.00    -0.206 F 
ATOM     78  C   UNL A   1      39.567  22.906  26.487  1.00  0.00     0.040 A 
ATOM     79  C   UNL A   1      41.092  21.966  28.096  1.00  0.00     0.040 A 
ATOM     80  F   UNL A   1      42.617  23.355  29.215  1.00  0.00    -0.206 F 
ATOM     81  C   UNL A   1      40.051  21.800  27.184  1.00  0.00     0.006 A 
ENDBRANCH  53  74
BRANCH  65  82
ATOM     82  C   UNL A   1      47.232  27.350  25.962  1.00  0.00     0.057 A 
ATOM     83  C   UNL A   1      48.257  26.697  26.658  1.00  0.00     0.134 A 
ATOM     84  C   UNL A   1      47.368  27.472  24.572  1.00  0.00     0.134 A 
ATOM     85  F   UNL A   1      48.193  26.560  27.990  1.00  0.00    -0.206 F 
ATOM     86  C   UNL A   1      49.383  26.201  25.998  1.00  0.00     0.040 A 
ATOM     87  C   UNL A   1      48.477  26.957  23.900  1.00  0.00     0.040 A 
ATOM     88  F   UNL A   1      46.417  28.077  23.846  1.00  0.00    -0.206 F 
ATOM     89  C   UNL A   1      49.492  26.325  24.615  1.00  0.00     0.006 A 
ENDBRANCH  65  82
ENDBRANCH  39  40
ENDBRANCH  32  34
ENDBRANCH  31  32
ENDBRANCH  30  31
ENDBRANCH  29  30
ENDBRANCH  28  29
ENDBRANCH  27  28
ENDBRANCH  26  27
ENDBRANCH   1  26
TORSDOF 23
ENDMDL
MODEL 3
REMARK VINA RESULT:      -9.7      1.553      2.280
REMARK SMILES CN(CC(=O)N1C[C@@H](O)C[C@H]1C(=O)OCCOCCOCCOC(=O)c1ccc(-c2c3nc(c(-c4c(F)cccc4F)c4ccc([nH]4)c(-c4c(F)cccc4F)c4nc(c(-c5c(F)cccc5F)c5ccc2[nH]5)C=C4)C=C3)cc1)C(=O)c1cccs1
REMARK SMILES IDX 17 1 16 2 15 3 14 4 12 5 13 6 11 7 6 8 7 9 8 10 10 11 4 12
REMARK SMILES IDX 5 13 3 14 2 15 1 16 80 17 81 18 82 19 83 20 86 21 84 22
REMARK SMILES IDX 85 23 9 24 18 26 19 27 20 28 21 29 22 30 23 31 24 32 25 33
REMARK SMILES IDX 26 34 27 35 79 36 28 37 78 38 29 39 30 40 31 41 72 42 32 43
REMARK SMILES IDX 77 44 71 45 73 46 33 47 76 48 70 49 69 50 34 52 60 53 43 54
REMARK SMILES IDX 59 55 44 56 47 57 58 58 74 59 45 60 46 61 57 63 75 64 48 65
REMARK SMILES IDX 35 66 36 67 41 68 37 69 38 70 40 71 42 72 39 73 61 74 62 75
REMARK SMILES IDX 67 76 63 77 64 78 66 79 68 80 65 81 49 82 50 83 55 84 51 85
REMARK SMILES IDX 52 86 54 87 56 88 53 89
REMARK H PARENT 9 25 73 51 47 62
REMARK Flexibility Score: inf
ROOT
ATOM      1  O   UNL A   1      38.216  23.072  25.771  1.00  0.00    -0.376 OA
ENDROOT
BRANCH   1   2
ATOM      2  C   UNL A   1      36.889  22.772  26.147  1.00  0.00     0.202 C 
BRANCH   2   3
ATOM      3  C   UNL A   1      35.990  22.193  25.056  1.00  0.00     0.261 C 
BRANCH   3   4
ATOM      4  O   UNL A   1      34.578  22.309  25.317  1.00  0.00    -0.462 OA
BRANCH   4   5
ATOM      5  C   UNL A   1      33.986  23.441  24.843  1.00  0.00     0.329 C 
ATOM      6  O   UNL A   1      34.388  24.068  23.865  1.00  0.00    -0.250 OA
BRANCH   5   7
ATOM      7  C   UNL A   1      32.922  24.024  25.792  1.00  0.00     0.197 C 
ATOM      8  N   UNL A   1      31.850  24.954  25.347  1.00  0.00    -0.325 N 
ATOM      9  C   UNL A   1      30.569  24.280  25.392  1.00  0.00     0.152 C 
ATOM     10  C   UNL A   1      30.742  23.286  26.535  1.00  0.00     0.136 C 
ATOM     11  C   UNL A   1      32.169  22.801  26.346  1.00  0.00     0.070 C 
BRANCH   8  12
ATOM     12  C   UNL A   1      32.108  26.307  25.307  1.00  0.00     0.243 C 
ATOM     13  O   UNL A   1      33.276  26.684  25.494  1.00  0.00    -0.273 OA
BRANCH  12  14
ATOM     14  C   UNL A   1      31.026  27.421  25.133  1.00  0.00     0.219 C 
BRANCH  14  15
ATOM     15  N   UNL A   1      30.402  27.788  23.859  1.00  0.00    -0.332 N 
ATOM     16  C   UNL A   1      29.173  27.081  23.510  1.00  0.00     0.147 C 
BRANCH  15  17
ATOM     17  C   UNL A   1      30.675  28.936  23.090  1.00  0.00     0.264 C 
ATOM     18  O   UNL A   1      31.718  28.981  22.431  1.00  0.00    -0.268 OA
BRANCH  17  19
ATOM     19  C   UNL A   1      29.697  30.012  23.023  1.00  0.00     0.092 A 
ATOM     20  C   UNL A   1      29.230  30.886  23.983  1.00  0.00     0.025 A 
ATOM     21  S   UNL A   1      28.965  30.336  21.498  1.00  0.00    -0.139 S 
ATOM     22  C   UNL A   1      28.184  31.722  23.499  1.00  0.00     0.012 A 
ATOM     23  C   UNL A   1      27.944  31.533  22.158  1.00  0.00     0.065 A 
ENDBRANCH  17  19
ENDBRANCH  15  17
ENDBRANCH  14  15
ENDBRANCH  12  14
ENDBRANCH   8  12
BRANCH  10  24
ATOM     24  O   UNL A   1      29.813  22.222  26.501  1.00  0.00    -0.391 OA
ATOM     25  H   UNL A   1      29.104  22.432  25.874  1.00  0.00     0.211 HD
ENDBRANCH  10  24
ENDBRANCH   5   7
ENDBRANCH   4   5
ENDBRANCH   3   4
ENDBRANCH   2   3
ENDBRANCH   1   2
BRANCH   1  26
ATOM     26  C   UNL A   1      39.221  22.072  25.853  1.00  0.00     0.188 C 
BRANCH  26  27
ATOM     27  C   UNL A   1      40.023  21.810  27.141  1.00  0.00     0.188 C 
BRANCH  27  28
ATOM     28  O   UNL A   1      41.031  20.821  27.230  1.00  0.00    -0.376 OA
BRANCH  28  29
ATOM     29  C   UNL A   1      41.879  20.535  26.137  1.00  0.00     0.202 C 
BRANCH  29  30
ATOM     30  C   UNL A   1      43.013  21.485  25.738  1.00  0.00     0.261 C 
BRANCH  30  31
ATOM     31  O   UNL A   1      42.602  22.696  25.097  1.00  0.00    -0.460 OA
BRANCH  31  32
ATOM     32  C   UNL A   1      43.476  23.723  25.159  1.00  0.00     0.338 C 
ATOM     33  O   UNL A   1      44.515  23.868  24.520  1.00  0.00    -0.246 OA
BRANCH  32  34
ATOM     34  C   UNL A   1      42.951  24.729  26.089  1.00  0.00     0.060 A 
ATOM     35  C   UNL A   1      43.316  26.070  25.939  1.00  0.00     0.016 A 
ATOM     36  C   UNL A   1      42.129  24.327  27.141  1.00  0.00     0.016 A 
ATOM     37  C   UNL A   1      42.852  27.026  26.841  1.00  0.00     0.010 A 
ATOM     38  C   UNL A   1      41.679  25.282  28.053  1.00  0.00     0.010 A 
ATOM     39  C   UNL A   1      42.049  26.633  27.918  1.00  0.00    -0.014 A 
BRANCH  39  40
ATOM     40  C   UNL A   1      41.690  27.590  28.990  1.00  0.00     0.031 A 
ATOM     41  C   UNL A   1      42.450  27.537  30.284  1.00  0.00     0.074 A 
ATOM     42  C   UNL A   1      40.681  28.462  28.832  1.00  0.00     0.049 A 
ATOM     43  N   UNL A   1      42.190  28.120  31.426  1.00  0.00    -0.248 NA
ATOM     44  C   UNL A   1      43.665  26.706  30.292  1.00  0.00     0.031 C 
ATOM     45  C   UNL A   1      39.909  28.653  27.607  1.00  0.00     0.029 A 
ATOM     46  N   UNL A   1      40.118  29.337  29.727  1.00  0.00    -0.354 N 
ATOM     47  C   UNL A   1      43.187  27.701  32.296  1.00  0.00     0.074 A 
ATOM     48  C   UNL A   1      44.052  26.808  31.554  1.00  0.00     0.031 C 
ATOM     49  C   UNL A   1      38.955  29.573  27.833  1.00  0.00     0.029 A 
ATOM     50  C   UNL A   1      39.019  29.994  29.231  1.00  0.00     0.049 A 
ATOM     51  H   UNL A   1      40.468  29.480  30.637  1.00  0.00     0.167 HD
ATOM     52  C   UNL A   1      43.363  28.030  33.598  1.00  0.00     0.037 A 
ATOM     53  C   UNL A   1      38.142  30.809  29.849  1.00  0.00     0.037 A 
ATOM     54  C   UNL A   1      42.507  28.928  34.326  1.00  0.00     0.049 A 
ATOM     55  C   UNL A   1      38.316  31.105  31.315  1.00  0.00     0.074 A 
ATOM     56  C   UNL A   1      42.602  29.332  35.646  1.00  0.00     0.029 A 
ATOM     57  N   UNL A   1      41.397  29.565  33.790  1.00  0.00    -0.354 N 
ATOM     58  N   UNL A   1      39.247  30.692  32.140  1.00  0.00    -0.248 NA
ATOM     59  C   UNL A   1      37.307  31.975  31.940  1.00  0.00     0.031 C 
ATOM     60  C   UNL A   1      41.525  30.182  35.921  1.00  0.00     0.029 A 
ATOM     61  C   UNL A   1      40.788  30.345  34.760  1.00  0.00     0.049 A 
ATOM     62  H   UNL A   1      41.087  29.475  32.861  1.00  0.00     0.167 HD
ATOM     63  C   UNL A   1      38.954  31.270  33.370  1.00  0.00     0.074 A 
ATOM     64  C   UNL A   1      37.764  32.073  33.181  1.00  0.00     0.031 C 
ATOM     65  C   UNL A   1      39.610  31.147  34.549  1.00  0.00     0.037 A 
BRANCH  52  66
ATOM     66  C   UNL A   1      44.505  27.384  34.323  1.00  0.00     0.057 A 
ATOM     67  C   UNL A   1      44.388  26.124  34.921  1.00  0.00     0.134 A 
ATOM     68  C   UNL A   1      45.746  28.029  34.409  1.00  0.00     0.134 A 
ATOM     69  F   UNL A   1      43.222  25.462  34.891  1.00  0.00    -0.206 F 
ATOM     70  C   UNL A   1      45.459  25.536  35.598  1.00  0.00     0.040 A 
ATOM     71  C   UNL A   1      46.831  27.441  35.061  1.00  0.00     0.040 A 
ATOM     72  F   UNL A   1      45.926  29.238  33.856  1.00  0.00    -0.206 F 
ATOM     73  C   UNL A   1      46.686  26.193  35.664  1.00  0.00     0.006 A 
ENDBRANCH  52  66
BRANCH  53  74
ATOM     74  C   UNL A   1      36.996  31.380  29.097  1.00  0.00     0.057 A 
ATOM     75  C   UNL A   1      36.997  32.715  28.682  1.00  0.00     0.134 A 
ATOM     76  C   UNL A   1      35.864  30.612  28.796  1.00  0.00     0.134 A 
ATOM     77  F   UNL A   1      38.042  33.509  28.964  1.00  0.00    -0.206 F 
ATOM     78  C   UNL A   1      35.909  33.274  28.010  1.00  0.00     0.040 A 
ATOM     79  C   UNL A   1      34.780  31.149  28.102  1.00  0.00     0.040 A 
ATOM     80  F   UNL A   1      35.799  29.326  29.170  1.00  0.00    -0.206 F 
ATOM     81  C   UNL A   1      34.797  32.487  27.712  1.00  0.00     0.006 A 
ENDBRANCH  53  74
BRANCH  65  82
ATOM     82  C   UNL A   1      39.084  31.932  35.715  1.00  0.00     0.057 A 
ATOM     83  C   UNL A   1      39.436  33.271  35.926  1.00  0.00     0.134 A 
ATOM     84  C   UNL A   1      38.178  31.352  36.613  1.00  0.00     0.134 A 
ATOM     85  F   UNL A   1      40.309  33.881  35.110  1.00  0.00    -0.206 F 
ATOM     86  C   UNL A   1      38.921  33.998  37.001  1.00  0.00     0.040 A 
ATOM     87  C   UNL A   1      37.638  32.076  37.675  1.00  0.00     0.040 A 
ATOM     88  F   UNL A   1      37.792  30.076  36.460  1.00  0.00    -0.206 F 
ATOM     89  C   UNL A   1      38.014  33.403  37.875  1.00  0.00     0.006 A 
ENDBRANCH  65  82
ENDBRANCH  39  40
ENDBRANCH  32  34
ENDBRANCH  31  32
ENDBRANCH  30  31
ENDBRANCH  29  30
ENDBRANCH  28  29
ENDBRANCH  27  28
ENDBRANCH  26  27
ENDBRANCH   1  26
TORSDOF 23
ENDMDL
