MODEL 1
REMARK VINA RESULT:     -12.9      0.000      0.000
REMARK SMILES Cc1ccc(S(=O)(=O)Nc2ccc(N3CCNC3=O)cc2)cc1C(=O)OCCOCCOCCOC(=O)c1ccc(-c2c3nc(c(-c4c(F)cccc4F)c4ccc([nH]4)c(-c4c(F)cccc4F)c4nc(c(-c5c(F)cccc5F)c5ccc2[nH]5)C=C4)C=C3)cc1
REMARK SMILES IDX 30 1 29 2 28 3 27 4 26 5 24 6 25 7 23 8 1 9 2 10 3 11 4 12
REMARK SMILES IDX 22 13 5 14 6 15 7 16 8 17 9 18 10 20 11 21 21 22 12 23 20 24
REMARK SMILES IDX 13 25 14 26 15 27 18 28 16 29 17 30 19 31 31 33 32 34 33 35
REMARK SMILES IDX 34 36 35 37 36 38 37 39 38 40 39 41 91 42 40 43 90 44 41 45
REMARK SMILES IDX 42 46 43 47 84 48 44 49 89 50 83 51 85 52 45 53 88 54 82 55
REMARK SMILES IDX 81 56 46 58 72 59 55 60 71 61 56 62 59 63 70 64 86 65 57 66
REMARK SMILES IDX 58 67 69 69 87 70 60 71 47 72 48 73 53 74 49 75 50 76 52 77
REMARK SMILES IDX 54 78 51 79 73 80 74 81 79 82 75 83 76 84 78 85 80 86 77 87
REMARK SMILES IDX 61 88 62 89 67 90 63 91 64 92 66 93 68 94 65 95
REMARK H PARENT 9 19 17 32 85 57 59 68
REMARK Flexibility Score: inf
ROOT
ATOM      1  C   UNL A   1      33.637  35.414  28.961  1.00  0.00     0.188 C 
ENDROOT
BRANCH   1   2
ATOM      2  O   UNL A   1      32.486  34.756  28.453  1.00  0.00    -0.376 OA
BRANCH   2   3
ATOM      3  C   UNL A   1      32.751  33.601  27.689  1.00  0.00     0.202 C 
BRANCH   3   4
ATOM      4  C   UNL A   1      31.718  32.668  26.776  1.00  0.00     0.261 C 
BRANCH   4   5
ATOM      5  O   UNL A   1      31.515  30.907  26.261  1.00  0.00    -0.460 OA
BRANCH   5   6
ATOM      6  C   UNL A   1      31.779  29.855  25.127  1.00  0.00     0.338 C 
ATOM      7  O   UNL A   1      32.830  29.654  24.502  1.00  0.00    -0.246 OA
BRANCH   6   8
ATOM      8  C   UNL A   1      30.972  28.692  24.721  1.00  0.00     0.064 A 
ATOM      9  C   UNL A   1      29.688  30.111  23.123  1.00  0.00     0.045 C 
ATOM     10  C   UNL A   1      30.046  28.788  23.716  1.00  0.00    -0.036 A 
ATOM     11  C   UNL A   1      29.512  27.576  23.267  1.00  0.00     0.006 A 
ATOM     12  C   UNL A   1      29.736  26.345  23.951  1.00  0.00     0.022 A 
ATOM     13  C   UNL A   1      31.280  27.402  25.365  1.00  0.00     0.038 A 
ATOM     14  C   UNL A   1      30.556  26.270  25.085  1.00  0.00     0.088 A 
BRANCH  14  15
ATOM     15  S   UNL A   1      30.469  24.814  26.155  1.00  0.00     0.261 S 
ATOM     16  O   UNL A   1      31.532  24.984  27.124  1.00  0.00    -0.201 OA
ATOM     17  O   UNL A   1      29.086  24.774  26.596  1.00  0.00    -0.201 OA
BRANCH  15  18
ATOM     18  N   UNL A   1      30.683  23.303  25.391  1.00  0.00    -0.280 N 
ATOM     19  H   UNL A   1      29.939  23.039  24.803  1.00  0.00     0.180 HD
BRANCH  18  20
ATOM     20  C   UNL A   1      31.764  22.339  25.452  1.00  0.00     0.049 A 
ATOM     21  C   UNL A   1      32.397  21.918  24.273  1.00  0.00     0.029 A 
ATOM     22  C   UNL A   1      32.222  21.686  26.558  1.00  0.00     0.029 A 
ATOM     23  C   UNL A   1      33.685  21.213  24.230  1.00  0.00     0.028 A 
ATOM     24  C   UNL A   1      33.475  20.966  26.500  1.00  0.00     0.028 A 
ATOM     25  C   UNL A   1      34.613  21.022  25.389  1.00  0.00     0.046 A 
BRANCH  25  26
ATOM     26  N   UNL A   1      36.612  21.410  25.569  1.00  0.00    -0.293 N 
ATOM     27  C   UNL A   1      37.977  20.816  24.995  1.00  0.00     0.149 C 
ATOM     28  C   UNL A   1      37.533  22.890  25.640  1.00  0.00     0.321 C 
ATOM     29  C   UNL A   1      39.186  21.236  25.793  1.00  0.00     0.139 C 
ATOM     30  N   UNL A   1      38.875  22.584  25.918  1.00  0.00    -0.336 N 
ATOM     31  O   UNL A   1      37.285  24.061  25.373  1.00  0.00    -0.248 OA
ATOM     32  H   UNL A   1      39.536  23.265  26.179  1.00  0.00     0.165 HD
ENDBRANCH  25  26
ENDBRANCH  18  20
ENDBRANCH  15  18
ENDBRANCH  14  15
ENDBRANCH   6   8
ENDBRANCH   5   6
ENDBRANCH   4   5
ENDBRANCH   3   4
ENDBRANCH   2   3
ENDBRANCH   1   2
BRANCH   1  33
ATOM     33  C   UNL A   1      33.506  35.581  30.450  1.00  0.00     0.188 C 
BRANCH  33  34
ATOM     34  O   UNL A   1      33.338  36.971  30.613  1.00  0.00    -0.376 OA
BRANCH  34  35
ATOM     35  C   UNL A   1      33.436  37.452  31.911  1.00  0.00     0.202 C 
BRANCH  35  36
ATOM     36  C   UNL A   1      33.346  36.196  32.772  1.00  0.00     0.261 C 
BRANCH  36  37
ATOM     37  O   UNL A   1      34.639  36.065  33.511  1.00  0.00    -0.460 OA
BRANCH  37  38
ATOM     38  C   UNL A   1      35.113  34.829  33.938  1.00  0.00     0.338 C 
ATOM     39  O   UNL A   1      35.287  34.548  35.115  1.00  0.00    -0.246 OA
BRANCH  38  40
ATOM     40  C   UNL A   1      35.638  33.921  32.786  1.00  0.00     0.060 A 
ATOM     41  C   UNL A   1      35.543  32.531  32.695  1.00  0.00     0.016 A 
ATOM     42  C   UNL A   1      36.781  34.328  32.214  1.00  0.00     0.016 A 
ATOM     43  C   UNL A   1      36.766  31.609  32.478  1.00  0.00     0.010 A 
ATOM     44  C   UNL A   1      37.928  33.452  32.352  1.00  0.00     0.010 A 
ATOM     45  C   UNL A   1      38.140  32.007  32.483  1.00  0.00    -0.014 A 
BRANCH  45  46
ATOM     46  C   UNL A   1      39.788  31.156  32.154  1.00  0.00     0.031 A 
ATOM     47  C   UNL A   1      40.007  29.639  31.132  1.00  0.00     0.074 A 
ATOM     48  C   UNL A   1      41.027  31.504  32.689  1.00  0.00     0.049 A 
ATOM     49  N   UNL A   1      40.575  28.525  31.525  1.00  0.00    -0.248 NA
ATOM     50  C   UNL A   1      39.202  29.145  29.777  1.00  0.00     0.031 C 
ATOM     51  C   UNL A   1      42.457  31.291  32.524  1.00  0.00     0.029 A 
ATOM     52  N   UNL A   1      41.140  32.196  33.834  1.00  0.00    -0.354 N 
ATOM     53  C   UNL A   1      40.431  27.648  30.427  1.00  0.00     0.074 A 
ATOM     54  C   UNL A   1      39.157  27.833  29.900  1.00  0.00     0.031 C 
ATOM     55  C   UNL A   1      43.176  31.625  33.650  1.00  0.00     0.029 A 
ATOM     56  C   UNL A   1      42.244  32.136  34.652  1.00  0.00     0.049 A 
ATOM     57  H   UNL A   1      40.391  32.776  34.103  1.00  0.00     0.167 HD
ATOM     58  C   UNL A   1      41.514  27.393  29.629  1.00  0.00     0.037 A 
ATOM     59  C   UNL A   1      42.054  31.974  36.015  1.00  0.00     0.037 A 
ATOM     60  C   UNL A   1      42.672  27.775  30.410  1.00  0.00     0.049 A 
ATOM     61  C   UNL A   1      42.319  30.424  36.056  1.00  0.00     0.074 A 
ATOM     62  C   UNL A   1      43.558  28.828  30.434  1.00  0.00     0.029 A 
ATOM     63  N   UNL A   1      42.660  27.272  31.698  1.00  0.00    -0.354 N 
ATOM     64  N   UNL A   1      42.028  29.633  35.035  1.00  0.00    -0.248 NA
ATOM     65  C   UNL A   1      43.243  29.771  37.000  1.00  0.00     0.031 C 
ATOM     66  C   UNL A   1      44.033  28.930  31.804  1.00  0.00     0.029 A 
ATOM     67  C   UNL A   1      43.304  28.063  32.617  1.00  0.00     0.049 A 
ATOM     68  H   UNL A   1      42.227  26.420  31.935  1.00  0.00     0.167 HD
ATOM     69  C   UNL A   1      42.883  28.556  35.039  1.00  0.00     0.074 A 
ATOM     70  C   UNL A   1      43.574  28.657  36.322  1.00  0.00     0.031 C 
ATOM     71  C   UNL A   1      43.159  27.666  34.027  1.00  0.00     0.037 A 
BRANCH  58  72
ATOM     72  C   UNL A   1      41.476  26.986  28.147  1.00  0.00     0.057 A 
ATOM     73  C   UNL A   1      41.691  27.999  27.204  1.00  0.00     0.134 A 
ATOM     74  C   UNL A   1      41.243  25.708  27.551  1.00  0.00     0.134 A 
ATOM     75  F   UNL A   1      41.888  29.263  27.595  1.00  0.00    -0.206 F 
ATOM     76  C   UNL A   1      41.721  27.771  25.816  1.00  0.00     0.040 A 
ATOM     77  C   UNL A   1      41.304  25.463  26.167  1.00  0.00     0.040 A 
ATOM     78  F   UNL A   1      40.893  24.612  28.234  1.00  0.00    -0.206 F 
ATOM     79  C   UNL A   1      41.549  26.499  25.291  1.00  0.00     0.006 A 
ENDBRANCH  58  72
BRANCH  59  80
ATOM     80  C   UNL A   1      40.764  32.841  36.574  1.00  0.00     0.057 A 
ATOM     81  C   UNL A   1      38.975  32.466  36.528  1.00  0.00     0.134 A 
ATOM     82  C   UNL A   1      41.243  34.009  37.853  1.00  0.00     0.134 A 
ATOM     83  F   UNL A   1      38.523  31.472  35.748  1.00  0.00    -0.206 F 
ATOM     84  C   UNL A   1      37.785  33.169  37.749  1.00  0.00     0.040 A 
ATOM     85  C   UNL A   1      40.199  34.464  39.277  1.00  0.00     0.040 A 
ATOM     86  F   UNL A   1      42.406  34.637  37.585  1.00  0.00    -0.206 F 
ATOM     87  C   UNL A   1      38.429  34.050  39.233  1.00  0.00     0.006 A 
ENDBRANCH  59  80
BRANCH  71  88
ATOM     88  C   UNL A   1      43.258  26.187  34.397  1.00  0.00     0.057 A 
ATOM     89  C   UNL A   1      44.433  25.442  34.213  1.00  0.00     0.134 A 
ATOM     90  C   UNL A   1      42.223  25.470  35.046  1.00  0.00     0.134 A 
ATOM     91  F   UNL A   1      45.602  26.013  33.884  1.00  0.00    -0.206 F 
ATOM     92  C   UNL A   1      44.474  24.061  34.384  1.00  0.00     0.040 A 
ATOM     93  C   UNL A   1      42.305  24.118  35.353  1.00  0.00     0.040 A 
ATOM     94  F   UNL A   1      41.072  26.020  35.451  1.00  0.00    -0.206 F 
ATOM     95  C   UNL A   1      43.399  23.390  34.939  1.00  0.00     0.006 A 
ENDBRANCH  71  88
ENDBRANCH  45  46
ENDBRANCH  38  40
ENDBRANCH  37  38
ENDBRANCH  36  37
ENDBRANCH  35  36
ENDBRANCH  34  35
ENDBRANCH  33  34
ENDBRANCH   1  33
TORSDOF 21
ENDMDL
MODEL 2
REMARK VINA RESULT:     -12.6      2.688      3.816
REMARK SMILES Cc1ccc(S(=O)(=O)Nc2ccc(N3CCNC3=O)cc2)cc1C(=O)OCCOCCOCCOC(=O)c1ccc(-c2c3nc(c(-c4c(F)cccc4F)c4ccc([nH]4)c(-c4c(F)cccc4F)c4nc(c(-c5c(F)cccc5F)c5ccc2[nH]5)C=C4)C=C3)cc1
REMARK SMILES IDX 30 1 29 2 28 3 27 4 26 5 24 6 25 7 23 8 1 9 2 10 3 11 4 12
REMARK SMILES IDX 22 13 5 14 6 15 7 16 8 17 9 18 10 20 11 21 21 22 12 23 20 24
REMARK SMILES IDX 13 25 14 26 15 27 18 28 16 29 17 30 19 31 31 33 32 34 33 35
REMARK SMILES IDX 34 36 35 37 36 38 37 39 38 40 39 41 91 42 40 43 90 44 41 45
REMARK SMILES IDX 42 46 43 47 84 48 44 49 89 50 83 51 85 52 45 53 88 54 82 55
REMARK SMILES IDX 81 56 46 58 72 59 55 60 71 61 56 62 59 63 70 64 86 65 57 66
REMARK SMILES IDX 58 67 69 69 87 70 60 71 47 72 48 73 53 74 49 75 50 76 52 77
REMARK SMILES IDX 54 78 51 79 73 80 74 81 79 82 75 83 76 84 78 85 80 86 77 87
REMARK SMILES IDX 61 88 62 89 67 90 63 91 64 92 66 93 68 94 65 95
REMARK H PARENT 9 19 17 32 85 57 59 68
REMARK Flexibility Score: inf
ROOT
ATOM      1  C   UNL A   1      32.954  34.296  28.379  1.00  0.00     0.188 C 
ENDROOT
BRANCH   1   2
ATOM      2  O   UNL A   1      32.989  33.010  27.779  1.00  0.00    -0.376 OA
BRANCH   2   3
ATOM      3  C   UNL A   1      34.232  32.350  27.861  1.00  0.00     0.202 C 
BRANCH   3   4
ATOM      4  C   UNL A   1      34.626  30.773  27.500  1.00  0.00     0.261 C 
BRANCH   4   5
ATOM      5  O   UNL A   1      33.842  29.102  27.511  1.00  0.00    -0.460 OA
BRANCH   5   6
ATOM      6  C   UNL A   1      32.515  28.298  27.278  1.00  0.00     0.338 C 
ATOM      7  O   UNL A   1      31.399  28.504  27.777  1.00  0.00    -0.246 OA
BRANCH   6   8
ATOM      8  C   UNL A   1      32.189  27.309  26.236  1.00  0.00     0.064 A 
ATOM      9  C   UNL A   1      31.287  29.113  24.772  1.00  0.00     0.045 C 
ATOM     10  C   UNL A   1      31.691  27.698  25.020  1.00  0.00    -0.036 A 
ATOM     11  C   UNL A   1      31.640  26.701  24.040  1.00  0.00     0.006 A 
ATOM     12  C   UNL A   1      31.870  25.327  24.339  1.00  0.00     0.022 A 
ATOM     13  C   UNL A   1      32.523  25.901  26.517  1.00  0.00     0.038 A 
ATOM     14  C   UNL A   1      32.220  24.900  25.627  1.00  0.00     0.088 A 
BRANCH  14  15
ATOM     15  S   UNL A   1      32.080  23.149  26.058  1.00  0.00     0.261 S 
ATOM     16  O   UNL A   1      31.922  23.117  27.497  1.00  0.00    -0.201 OA
ATOM     17  O   UNL A   1      31.017  22.653  25.200  1.00  0.00    -0.201 OA
BRANCH  15  18
ATOM     18  N   UNL A   1      33.410  22.163  25.647  1.00  0.00    -0.280 N 
ATOM     19  H   UNL A   1      33.208  21.200  25.627  1.00  0.00     0.180 HD
BRANCH  18  20
ATOM     20  C   UNL A   1      34.785  22.488  25.320  1.00  0.00     0.049 A 
ATOM     21  C   UNL A   1      35.480  23.442  26.079  1.00  0.00     0.029 A 
ATOM     22  C   UNL A   1      35.512  22.025  24.264  1.00  0.00     0.029 A 
ATOM     23  C   UNL A   1      36.939  23.618  26.056  1.00  0.00     0.028 A 
ATOM     24  C   UNL A   1      36.943  22.230  24.231  1.00  0.00     0.028 A 
ATOM     25  C   UNL A   1      37.917  22.694  25.401  1.00  0.00     0.046 A 
BRANCH  25  26
ATOM     26  N   UNL A   1      39.608  21.811  26.137  1.00  0.00    -0.293 N 
ATOM     27  C   UNL A   1      40.439  21.823  27.499  1.00  0.00     0.149 C 
ATOM     28  C   UNL A   1      40.262  20.199  26.000  1.00  0.00     0.321 C 
ATOM     29  C   UNL A   1      41.842  21.294  27.340  1.00  0.00     0.139 C 
ATOM     30  N   UNL A   1      41.539  20.169  26.583  1.00  0.00    -0.336 N 
ATOM     31  O   UNL A   1      39.800  19.120  25.645  1.00  0.00    -0.248 OA
ATOM     32  H   UNL A   1      42.164  19.418  26.464  1.00  0.00     0.165 HD
ENDBRANCH  25  26
ENDBRANCH  18  20
ENDBRANCH  15  18
ENDBRANCH  14  15
ENDBRANCH   6   8
ENDBRANCH   5   6
ENDBRANCH   4   5
ENDBRANCH   3   4
ENDBRANCH   2   3
ENDBRANCH   1   2
BRANCH   1  33
ATOM     33  C   UNL A   1      34.169  34.482  29.245  1.00  0.00     0.188 C 
BRANCH  33  34
ATOM     34  O   UNL A   1      33.662  34.365  30.554  1.00  0.00    -0.376 OA
BRANCH  34  35
ATOM     35  C   UNL A   1      34.601  34.177  31.560  1.00  0.00     0.202 C 
BRANCH  35  36
ATOM     36  C   UNL A   1      34.764  32.662  31.625  1.00  0.00     0.261 C 
BRANCH  36  37
ATOM     37  O   UNL A   1      36.114  32.332  31.072  1.00  0.00    -0.460 OA
BRANCH  37  38
ATOM     38  C   UNL A   1      36.455  31.034  30.707  1.00  0.00     0.338 C 
ATOM     39  O   UNL A   1      35.940  30.041  31.202  1.00  0.00    -0.246 OA
BRANCH  38  40
ATOM     40  C   UNL A   1      37.717  30.943  29.798  1.00  0.00     0.060 A 
ATOM     41  C   UNL A   1      38.081  29.888  28.959  1.00  0.00     0.016 A 
ATOM     42  C   UNL A   1      38.821  31.517  30.296  1.00  0.00     0.016 A 
ATOM     43  C   UNL A   1      39.454  29.179  29.035  1.00  0.00     0.010 A 
ATOM     44  C   UNL A   1      39.942  30.642  30.577  1.00  0.00     0.010 A 
ATOM     45  C   UNL A   1      40.464  29.388  30.026  1.00  0.00    -0.014 A 
BRANCH  45  46
ATOM     46  C   UNL A   1      42.220  28.768  30.308  1.00  0.00     0.031 A 
ATOM     47  C   UNL A   1      42.944  27.260  29.537  1.00  0.00     0.074 A 
ATOM     48  C   UNL A   1      43.165  29.311  31.177  1.00  0.00     0.049 A 
ATOM     49  N   UNL A   1      43.486  26.255  30.179  1.00  0.00    -0.248 NA
ATOM     50  C   UNL A   1      42.690  26.605  28.042  1.00  0.00     0.031 C 
ATOM     51  C   UNL A   1      44.586  29.298  31.491  1.00  0.00     0.029 A 
ATOM     52  N   UNL A   1      42.813  30.055  32.238  1.00  0.00    -0.354 N 
ATOM     53  C   UNL A   1      43.815  25.325  29.169  1.00  0.00     0.074 A 
ATOM     54  C   UNL A   1      42.769  25.306  28.252  1.00  0.00     0.031 C 
ATOM     55  C   UNL A   1      44.853  29.774  32.755  1.00  0.00     0.029 A 
ATOM     56  C   UNL A   1      43.590  30.185  33.365  1.00  0.00     0.049 A 
ATOM     57  H   UNL A   1      41.953  30.532  32.207  1.00  0.00     0.167 HD
ATOM     58  C   UNL A   1      45.122  25.196  28.778  1.00  0.00     0.037 A 
ATOM     59  C   UNL A   1      42.989  30.050  34.606  1.00  0.00     0.037 A 
ATOM     60  C   UNL A   1      45.907  25.770  29.852  1.00  0.00     0.049 A 
ATOM     61  C   UNL A   1      43.415  28.557  34.857  1.00  0.00     0.074 A 
ATOM     62  C   UNL A   1      46.601  26.939  30.069  1.00  0.00     0.029 A 
ATOM     63  N   UNL A   1      45.538  25.320  31.107  1.00  0.00    -0.354 N 
ATOM     64  N   UNL A   1      43.571  27.693  33.865  1.00  0.00    -0.248 NA
ATOM     65  C   UNL A   1      44.055  28.079  36.095  1.00  0.00     0.031 C 
ATOM     66  C   UNL A   1      46.588  27.161  31.506  1.00  0.00     0.029 A 
ATOM     67  C   UNL A   1      45.746  26.230  32.114  1.00  0.00     0.049 A 
ATOM     68  H   UNL A   1      45.160  24.425  31.264  1.00  0.00     0.167 HD
ATOM     69  C   UNL A   1      44.504  26.750  34.229  1.00  0.00     0.074 A 
ATOM     70  C   UNL A   1      44.722  26.998  35.651  1.00  0.00     0.031 C 
ATOM     71  C   UNL A   1      45.201  25.871  33.433  1.00  0.00     0.037 A 
BRANCH  58  72
ATOM     72  C   UNL A   1      45.618  24.732  27.401  1.00  0.00     0.057 A 
ATOM     73  C   UNL A   1      45.458  23.374  27.091  1.00  0.00     0.134 A 
ATOM     74  C   UNL A   1      46.244  25.473  26.351  1.00  0.00     0.134 A 
ATOM     75  F   UNL A   1      44.921  22.532  27.982  1.00  0.00    -0.206 F 
ATOM     76  C   UNL A   1      45.831  22.812  25.858  1.00  0.00     0.040 A 
ATOM     77  C   UNL A   1      46.590  24.927  25.101  1.00  0.00     0.040 A 
ATOM     78  F   UNL A   1      46.615  26.754  26.453  1.00  0.00    -0.206 F 
ATOM     79  C   UNL A   1      46.379  23.589  24.848  1.00  0.00     0.006 A 
ENDBRANCH  58  72
BRANCH  59  80
ATOM     80  C   UNL A   1      41.491  30.744  34.655  1.00  0.00     0.057 A 
ATOM     81  C   UNL A   1      39.861  30.079  34.162  1.00  0.00     0.134 A 
ATOM     82  C   UNL A   1      41.414  32.093  35.840  1.00  0.00     0.134 A 
ATOM     83  F   UNL A   1      39.793  28.955  33.433  1.00  0.00    -0.206 F 
ATOM     84  C   UNL A   1      38.282  30.693  34.889  1.00  0.00     0.040 A 
ATOM     85  C   UNL A   1      39.944  32.505  36.836  1.00  0.00     0.040 A 
ATOM     86  F   UNL A   1      42.513  32.873  35.824  1.00  0.00    -0.206 F 
ATOM     87  C   UNL A   1      38.335  31.806  36.357  1.00  0.00     0.006 A 
ENDBRANCH  59  80
BRANCH  71  88
ATOM     88  C   UNL A   1      45.356  24.436  33.936  1.00  0.00     0.057 A 
ATOM     89  C   UNL A   1      44.264  23.567  34.082  1.00  0.00     0.134 A 
ATOM     90  C   UNL A   1      46.609  23.828  34.195  1.00  0.00     0.134 A 
ATOM     91  F   UNL A   1      43.042  23.863  33.615  1.00  0.00    -0.206 F 
ATOM     92  C   UNL A   1      44.379  22.326  34.702  1.00  0.00     0.040 A 
ATOM     93  C   UNL A   1      46.746  22.534  34.680  1.00  0.00     0.040 A 
ATOM     94  F   UNL A   1      47.789  24.423  33.979  1.00  0.00    -0.206 F 
ATOM     95  C   UNL A   1      45.623  21.812  35.021  1.00  0.00     0.006 A 
ENDBRANCH  71  88
ENDBRANCH  45  46
ENDBRANCH  38  40
ENDBRANCH  37  38
ENDBRANCH  36  37
ENDBRANCH  35  36
ENDBRANCH  34  35
ENDBRANCH  33  34
ENDBRANCH   1  33
TORSDOF 21
ENDMDL
MODEL 3
REMARK VINA RESULT:     -12.3      3.248      9.548
REMARK SMILES Cc1ccc(S(=O)(=O)Nc2ccc(N3CCNC3=O)cc2)cc1C(=O)OCCOCCOCCOC(=O)c1ccc(-c2c3nc(c(-c4c(F)cccc4F)c4ccc([nH]4)c(-c4c(F)cccc4F)c4nc(c(-c5c(F)cccc5F)c5ccc2[nH]5)C=C4)C=C3)cc1
REMARK SMILES IDX 30 1 29 2 28 3 27 4 26 5 24 6 25 7 23 8 1 9 2 10 3 11 4 12
REMARK SMILES IDX 22 13 5 14 6 15 7 16 8 17 9 18 10 20 11 21 21 22 12 23 20 24
REMARK SMILES IDX 13 25 14 26 15 27 18 28 16 29 17 30 19 31 31 33 32 34 33 35
REMARK SMILES IDX 34 36 35 37 36 38 37 39 38 40 39 41 91 42 40 43 90 44 41 45
REMARK SMILES IDX 42 46 43 47 84 48 44 49 89 50 83 51 85 52 45 53 88 54 82 55
REMARK SMILES IDX 81 56 46 58 72 59 55 60 71 61 56 62 59 63 70 64 86 65 57 66
REMARK SMILES IDX 58 67 69 69 87 70 60 71 47 72 48 73 53 74 49 75 50 76 52 77
REMARK SMILES IDX 54 78 51 79 73 80 74 81 79 82 75 83 76 84 78 85 80 86 77 87
REMARK SMILES IDX 61 88 62 89 67 90 63 91 64 92 66 93 68 94 65 95
REMARK H PARENT 9 19 17 32 85 57 59 68
REMARK Flexibility Score: inf
ROOT
ATOM      1  C   UNL A   1      42.948  20.823  26.371  1.00  0.00     0.188 C 
ENDROOT
BRANCH   1   2
ATOM      2  O   UNL A   1      41.661  21.316  26.031  1.00  0.00    -0.376 OA
BRANCH   2   3
ATOM      3  C   UNL A   1      41.050  22.115  27.020  1.00  0.00     0.202 C 
BRANCH   3   4
ATOM      4  C   UNL A   1      39.834  23.242  26.876  1.00  0.00     0.261 C 
BRANCH   4   5
ATOM      5  O   UNL A   1      38.038  23.311  26.454  1.00  0.00    -0.460 OA
BRANCH   5   6
ATOM      6  C   UNL A   1      36.962  23.038  25.345  1.00  0.00     0.338 C 
ATOM      7  O   UNL A   1      36.705  23.723  24.345  1.00  0.00    -0.246 OA
BRANCH   6   8
ATOM      8  C   UNL A   1      36.204  21.808  25.058  1.00  0.00     0.064 A 
ATOM      9  C   UNL A   1      38.323  20.500  24.945  1.00  0.00     0.045 C 
ATOM     10  C   UNL A   1      36.833  20.596  24.955  1.00  0.00    -0.036 A 
ATOM     11  C   UNL A   1      35.992  19.479  24.912  1.00  0.00     0.006 A 
ATOM     12  C   UNL A   1      34.580  19.595  24.754  1.00  0.00     0.022 A 
ATOM     13  C   UNL A   1      34.736  21.923  24.996  1.00  0.00     0.038 A 
ATOM     14  C   UNL A   1      33.945  20.843  24.692  1.00  0.00     0.088 A 
BRANCH  14  15
ATOM     15  S   UNL A   1      32.250  20.952  24.070  1.00  0.00     0.261 S 
ATOM     16  O   UNL A   1      32.153  19.944  23.034  1.00  0.00    -0.201 OA
ATOM     17  O   UNL A   1      31.423  20.850  25.260  1.00  0.00    -0.201 OA
BRANCH  15  18
ATOM     18  N   UNL A   1      31.788  22.452  23.398  1.00  0.00    -0.280 N 
ATOM     19  H   UNL A   1      31.977  22.539  22.436  1.00  0.00     0.180 HD
BRANCH  18  20
ATOM     20  C   UNL A   1      31.166  23.620  23.990  1.00  0.00     0.049 A 
ATOM     21  C   UNL A   1      31.141  23.772  25.384  1.00  0.00     0.029 A 
ATOM     22  C   UNL A   1      30.492  24.611  23.340  1.00  0.00     0.029 A 
ATOM     23  C   UNL A   1      30.840  25.033  26.076  1.00  0.00     0.028 A 
ATOM     24  C   UNL A   1      30.170  25.837  24.036  1.00  0.00     0.028 A 
ATOM     25  C   UNL A   1      30.725  26.376  25.427  1.00  0.00     0.046 A 
BRANCH  25  26
ATOM     26  N   UNL A   1      31.619  28.156  25.888  1.00  0.00    -0.293 N 
ATOM     27  C   UNL A   1      32.027  28.955  27.208  1.00  0.00     0.149 C 
ATOM     28  C   UNL A   1      32.972  29.018  25.203  1.00  0.00     0.321 C 
ATOM     29  C   UNL A   1      32.291  30.418  26.955  1.00  0.00     0.139 C 
ATOM     30  N   UNL A   1      33.072  30.278  25.814  1.00  0.00    -0.336 N 
ATOM     31  O   UNL A   1      33.881  28.709  24.442  1.00  0.00    -0.248 OA
ATOM     32  H   UNL A   1      33.644  30.999  25.465  1.00  0.00     0.165 HD
ENDBRANCH  25  26
ENDBRANCH  18  20
ENDBRANCH  15  18
ENDBRANCH  14  15
ENDBRANCH   6   8
ENDBRANCH   5   6
ENDBRANCH   4   5
ENDBRANCH   3   4
ENDBRANCH   2   3
ENDBRANCH   1   2
BRANCH   1  33
ATOM     33  C   UNL A   1      43.958  21.317  25.374  1.00  0.00     0.188 C 
BRANCH  33  34
ATOM     34  O   UNL A   1      44.442  22.507  25.955  1.00  0.00    -0.376 OA
BRANCH  34  35
ATOM     35  C   UNL A   1      44.101  23.687  25.309  1.00  0.00     0.202 C 
BRANCH  35  36
ATOM     36  C   UNL A   1      43.580  24.578  26.432  1.00  0.00     0.261 C 
BRANCH  36  37
ATOM     37  O   UNL A   1      42.800  25.687  25.799  1.00  0.00    -0.460 OA
BRANCH  37  38
ATOM     38  C   UNL A   1      43.364  26.937  25.571  1.00  0.00     0.338 C 
ATOM     39  O   UNL A   1      44.558  27.108  25.371  1.00  0.00    -0.246 OA
BRANCH  38  40
ATOM     40  C   UNL A   1      42.393  28.127  25.836  1.00  0.00     0.060 A 
ATOM     41  C   UNL A   1      42.708  29.366  26.397  1.00  0.00     0.016 A 
ATOM     42  C   UNL A   1      41.149  27.779  26.194  1.00  0.00     0.016 A 
ATOM     43  C   UNL A   1      41.978  29.949  27.630  1.00  0.00     0.010 A 
ATOM     44  C   UNL A   1      40.717  28.173  27.521  1.00  0.00     0.010 A 
ATOM     45  C   UNL A   1      41.010  29.276  28.440  1.00  0.00    -0.014 A 
BRANCH  45  46
ATOM     46  C   UNL A   1      39.910  29.751  29.894  1.00  0.00     0.031 A 
ATOM     47  C   UNL A   1      38.843  31.250  29.965  1.00  0.00     0.074 A 
ATOM     48  C   UNL A   1      39.815  29.088  31.116  1.00  0.00     0.049 A 
ATOM     49  N   UNL A   1      38.876  32.171  30.897  1.00  0.00    -0.248 NA
ATOM     50  C   UNL A   1      38.006  32.016  28.766  1.00  0.00     0.031 C 
ATOM     51  C   UNL A   1      38.988  28.980  32.309  1.00  0.00     0.029 A 
ATOM     52  N   UNL A   1      40.801  28.304  31.581  1.00  0.00    -0.354 N 
ATOM     53  C   UNL A   1      37.939  33.138  30.472  1.00  0.00     0.074 A 
ATOM     54  C   UNL A   1      38.080  33.291  29.096  1.00  0.00     0.031 C 
ATOM     55  C   UNL A   1      39.657  28.406  33.367  1.00  0.00     0.029 A 
ATOM     56  C   UNL A   1      41.001  28.047  32.918  1.00  0.00     0.049 A 
ATOM     57  H   UNL A   1      41.414  27.892  30.930  1.00  0.00     0.167 HD
ATOM     58  C   UNL A   1      36.715  33.199  31.084  1.00  0.00     0.037 A 
ATOM     59  C   UNL A   1      42.285  28.145  33.429  1.00  0.00     0.037 A 
ATOM     60  C   UNL A   1      36.876  32.504  32.344  1.00  0.00     0.049 A 
ATOM     61  C   UNL A   1      42.132  29.585  34.042  1.00  0.00     0.074 A 
ATOM     62  C   UNL A   1      36.525  31.277  32.861  1.00  0.00     0.029 A 
ATOM     63  N   UNL A   1      37.997  32.897  33.053  1.00  0.00    -0.354 N 
ATOM     64  N   UNL A   1      41.334  30.497  33.506  1.00  0.00    -0.248 NA
ATOM     65  C   UNL A   1      42.502  29.935  35.424  1.00  0.00     0.031 C 
ATOM     66  C   UNL A   1      37.515  30.965  33.879  1.00  0.00     0.029 A 
ATOM     67  C   UNL A   1      38.537  31.912  33.841  1.00  0.00     0.049 A 
ATOM     68  H   UNL A   1      38.373  33.805  32.997  1.00  0.00     0.167 HD
ATOM     69  C   UNL A   1      40.892  31.346  34.493  1.00  0.00     0.074 A 
ATOM     70  C   UNL A   1      41.702  30.993  35.655  1.00  0.00     0.031 C 
ATOM     71  C   UNL A   1      39.832  32.223  34.469  1.00  0.00     0.037 A 
BRANCH  58  72
ATOM     72  C   UNL A   1      35.409  33.715  30.459  1.00  0.00     0.057 A 
ATOM     73  C   UNL A   1      34.801  34.816  31.076  1.00  0.00     0.134 A 
ATOM     74  C   UNL A   1      34.683  33.240  29.324  1.00  0.00     0.134 A 
ATOM     75  F   UNL A   1      35.334  35.361  32.176  1.00  0.00    -0.206 F 
ATOM     76  C   UNL A   1      33.624  35.419  30.597  1.00  0.00     0.040 A 
ATOM     77  C   UNL A   1      33.524  33.855  28.817  1.00  0.00     0.040 A 
ATOM     78  F   UNL A   1      34.993  32.130  28.643  1.00  0.00    -0.206 F 
ATOM     79  C   UNL A   1      32.990  34.956  29.453  1.00  0.00     0.006 A 
ENDBRANCH  58  72
BRANCH  59  80
ATOM     80  C   UNL A   1      43.420  27.556  32.383  1.00  0.00     0.057 A 
ATOM     81  C   UNL A   1      44.195  28.329  30.918  1.00  0.00     0.134 A 
ATOM     82  C   UNL A   1      44.381  26.226  33.115  1.00  0.00     0.134 A 
ATOM     83  F   UNL A   1      43.670  29.450  30.401  1.00  0.00    -0.206 F 
ATOM     84  C   UNL A   1      45.861  27.832  30.303  1.00  0.00     0.040 A 
ATOM     85  C   UNL A   1      46.147  25.924  32.776  1.00  0.00     0.040 A 
ATOM     86  F   UNL A   1      43.632  25.371  33.840  1.00  0.00    -0.206 F 
ATOM     87  C   UNL A   1      46.914  26.729  31.337  1.00  0.00     0.006 A 
ENDBRANCH  59  80
BRANCH  71  88
ATOM     88  C   UNL A   1      40.049  33.608  35.077  1.00  0.00     0.057 A 
ATOM     89  C   UNL A   1      39.544  33.965  36.336  1.00  0.00     0.134 A 
ATOM     90  C   UNL A   1      40.857  34.608  34.481  1.00  0.00     0.134 A 
ATOM     91  F   UNL A   1      39.006  33.068  37.175  1.00  0.00    -0.206 F 
ATOM     92  C   UNL A   1      39.590  35.272  36.814  1.00  0.00     0.040 A 
ATOM     93  C   UNL A   1      41.028  35.876  35.021  1.00  0.00     0.040 A 
ATOM     94  F   UNL A   1      41.556  34.431  33.353  1.00  0.00    -0.206 F 
ATOM     95  C   UNL A   1      40.319  36.239  36.145  1.00  0.00     0.006 A 
ENDBRANCH  71  88
ENDBRANCH  45  46
ENDBRANCH  38  40
ENDBRANCH  37  38
ENDBRANCH  36  37
ENDBRANCH  35  36
ENDBRANCH  34  35
ENDBRANCH  33  34
ENDBRANCH   1  33
TORSDOF 21
ENDMDL
