MODEL 1
REMARK VINA RESULT:     -11.9      0.000      0.000
REMARK SMILES CC(C)n1c2c(c3ccccc31)[C@@H](c1ccccc1)N(CC(=O)OCCOCCOCCOC(=O)c1ccc(-c3c4nc(c(-c5c(F)cccc5F)c5ccc([nH]5)c(-c5c(F)cccc5F)c5nc(c(-c6c(F)cccc6F)c6ccc3[nH]6)C=C5)C=C4)cc1)C2=O
REMARK SMILES IDX 28 1 27 2 26 3 25 4 24 5 22 6 23 7 21 8 20 9 4 10 5 11 12 12
REMARK SMILES IDX 6 13 90 14 7 15 11 16 13 17 91 18 8 19 10 20 9 21 2 22 1 23
REMARK SMILES IDX 3 24 14 25 15 26 19 27 16 28 18 29 17 30 29 31 30 32 31 33
REMARK SMILES IDX 32 34 33 35 34 36 35 37 36 38 37 39 89 40 38 41 88 42 39 43
REMARK SMILES IDX 40 44 41 45 82 46 42 47 87 48 81 49 83 50 43 51 86 52 80 53
REMARK SMILES IDX 79 54 44 56 70 57 53 58 69 59 54 60 57 61 68 62 84 63 55 64
REMARK SMILES IDX 56 65 67 67 85 68 58 69 45 70 46 71 51 72 47 73 48 74 50 75
REMARK SMILES IDX 52 76 49 77 71 78 72 79 77 80 73 81 74 82 76 83 78 84 75 85
REMARK SMILES IDX 59 86 60 87 65 88 61 89 62 90 64 91 66 92 63 93
REMARK H PARENT 83 55 57 66
REMARK Flexibility Score: inf
ROOT
ATOM      1  C   UNL A   1      32.262  29.162  25.078  1.00  0.00     0.188 C 
ENDROOT
BRANCH   1   2
ATOM      2  O   UNL A   1      32.558  27.784  25.098  1.00  0.00    -0.376 OA
BRANCH   2   3
ATOM      3  C   UNL A   1      33.562  27.304  24.213  1.00  0.00     0.202 C 
BRANCH   3   4
ATOM      4  C   UNL A   1      33.670  27.960  22.827  1.00  0.00     0.261 C 
BRANCH   4   5
ATOM      5  O   UNL A   1      33.712  26.989  21.739  1.00  0.00    -0.462 OA
BRANCH   5   6
ATOM      6  C   UNL A   1      32.673  26.111  21.713  1.00  0.00     0.325 C 
ATOM      7  O   UNL A   1      31.513  26.483  21.529  1.00  0.00    -0.250 OA
BRANCH   6   8
ATOM      8  C   UNL A   1      33.027  24.580  21.666  1.00  0.00     0.243 C 
BRANCH   8   9
ATOM      9  N   UNL A   1      33.179  23.618  22.722  1.00  0.00    -0.315 N 
ATOM     10  N   UNL A   1      35.041  21.316  24.680  1.00  0.00    -0.334 N 
ATOM     11  C   UNL A   1      34.286  22.218  24.008  1.00  0.00     0.114 A 
ATOM     12  C   UNL A   1      34.359  20.091  24.592  1.00  0.00     0.049 A 
ATOM     13  C   UNL A   1      33.018  21.726  23.874  1.00  0.00     0.018 A 
ATOM     14  C   UNL A   1      34.429  23.445  23.296  1.00  0.00     0.272 C 
ATOM     15  C   UNL A   1      33.061  20.350  24.112  1.00  0.00     0.006 A 
ATOM     16  C   UNL A   1      34.756  18.770  24.854  1.00  0.00     0.027 A 
ATOM     17  C   UNL A   1      32.116  22.714  23.251  1.00  0.00     0.150 C 
ATOM     18  O   UNL A   1      35.408  24.129  23.077  1.00  0.00    -0.267 OA
ATOM     19  C   UNL A   1      32.148  19.297  23.911  1.00  0.00     0.011 A 
ATOM     20  C   UNL A   1      33.827  17.737  24.660  1.00  0.00     0.002 A 
ATOM     21  C   UNL A   1      32.540  17.993  24.200  1.00  0.00     0.001 A 
BRANCH  10  22
ATOM     22  C   UNL A   1      36.328  21.568  25.333  1.00  0.00     0.082 C 
ATOM     23  C   UNL A   1      37.545  21.569  24.389  1.00  0.00     0.031 C 
ATOM     24  C   UNL A   1      36.347  22.923  26.051  1.00  0.00     0.031 C 
ENDBRANCH  10  22
BRANCH  17  25
ATOM     25  C   UNL A   1      31.176  23.211  24.374  1.00  0.00    -0.021 A 
ATOM     26  C   UNL A   1      30.866  22.441  25.509  1.00  0.00     0.006 A 
ATOM     27  C   UNL A   1      30.781  24.574  24.434  1.00  0.00     0.006 A 
ATOM     28  C   UNL A   1      30.313  23.030  26.669  1.00  0.00     0.000 A 
ATOM     29  C   UNL A   1      30.207  25.155  25.572  1.00  0.00     0.000 A 
ATOM     30  C   UNL A   1      30.012  24.389  26.710  1.00  0.00     0.000 A 
ENDBRANCH  17  25
ENDBRANCH   8   9
ENDBRANCH   6   8
ENDBRANCH   5   6
ENDBRANCH   4   5
ENDBRANCH   3   4
ENDBRANCH   2   3
ENDBRANCH   1   2
BRANCH   1  31
ATOM     31  C   UNL A   1      32.883  30.065  26.144  1.00  0.00     0.188 C 
BRANCH  31  32
ATOM     32  O   UNL A   1      33.460  29.550  27.319  1.00  0.00    -0.376 OA
BRANCH  32  33
ATOM     33  C   UNL A   1      34.857  29.306  27.291  1.00  0.00     0.202 C 
BRANCH  33  34
ATOM     34  C   UNL A   1      35.776  30.095  28.255  1.00  0.00     0.261 C 
BRANCH  34  35
ATOM     35  O   UNL A   1      37.092  30.384  27.725  1.00  0.00    -0.460 OA
BRANCH  35  36
ATOM     36  C   UNL A   1      38.089  30.571  28.644  1.00  0.00     0.338 C 
ATOM     37  O   UNL A   1      37.979  31.169  29.702  1.00  0.00    -0.246 OA
BRANCH  36  38
ATOM     38  C   UNL A   1      39.192  29.590  28.368  1.00  0.00     0.060 A 
ATOM     39  C   UNL A   1      40.212  29.270  29.271  1.00  0.00     0.016 A 
ATOM     40  C   UNL A   1      39.360  29.221  27.035  1.00  0.00     0.016 A 
ATOM     41  C   UNL A   1      41.453  28.761  28.803  1.00  0.00     0.010 A 
ATOM     42  C   UNL A   1      40.584  28.690  26.601  1.00  0.00     0.010 A 
ATOM     43  C   UNL A   1      41.695  28.544  27.434  1.00  0.00    -0.014 A 
BRANCH  43  44
ATOM     44  C   UNL A   1      42.866  27.745  26.952  1.00  0.00     0.031 A 
ATOM     45  C   UNL A   1      42.459  26.340  26.842  1.00  0.00     0.074 A 
ATOM     46  C   UNL A   1      44.142  27.977  26.532  1.00  0.00     0.049 A 
ATOM     47  N   UNL A   1      42.699  25.462  27.752  1.00  0.00    -0.248 NA
ATOM     48  C   UNL A   1      41.575  25.903  25.763  1.00  0.00     0.031 C 
ATOM     49  C   UNL A   1      44.872  29.219  26.463  1.00  0.00     0.029 A 
ATOM     50  N   UNL A   1      45.108  27.108  26.053  1.00  0.00    -0.354 N 
ATOM     51  C   UNL A   1      42.203  24.282  27.247  1.00  0.00     0.074 A 
ATOM     52  C   UNL A   1      41.353  24.642  26.139  1.00  0.00     0.031 C 
ATOM     53  C   UNL A   1      45.991  29.138  25.709  1.00  0.00     0.029 A 
ATOM     54  C   UNL A   1      46.236  27.727  25.485  1.00  0.00     0.049 A 
ATOM     55  H   UNL A   1      45.013  26.130  26.105  1.00  0.00     0.167 HD
ATOM     56  C   UNL A   1      42.777  23.110  27.618  1.00  0.00     0.037 A 
ATOM     57  C   UNL A   1      47.437  27.208  25.104  1.00  0.00     0.037 A 
ATOM     58  C   UNL A   1      43.599  23.267  28.802  1.00  0.00     0.049 A 
ATOM     59  C   UNL A   1      47.641  25.985  25.896  1.00  0.00     0.074 A 
ATOM     60  C   UNL A   1      43.399  23.785  30.071  1.00  0.00     0.029 A 
ATOM     61  N   UNL A   1      44.963  23.198  28.659  1.00  0.00    -0.354 N 
ATOM     62  N   UNL A   1      47.923  25.979  27.166  1.00  0.00    -0.248 NA
ATOM     63  C   UNL A   1      47.132  24.743  25.353  1.00  0.00     0.031 C 
ATOM     64  C   UNL A   1      44.621  24.440  30.413  1.00  0.00     0.029 A 
ATOM     65  C   UNL A   1      45.516  24.237  29.365  1.00  0.00     0.049 A 
ATOM     66  H   UNL A   1      45.457  22.522  28.141  1.00  0.00     0.167 HD
ATOM     67  C   UNL A   1      47.180  24.926  27.667  1.00  0.00     0.074 A 
ATOM     68  C   UNL A   1      46.808  24.137  26.495  1.00  0.00     0.031 C 
ATOM     69  C   UNL A   1      46.702  24.951  28.946  1.00  0.00     0.037 A 
BRANCH  56  70
ATOM     70  C   UNL A   1      42.914  21.949  26.676  1.00  0.00     0.057 A 
ATOM     71  C   UNL A   1      43.825  21.897  25.599  1.00  0.00     0.134 A 
ATOM     72  C   UNL A   1      42.317  20.728  27.021  1.00  0.00     0.134 A 
ATOM     73  F   UNL A   1      44.554  22.952  25.215  1.00  0.00    -0.206 F 
ATOM     74  C   UNL A   1      44.125  20.716  24.920  1.00  0.00     0.040 A 
ATOM     75  C   UNL A   1      42.654  19.530  26.386  1.00  0.00     0.040 A 
ATOM     76  F   UNL A   1      41.456  20.652  28.046  1.00  0.00    -0.206 F 
ATOM     77  C   UNL A   1      43.562  19.521  25.335  1.00  0.00     0.006 A 
ENDBRANCH  56  70
BRANCH  57  78
ATOM     78  C   UNL A   1      48.423  27.630  24.075  1.00  0.00     0.057 A 
ATOM     79  C   UNL A   1      48.007  27.928  22.768  1.00  0.00     0.134 A 
ATOM     80  C   UNL A   1      49.807  27.438  24.245  1.00  0.00     0.134 A 
ATOM     81  F   UNL A   1      46.705  28.086  22.487  1.00  0.00    -0.206 F 
ATOM     82  C   UNL A   1      48.900  27.973  21.687  1.00  0.00     0.040 A 
ATOM     83  C   UNL A   1      50.712  27.480  23.172  1.00  0.00     0.040 A 
ATOM     84  F   UNL A   1      50.315  27.128  25.447  1.00  0.00    -0.206 F 
ATOM     85  C   UNL A   1      50.255  27.727  21.883  1.00  0.00     0.006 A 
ENDBRANCH  57  78
BRANCH  69  86
ATOM     86  C   UNL A   1      47.303  25.945  29.909  1.00  0.00     0.057 A 
ATOM     87  C   UNL A   1      46.617  27.144  30.139  1.00  0.00     0.134 A 
ATOM     88  C   UNL A   1      48.552  25.808  30.536  1.00  0.00     0.134 A 
ATOM     89  F   UNL A   1      45.436  27.371  29.542  1.00  0.00    -0.206 F 
ATOM     90  C   UNL A   1      47.132  28.152  30.959  1.00  0.00     0.040 A 
ATOM     91  C   UNL A   1      49.064  26.795  31.388  1.00  0.00     0.040 A 
ATOM     92  F   UNL A   1      49.330  24.741  30.311  1.00  0.00    -0.206 F 
ATOM     93  C   UNL A   1      48.355  27.974  31.599  1.00  0.00     0.006 A 
ENDBRANCH  69  86
ENDBRANCH  43  44
ENDBRANCH  36  38
ENDBRANCH  35  36
ENDBRANCH  34  35
ENDBRANCH  33  34
ENDBRANCH  32  33
ENDBRANCH  31  32
ENDBRANCH   1  31
TORSDOF 20
ENDMDL
MODEL 2
REMARK VINA RESULT:     -11.2      2.855      5.574
REMARK SMILES CC(C)n1c2c(c3ccccc31)[C@@H](c1ccccc1)N(CC(=O)OCCOCCOCCOC(=O)c1ccc(-c3c4nc(c(-c5c(F)cccc5F)c5ccc([nH]5)c(-c5c(F)cccc5F)c5nc(c(-c6c(F)cccc6F)c6ccc3[nH]6)C=C5)C=C4)cc1)C2=O
REMARK SMILES IDX 28 1 27 2 26 3 25 4 24 5 22 6 23 7 21 8 20 9 4 10 5 11 12 12
REMARK SMILES IDX 6 13 90 14 7 15 11 16 13 17 91 18 8 19 10 20 9 21 2 22 1 23
REMARK SMILES IDX 3 24 14 25 15 26 19 27 16 28 18 29 17 30 29 31 30 32 31 33
REMARK SMILES IDX 32 34 33 35 34 36 35 37 36 38 37 39 89 40 38 41 88 42 39 43
REMARK SMILES IDX 40 44 41 45 82 46 42 47 87 48 81 49 83 50 43 51 86 52 80 53
REMARK SMILES IDX 79 54 44 56 70 57 53 58 69 59 54 60 57 61 68 62 84 63 55 64
REMARK SMILES IDX 56 65 67 67 85 68 58 69 45 70 46 71 51 72 47 73 48 74 50 75
REMARK SMILES IDX 52 76 49 77 71 78 72 79 77 80 73 81 74 82 76 83 78 84 75 85
REMARK SMILES IDX 59 86 60 87 65 88 61 89 62 90 64 91 66 92 63 93
REMARK H PARENT 83 55 57 66
REMARK Flexibility Score: inf
ROOT
ATOM      1  C   UNL A   1      31.991  27.931  25.199  1.00  0.00     0.188 C 
ENDROOT
BRANCH   1   2
ATOM      2  O   UNL A   1      33.098  27.203  24.715  1.00  0.00    -0.376 OA
BRANCH   2   3
ATOM      3  C   UNL A   1      34.046  27.889  23.907  1.00  0.00     0.202 C 
BRANCH   3   4
ATOM      4  C   UNL A   1      33.681  28.148  22.437  1.00  0.00     0.261 C 
BRANCH   4   5
ATOM      5  O   UNL A   1      33.696  26.937  21.624  1.00  0.00    -0.462 OA
BRANCH   5   6
ATOM      6  C   UNL A   1      32.603  26.140  21.763  1.00  0.00     0.325 C 
ATOM      7  O   UNL A   1      31.459  26.596  21.735  1.00  0.00    -0.250 OA
BRANCH   6   8
ATOM      8  C   UNL A   1      32.834  24.586  21.701  1.00  0.00     0.243 C 
BRANCH   8   9
ATOM      9  N   UNL A   1      33.032  23.623  22.749  1.00  0.00    -0.315 N 
ATOM     10  N   UNL A   1      34.990  21.357  24.654  1.00  0.00    -0.334 N 
ATOM     11  C   UNL A   1      34.199  22.244  24.003  1.00  0.00     0.114 A 
ATOM     12  C   UNL A   1      34.335  20.116  24.574  1.00  0.00     0.049 A 
ATOM     13  C   UNL A   1      32.940  21.723  23.894  1.00  0.00     0.018 A 
ATOM     14  C   UNL A   1      34.298  23.477  23.295  1.00  0.00     0.272 C 
ATOM     15  C   UNL A   1      33.021  20.347  24.125  1.00  0.00     0.006 A 
ATOM     16  C   UNL A   1      34.769  18.804  24.822  1.00  0.00     0.027 A 
ATOM     17  C   UNL A   1      32.002  22.692  23.297  1.00  0.00     0.150 C 
ATOM     18  O   UNL A   1      35.255  24.185  23.057  1.00  0.00    -0.267 OA
ATOM     19  C   UNL A   1      32.128  19.274  23.938  1.00  0.00     0.011 A 
ATOM     20  C   UNL A   1      33.859  17.750  24.643  1.00  0.00     0.002 A 
ATOM     21  C   UNL A   1      32.557  17.978  24.212  1.00  0.00     0.001 A 
BRANCH  10  22
ATOM     22  C   UNL A   1      36.285  21.636  25.280  1.00  0.00     0.082 C 
ATOM     23  C   UNL A   1      37.458  21.802  24.297  1.00  0.00     0.031 C 
ATOM     24  C   UNL A   1      36.247  22.920  26.118  1.00  0.00     0.031 C 
ENDBRANCH  10  22
BRANCH  17  25
ATOM     25  C   UNL A   1      31.075  23.162  24.442  1.00  0.00    -0.021 A 
ATOM     26  C   UNL A   1      30.813  22.381  25.582  1.00  0.00     0.006 A 
ATOM     27  C   UNL A   1      30.646  24.513  24.515  1.00  0.00     0.006 A 
ATOM     28  C   UNL A   1      30.271  22.953  26.756  1.00  0.00     0.000 A 
ATOM     29  C   UNL A   1      30.084  25.077  25.668  1.00  0.00     0.000 A 
ATOM     30  C   UNL A   1      29.935  24.304  26.808  1.00  0.00     0.000 A 
ENDBRANCH  17  25
ENDBRANCH   8   9
ENDBRANCH   6   8
ENDBRANCH   5   6
ENDBRANCH   4   5
ENDBRANCH   3   4
ENDBRANCH   2   3
ENDBRANCH   1   2
BRANCH   1  31
ATOM     31  C   UNL A   1      32.241  29.236  25.954  1.00  0.00     0.188 C 
BRANCH  31  32
ATOM     32  O   UNL A   1      31.476  30.394  25.725  1.00  0.00    -0.376 OA
BRANCH  32  33
ATOM     33  C   UNL A   1      31.833  31.552  26.461  1.00  0.00     0.202 C 
BRANCH  33  34
ATOM     34  C   UNL A   1      32.865  31.425  27.608  1.00  0.00     0.261 C 
BRANCH  34  35
ATOM     35  O   UNL A   1      34.226  31.739  27.225  1.00  0.00    -0.460 OA
BRANCH  35  36
ATOM     36  C   UNL A   1      34.949  32.488  28.114  1.00  0.00     0.338 C 
ATOM     37  O   UNL A   1      34.571  33.515  28.652  1.00  0.00    -0.246 OA
BRANCH  36  38
ATOM     38  C   UNL A   1      36.078  31.651  28.645  1.00  0.00     0.060 A 
ATOM     39  C   UNL A   1      37.126  32.142  29.432  1.00  0.00     0.016 A 
ATOM     40  C   UNL A   1      36.231  30.394  28.063  1.00  0.00     0.016 A 
ATOM     41  C   UNL A   1      38.372  31.463  29.474  1.00  0.00     0.010 A 
ATOM     42  C   UNL A   1      37.462  29.727  28.144  1.00  0.00     0.010 A 
ATOM     43  C   UNL A   1      38.594  30.277  28.750  1.00  0.00    -0.014 A 
BRANCH  43  44
ATOM     44  C   UNL A   1      39.780  29.400  29.006  1.00  0.00     0.031 A 
ATOM     45  C   UNL A   1      39.962  29.272  30.456  1.00  0.00     0.074 A 
ATOM     46  C   UNL A   1      40.661  28.656  28.279  1.00  0.00     0.049 A 
ATOM     47  N   UNL A   1      40.799  29.982  31.129  1.00  0.00    -0.248 NA
ATOM     48  C   UNL A   1      39.047  28.455  31.252  1.00  0.00     0.031 C 
ATOM     49  C   UNL A   1      40.770  28.504  26.849  1.00  0.00     0.029 A 
ATOM     50  N   UNL A   1      41.700  27.834  28.683  1.00  0.00    -0.354 N 
ATOM     51  C   UNL A   1      40.693  29.525  32.423  1.00  0.00     0.074 A 
ATOM     52  C   UNL A   1      39.478  28.751  32.480  1.00  0.00     0.031 C 
ATOM     53  C   UNL A   1      41.540  27.456  26.482  1.00  0.00     0.029 A 
ATOM     54  C   UNL A   1      42.252  27.030  27.670  1.00  0.00     0.049 A 
ATOM     55  H   UNL A   1      42.028  27.814  29.611  1.00  0.00     0.167 HD
ATOM     56  C   UNL A   1      41.774  29.596  33.239  1.00  0.00     0.037 A 
ATOM     57  C   UNL A   1      43.382  26.270  27.656  1.00  0.00     0.037 A 
ATOM     58  C   UNL A   1      42.779  30.503  32.721  1.00  0.00     0.049 A 
ATOM     59  C   UNL A   1      44.292  26.843  28.661  1.00  0.00     0.074 A 
ATOM     60  C   UNL A   1      42.783  31.821  32.296  1.00  0.00     0.029 A 
ATOM     61  N   UNL A   1      43.941  29.967  32.223  1.00  0.00    -0.354 N 
ATOM     62  N   UNL A   1      44.923  27.970  28.512  1.00  0.00    -0.248 NA
ATOM     63  C   UNL A   1      44.187  26.347  30.017  1.00  0.00     0.031 C 
ATOM     64  C   UNL A   1      43.679  31.860  31.183  1.00  0.00     0.029 A 
ATOM     65  C   UNL A   1      44.215  30.584  31.029  1.00  0.00     0.049 A 
ATOM     66  H   UNL A   1      44.483  29.264  32.649  1.00  0.00     0.167 HD
ATOM     67  C   UNL A   1      44.858  28.556  29.763  1.00  0.00     0.074 A 
ATOM     68  C   UNL A   1      44.499  27.468  30.670  1.00  0.00     0.031 C 
ATOM     69  C   UNL A   1      44.824  29.914  29.900  1.00  0.00     0.037 A 
BRANCH  56  70
ATOM     70  C   UNL A   1      42.073  28.544  34.267  1.00  0.00     0.057 A 
ATOM     71  C   UNL A   1      41.842  28.690  35.652  1.00  0.00     0.134 A 
ATOM     72  C   UNL A   1      42.340  27.236  33.835  1.00  0.00     0.134 A 
ATOM     73  F   UNL A   1      41.474  29.852  36.206  1.00  0.00    -0.206 F 
ATOM     74  C   UNL A   1      41.867  27.615  36.540  1.00  0.00     0.040 A 
ATOM     75  C   UNL A   1      42.308  26.144  34.706  1.00  0.00     0.040 A 
ATOM     76  F   UNL A   1      42.547  26.973  32.537  1.00  0.00    -0.206 F 
ATOM     77  C   UNL A   1      42.068  26.331  36.062  1.00  0.00     0.006 A 
ENDBRANCH  56  70
BRANCH  57  78
ATOM     78  C   UNL A   1      43.751  25.047  26.895  1.00  0.00     0.057 A 
ATOM     79  C   UNL A   1      44.256  25.146  25.588  1.00  0.00     0.134 A 
ATOM     80  C   UNL A   1      43.321  23.766  27.287  1.00  0.00     0.134 A 
ATOM     81  F   UNL A   1      44.652  26.330  25.098  1.00  0.00    -0.206 F 
ATOM     82  C   UNL A   1      44.276  24.055  24.707  1.00  0.00     0.040 A 
ATOM     83  C   UNL A   1      43.336  22.666  26.415  1.00  0.00     0.040 A 
ATOM     84  F   UNL A   1      42.802  23.560  28.506  1.00  0.00    -0.206 F 
ATOM     85  C   UNL A   1      43.796  22.814  25.112  1.00  0.00     0.006 A 
ENDBRANCH  57  78
BRANCH  69  86
ATOM     86  C   UNL A   1      45.235  30.758  28.719  1.00  0.00     0.057 A 
ATOM     87  C   UNL A   1      44.248  31.139  27.800  1.00  0.00     0.134 A 
ATOM     88  C   UNL A   1      46.554  31.125  28.408  1.00  0.00     0.134 A 
ATOM     89  F   UNL A   1      42.967  30.790  28.003  1.00  0.00    -0.206 F 
ATOM     90  C   UNL A   1      44.547  31.860  26.641  1.00  0.00     0.040 A 
ATOM     91  C   UNL A   1      46.863  31.876  27.267  1.00  0.00     0.040 A 
ATOM     92  F   UNL A   1      47.583  30.732  29.170  1.00  0.00    -0.206 F 
ATOM     93  C   UNL A   1      45.858  32.243  26.377  1.00  0.00     0.006 A 
ENDBRANCH  69  86
ENDBRANCH  43  44
ENDBRANCH  36  38
ENDBRANCH  35  36
ENDBRANCH  34  35
ENDBRANCH  33  34
ENDBRANCH  32  33
ENDBRANCH  31  32
ENDBRANCH   1  31
TORSDOF 20
ENDMDL
MODEL 3
REMARK VINA RESULT:     -11.2      1.849      2.444
REMARK SMILES CC(C)n1c2c(c3ccccc31)[C@@H](c1ccccc1)N(CC(=O)OCCOCCOCCOC(=O)c1ccc(-c3c4nc(c(-c5c(F)cccc5F)c5ccc([nH]5)c(-c5c(F)cccc5F)c5nc(c(-c6c(F)cccc6F)c6ccc3[nH]6)C=C5)C=C4)cc1)C2=O
REMARK SMILES IDX 28 1 27 2 26 3 25 4 24 5 22 6 23 7 21 8 20 9 4 10 5 11 12 12
REMARK SMILES IDX 6 13 90 14 7 15 11 16 13 17 91 18 8 19 10 20 9 21 2 22 1 23
REMARK SMILES IDX 3 24 14 25 15 26 19 27 16 28 18 29 17 30 29 31 30 32 31 33
REMARK SMILES IDX 32 34 33 35 34 36 35 37 36 38 37 39 89 40 38 41 88 42 39 43
REMARK SMILES IDX 40 44 41 45 82 46 42 47 87 48 81 49 83 50 43 51 86 52 80 53
REMARK SMILES IDX 79 54 44 56 70 57 53 58 69 59 54 60 57 61 68 62 84 63 55 64
REMARK SMILES IDX 56 65 67 67 85 68 58 69 45 70 46 71 51 72 47 73 48 74 50 75
REMARK SMILES IDX 52 76 49 77 71 78 72 79 77 80 73 81 74 82 76 83 78 84 75 85
REMARK SMILES IDX 59 86 60 87 65 88 61 89 62 90 64 91 66 92 63 93
REMARK H PARENT 83 55 57 66
REMARK Flexibility Score: inf
ROOT
ATOM      1  C   UNL A   1      31.414  29.422  24.789  1.00  0.00     0.188 C 
ENDROOT
BRANCH   1   2
ATOM      2  O   UNL A   1      31.411  28.378  23.841  1.00  0.00    -0.376 OA
BRANCH   2   3
ATOM      3  C   UNL A   1      32.607  27.627  23.671  1.00  0.00     0.202 C 
BRANCH   3   4
ATOM      4  C   UNL A   1      33.503  27.967  22.470  1.00  0.00     0.261 C 
BRANCH   4   5
ATOM      5  O   UNL A   1      33.734  26.826  21.590  1.00  0.00    -0.462 OA
BRANCH   5   6
ATOM      6  C   UNL A   1      32.682  25.975  21.466  1.00  0.00     0.325 C 
ATOM      7  O   UNL A   1      31.560  26.372  21.144  1.00  0.00    -0.250 OA
BRANCH   6   8
ATOM      8  C   UNL A   1      32.996  24.435  21.491  1.00  0.00     0.243 C 
BRANCH   8   9
ATOM      9  N   UNL A   1      33.156  23.526  22.593  1.00  0.00    -0.315 N 
ATOM     10  N   UNL A   1      35.035  21.335  24.656  1.00  0.00    -0.334 N 
ATOM     11  C   UNL A   1      34.273  22.198  23.943  1.00  0.00     0.114 A 
ATOM     12  C   UNL A   1      34.360  20.102  24.630  1.00  0.00     0.049 A 
ATOM     13  C   UNL A   1      33.008  21.692  23.836  1.00  0.00     0.018 A 
ATOM     14  C   UNL A   1      34.407  23.389  23.172  1.00  0.00     0.272 C 
ATOM     15  C   UNL A   1      33.060  20.330  24.141  1.00  0.00     0.006 A 
ATOM     16  C   UNL A   1      34.766  18.798  24.956  1.00  0.00     0.027 A 
ATOM     17  C   UNL A   1      32.099  22.644  23.168  1.00  0.00     0.150 C 
ATOM     18  O   UNL A   1      35.382  24.067  22.917  1.00  0.00    -0.267 OA
ATOM     19  C   UNL A   1      32.152  19.263  23.993  1.00  0.00     0.011 A 
ATOM     20  C   UNL A   1      33.842  17.752  24.815  1.00  0.00     0.002 A 
ATOM     21  C   UNL A   1      32.552  17.977  24.346  1.00  0.00     0.001 A 
BRANCH  10  22
ATOM     22  C   UNL A   1      36.322  21.625  25.294  1.00  0.00     0.082 C 
ATOM     23  C   UNL A   1      37.518  21.714  24.328  1.00  0.00     0.031 C 
ATOM     24  C   UNL A   1      36.291  22.956  26.056  1.00  0.00     0.031 C 
ENDBRANCH  10  22
BRANCH  17  25
ATOM     25  C   UNL A   1      31.158  23.189  24.267  1.00  0.00    -0.021 A 
ATOM     26  C   UNL A   1      30.952  22.531  25.492  1.00  0.00     0.006 A 
ATOM     27  C   UNL A   1      30.652  24.514  24.191  1.00  0.00     0.006 A 
ATOM     28  C   UNL A   1      30.389  23.203  26.602  1.00  0.00     0.000 A 
ATOM     29  C   UNL A   1      30.070  25.174  25.281  1.00  0.00     0.000 A 
ATOM     30  C   UNL A   1      29.977  24.531  26.504  1.00  0.00     0.000 A 
ENDBRANCH  17  25
ENDBRANCH   8   9
ENDBRANCH   6   8
ENDBRANCH   5   6
ENDBRANCH   4   5
ENDBRANCH   3   4
ENDBRANCH   2   3
ENDBRANCH   1   2
BRANCH   1  31
ATOM     31  C   UNL A   1      32.645  29.608  25.677  1.00  0.00     0.188 C 
BRANCH  31  32
ATOM     32  O   UNL A   1      32.751  30.663  26.600  1.00  0.00    -0.376 OA
BRANCH  32  33
ATOM     33  C   UNL A   1      33.883  30.654  27.454  1.00  0.00     0.202 C 
BRANCH  33  34
ATOM     34  C   UNL A   1      34.693  29.344  27.613  1.00  0.00     0.261 C 
BRANCH  34  35
ATOM     35  O   UNL A   1      36.130  29.520  27.565  1.00  0.00    -0.460 OA
BRANCH  35  36
ATOM     36  C   UNL A   1      36.775  29.571  28.771  1.00  0.00     0.338 C 
ATOM     37  O   UNL A   1      36.261  29.390  29.862  1.00  0.00    -0.246 OA
BRANCH  36  38
ATOM     38  C   UNL A   1      38.254  29.459  28.533  1.00  0.00     0.060 A 
ATOM     39  C   UNL A   1      38.864  29.540  27.276  1.00  0.00     0.016 A 
ATOM     40  C   UNL A   1      39.004  28.947  29.591  1.00  0.00     0.016 A 
ATOM     41  C   UNL A   1      40.133  28.944  27.052  1.00  0.00     0.010 A 
ATOM     42  C   UNL A   1      40.270  28.392  29.351  1.00  0.00     0.010 A 
ATOM     43  C   UNL A   1      40.826  28.273  28.076  1.00  0.00    -0.014 A 
BRANCH  43  44
ATOM     44  C   UNL A   1      42.270  27.899  27.945  1.00  0.00     0.031 A 
ATOM     45  C   UNL A   1      42.360  26.631  27.214  1.00  0.00     0.074 A 
ATOM     46  C   UNL A   1      43.485  28.439  28.250  1.00  0.00     0.049 A 
ATOM     47  N   UNL A   1      42.492  25.489  27.793  1.00  0.00    -0.248 NA
ATOM     48  C   UNL A   1      42.102  26.581  25.775  1.00  0.00     0.031 C 
ATOM     49  C   UNL A   1      43.794  29.675  28.925  1.00  0.00     0.029 A 
ATOM     50  N   UNL A   1      44.767  27.976  28.006  1.00  0.00    -0.354 N 
ATOM     51  C   UNL A   1      42.584  24.577  26.766  1.00  0.00     0.074 A 
ATOM     52  C   UNL A   1      42.135  25.261  25.577  1.00  0.00     0.031 C 
ATOM     53  C   UNL A   1      45.082  30.055  28.779  1.00  0.00     0.029 A 
ATOM     54  C   UNL A   1      45.791  28.909  28.245  1.00  0.00     0.049 A 
ATOM     55  H   UNL A   1      44.948  27.062  27.689  1.00  0.00     0.167 HD
ATOM     56  C   UNL A   1      43.296  23.438  26.953  1.00  0.00     0.037 A 
ATOM     57  C   UNL A   1      47.143  28.748  28.304  1.00  0.00     0.037 A 
ATOM     58  C   UNL A   1      43.541  23.184  28.359  1.00  0.00     0.049 A 
ATOM     59  C   UNL A   1      47.388  27.341  28.656  1.00  0.00     0.074 A 
ATOM     60  C   UNL A   1      42.748  23.094  29.491  1.00  0.00     0.029 A 
ATOM     61  N   UNL A   1      44.818  23.349  28.835  1.00  0.00    -0.354 N 
ATOM     62  N   UNL A   1      47.173  26.838  29.837  1.00  0.00    -0.248 NA
ATOM     63  C   UNL A   1      47.500  26.389  27.571  1.00  0.00     0.031 C 
ATOM     64  C   UNL A   1      43.511  23.690  30.541  1.00  0.00     0.029 A 
ATOM     65  C   UNL A   1      44.746  24.055  30.009  1.00  0.00     0.049 A 
ATOM     66  H   UNL A   1      45.642  23.018  28.408  1.00  0.00     0.167 HD
ATOM     67  C   UNL A   1      46.638  25.590  29.575  1.00  0.00     0.074 A 
ATOM     68  C   UNL A   1      46.970  25.325  28.176  1.00  0.00     0.031 C 
ATOM     69  C   UNL A   1      45.740  25.019  30.429  1.00  0.00     0.037 A 
BRANCH  56  70
ATOM     70  C   UNL A   1      44.100  22.804  25.855  1.00  0.00     0.057 A 
ATOM     71  C   UNL A   1      45.202  23.415  25.217  1.00  0.00     0.134 A 
ATOM     72  C   UNL A   1      43.951  21.431  25.618  1.00  0.00     0.134 A 
ATOM     73  F   UNL A   1      45.542  24.693  25.423  1.00  0.00    -0.206 F 
ATOM     74  C   UNL A   1      46.092  22.709  24.408  1.00  0.00     0.040 A 
ATOM     75  C   UNL A   1      44.870  20.703  24.857  1.00  0.00     0.040 A 
ATOM     76  F   UNL A   1      42.956  20.740  26.194  1.00  0.00    -0.206 F 
ATOM     77  C   UNL A   1      45.946  21.341  24.252  1.00  0.00     0.006 A 
ENDBRANCH  56  70
BRANCH  57  78
ATOM     78  C   UNL A   1      48.270  29.679  28.032  1.00  0.00     0.057 A 
ATOM     79  C   UNL A   1      49.148  29.443  26.963  1.00  0.00     0.134 A 
ATOM     80  C   UNL A   1      48.708  30.619  28.984  1.00  0.00     0.134 A 
ATOM     81  F   UNL A   1      48.848  28.534  26.023  1.00  0.00    -0.206 F 
ATOM     82  C   UNL A   1      50.407  30.055  26.876  1.00  0.00     0.040 A 
ATOM     83  C   UNL A   1      49.965  31.238  28.909  1.00  0.00     0.040 A 
ATOM     84  F   UNL A   1      47.959  30.907  30.059  1.00  0.00    -0.206 F 
ATOM     85  C   UNL A   1      50.829  30.940  27.862  1.00  0.00     0.006 A 
ENDBRANCH  57  78
BRANCH  69  86
ATOM     86  C   UNL A   1      45.628  25.583  31.824  1.00  0.00     0.057 A 
ATOM     87  C   UNL A   1      44.640  26.545  32.073  1.00  0.00     0.134 A 
ATOM     88  C   UNL A   1      46.498  25.289  32.886  1.00  0.00     0.134 A 
ATOM     89  F   UNL A   1      43.795  26.913  31.096  1.00  0.00    -0.206 F 
ATOM     90  C   UNL A   1      44.508  27.173  33.314  1.00  0.00     0.040 A 
ATOM     91  C   UNL A   1      46.355  25.887  34.145  1.00  0.00     0.040 A 
ATOM     92  F   UNL A   1      47.532  24.454  32.727  1.00  0.00    -0.206 F 
ATOM     93  C   UNL A   1      45.360  26.835  34.361  1.00  0.00     0.006 A 
ENDBRANCH  69  86
ENDBRANCH  43  44
ENDBRANCH  36  38
ENDBRANCH  35  36
ENDBRANCH  34  35
ENDBRANCH  33  34
ENDBRANCH  32  33
ENDBRANCH  31  32
ENDBRANCH   1  31
TORSDOF 20
ENDMDL
