MODEL 1
REMARK VINA RESULT:     -10.7      0.000      0.000
REMARK SMILES CCNC(=O)c1cccc(-c2ccc(Cl)c(C(=O)OCCOCCOCCOC(=O)c3ccc(-c4c5nc(c(-c6c(F)cccc6F)c6ccc([nH]6)c(-c6c(F)cccc6F)c6nc(c(-c7c(F)cccc7F)c7ccc4[nH]7)C=C6)C=C5)cc3)c2)c1
REMARK SMILES IDX 23 1 22 2 21 3 20 4 19 5 17 6 18 7 16 8 11 9 12 10 85 11
REMARK SMILES IDX 13 12 14 13 15 14 10 15 6 16 7 17 86 18 8 19 9 20 4 21 3 22
REMARK SMILES IDX 5 24 2 25 1 26 24 27 25 28 26 29 27 30 28 31 29 32 30 33
REMARK SMILES IDX 31 34 32 35 84 36 33 37 83 38 34 39 35 40 36 41 77 42 37 43
REMARK SMILES IDX 82 44 76 45 78 46 38 47 81 48 75 49 74 50 39 52 65 53 48 54
REMARK SMILES IDX 64 55 49 56 52 57 63 58 79 59 50 60 51 61 62 63 80 64 53 65
REMARK SMILES IDX 40 66 41 67 46 68 42 69 43 70 45 71 47 72 44 73 66 74 67 75
REMARK SMILES IDX 72 76 68 77 69 78 71 79 73 80 70 81 54 82 55 83 60 84 56 85
REMARK SMILES IDX 57 86 59 87 61 88 58 89
REMARK H PARENT 3 23 78 51 52 62
REMARK Flexibility Score: inf
ROOT
ATOM      1  C   UNL A   1      45.282  19.627  24.054  1.00  0.00     0.188 C 
ENDROOT
BRANCH   1   2
ATOM      2  O   UNL A   1      43.930  19.985  24.328  1.00  0.00    -0.376 OA
BRANCH   2   3
ATOM      3  C   UNL A   1      43.344  19.616  25.575  1.00  0.00     0.202 C 
BRANCH   3   4
ATOM      4  C   UNL A   1      42.091  18.733  25.561  1.00  0.00     0.261 C 
BRANCH   4   5
ATOM      5  O   UNL A   1      40.893  19.469  25.846  1.00  0.00    -0.460 OA
BRANCH   5   6
ATOM      6  C   UNL A   1      40.850  20.101  27.045  1.00  0.00     0.339 C 
ATOM      7  O   UNL A   1      41.389  19.756  28.081  1.00  0.00    -0.246 OA
BRANCH   6   8
ATOM      8  C   UNL A   1      40.085  21.355  26.878  1.00  0.00     0.079 A 
ATOM      9  C   UNL A   1      38.162  22.497  25.873  1.00  0.00    -0.017 A 
ATOM     10  C   UNL A   1      38.578  23.675  26.515  1.00  0.00     0.010 A 
ATOM     11  C   UNL A   1      38.950  21.345  26.051  1.00  0.00     0.026 A 
ATOM     12  C   UNL A   1      39.723  23.699  27.318  1.00  0.00     0.022 A 
ATOM     13  C   UNL A   1      40.473  22.537  27.514  1.00  0.00     0.055 A 
ATOM     14  Cl  UNL A   1      41.886  22.666  28.496  1.00  0.00    -0.083 Cl
BRANCH   9  15
ATOM     15  C   UNL A   1      36.888  22.441  25.130  1.00  0.00    -0.018 A 
ATOM     16  C   UNL A   1      34.489  21.978  25.149  1.00  0.00     0.040 A 
ATOM     17  C   UNL A   1      34.359  22.505  23.864  1.00  0.00     0.014 A 
ATOM     18  C   UNL A   1      35.750  21.897  25.745  1.00  0.00     0.022 A 
ATOM     19  C   UNL A   1      35.485  23.003  23.209  1.00  0.00     0.001 A 
ATOM     20  C   UNL A   1      36.734  22.985  23.843  1.00  0.00     0.009 A 
BRANCH  16  21
ATOM     21  C   UNL A   1      33.289  21.483  25.859  1.00  0.00     0.251 C 
ATOM     22  N   UNL A   1      32.806  20.221  25.613  1.00  0.00    -0.352 N 
ATOM     23  H   UNL A   1      31.929  20.027  26.017  1.00  0.00     0.163 HD
ATOM     24  O   UNL A   1      32.729  22.208  26.676  1.00  0.00    -0.269 OA
BRANCH  22  25
ATOM     25  C   UNL A   1      33.385  19.124  24.851  1.00  0.00     0.112 C 
ATOM     26  C   UNL A   1      32.453  18.670  23.746  1.00  0.00     0.027 C 
ENDBRANCH  22  25
ENDBRANCH  16  21
ENDBRANCH   9  15
ENDBRANCH   6   8
ENDBRANCH   5   6
ENDBRANCH   4   5
ENDBRANCH   3   4
ENDBRANCH   2   3
ENDBRANCH   1   2
BRANCH   1  27
ATOM     27  C   UNL A   1      46.425  20.342  24.804  1.00  0.00     0.188 C 
BRANCH  27  28
ATOM     28  O   UNL A   1      46.266  21.737  24.896  1.00  0.00    -0.376 OA
BRANCH  28  29
ATOM     29  C   UNL A   1      45.822  22.325  26.104  1.00  0.00     0.202 C 
BRANCH  29  30
ATOM     30  C   UNL A   1      46.344  23.664  26.659  1.00  0.00     0.261 C 
BRANCH  30  31
ATOM     31  O   UNL A   1      46.200  24.834  25.849  1.00  0.00    -0.460 OA
BRANCH  31  32
ATOM     32  C   UNL A   1      44.981  25.064  25.311  1.00  0.00     0.338 C 
ATOM     33  O   UNL A   1      44.532  24.610  24.276  1.00  0.00    -0.246 OA
BRANCH  32  34
ATOM     34  C   UNL A   1      44.192  25.839  26.293  1.00  0.00     0.060 A 
ATOM     35  C   UNL A   1      44.585  27.151  26.580  1.00  0.00     0.016 A 
ATOM     36  C   UNL A   1      43.083  25.276  26.931  1.00  0.00     0.016 A 
ATOM     37  C   UNL A   1      43.885  27.895  27.530  1.00  0.00     0.010 A 
ATOM     38  C   UNL A   1      42.390  26.019  27.894  1.00  0.00     0.010 A 
ATOM     39  C   UNL A   1      42.805  27.323  28.218  1.00  0.00    -0.014 A 
BRANCH  39  40
ATOM     40  C   UNL A   1      42.205  28.045  29.367  1.00  0.00     0.031 A 
ATOM     41  C   UNL A   1      42.878  27.970  30.710  1.00  0.00     0.074 A 
ATOM     42  C   UNL A   1      41.096  28.790  29.214  1.00  0.00     0.049 A 
ATOM     43  N   UNL A   1      42.551  28.547  31.838  1.00  0.00    -0.248 NA
ATOM     44  C   UNL A   1      44.087  27.134  30.789  1.00  0.00     0.031 C 
ATOM     45  C   UNL A   1      40.357  28.963  27.965  1.00  0.00     0.029 A 
ATOM     46  N   UNL A   1      40.399  29.543  30.126  1.00  0.00    -0.354 N 
ATOM     47  C   UNL A   1      43.513  28.152  32.758  1.00  0.00     0.074 A 
ATOM     48  C   UNL A   1      44.418  27.258  32.067  1.00  0.00     0.031 C 
ATOM     49  C   UNL A   1      39.303  29.766  28.191  1.00  0.00     0.029 A 
ATOM     50  C   UNL A   1      39.283  30.148  29.603  1.00  0.00     0.049 A 
ATOM     51  H   UNL A   1      40.672  29.639  31.067  1.00  0.00     0.167 HD
ATOM     52  C   UNL A   1      43.641  28.511  34.058  1.00  0.00     0.037 A 
ATOM     53  C   UNL A   1      38.350  30.916  30.197  1.00  0.00     0.037 A 
ATOM     54  C   UNL A   1      42.739  29.388  34.754  1.00  0.00     0.049 A 
ATOM     55  C   UNL A   1      38.479  31.248  31.661  1.00  0.00     0.074 A 
ATOM     56  C   UNL A   1      42.801  29.826  36.067  1.00  0.00     0.029 A 
ATOM     57  N   UNL A   1      41.602  29.954  34.199  1.00  0.00    -0.354 N 
ATOM     58  N   UNL A   1      39.420  30.908  32.509  1.00  0.00    -0.248 NA
ATOM     59  C   UNL A   1      37.418  32.080  32.247  1.00  0.00     0.031 C 
ATOM     60  C   UNL A   1      41.676  30.619  36.318  1.00  0.00     0.029 A 
ATOM     61  C   UNL A   1      40.939  30.715  35.149  1.00  0.00     0.049 A 
ATOM     62  H   UNL A   1      41.308  29.832  33.267  1.00  0.00     0.167 HD
ATOM     63  C   UNL A   1      39.078  31.502  33.718  1.00  0.00     0.074 A 
ATOM     64  C   UNL A   1      37.853  32.239  33.488  1.00  0.00     0.031 C 
ATOM     65  C   UNL A   1      39.719  31.442  34.910  1.00  0.00     0.037 A 
BRANCH  52  66
ATOM     66  C   UNL A   1      44.799  27.932  34.817  1.00  0.00     0.057 A 
ATOM     67  C   UNL A   1      46.019  28.611  34.932  1.00  0.00     0.134 A 
ATOM     68  C   UNL A   1      44.684  26.696  35.464  1.00  0.00     0.134 A 
ATOM     69  F   UNL A   1      46.199  29.793  34.323  1.00  0.00    -0.206 F 
ATOM     70  C   UNL A   1      47.090  28.071  35.645  1.00  0.00     0.040 A 
ATOM     71  C   UNL A   1      45.740  26.156  36.199  1.00  0.00     0.040 A 
ATOM     72  F   UNL A   1      43.542  25.995  35.396  1.00  0.00    -0.206 F 
ATOM     73  C   UNL A   1      46.949  26.842  36.287  1.00  0.00     0.006 A 
ENDBRANCH  52  66
BRANCH  53  74
ATOM     74  C   UNL A   1      37.197  31.426  29.414  1.00  0.00     0.057 A 
ATOM     75  C   UNL A   1      36.079  30.624  29.161  1.00  0.00     0.134 A 
ATOM     76  C   UNL A   1      37.204  32.717  28.871  1.00  0.00     0.134 A 
ATOM     77  F   UNL A   1      36.028  29.369  29.632  1.00  0.00    -0.206 F 
ATOM     78  C   UNL A   1      35.015  31.080  28.380  1.00  0.00     0.040 A 
ATOM     79  C   UNL A   1      36.137  33.194  28.110  1.00  0.00     0.040 A 
ATOM     80  F   UNL A   1      38.250  33.531  29.074  1.00  0.00    -0.206 F 
ATOM     81  C   UNL A   1      35.040  32.370  27.857  1.00  0.00     0.006 A 
ENDBRANCH  53  74
BRANCH  65  82
ATOM     82  C   UNL A   1      39.121  32.216  36.051  1.00  0.00     0.057 A 
ATOM     83  C   UNL A   1      38.184  31.644  36.921  1.00  0.00     0.134 A 
ATOM     84  C   UNL A   1      39.499  33.543  36.289  1.00  0.00     0.134 A 
ATOM     85  F   UNL A   1      37.769  30.382  36.741  1.00  0.00    -0.206 F 
ATOM     86  C   UNL A   1      37.622  32.375  37.970  1.00  0.00     0.040 A 
ATOM     87  C   UNL A   1      38.964  34.275  37.351  1.00  0.00     0.040 A 
ATOM     88  F   UNL A   1      40.399  34.148  35.501  1.00  0.00    -0.206 F 
ATOM     89  C   UNL A   1      38.016  33.694  38.190  1.00  0.00     0.006 A 
ENDBRANCH  65  82
ENDBRANCH  39  40
ENDBRANCH  32  34
ENDBRANCH  31  32
ENDBRANCH  30  31
ENDBRANCH  29  30
ENDBRANCH  28  29
ENDBRANCH  27  28
ENDBRANCH   1  27
TORSDOF 20
ENDMDL
MODEL 2
REMARK VINA RESULT:     -10.2      4.800      9.524
REMARK SMILES CCNC(=O)c1cccc(-c2ccc(Cl)c(C(=O)OCCOCCOCCOC(=O)c3ccc(-c4c5nc(c(-c6c(F)cccc6F)c6ccc([nH]6)c(-c6c(F)cccc6F)c6nc(c(-c7c(F)cccc7F)c7ccc4[nH]7)C=C6)C=C5)cc3)c2)c1
REMARK SMILES IDX 23 1 22 2 21 3 20 4 19 5 17 6 18 7 16 8 11 9 12 10 85 11
REMARK SMILES IDX 13 12 14 13 15 14 10 15 6 16 7 17 86 18 8 19 9 20 4 21 3 22
REMARK SMILES IDX 5 24 2 25 1 26 24 27 25 28 26 29 27 30 28 31 29 32 30 33
REMARK SMILES IDX 31 34 32 35 84 36 33 37 83 38 34 39 35 40 36 41 77 42 37 43
REMARK SMILES IDX 82 44 76 45 78 46 38 47 81 48 75 49 74 50 39 52 65 53 48 54
REMARK SMILES IDX 64 55 49 56 52 57 63 58 79 59 50 60 51 61 62 63 80 64 53 65
REMARK SMILES IDX 40 66 41 67 46 68 42 69 43 70 45 71 47 72 44 73 66 74 67 75
REMARK SMILES IDX 72 76 68 77 69 78 71 79 73 80 70 81 54 82 55 83 60 84 56 85
REMARK SMILES IDX 57 86 59 87 61 88 58 89
REMARK H PARENT 3 23 78 51 52 62
REMARK Flexibility Score: inf
ROOT
ATOM      1  C   UNL A   1      34.722  32.442  28.102  1.00  0.00     0.188 C 
ENDROOT
BRANCH   1   2
ATOM      2  O   UNL A   1      33.855  31.335  27.868  1.00  0.00    -0.376 OA
BRANCH   2   3
ATOM      3  C   UNL A   1      34.407  30.084  27.461  1.00  0.00     0.202 C 
BRANCH   3   4
ATOM      4  C   UNL A   1      33.652  29.260  26.412  1.00  0.00     0.261 C 
BRANCH   4   5
ATOM      5  O   UNL A   1      33.592  27.865  26.744  1.00  0.00    -0.460 OA
BRANCH   5   6
ATOM      6  C   UNL A   1      32.352  27.323  26.834  1.00  0.00     0.339 C 
ATOM      7  O   UNL A   1      31.485  27.593  27.645  1.00  0.00    -0.246 OA
BRANCH   6   8
ATOM      8  C   UNL A   1      32.179  26.378  25.711  1.00  0.00     0.079 A 
ATOM      9  C   UNL A   1      32.616  24.150  24.786  1.00  0.00    -0.017 A 
ATOM     10  C   UNL A   1      31.895  24.528  23.641  1.00  0.00     0.010 A 
ATOM     11  C   UNL A   1      32.767  25.106  25.807  1.00  0.00     0.026 A 
ATOM     12  C   UNL A   1      31.330  25.802  23.527  1.00  0.00     0.022 A 
ATOM     13  C   UNL A   1      31.459  26.727  24.566  1.00  0.00     0.055 A 
ATOM     14  Cl  UNL A   1      30.755  28.285  24.326  1.00  0.00    -0.083 Cl
BRANCH   9  15
ATOM     15  C   UNL A   1      33.103  22.767  24.960  1.00  0.00    -0.018 A 
ATOM     16  C   UNL A   1      33.024  20.431  24.246  1.00  0.00     0.040 A 
ATOM     17  C   UNL A   1      34.118  20.128  25.057  1.00  0.00     0.014 A 
ATOM     18  C   UNL A   1      32.492  21.723  24.247  1.00  0.00     0.022 A 
ATOM     19  C   UNL A   1      34.709  21.137  25.817  1.00  0.00     0.001 A 
ATOM     20  C   UNL A   1      34.215  22.446  25.757  1.00  0.00     0.009 A 
BRANCH  16  21
ATOM     21  C   UNL A   1      32.420  19.370  23.411  1.00  0.00     0.251 C 
ATOM     22  N   UNL A   1      32.284  18.093  23.899  1.00  0.00    -0.352 N 
ATOM     23  H   UNL A   1      32.008  17.422  23.233  1.00  0.00     0.163 HD
ATOM     24  O   UNL A   1      32.035  19.640  22.277  1.00  0.00    -0.269 OA
BRANCH  22  25
ATOM     25  C   UNL A   1      32.482  17.575  25.245  1.00  0.00     0.112 C 
ATOM     26  C   UNL A   1      33.596  16.546  25.279  1.00  0.00     0.027 C 
ENDBRANCH  22  25
ENDBRANCH  16  21
ENDBRANCH   9  15
ENDBRANCH   6   8
ENDBRANCH   5   6
ENDBRANCH   4   5
ENDBRANCH   3   4
ENDBRANCH   2   3
ENDBRANCH   1   2
BRANCH   1  27
ATOM     27  C   UNL A   1      34.434  33.397  29.279  1.00  0.00     0.188 C 
BRANCH  27  28
ATOM     28  O   UNL A   1      33.341  34.257  29.067  1.00  0.00    -0.376 OA
BRANCH  28  29
ATOM     29  C   UNL A   1      33.520  35.660  29.107  1.00  0.00     0.202 C 
BRANCH  29  30
ATOM     30  C   UNL A   1      32.740  36.607  30.040  1.00  0.00     0.261 C 
BRANCH  30  31
ATOM     31  O   UNL A   1      33.133  36.676  31.414  1.00  0.00    -0.460 OA
BRANCH  31  32
ATOM     32  C   UNL A   1      32.751  35.656  32.215  1.00  0.00     0.338 C 
ATOM     33  O   UNL A   1      31.618  35.266  32.426  1.00  0.00    -0.246 OA
BRANCH  32  34
ATOM     34  C   UNL A   1      33.972  34.959  32.674  1.00  0.00     0.060 A 
ATOM     35  C   UNL A   1      35.211  35.575  32.464  1.00  0.00     0.016 A 
ATOM     36  C   UNL A   1      33.898  33.709  33.295  1.00  0.00     0.016 A 
ATOM     37  C   UNL A   1      36.384  34.927  32.850  1.00  0.00     0.010 A 
ATOM     38  C   UNL A   1      35.077  33.054  33.668  1.00  0.00     0.010 A 
ATOM     39  C   UNL A   1      36.328  33.647  33.423  1.00  0.00    -0.014 A 
BRANCH  39  40
ATOM     40  C   UNL A   1      37.583  32.885  33.635  1.00  0.00     0.031 A 
ATOM     41  C   UNL A   1      38.392  33.139  34.877  1.00  0.00     0.074 A 
ATOM     42  C   UNL A   1      37.981  31.949  32.755  1.00  0.00     0.049 A 
ATOM     43  N   UNL A   1      39.496  32.566  35.281  1.00  0.00    -0.248 NA
ATOM     44  C   UNL A   1      37.883  34.179  35.786  1.00  0.00     0.031 C 
ATOM     45  C   UNL A   1      37.281  31.591  31.523  1.00  0.00     0.029 A 
ATOM     46  N   UNL A   1      39.082  31.128  32.769  1.00  0.00    -0.354 N 
ATOM     47  C   UNL A   1      39.812  33.168  36.494  1.00  0.00     0.074 A 
ATOM     48  C   UNL A   1      38.802  34.174  36.742  1.00  0.00     0.031 C 
ATOM     49  C   UNL A   1      37.974  30.625  30.894  1.00  0.00     0.029 A 
ATOM     50  C   UNL A   1      39.174  30.312  31.669  1.00  0.00     0.049 A 
ATOM     51  H   UNL A   1      39.743  31.125  33.499  1.00  0.00     0.167 HD
ATOM     52  C   UNL A   1      40.842  32.898  37.331  1.00  0.00     0.037 A 
ATOM     53  C   UNL A   1      40.123  29.420  31.325  1.00  0.00     0.037 A 
ATOM     54  C   UNL A   1      41.855  31.908  37.085  1.00  0.00     0.049 A 
ATOM     55  C   UNL A   1      41.294  29.184  32.243  1.00  0.00     0.074 A 
ATOM     56  C   UNL A   1      42.926  31.549  37.886  1.00  0.00     0.029 A 
ATOM     57  N   UNL A   1      41.934  31.126  35.943  1.00  0.00    -0.354 N 
ATOM     58  N   UNL A   1      41.555  29.724  33.409  1.00  0.00    -0.248 NA
ATOM     59  C   UNL A   1      42.296  28.205  31.798  1.00  0.00     0.031 C 
ATOM     60  C   UNL A   1      43.677  30.583  37.210  1.00  0.00     0.029 A 
ATOM     61  C   UNL A   1      43.048  30.304  36.007  1.00  0.00     0.049 A 
ATOM     62  H   UNL A   1      41.292  31.150  35.196  1.00  0.00     0.167 HD
ATOM     63  C   UNL A   1      42.736  29.136  33.846  1.00  0.00     0.074 A 
ATOM     64  C   UNL A   1      43.129  28.184  32.829  1.00  0.00     0.031 C 
ATOM     65  C   UNL A   1      43.432  29.363  34.987  1.00  0.00     0.037 A 
BRANCH  52  66
ATOM     66  C   UNL A   1      40.928  33.706  38.592  1.00  0.00     0.057 A 
ATOM     67  C   UNL A   1      40.165  33.391  39.725  1.00  0.00     0.134 A 
ATOM     68  C   UNL A   1      41.804  34.795  38.685  1.00  0.00     0.134 A 
ATOM     69  F   UNL A   1      39.296  32.370  39.695  1.00  0.00    -0.206 F 
ATOM     70  C   UNL A   1      40.255  34.143  40.897  1.00  0.00     0.040 A 
ATOM     71  C   UNL A   1      41.920  35.539  39.860  1.00  0.00     0.040 A 
ATOM     72  F   UNL A   1      42.565  35.148  37.638  1.00  0.00    -0.206 F 
ATOM     73  C   UNL A   1      41.140  35.216  40.968  1.00  0.00     0.006 A 
ENDBRANCH  52  66
BRANCH  53  74
ATOM     74  C   UNL A   1      40.016  28.679  30.044  1.00  0.00     0.057 A 
ATOM     75  C   UNL A   1      39.311  27.473  29.959  1.00  0.00     0.134 A 
ATOM     76  C   UNL A   1      40.647  29.141  28.883  1.00  0.00     0.134 A 
ATOM     77  F   UNL A   1      38.709  26.966  31.045  1.00  0.00    -0.206 F 
ATOM     78  C   UNL A   1      39.251  26.744  28.770  1.00  0.00     0.040 A 
ATOM     79  C   UNL A   1      40.575  28.435  27.681  1.00  0.00     0.040 A 
ATOM     80  F   UNL A   1      41.343  30.287  28.902  1.00  0.00    -0.206 F 
ATOM     81  C   UNL A   1      39.880  27.228  27.625  1.00  0.00     0.006 A 
ENDBRANCH  53  74
BRANCH  65  82
ATOM     82  C   UNL A   1      44.676  28.549  35.205  1.00  0.00     0.057 A 
ATOM     83  C   UNL A   1      45.935  28.996  34.784  1.00  0.00     0.134 A 
ATOM     84  C   UNL A   1      44.614  27.311  35.858  1.00  0.00     0.134 A 
ATOM     85  F   UNL A   1      46.062  30.166  34.142  1.00  0.00    -0.206 F 
ATOM     86  C   UNL A   1      47.084  28.227  34.978  1.00  0.00     0.040 A 
ATOM     87  C   UNL A   1      45.760  26.546  36.081  1.00  0.00     0.040 A 
ATOM     88  F   UNL A   1      43.442  26.829  36.296  1.00  0.00    -0.206 F 
ATOM     89  C   UNL A   1      46.998  26.999  35.633  1.00  0.00     0.006 A 
ENDBRANCH  65  82
ENDBRANCH  39  40
ENDBRANCH  32  34
ENDBRANCH  31  32
ENDBRANCH  30  31
ENDBRANCH  29  30
ENDBRANCH  28  29
ENDBRANCH  27  28
ENDBRANCH   1  27
TORSDOF 20
ENDMDL
MODEL 3
REMARK VINA RESULT:     -10.1      2.751      7.553
REMARK SMILES CCNC(=O)c1cccc(-c2ccc(Cl)c(C(=O)OCCOCCOCCOC(=O)c3ccc(-c4c5nc(c(-c6c(F)cccc6F)c6ccc([nH]6)c(-c6c(F)cccc6F)c6nc(c(-c7c(F)cccc7F)c7ccc4[nH]7)C=C6)C=C5)cc3)c2)c1
REMARK SMILES IDX 23 1 22 2 21 3 20 4 19 5 17 6 18 7 16 8 11 9 12 10 85 11
REMARK SMILES IDX 13 12 14 13 15 14 10 15 6 16 7 17 86 18 8 19 9 20 4 21 3 22
REMARK SMILES IDX 5 24 2 25 1 26 24 27 25 28 26 29 27 30 28 31 29 32 30 33
REMARK SMILES IDX 31 34 32 35 84 36 33 37 83 38 34 39 35 40 36 41 77 42 37 43
REMARK SMILES IDX 82 44 76 45 78 46 38 47 81 48 75 49 74 50 39 52 65 53 48 54
REMARK SMILES IDX 64 55 49 56 52 57 63 58 79 59 50 60 51 61 62 63 80 64 53 65
REMARK SMILES IDX 40 66 41 67 46 68 42 69 43 70 45 71 47 72 44 73 66 74 67 75
REMARK SMILES IDX 72 76 68 77 69 78 71 79 73 80 70 81 54 82 55 83 60 84 56 85
REMARK SMILES IDX 57 86 59 87 61 88 58 89
REMARK H PARENT 3 23 78 51 52 62
REMARK Flexibility Score: inf
ROOT
ATOM      1  C   UNL A   1      38.987  19.587  25.744  1.00  0.00     0.188 C 
ENDROOT
BRANCH   1   2
ATOM      2  O   UNL A   1      38.010  20.339  25.029  1.00  0.00    -0.376 OA
BRANCH   2   3
ATOM      3  C   UNL A   1      38.007  21.762  25.130  1.00  0.00     0.202 C 
BRANCH   3   4
ATOM      4  C   UNL A   1      36.689  22.468  25.467  1.00  0.00     0.261 C 
BRANCH   4   5
ATOM      5  O   UNL A   1      35.627  21.547  25.759  1.00  0.00    -0.460 OA
BRANCH   5   6
ATOM      6  C   UNL A   1      34.466  22.092  26.198  1.00  0.00     0.339 C 
ATOM      7  O   UNL A   1      34.079  22.178  27.349  1.00  0.00    -0.246 OA
BRANCH   6   8
ATOM      8  C   UNL A   1      33.750  22.652  25.033  1.00  0.00     0.079 A 
ATOM      9  C   UNL A   1      33.058  24.645  23.782  1.00  0.00    -0.017 A 
ATOM     10  C   UNL A   1      32.426  23.796  22.858  1.00  0.00     0.010 A 
ATOM     11  C   UNL A   1      33.698  24.048  24.883  1.00  0.00     0.026 A 
ATOM     12  C   UNL A   1      32.450  22.406  23.015  1.00  0.00     0.022 A 
ATOM     13  C   UNL A   1      33.122  21.828  24.095  1.00  0.00     0.055 A 
ATOM     14  Cl  UNL A   1      33.074  20.108  24.225  1.00  0.00    -0.083 Cl
BRANCH   9  15
ATOM     15  C   UNL A   1      33.141  26.100  23.549  1.00  0.00    -0.018 A 
ATOM     16  C   UNL A   1      32.824  28.364  24.413  1.00  0.00     0.040 A 
ATOM     17  C   UNL A   1      33.460  28.899  23.292  1.00  0.00     0.014 A 
ATOM     18  C   UNL A   1      32.619  26.985  24.506  1.00  0.00     0.022 A 
ATOM     19  C   UNL A   1      33.940  28.043  22.301  1.00  0.00     0.001 A 
ATOM     20  C   UNL A   1      33.794  26.657  22.437  1.00  0.00     0.009 A 
BRANCH  16  21
ATOM     21  C   UNL A   1      32.348  29.268  25.482  1.00  0.00     0.251 C 
ATOM     22  N   UNL A   1      33.081  29.432  26.632  1.00  0.00    -0.352 N 
ATOM     23  H   UNL A   1      32.625  29.934  27.347  1.00  0.00     0.163 HD
ATOM     24  O   UNL A   1      31.292  29.877  25.334  1.00  0.00    -0.269 OA
BRANCH  22  25
ATOM     25  C   UNL A   1      34.426  28.982  26.962  1.00  0.00     0.112 C 
ATOM     26  C   UNL A   1      35.208  30.066  27.678  1.00  0.00     0.027 C 
ENDBRANCH  22  25
ENDBRANCH  16  21
ENDBRANCH   9  15
ENDBRANCH   6   8
ENDBRANCH   5   6
ENDBRANCH   4   5
ENDBRANCH   3   4
ENDBRANCH   2   3
ENDBRANCH   1   2
BRANCH   1  27
ATOM     27  C   UNL A   1      40.337  20.241  26.104  1.00  0.00     0.188 C 
BRANCH  27  28
ATOM     28  O   UNL A   1      40.401  20.738  27.419  1.00  0.00    -0.376 OA
BRANCH  28  29
ATOM     29  C   UNL A   1      41.053  21.965  27.686  1.00  0.00     0.202 C 
BRANCH  29  30
ATOM     30  C   UNL A   1      41.400  23.014  26.612  1.00  0.00     0.261 C 
BRANCH  30  31
ATOM     31  O   UNL A   1      40.554  24.162  26.491  1.00  0.00    -0.460 OA
BRANCH  31  32
ATOM     32  C   UNL A   1      41.148  25.333  26.167  1.00  0.00     0.338 C 
ATOM     33  O   UNL A   1      41.483  25.711  25.060  1.00  0.00    -0.246 OA
BRANCH  32  34
ATOM     34  C   UNL A   1      41.171  26.179  27.379  1.00  0.00     0.060 A 
ATOM     35  C   UNL A   1      40.194  25.968  28.359  1.00  0.00     0.016 A 
ATOM     36  C   UNL A   1      42.138  27.175  27.545  1.00  0.00     0.016 A 
ATOM     37  C   UNL A   1      40.165  26.776  29.497  1.00  0.00     0.010 A 
ATOM     38  C   UNL A   1      42.098  27.993  28.680  1.00  0.00     0.010 A 
ATOM     39  C   UNL A   1      41.094  27.815  29.649  1.00  0.00    -0.014 A 
BRANCH  39  40
ATOM     40  C   UNL A   1      40.925  28.793  30.752  1.00  0.00     0.031 A 
ATOM     41  C   UNL A   1      39.850  29.840  30.642  1.00  0.00     0.074 A 
ATOM     42  C   UNL A   1      41.690  28.730  31.856  1.00  0.00     0.049 A 
ATOM     43  N   UNL A   1      39.503  30.767  31.497  1.00  0.00    -0.248 NA
ATOM     44  C   UNL A   1      39.059  29.836  29.401  1.00  0.00     0.031 C 
ATOM     45  C   UNL A   1      42.752  27.756  32.097  1.00  0.00     0.029 A 
ATOM     46  N   UNL A   1      41.685  29.512  32.985  1.00  0.00    -0.354 N 
ATOM     47  C   UNL A   1      38.449  31.452  30.903  1.00  0.00     0.074 A 
ATOM     48  C   UNL A   1      38.238  30.857  29.601  1.00  0.00     0.031 C 
ATOM     49  C   UNL A   1      43.303  28.003  33.299  1.00  0.00     0.029 A 
ATOM     50  C   UNL A   1      42.645  29.162  33.901  1.00  0.00     0.049 A 
ATOM     51  H   UNL A   1      41.053  30.254  33.124  1.00  0.00     0.167 HD
ATOM     52  C   UNL A   1      37.716  32.476  31.402  1.00  0.00     0.037 A 
ATOM     53  C   UNL A   1      42.962  29.719  35.085  1.00  0.00     0.037 A 
ATOM     54  C   UNL A   1      37.930  33.081  32.689  1.00  0.00     0.049 A 
ATOM     55  C   UNL A   1      42.173  30.899  35.589  1.00  0.00     0.074 A 
ATOM     56  C   UNL A   1      37.223  34.110  33.288  1.00  0.00     0.029 A 
ATOM     57  N   UNL A   1      38.935  32.721  33.574  1.00  0.00    -0.354 N 
ATOM     58  N   UNL A   1      41.148  31.507  35.041  1.00  0.00    -0.248 NA
ATOM     59  C   UNL A   1      42.581  31.463  36.885  1.00  0.00     0.031 C 
ATOM     60  C   UNL A   1      37.828  34.402  34.515  1.00  0.00     0.029 A 
ATOM     61  C   UNL A   1      38.883  33.524  34.702  1.00  0.00     0.049 A 
ATOM     62  H   UNL A   1      39.589  32.001  33.422  1.00  0.00     0.167 HD
ATOM     63  C   UNL A   1      40.776  32.507  35.932  1.00  0.00     0.074 A 
ATOM     64  C   UNL A   1      41.673  32.411  37.065  1.00  0.00     0.031 C 
ATOM     65  C   UNL A   1      39.783  33.422  35.822  1.00  0.00     0.037 A 
BRANCH  52  66
ATOM     66  C   UNL A   1      36.619  33.019  30.534  1.00  0.00     0.057 A 
ATOM     67  C   UNL A   1      36.882  33.903  29.479  1.00  0.00     0.134 A 
ATOM     68  C   UNL A   1      35.289  32.632  30.737  1.00  0.00     0.134 A 
ATOM     69  F   UNL A   1      38.133  34.324  29.241  1.00  0.00    -0.206 F 
ATOM     70  C   UNL A   1      35.858  34.398  28.670  1.00  0.00     0.040 A 
ATOM     71  C   UNL A   1      34.260  33.102  29.921  1.00  0.00     0.040 A 
ATOM     72  F   UNL A   1      34.970  31.786  31.728  1.00  0.00    -0.206 F 
ATOM     73  C   UNL A   1      34.543  33.992  28.887  1.00  0.00     0.006 A 
ENDBRANCH  52  66
BRANCH  53  74
ATOM     74  C   UNL A   1      44.087  29.175  35.886  1.00  0.00     0.057 A 
ATOM     75  C   UNL A   1      45.381  29.692  35.766  1.00  0.00     0.134 A 
ATOM     76  C   UNL A   1      43.898  28.102  36.765  1.00  0.00     0.134 A 
ATOM     77  F   UNL A   1      45.628  30.702  34.918  1.00  0.00    -0.206 F 
ATOM     78  C   UNL A   1      46.453  29.149  36.476  1.00  0.00     0.040 A 
ATOM     79  C   UNL A   1      44.956  27.566  37.501  1.00  0.00     0.040 A 
ATOM     80  F   UNL A   1      42.682  27.559  36.921  1.00  0.00    -0.206 F 
ATOM     81  C   UNL A   1      46.241  28.087  37.351  1.00  0.00     0.006 A 
ENDBRANCH  53  74
BRANCH  65  82
ATOM     82  C   UNL A   1      39.597  34.375  36.969  1.00  0.00     0.057 A 
ATOM     83  C   UNL A   1      38.895  34.013  38.125  1.00  0.00     0.134 A 
ATOM     84  C   UNL A   1      40.143  35.664  36.921  1.00  0.00     0.134 A 
ATOM     85  F   UNL A   1      38.336  32.798  38.229  1.00  0.00    -0.206 F 
ATOM     86  C   UNL A   1      38.715  34.910  39.180  1.00  0.00     0.040 A 
ATOM     87  C   UNL A   1      39.993  36.560  37.981  1.00  0.00     0.040 A 
ATOM     88  F   UNL A   1      40.837  36.072  35.848  1.00  0.00    -0.206 F 
ATOM     89  C   UNL A   1      39.270  36.186  39.112  1.00  0.00     0.006 A 
ENDBRANCH  65  82
ENDBRANCH  39  40
ENDBRANCH  32  34
ENDBRANCH  31  32
ENDBRANCH  30  31
ENDBRANCH  29  30
ENDBRANCH  28  29
ENDBRANCH  27  28
ENDBRANCH   1  27
TORSDOF 20
ENDMDL
