MODEL 1
REMARK VINA RESULT:     -10.3      0.000      0.000
REMARK SMILES C[C@H](O)[C@@H](NC(=O)c1ccc(Cl)c(S(C)(=O)=O)c1)C(=O)OCCOCCOCCOC(=O)c1ccc(-c2c3nc(c(-c4c(F)cccc4F)c4ccc([nH]4)c(-c4c(F)cccc4F)c4nc(c(-c5c(F)cccc5F)c5ccc2[nH]5)C=C4)C=C3)cc1
REMARK SMILES IDX 25 1 24 2 23 3 22 4 21 5 19 6 20 7 4 8 2 9 1 10 3 11 5 13
REMARK SMILES IDX 6 14 7 16 8 17 9 18 18 19 10 20 13 21 11 22 12 23 14 24
REMARK SMILES IDX 15 25 16 26 17 27 26 28 27 29 28 30 29 31 30 32 31 33 32 34
REMARK SMILES IDX 33 35 34 36 86 37 35 38 85 39 36 40 37 41 38 42 79 43 39 44
REMARK SMILES IDX 84 45 78 46 80 47 40 48 83 49 77 50 76 51 41 53 67 54 50 55
REMARK SMILES IDX 66 56 51 57 54 58 65 59 81 60 52 61 53 62 64 64 82 65 55 66
REMARK SMILES IDX 42 67 43 68 48 69 44 70 45 71 47 72 49 73 46 74 68 75 69 76
REMARK SMILES IDX 74 77 70 78 71 79 73 80 75 81 72 82 56 83 57 84 62 85 58 86
REMARK SMILES IDX 59 87 61 88 63 89 60 90
REMARK H PARENT 3 12 5 15 80 52 54 63
REMARK Flexibility Score: inf
ROOT
ATOM      1  C   UNL A   1      39.210  22.139  26.483  1.00  0.00     0.188 C 
ENDROOT
BRANCH   1   2
ATOM      2  O   UNL A   1      38.680  23.450  26.413  1.00  0.00    -0.376 OA
BRANCH   2   3
ATOM      3  C   UNL A   1      37.541  23.683  25.588  1.00  0.00     0.202 C 
BRANCH   3   4
ATOM      4  C   UNL A   1      36.228  22.986  25.952  1.00  0.00     0.261 C 
BRANCH   4   5
ATOM      5  O   UNL A   1      35.609  22.075  25.007  1.00  0.00    -0.462 OA
BRANCH   5   6
ATOM      6  C   UNL A   1      34.608  22.598  24.248  1.00  0.00     0.331 C 
ATOM      7  O   UNL A   1      34.780  23.474  23.401  1.00  0.00    -0.250 OA
BRANCH   6   8
ATOM      8  C   UNL A   1      33.192  22.136  24.610  1.00  0.00     0.221 C 
BRANCH   8   9
ATOM      9  C   UNL A   1      32.831  20.640  24.435  1.00  0.00     0.145 C 
ATOM     10  C   UNL A   1      32.315  20.215  23.066  1.00  0.00     0.041 C 
BRANCH   9  11
ATOM     11  O   UNL A   1      31.772  20.337  25.379  1.00  0.00    -0.391 OA
ATOM     12  H   UNL A   1      31.343  21.161  25.659  1.00  0.00     0.211 HD
ENDBRANCH   9  11
ENDBRANCH   8   9
BRANCH   8  13
ATOM     13  N   UNL A   1      32.651  22.592  25.916  1.00  0.00    -0.336 N 
ATOM     14  C   UNL A   1      32.136  23.764  26.384  1.00  0.00     0.252 C 
ATOM     15  H   UNL A   1      32.669  21.885  26.601  1.00  0.00     0.164 HD
ATOM     16  O   UNL A   1      31.488  23.796  27.426  1.00  0.00    -0.269 OA
BRANCH  14  17
ATOM     17  C   UNL A   1      32.458  25.043  25.745  1.00  0.00     0.041 A 
ATOM     18  C   UNL A   1      33.719  25.618  25.882  1.00  0.00     0.015 A 
ATOM     19  C   UNL A   1      31.494  25.629  24.923  1.00  0.00     0.035 A 
ATOM     20  C   UNL A   1      33.997  26.818  25.220  1.00  0.00     0.023 A 
ATOM     21  C   UNL A   1      31.778  26.831  24.254  1.00  0.00     0.086 A 
ATOM     22  C   UNL A   1      33.035  27.430  24.400  1.00  0.00     0.059 A 
ATOM     23  Cl  UNL A   1      33.509  28.902  23.638  1.00  0.00    -0.083 Cl
BRANCH  21  24
ATOM     24  S   UNL A   1      30.428  27.615  23.399  1.00  0.00     0.177 S 
ATOM     25  C   UNL A   1      29.022  26.643  23.854  1.00  0.00     0.164 C 
ATOM     26  O   UNL A   1      30.261  28.931  23.992  1.00  0.00    -0.224 OA
ATOM     27  O   UNL A   1      30.652  27.511  21.972  1.00  0.00    -0.224 OA
ENDBRANCH  21  24
ENDBRANCH  14  17
ENDBRANCH   8  13
ENDBRANCH   6   8
ENDBRANCH   5   6
ENDBRANCH   4   5
ENDBRANCH   3   4
ENDBRANCH   2   3
ENDBRANCH   1   2
BRANCH   1  28
ATOM     28  C   UNL A   1      40.640  21.929  25.988  1.00  0.00     0.188 C 
BRANCH  28  29
ATOM     29  O   UNL A   1      41.487  21.185  26.839  1.00  0.00    -0.376 OA
BRANCH  29  30
ATOM     30  C   UNL A   1      42.698  20.658  26.304  1.00  0.00     0.202 C 
BRANCH  30  31
ATOM     31  C   UNL A   1      43.699  21.638  25.673  1.00  0.00     0.261 C 
BRANCH  31  32
ATOM     32  O   UNL A   1      43.957  22.819  26.457  1.00  0.00    -0.460 OA
BRANCH  32  33
ATOM     33  C   UNL A   1      43.881  24.012  25.822  1.00  0.00     0.338 C 
ATOM     34  O   UNL A   1      44.057  24.233  24.637  1.00  0.00    -0.246 OA
BRANCH  33  35
ATOM     35  C   UNL A   1      43.242  24.964  26.761  1.00  0.00     0.060 A 
ATOM     36  C   UNL A   1      43.744  26.275  26.815  1.00  0.00     0.016 A 
ATOM     37  C   UNL A   1      42.114  24.606  27.502  1.00  0.00     0.016 A 
ATOM     38  C   UNL A   1      43.149  27.214  27.652  1.00  0.00     0.010 A 
ATOM     39  C   UNL A   1      41.535  25.540  28.364  1.00  0.00     0.010 A 
ATOM     40  C   UNL A   1      42.082  26.831  28.474  1.00  0.00    -0.014 A 
BRANCH  40  41
ATOM     41  C   UNL A   1      41.763  27.679  29.648  1.00  0.00     0.031 A 
ATOM     42  C   UNL A   1      40.578  28.599  29.527  1.00  0.00     0.074 A 
ATOM     43  C   UNL A   1      42.442  27.590  30.804  1.00  0.00     0.049 A 
ATOM     44  N   UNL A   1      40.052  29.403  30.414  1.00  0.00    -0.248 NA
ATOM     45  C   UNL A   1      39.889  28.606  28.224  1.00  0.00     0.031 C 
ATOM     46  C   UNL A   1      43.579  26.711  31.060  1.00  0.00     0.029 A 
ATOM     47  N   UNL A   1      42.252  28.254  31.991  1.00  0.00    -0.354 N 
ATOM     48  C   UNL A   1      38.973  30.003  29.778  1.00  0.00     0.074 A 
ATOM     49  C   UNL A   1      38.940  29.505  28.423  1.00  0.00     0.031 C 
ATOM     50  C   UNL A   1      43.988  26.890  32.330  1.00  0.00     0.029 A 
ATOM     51  C   UNL A   1      43.153  27.906  32.967  1.00  0.00     0.049 A 
ATOM     52  H   UNL A   1      41.538  28.917  32.128  1.00  0.00     0.167 HD
ATOM     53  C   UNL A   1      38.075  30.881  30.280  1.00  0.00     0.037 A 
ATOM     54  C   UNL A   1      43.282  28.365  34.228  1.00  0.00     0.037 A 
ATOM     55  C   UNL A   1      38.109  31.389  31.623  1.00  0.00     0.049 A 
ATOM     56  C   UNL A   1      42.308  29.394  34.745  1.00  0.00     0.074 A 
ATOM     57  C   UNL A   1      37.251  32.291  32.227  1.00  0.00     0.029 A 
ATOM     58  N   UNL A   1      39.060  31.040  32.569  1.00  0.00    -0.354 N 
ATOM     59  N   UNL A   1      41.278  29.940  34.144  1.00  0.00    -0.248 NA
ATOM     60  C   UNL A   1      42.512  29.862  36.125  1.00  0.00     0.031 C 
ATOM     61  C   UNL A   1      37.710  32.519  33.529  1.00  0.00     0.029 A 
ATOM     62  C   UNL A   1      38.820  31.721  33.751  1.00  0.00     0.049 A 
ATOM     63  H   UNL A   1      39.796  30.404  32.423  1.00  0.00     0.167 HD
ATOM     64  C   UNL A   1      40.693  30.787  35.080  1.00  0.00     0.074 A 
ATOM     65  C   UNL A   1      41.477  30.672  36.293  1.00  0.00     0.031 C 
ATOM     66  C   UNL A   1      39.605  31.585  34.951  1.00  0.00     0.037 A 
BRANCH  53  67
ATOM     67  C   UNL A   1      37.002  31.365  29.351  1.00  0.00     0.057 A 
ATOM     68  C   UNL A   1      37.030  32.652  28.796  1.00  0.00     0.134 A 
ATOM     69  C   UNL A   1      35.926  30.536  29.013  1.00  0.00     0.134 A 
ATOM     70  F   UNL A   1      38.020  33.504  29.104  1.00  0.00    -0.206 F 
ATOM     71  C   UNL A   1      36.012  33.105  27.956  1.00  0.00     0.040 A 
ATOM     72  C   UNL A   1      34.916  30.969  28.153  1.00  0.00     0.040 A 
ATOM     73  F   UNL A   1      35.837  29.296  29.516  1.00  0.00    -0.206 F 
ATOM     74  C   UNL A   1      34.955  32.259  27.627  1.00  0.00     0.006 A 
ENDBRANCH  53  67
BRANCH  54  75
ATOM     75  C   UNL A   1      44.372  27.858  35.101  1.00  0.00     0.057 A 
ATOM     76  C   UNL A   1      44.226  26.675  35.835  1.00  0.00     0.134 A 
ATOM     77  C   UNL A   1      45.569  28.567  35.255  1.00  0.00     0.134 A 
ATOM     78  F   UNL A   1      43.090  25.965  35.752  1.00  0.00    -0.206 F 
ATOM     79  C   UNL A   1      45.220  26.226  36.706  1.00  0.00     0.040 A 
ATOM     80  C   UNL A   1      46.582  28.117  36.102  1.00  0.00     0.040 A 
ATOM     81  F   UNL A   1      45.770  29.709  34.582  1.00  0.00    -0.206 F 
ATOM     82  C   UNL A   1      46.405  26.948  36.838  1.00  0.00     0.006 A 
ENDBRANCH  54  75
BRANCH  66  83
ATOM     83  C   UNL A   1      39.169  32.359  36.162  1.00  0.00     0.057 A 
ATOM     84  C   UNL A   1      39.625  33.658  36.418  1.00  0.00     0.134 A 
ATOM     85  C   UNL A   1      38.256  31.803  37.068  1.00  0.00     0.134 A 
ATOM     86  F   UNL A   1      40.507  34.244  35.594  1.00  0.00    -0.206 F 
ATOM     87  C   UNL A   1      39.214  34.364  37.551  1.00  0.00     0.040 A 
ATOM     88  C   UNL A   1      37.816  32.510  38.188  1.00  0.00     0.040 A 
ATOM     89  F   UNL A   1      37.769  30.568  36.875  1.00  0.00    -0.206 F 
ATOM     90  C   UNL A   1      38.302  33.791  38.436  1.00  0.00     0.006 A 
ENDBRANCH  66  83
ENDBRANCH  40  41
ENDBRANCH  33  35
ENDBRANCH  32  33
ENDBRANCH  31  32
ENDBRANCH  30  31
ENDBRANCH  29  30
ENDBRANCH  28  29
ENDBRANCH   1  28
TORSDOF 22
ENDMDL
MODEL 2
REMARK VINA RESULT:     -10.2      4.633      9.901
REMARK SMILES C[C@H](O)[C@@H](NC(=O)c1ccc(Cl)c(S(C)(=O)=O)c1)C(=O)OCCOCCOCCOC(=O)c1ccc(-c2c3nc(c(-c4c(F)cccc4F)c4ccc([nH]4)c(-c4c(F)cccc4F)c4nc(c(-c5c(F)cccc5F)c5ccc2[nH]5)C=C4)C=C3)cc1
REMARK SMILES IDX 25 1 24 2 23 3 22 4 21 5 19 6 20 7 4 8 2 9 1 10 3 11 5 13
REMARK SMILES IDX 6 14 7 16 8 17 9 18 18 19 10 20 13 21 11 22 12 23 14 24
REMARK SMILES IDX 15 25 16 26 17 27 26 28 27 29 28 30 29 31 30 32 31 33 32 34
REMARK SMILES IDX 33 35 34 36 86 37 35 38 85 39 36 40 37 41 38 42 79 43 39 44
REMARK SMILES IDX 84 45 78 46 80 47 40 48 83 49 77 50 76 51 41 53 67 54 50 55
REMARK SMILES IDX 66 56 51 57 54 58 65 59 81 60 52 61 53 62 64 64 82 65 55 66
REMARK SMILES IDX 42 67 43 68 48 69 44 70 45 71 47 72 49 73 46 74 68 75 69 76
REMARK SMILES IDX 74 77 70 78 71 79 73 80 75 81 72 82 56 83 57 84 62 85 58 86
REMARK SMILES IDX 59 87 61 88 63 89 60 90
REMARK H PARENT 3 12 5 15 80 52 54 63
REMARK Flexibility Score: inf
ROOT
ATOM      1  C   UNL A   1      34.887  31.999  27.850  1.00  0.00     0.188 C 
ENDROOT
BRANCH   1   2
ATOM      2  O   UNL A   1      34.234  30.746  27.758  1.00  0.00    -0.376 OA
BRANCH   2   3
ATOM      3  C   UNL A   1      33.098  30.629  26.906  1.00  0.00     0.202 C 
BRANCH   3   4
ATOM      4  C   UNL A   1      32.305  29.321  26.931  1.00  0.00     0.261 C 
BRANCH   4   5
ATOM      5  O   UNL A   1      32.299  28.459  25.763  1.00  0.00    -0.462 OA
BRANCH   5   6
ATOM      6  C   UNL A   1      31.508  27.354  25.847  1.00  0.00     0.331 C 
ATOM      7  O   UNL A   1      30.984  26.968  26.891  1.00  0.00    -0.250 OA
BRANCH   6   8
ATOM      8  C   UNL A   1      31.417  26.507  24.573  1.00  0.00     0.221 C 
BRANCH   8   9
ATOM      9  C   UNL A   1      30.123  26.578  23.724  1.00  0.00     0.145 C 
ATOM     10  C   UNL A   1      29.620  27.967  23.355  1.00  0.00     0.041 C 
BRANCH   9  11
ATOM     11  O   UNL A   1      29.065  25.955  24.497  1.00  0.00    -0.391 OA
ATOM     12  H   UNL A   1      28.625  25.279  23.958  1.00  0.00     0.211 HD
ENDBRANCH   9  11
ENDBRANCH   8   9
BRANCH   8  13
ATOM     13  N   UNL A   1      32.579  26.558  23.649  1.00  0.00    -0.336 N 
ATOM     14  C   UNL A   1      33.258  25.635  22.911  1.00  0.00     0.252 C 
ATOM     15  H   UNL A   1      32.941  27.467  23.545  1.00  0.00     0.164 HD
ATOM     16  O   UNL A   1      34.003  25.981  22.000  1.00  0.00    -0.269 OA
BRANCH  14  17
ATOM     17  C   UNL A   1      33.240  24.214  23.271  1.00  0.00     0.041 A 
ATOM     18  C   UNL A   1      32.337  23.334  22.682  1.00  0.00     0.015 A 
ATOM     19  C   UNL A   1      34.213  23.748  24.159  1.00  0.00     0.035 A 
ATOM     20  C   UNL A   1      32.384  21.978  23.022  1.00  0.00     0.023 A 
ATOM     21  C   UNL A   1      34.261  22.385  24.495  1.00  0.00     0.086 A 
ATOM     22  C   UNL A   1      33.345  21.493  23.925  1.00  0.00     0.059 A 
ATOM     23  Cl  UNL A   1      33.297  19.802  24.254  1.00  0.00    -0.083 Cl
BRANCH  21  24
ATOM     24  S   UNL A   1      35.391  21.916  25.788  1.00  0.00     0.177 S 
ATOM     25  C   UNL A   1      34.331  21.513  27.145  1.00  0.00     0.164 C 
ATOM     26  O   UNL A   1      36.038  20.688  25.358  1.00  0.00    -0.224 OA
ATOM     27  O   UNL A   1      36.211  23.059  26.132  1.00  0.00    -0.224 OA
ENDBRANCH  21  24
ENDBRANCH  14  17
ENDBRANCH   8  13
ENDBRANCH   6   8
ENDBRANCH   5   6
ENDBRANCH   4   5
ENDBRANCH   3   4
ENDBRANCH   2   3
ENDBRANCH   1   2
BRANCH   1  28
ATOM     28  C   UNL A   1      34.024  33.225  28.141  1.00  0.00     0.188 C 
BRANCH  28  29
ATOM     29  O   UNL A   1      33.604  33.384  29.480  1.00  0.00    -0.376 OA
BRANCH  29  30
ATOM     30  C   UNL A   1      34.364  34.232  30.337  1.00  0.00     0.202 C 
BRANCH  30  31
ATOM     31  C   UNL A   1      34.788  33.684  31.709  1.00  0.00     0.261 C 
BRANCH  31  32
ATOM     32  O   UNL A   1      35.314  32.342  31.681  1.00  0.00    -0.460 OA
BRANCH  32  33
ATOM     33  C   UNL A   1      36.320  32.054  32.539  1.00  0.00     0.338 C 
ATOM     34  O   UNL A   1      36.290  32.095  33.757  1.00  0.00    -0.246 OA
BRANCH  33  35
ATOM     35  C   UNL A   1      37.381  31.382  31.754  1.00  0.00     0.060 A 
ATOM     36  C   UNL A   1      38.338  30.625  32.450  1.00  0.00     0.016 A 
ATOM     37  C   UNL A   1      37.382  31.413  30.358  1.00  0.00     0.016 A 
ATOM     38  C   UNL A   1      39.330  29.942  31.751  1.00  0.00     0.010 A 
ATOM     39  C   UNL A   1      38.394  30.752  29.658  1.00  0.00     0.010 A 
ATOM     40  C   UNL A   1      39.396  30.056  30.357  1.00  0.00    -0.014 A 
BRANCH  40  41
ATOM     41  C   UNL A   1      40.673  29.713  29.686  1.00  0.00     0.031 A 
ATOM     42  C   UNL A   1      40.805  28.318  29.136  1.00  0.00     0.074 A 
ATOM     43  C   UNL A   1      41.651  30.615  29.500  1.00  0.00     0.049 A 
ATOM     44  N   UNL A   1      41.786  27.777  28.462  1.00  0.00    -0.248 NA
ATOM     45  C   UNL A   1      39.667  27.413  29.374  1.00  0.00     0.031 C 
ATOM     46  C   UNL A   1      41.627  32.004  29.949  1.00  0.00     0.029 A 
ATOM     47  N   UNL A   1      42.861  30.484  28.865  1.00  0.00    -0.354 N 
ATOM     48  C   UNL A   1      41.380  26.476  28.195  1.00  0.00     0.074 A 
ATOM     49  C   UNL A   1      40.086  26.293  28.809  1.00  0.00     0.031 C 
ATOM     50  C   UNL A   1      42.774  32.600  29.574  1.00  0.00     0.029 A 
ATOM     51  C   UNL A   1      43.616  31.631  28.874  1.00  0.00     0.049 A 
ATOM     52  H   UNL A   1      43.160  29.646  28.443  1.00  0.00     0.167 HD
ATOM     53  C   UNL A   1      42.019  25.517  27.487  1.00  0.00     0.037 A 
ATOM     54  C   UNL A   1      44.847  31.861  28.376  1.00  0.00     0.037 A 
ATOM     55  C   UNL A   1      43.311  25.688  26.883  1.00  0.00     0.049 A 
ATOM     56  C   UNL A   1      45.569  30.756  27.646  1.00  0.00     0.074 A 
ATOM     57  C   UNL A   1      44.050  24.775  26.152  1.00  0.00     0.029 A 
ATOM     58  N   UNL A   1      44.059  26.854  26.947  1.00  0.00    -0.354 N 
ATOM     59  N   UNL A   1      45.169  29.535  27.380  1.00  0.00    -0.248 NA
ATOM     60  C   UNL A   1      46.914  31.068  27.138  1.00  0.00     0.031 C 
ATOM     61  C   UNL A   1      45.266  25.377  25.810  1.00  0.00     0.029 A 
ATOM     62  C   UNL A   1      45.260  26.679  26.282  1.00  0.00     0.049 A 
ATOM     63  H   UNL A   1      43.777  27.682  27.399  1.00  0.00     0.167 HD
ATOM     64  C   UNL A   1      46.194  28.948  26.646  1.00  0.00     0.074 A 
ATOM     65  C   UNL A   1      47.228  29.951  26.499  1.00  0.00     0.031 C 
ATOM     66  C   UNL A   1      46.273  27.694  26.136  1.00  0.00     0.037 A 
BRANCH  53  67
ATOM     67  C   UNL A   1      41.332  24.191  27.360  1.00  0.00     0.057 A 
ATOM     68  C   UNL A   1      40.234  24.006  26.508  1.00  0.00     0.134 A 
ATOM     69  C   UNL A   1      41.769  23.089  28.104  1.00  0.00     0.134 A 
ATOM     70  F   UNL A   1      39.750  25.030  25.790  1.00  0.00    -0.206 F 
ATOM     71  C   UNL A   1      39.582  22.775  26.418  1.00  0.00     0.040 A 
ATOM     72  C   UNL A   1      41.141  21.847  28.002  1.00  0.00     0.040 A 
ATOM     73  F   UNL A   1      42.809  23.202  28.943  1.00  0.00    -0.206 F 
ATOM     74  C   UNL A   1      40.040  21.690  27.162  1.00  0.00     0.006 A 
ENDBRANCH  53  67
BRANCH  54  75
ATOM     75  C   UNL A   1      45.484  33.192  28.541  1.00  0.00     0.057 A 
ATOM     76  C   UNL A   1      45.225  34.240  27.649  1.00  0.00     0.134 A 
ATOM     77  C   UNL A   1      46.403  33.436  29.569  1.00  0.00     0.134 A 
ATOM     78  F   UNL A   1      44.375  34.060  26.626  1.00  0.00    -0.206 F 
ATOM     79  C   UNL A   1      45.868  35.474  27.761  1.00  0.00     0.040 A 
ATOM     80  C   UNL A   1      47.034  34.673  29.708  1.00  0.00     0.040 A 
ATOM     81  F   UNL A   1      46.697  32.474  30.455  1.00  0.00    -0.206 F 
ATOM     82  C   UNL A   1      46.774  35.693  28.796  1.00  0.00     0.006 A 
ENDBRANCH  54  75
BRANCH  66  83
ATOM     83  C   UNL A   1      47.495  27.351  25.334  1.00  0.00     0.057 A 
ATOM     84  C   UNL A   1      48.614  26.738  25.909  1.00  0.00     0.134 A 
ATOM     85  C   UNL A   1      47.536  27.613  23.958  1.00  0.00     0.134 A 
ATOM     86  F   UNL A   1      48.642  26.468  27.223  1.00  0.00    -0.206 F 
ATOM     87  C   UNL A   1      49.745  26.428  25.151  1.00  0.00     0.040 A 
ATOM     88  C   UNL A   1      48.649  27.282  23.185  1.00  0.00     0.040 A 
ATOM     89  F   UNL A   1      46.492  28.187  23.341  1.00  0.00    -0.206 F 
ATOM     90  C   UNL A   1      49.762  26.695  23.783  1.00  0.00     0.006 A 
ENDBRANCH  66  83
ENDBRANCH  40  41
ENDBRANCH  33  35
ENDBRANCH  32  33
ENDBRANCH  31  32
ENDBRANCH  30  31
ENDBRANCH  29  30
ENDBRANCH  28  29
ENDBRANCH   1  28
TORSDOF 22
ENDMDL
MODEL 3
REMARK VINA RESULT:     -10.2      4.502      9.803
REMARK SMILES C[C@H](O)[C@@H](NC(=O)c1ccc(Cl)c(S(C)(=O)=O)c1)C(=O)OCCOCCOCCOC(=O)c1ccc(-c2c3nc(c(-c4c(F)cccc4F)c4ccc([nH]4)c(-c4c(F)cccc4F)c4nc(c(-c5c(F)cccc5F)c5ccc2[nH]5)C=C4)C=C3)cc1
REMARK SMILES IDX 25 1 24 2 23 3 22 4 21 5 19 6 20 7 4 8 2 9 1 10 3 11 5 13
REMARK SMILES IDX 6 14 7 16 8 17 9 18 18 19 10 20 13 21 11 22 12 23 14 24
REMARK SMILES IDX 15 25 16 26 17 27 26 28 27 29 28 30 29 31 30 32 31 33 32 34
REMARK SMILES IDX 33 35 34 36 86 37 35 38 85 39 36 40 37 41 38 42 79 43 39 44
REMARK SMILES IDX 84 45 78 46 80 47 40 48 83 49 77 50 76 51 41 53 67 54 50 55
REMARK SMILES IDX 66 56 51 57 54 58 65 59 81 60 52 61 53 62 64 64 82 65 55 66
REMARK SMILES IDX 42 67 43 68 48 69 44 70 45 71 47 72 49 73 46 74 68 75 69 76
REMARK SMILES IDX 74 77 70 78 71 79 73 80 75 81 72 82 56 83 57 84 62 85 58 86
REMARK SMILES IDX 59 87 61 88 63 89 60 90
REMARK H PARENT 3 12 5 15 80 52 54 63
REMARK Flexibility Score: inf
ROOT
ATOM      1  C   UNL A   1      33.467  33.467  27.995  1.00  0.00     0.188 C 
ENDROOT
BRANCH   1   2
ATOM      2  O   UNL A   1      33.739  32.079  28.073  1.00  0.00    -0.376 OA
BRANCH   2   3
ATOM      3  C   UNL A   1      33.209  31.222  27.066  1.00  0.00     0.202 C 
BRANCH   3   4
ATOM      4  C   UNL A   1      33.637  29.753  27.067  1.00  0.00     0.261 C 
BRANCH   4   5
ATOM      5  O   UNL A   1      33.933  29.087  25.811  1.00  0.00    -0.462 OA
BRANCH   5   6
ATOM      6  C   UNL A   1      33.501  27.800  25.707  1.00  0.00     0.331 C 
ATOM      7  O   UNL A   1      33.894  26.888  26.432  1.00  0.00    -0.250 OA
BRANCH   6   8
ATOM      8  C   UNL A   1      32.583  27.505  24.515  1.00  0.00     0.221 C 
BRANCH   8   9
ATOM      9  C   UNL A   1      31.418  28.480  24.215  1.00  0.00     0.145 C 
ATOM     10  C   UNL A   1      30.380  28.018  23.201  1.00  0.00     0.041 C 
BRANCH   9  11
ATOM     11  O   UNL A   1      31.999  29.695  23.676  1.00  0.00    -0.391 OA
ATOM     12  H   UNL A   1      32.950  29.712  23.869  1.00  0.00     0.211 HD
ENDBRANCH   9  11
ENDBRANCH   8   9
BRANCH   8  13
ATOM     13  N   UNL A   1      33.243  27.163  23.229  1.00  0.00    -0.336 N 
ATOM     14  C   UNL A   1      33.259  26.065  22.422  1.00  0.00     0.252 C 
ATOM     15  H   UNL A   1      33.795  27.899  22.879  1.00  0.00     0.164 HD
ATOM     16  O   UNL A   1      33.653  26.141  21.263  1.00  0.00    -0.269 OA
BRANCH  14  17
ATOM     17  C   UNL A   1      32.949  24.732  22.948  1.00  0.00     0.041 A 
ATOM     18  C   UNL A   1      33.172  23.589  22.187  1.00  0.00     0.015 A 
ATOM     19  C   UNL A   1      32.505  24.634  24.269  1.00  0.00     0.035 A 
ATOM     20  C   UNL A   1      32.904  22.334  22.745  1.00  0.00     0.023 A 
ATOM     21  C   UNL A   1      32.242  23.373  24.828  1.00  0.00     0.086 A 
ATOM     22  C   UNL A   1      32.442  22.215  24.066  1.00  0.00     0.059 A 
ATOM     23  Cl  UNL A   1      32.155  20.613  24.631  1.00  0.00    -0.083 Cl
BRANCH  21  24
ATOM     24  S   UNL A   1      31.482  23.350  26.438  1.00  0.00     0.177 S 
ATOM     25  C   UNL A   1      32.678  22.539  27.457  1.00  0.00     0.164 C 
ATOM     26  O   UNL A   1      31.391  24.730  26.881  1.00  0.00    -0.224 OA
ATOM     27  O   UNL A   1      30.274  22.552  26.375  1.00  0.00    -0.224 OA
ENDBRANCH  21  24
ENDBRANCH  14  17
ENDBRANCH   8  13
ENDBRANCH   6   8
ENDBRANCH   5   6
ENDBRANCH   4   5
ENDBRANCH   3   4
ENDBRANCH   2   3
ENDBRANCH   1   2
BRANCH   1  28
ATOM     28  C   UNL A   1      33.671  34.298  29.260  1.00  0.00     0.188 C 
BRANCH  28  29
ATOM     29  O   UNL A   1      34.446  33.698  30.278  1.00  0.00    -0.376 OA
BRANCH  29  30
ATOM     30  C   UNL A   1      34.567  34.370  31.528  1.00  0.00     0.202 C 
BRANCH  30  31
ATOM     31  C   UNL A   1      34.416  33.541  32.814  1.00  0.00     0.261 C 
BRANCH  31  32
ATOM     32  O   UNL A   1      35.150  32.301  32.817  1.00  0.00    -0.460 OA
BRANCH  32  33
ATOM     33  C   UNL A   1      36.396  32.320  33.345  1.00  0.00     0.338 C 
ATOM     34  O   UNL A   1      36.720  32.672  34.466  1.00  0.00    -0.246 OA
BRANCH  33  35
ATOM     35  C   UNL A   1      37.268  31.549  32.429  1.00  0.00     0.060 A 
ATOM     36  C   UNL A   1      38.187  30.649  32.994  1.00  0.00     0.016 A 
ATOM     37  C   UNL A   1      37.123  31.635  31.043  1.00  0.00     0.016 A 
ATOM     38  C   UNL A   1      38.998  29.873  32.171  1.00  0.00     0.010 A 
ATOM     39  C   UNL A   1      37.957  30.878  30.217  1.00  0.00     0.010 A 
ATOM     40  C   UNL A   1      38.928  30.032  30.782  1.00  0.00    -0.014 A 
BRANCH  40  41
ATOM     41  C   UNL A   1      40.068  29.555  29.964  1.00  0.00     0.031 A 
ATOM     42  C   UNL A   1      41.196  30.524  29.729  1.00  0.00     0.074 A 
ATOM     43  C   UNL A   1      40.148  28.294  29.507  1.00  0.00     0.049 A 
ATOM     44  N   UNL A   1      42.328  30.350  29.100  1.00  0.00    -0.248 NA
ATOM     45  C   UNL A   1      41.021  31.875  30.291  1.00  0.00     0.031 C 
ATOM     46  C   UNL A   1      39.144  27.252  29.701  1.00  0.00     0.029 A 
ATOM     47  N   UNL A   1      41.141  27.679  28.787  1.00  0.00    -0.354 N 
ATOM     48  C   UNL A   1      42.997  31.564  29.195  1.00  0.00     0.074 A 
ATOM     49  C   UNL A   1      42.133  32.477  29.906  1.00  0.00     0.031 C 
ATOM     50  C   UNL A   1      39.574  26.121  29.112  1.00  0.00     0.029 A 
ATOM     51  C   UNL A   1      40.873  26.365  28.487  1.00  0.00     0.049 A 
ATOM     52  H   UNL A   1      41.968  28.135  28.510  1.00  0.00     0.167 HD
ATOM     53  C   UNL A   1      44.230  31.890  28.745  1.00  0.00     0.037 A 
ATOM     54  C   UNL A   1      41.598  25.473  27.785  1.00  0.00     0.037 A 
ATOM     55  C   UNL A   1      45.090  30.990  28.028  1.00  0.00     0.049 A 
ATOM     56  C   UNL A   1      42.943  25.878  27.236  1.00  0.00     0.074 A 
ATOM     57  C   UNL A   1      46.355  31.224  27.520  1.00  0.00     0.029 A 
ATOM     58  N   UNL A   1      44.765  29.679  27.713  1.00  0.00    -0.354 N 
ATOM     59  N   UNL A   1      43.577  27.021  27.349  1.00  0.00    -0.248 NA
ATOM     60  C   UNL A   1      43.678  24.861  26.469  1.00  0.00     0.031 C 
ATOM     61  C   UNL A   1      46.779  30.066  26.859  1.00  0.00     0.029 A 
ATOM     62  C   UNL A   1      45.801  29.096  27.002  1.00  0.00     0.049 A 
ATOM     63  H   UNL A   1      43.924  29.230  27.958  1.00  0.00     0.167 HD
ATOM     64  C   UNL A   1      44.795  26.849  26.700  1.00  0.00     0.074 A 
ATOM     65  C   UNL A   1      44.815  25.488  26.206  1.00  0.00     0.031 C 
ATOM     66  C   UNL A   1      45.807  27.735  26.529  1.00  0.00     0.037 A 
BRANCH  53  67
ATOM     67  C   UNL A   1      44.699  33.291  28.996  1.00  0.00     0.057 A 
ATOM     68  C   UNL A   1      44.430  34.332  28.096  1.00  0.00     0.134 A 
ATOM     69  C   UNL A   1      45.434  33.601  30.146  1.00  0.00     0.134 A 
ATOM     70  F   UNL A   1      43.756  34.093  26.962  1.00  0.00    -0.206 F 
ATOM     71  C   UNL A   1      44.896  35.628  28.322  1.00  0.00     0.040 A 
ATOM     72  C   UNL A   1      45.882  34.899  30.396  1.00  0.00     0.040 A 
ATOM     73  F   UNL A   1      45.731  32.649  31.042  1.00  0.00    -0.206 F 
ATOM     74  C   UNL A   1      45.618  35.915  29.479  1.00  0.00     0.006 A 
ENDBRANCH  53  67
BRANCH  54  75
ATOM     75  C   UNL A   1      41.079  24.099  27.559  1.00  0.00     0.057 A 
ATOM     76  C   UNL A   1      41.596  23.000  28.254  1.00  0.00     0.134 A 
ATOM     77  C   UNL A   1      40.081  23.848  26.609  1.00  0.00     0.134 A 
ATOM     78  F   UNL A   1      42.574  23.173  29.157  1.00  0.00    -0.206 F 
ATOM     79  C   UNL A   1      41.157  21.700  28.000  1.00  0.00     0.040 A 
ATOM     80  C   UNL A   1      39.614  22.556  26.364  1.00  0.00     0.040 A 
ATOM     81  F   UNL A   1      39.546  24.856  25.907  1.00  0.00    -0.206 F 
ATOM     82  C   UNL A   1      40.159  21.476  27.054  1.00  0.00     0.006 A 
ENDBRANCH  54  75
BRANCH  66  83
ATOM     83  C   UNL A   1      47.038  27.248  25.821  1.00  0.00     0.057 A 
ATOM     84  C   UNL A   1      47.243  27.463  24.453  1.00  0.00     0.134 A 
ATOM     85  C   UNL A   1      48.045  26.579  26.530  1.00  0.00     0.134 A 
ATOM     86  F   UNL A   1      46.314  28.089  23.716  1.00  0.00    -0.206 F 
ATOM     87  C   UNL A   1      48.392  27.000  23.807  1.00  0.00     0.040 A 
ATOM     88  C   UNL A   1      49.210  26.137  25.901  1.00  0.00     0.040 A 
ATOM     89  F   UNL A   1      47.919  26.352  27.846  1.00  0.00    -0.206 F 
ATOM     90  C   UNL A   1      49.382  26.340  24.533  1.00  0.00     0.006 A 
ENDBRANCH  66  83
ENDBRANCH  40  41
ENDBRANCH  33  35
ENDBRANCH  32  33
ENDBRANCH  31  32
ENDBRANCH  30  31
ENDBRANCH  29  30
ENDBRANCH  28  29
ENDBRANCH   1  28
TORSDOF 22
ENDMDL
