MODEL 1
REMARK VINA RESULT:     -11.0      0.000      0.000
REMARK SMILES Cc1nsc(NC(=O)[C@H]2Cc3[nH]cnc3C[NH2+]2)c1C(=O)OCCOCCOCCOC(=O)c1ccc(-c2c3nc(c(-c4c(F)cccc4F)c4ccc([nH]4)c(-c4c(F)cccc4F)c4nc(c(-c5c(F)cccc5F)c5ccc2[nH]5)C=C4)C=C3)cc1
REMARK SMILES IDX 25 1 24 2 23 3 22 4 21 5 19 6 20 7 18 8 1 9 2 10 3 11 4 12
REMARK SMILES IDX 5 13 6 14 7 15 8 17 9 18 10 19 17 20 11 21 16 22 12 25 15 26
REMARK SMILES IDX 13 27 14 29 26 30 27 31 28 32 29 33 30 34 31 35 32 36 33 37
REMARK SMILES IDX 34 38 86 39 35 40 85 41 36 42 37 43 38 44 79 45 39 46 84 47
REMARK SMILES IDX 78 48 80 49 40 50 83 51 77 52 76 53 41 55 67 56 50 57 66 58
REMARK SMILES IDX 51 59 54 60 65 61 81 62 52 63 53 64 64 66 82 67 55 68 42 69
REMARK SMILES IDX 43 70 48 71 44 72 45 73 47 74 49 75 46 76 68 77 69 78 74 79
REMARK SMILES IDX 70 80 71 81 73 82 75 83 72 84 56 85 57 86 62 87 58 88 59 89
REMARK SMILES IDX 61 90 63 91 60 92
REMARK H PARENT 6 16 17 23 17 24 12 28 80 54 54 65
REMARK Flexibility Score: inf
ROOT
ATOM      1  C   UNL A   1      38.805  22.932  26.204  1.00  0.00     0.188 C 
ENDROOT
BRANCH   1   2
ATOM      2  O   UNL A   1      37.772  23.898  26.047  1.00  0.00    -0.376 OA
BRANCH   2   3
ATOM      3  C   UNL A   1      36.499  23.495  25.557  1.00  0.00     0.202 C 
BRANCH   3   4
ATOM      4  C   UNL A   1      36.175  23.608  24.051  1.00  0.00     0.261 C 
BRANCH   4   5
ATOM      5  O   UNL A   1      35.244  22.641  23.535  1.00  0.00    -0.460 OA
BRANCH   5   6
ATOM      6  C   UNL A   1      33.982  23.029  23.195  1.00  0.00     0.343 C 
ATOM      7  O   UNL A   1      33.639  23.401  22.076  1.00  0.00    -0.246 OA
BRANCH   6   8
ATOM      8  C   UNL A   1      33.036  22.734  24.266  1.00  0.00     0.117 A 
ATOM      9  C   UNL A   1      32.705  20.149  23.822  1.00  0.00     0.069 C 
ATOM     10  C   UNL A   1      32.410  21.440  24.506  1.00  0.00     0.068 A 
ATOM     11  N   UNL A   1      31.404  21.430  25.376  1.00  0.00    -0.195 NA
ATOM     12  S   UNL A   1      31.135  22.959  25.898  1.00  0.00    -0.017 S 
ATOM     13  C   UNL A   1      32.462  23.682  25.112  1.00  0.00     0.131 A 
BRANCH  13  14
ATOM     14  N   UNL A   1      32.738  25.028  25.326  1.00  0.00    -0.310 N 
ATOM     15  C   UNL A   1      32.274  26.028  24.475  1.00  0.00     0.283 C 
ATOM     16  H   UNL A   1      33.281  25.283  26.106  1.00  0.00     0.171 HD
ATOM     17  O   UNL A   1      32.943  26.384  23.504  1.00  0.00    -0.268 OA
BRANCH  15  18
ATOM     18  C   UNL A   1      31.011  26.828  24.956  1.00  0.00     0.279 C 
ATOM     19  C   UNL A   1      31.073  27.103  26.504  1.00  0.00     0.131 C 
ATOM     20  N   UNL A   1      30.757  28.020  24.076  1.00  0.00    -0.331 N 
ATOM     21  C   UNL A   1      31.962  28.266  26.695  1.00  0.00     0.050 A 
ATOM     22  C   UNL A   1      31.188  29.353  24.575  1.00  0.00     0.320 C 
ATOM     23  H   UNL A   1      29.752  28.068  23.910  1.00  0.00     0.347 HD
ATOM     24  H   UNL A   1      31.332  27.857  23.249  1.00  0.00     0.347 HD
ATOM     25  N   UNL A   1      32.924  28.508  27.626  1.00  0.00    -0.348 N 
ATOM     26  C   UNL A   1      32.076  29.262  25.762  1.00  0.00     0.116 A 
ATOM     27  C   UNL A   1      33.751  29.448  27.064  1.00  0.00     0.197 A 
ATOM     28  H   UNL A   1      33.008  28.096  28.516  1.00  0.00     0.167 HD
ATOM     29  N   UNL A   1      33.210  29.993  25.992  1.00  0.00    -0.236 NA
ENDBRANCH  15  18
ENDBRANCH  13  14
ENDBRANCH   6   8
ENDBRANCH   5   6
ENDBRANCH   4   5
ENDBRANCH   3   4
ENDBRANCH   2   3
ENDBRANCH   1   2
BRANCH   1  30
ATOM     30  C   UNL A   1      38.561  21.453  25.821  1.00  0.00     0.188 C 
BRANCH  30  31
ATOM     31  O   UNL A   1      39.730  20.658  25.788  1.00  0.00    -0.376 OA
BRANCH  31  32
ATOM     32  C   UNL A   1      40.611  20.654  26.901  1.00  0.00     0.202 C 
BRANCH  32  33
ATOM     33  C   UNL A   1      42.098  20.340  26.721  1.00  0.00     0.261 C 
BRANCH  33  34
ATOM     34  O   UNL A   1      42.524  20.290  25.375  1.00  0.00    -0.460 OA
BRANCH  34  35
ATOM     35  C   UNL A   1      43.837  20.039  25.206  1.00  0.00     0.338 C 
ATOM     36  O   UNL A   1      44.401  18.963  25.293  1.00  0.00    -0.246 OA
BRANCH  35  37
ATOM     37  C   UNL A   1      44.505  21.314  24.909  1.00  0.00     0.060 A 
ATOM     38  C   UNL A   1      45.652  21.577  25.656  1.00  0.00     0.016 A 
ATOM     39  C   UNL A   1      43.701  22.319  24.363  1.00  0.00     0.016 A 
ATOM     40  C   UNL A   1      45.739  22.817  26.230  1.00  0.00     0.010 A 
ATOM     41  C   UNL A   1      43.762  23.539  24.965  1.00  0.00     0.010 A 
ATOM     42  C   UNL A   1      44.693  23.708  25.987  1.00  0.00    -0.014 A 
BRANCH  42  43
ATOM     43  C   UNL A   1      44.535  24.836  26.867  1.00  0.00     0.031 A 
ATOM     44  C   UNL A   1      45.649  25.789  26.747  1.00  0.00     0.074 A 
ATOM     45  C   UNL A   1      43.405  24.998  27.580  1.00  0.00     0.049 A 
ATOM     46  N   UNL A   1      46.605  25.991  27.588  1.00  0.00    -0.248 NA
ATOM     47  C   UNL A   1      45.864  26.402  25.426  1.00  0.00     0.031 C 
ATOM     48  C   UNL A   1      42.153  24.233  27.511  1.00  0.00     0.029 A 
ATOM     49  N   UNL A   1      43.107  25.990  28.457  1.00  0.00    -0.354 N 
ATOM     50  C   UNL A   1      47.422  26.933  26.974  1.00  0.00     0.074 A 
ATOM     51  C   UNL A   1      47.084  26.911  25.581  1.00  0.00     0.031 C 
ATOM     52  C   UNL A   1      41.171  24.932  28.128  1.00  0.00     0.029 A 
ATOM     53  C   UNL A   1      41.748  26.115  28.734  1.00  0.00     0.049 A 
ATOM     54  H   UNL A   1      43.792  26.570  28.862  1.00  0.00     0.167 HD
ATOM     55  C   UNL A   1      48.072  27.878  27.702  1.00  0.00     0.037 A 
ATOM     56  C   UNL A   1      41.189  27.206  29.317  1.00  0.00     0.037 A 
ATOM     57  C   UNL A   1      48.110  27.509  29.096  1.00  0.00     0.049 A 
ATOM     58  C   UNL A   1      42.297  27.962  29.972  1.00  0.00     0.074 A 
ATOM     59  C   UNL A   1      48.649  26.453  29.806  1.00  0.00     0.029 A 
ATOM     60  N   UNL A   1      47.180  28.090  29.927  1.00  0.00    -0.354 N 
ATOM     61  N   UNL A   1      42.965  27.513  31.002  1.00  0.00    -0.248 NA
ATOM     62  C   UNL A   1      42.990  28.961  29.168  1.00  0.00     0.031 C 
ATOM     63  C   UNL A   1      47.700  26.172  30.830  1.00  0.00     0.029 A 
ATOM     64  C   UNL A   1      46.669  27.109  30.736  1.00  0.00     0.049 A 
ATOM     65  H   UNL A   1      46.928  29.042  29.939  1.00  0.00     0.167 HD
ATOM     66  C   UNL A   1      44.289  27.850  30.744  1.00  0.00     0.074 A 
ATOM     67  C   UNL A   1      44.234  28.789  29.624  1.00  0.00     0.031 C 
ATOM     68  C   UNL A   1      45.321  27.116  31.255  1.00  0.00     0.037 A 
BRANCH  55  69
ATOM     69  C   UNL A   1      48.289  29.300  27.238  1.00  0.00     0.057 A 
ATOM     70  C   UNL A   1      49.590  29.827  27.303  1.00  0.00     0.134 A 
ATOM     71  C   UNL A   1      47.274  30.254  27.003  1.00  0.00     0.134 A 
ATOM     72  F   UNL A   1      50.648  29.028  27.505  1.00  0.00    -0.206 F 
ATOM     73  C   UNL A   1      49.847  31.201  27.252  1.00  0.00     0.040 A 
ATOM     74  C   UNL A   1      47.526  31.622  26.898  1.00  0.00     0.040 A 
ATOM     75  F   UNL A   1      45.973  29.949  26.956  1.00  0.00    -0.206 F 
ATOM     76  C   UNL A   1      48.810  32.105  27.064  1.00  0.00     0.006 A 
ENDBRANCH  55  69
BRANCH  56  77
ATOM     77  C   UNL A   1      39.878  27.826  29.011  1.00  0.00     0.057 A 
ATOM     78  C   UNL A   1      38.896  27.982  29.999  1.00  0.00     0.134 A 
ATOM     79  C   UNL A   1      39.655  28.522  27.808  1.00  0.00     0.134 A 
ATOM     80  F   UNL A   1      39.041  27.399  31.198  1.00  0.00    -0.206 F 
ATOM     81  C   UNL A   1      37.767  28.792  29.808  1.00  0.00     0.040 A 
ATOM     82  C   UNL A   1      38.532  29.330  27.603  1.00  0.00     0.040 A 
ATOM     83  F   UNL A   1      40.565  28.515  26.825  1.00  0.00    -0.206 F 
ATOM     84  C   UNL A   1      37.587  29.476  28.610  1.00  0.00     0.006 A 
ENDBRANCH  56  77
BRANCH  68  85
ATOM     85  C   UNL A   1      45.002  26.058  32.274  1.00  0.00     0.057 A 
ATOM     86  C   UNL A   1      44.796  26.325  33.636  1.00  0.00     0.134 A 
ATOM     87  C   UNL A   1      44.686  24.772  31.825  1.00  0.00     0.134 A 
ATOM     88  F   UNL A   1      44.982  27.554  34.136  1.00  0.00    -0.206 F 
ATOM     89  C   UNL A   1      44.315  25.348  34.514  1.00  0.00     0.040 A 
ATOM     90  C   UNL A   1      44.176  23.797  32.683  1.00  0.00     0.040 A 
ATOM     91  F   UNL A   1      44.805  24.465  30.524  1.00  0.00    -0.206 F 
ATOM     92  C   UNL A   1      43.992  24.082  34.035  1.00  0.00     0.006 A 
ENDBRANCH  68  85
ENDBRANCH  42  43
ENDBRANCH  35  37
ENDBRANCH  34  35
ENDBRANCH  33  34
ENDBRANCH  32  33
ENDBRANCH  31  32
ENDBRANCH  30  31
ENDBRANCH   1  30
TORSDOF 19
ENDMDL
MODEL 2
REMARK VINA RESULT:     -10.9      5.032     10.015
REMARK SMILES Cc1nsc(NC(=O)[C@H]2Cc3[nH]cnc3C[NH2+]2)c1C(=O)OCCOCCOCCOC(=O)c1ccc(-c2c3nc(c(-c4c(F)cccc4F)c4ccc([nH]4)c(-c4c(F)cccc4F)c4nc(c(-c5c(F)cccc5F)c5ccc2[nH]5)C=C4)C=C3)cc1
REMARK SMILES IDX 25 1 24 2 23 3 22 4 21 5 19 6 20 7 18 8 1 9 2 10 3 11 4 12
REMARK SMILES IDX 5 13 6 14 7 15 8 17 9 18 10 19 17 20 11 21 16 22 12 25 15 26
REMARK SMILES IDX 13 27 14 29 26 30 27 31 28 32 29 33 30 34 31 35 32 36 33 37
REMARK SMILES IDX 34 38 86 39 35 40 85 41 36 42 37 43 38 44 79 45 39 46 84 47
REMARK SMILES IDX 78 48 80 49 40 50 83 51 77 52 76 53 41 55 67 56 50 57 66 58
REMARK SMILES IDX 51 59 54 60 65 61 81 62 52 63 53 64 64 66 82 67 55 68 42 69
REMARK SMILES IDX 43 70 48 71 44 72 45 73 47 74 49 75 46 76 68 77 69 78 74 79
REMARK SMILES IDX 70 80 71 81 73 82 75 83 72 84 56 85 57 86 62 87 58 88 59 89
REMARK SMILES IDX 61 90 63 91 60 92
REMARK H PARENT 6 16 17 23 17 24 12 28 80 54 54 65
REMARK Flexibility Score: inf
ROOT
ATOM      1  C   UNL A   1      34.123  30.639  27.306  1.00  0.00     0.188 C 
ENDROOT
BRANCH   1   2
ATOM      2  O   UNL A   1      34.170  29.245  27.594  1.00  0.00    -0.376 OA
BRANCH   2   3
ATOM      3  C   UNL A   1      33.785  28.307  26.597  1.00  0.00     0.202 C 
BRANCH   3   4
ATOM      4  C   UNL A   1      32.329  27.794  26.534  1.00  0.00     0.261 C 
BRANCH   4   5
ATOM      5  O   UNL A   1      32.106  26.637  25.710  1.00  0.00    -0.460 OA
BRANCH   5   6
ATOM      6  C   UNL A   1      31.428  26.763  24.534  1.00  0.00     0.343 C 
ATOM      7  O   UNL A   1      30.357  27.348  24.399  1.00  0.00    -0.246 OA
BRANCH   6   8
ATOM      8  C   UNL A   1      32.241  26.310  23.409  1.00  0.00     0.117 A 
ATOM      9  C   UNL A   1      33.708  28.481  23.063  1.00  0.00     0.069 C 
ATOM     10  C   UNL A   1      33.229  27.116  22.704  1.00  0.00     0.068 A 
ATOM     11  N   UNL A   1      33.692  26.608  21.565  1.00  0.00    -0.195 NA
ATOM     12  S   UNL A   1      32.935  25.187  21.268  1.00  0.00    -0.017 S 
ATOM     13  C   UNL A   1      32.074  25.101  22.736  1.00  0.00     0.131 A 
BRANCH  13  14
ATOM     14  N   UNL A   1      31.313  23.973  23.021  1.00  0.00    -0.310 N 
ATOM     15  C   UNL A   1      31.876  22.801  23.519  1.00  0.00     0.283 C 
ATOM     16  H   UNL A   1      30.342  24.003  22.865  1.00  0.00     0.171 HD
ATOM     17  O   UNL A   1      32.284  21.927  22.752  1.00  0.00    -0.268 OA
BRANCH  15  18
ATOM     18  C   UNL A   1      31.729  22.553  25.063  1.00  0.00     0.279 C 
ATOM     19  C   UNL A   1      32.140  21.083  25.440  1.00  0.00     0.131 C 
ATOM     20  N   UNL A   1      32.385  23.653  25.853  1.00  0.00    -0.331 N 
ATOM     21  C   UNL A   1      33.614  21.056  25.511  1.00  0.00     0.050 A 
ATOM     22  C   UNL A   1      33.728  23.383  26.430  1.00  0.00     0.320 C 
ATOM     23  H   UNL A   1      31.762  23.885  26.626  1.00  0.00     0.347 HD
ATOM     24  H   UNL A   1      32.541  24.399  25.175  1.00  0.00     0.347 HD
ATOM     25  N   UNL A   1      34.510  20.129  25.076  1.00  0.00    -0.348 N 
ATOM     26  C   UNL A   1      34.349  22.148  25.888  1.00  0.00     0.116 A 
ATOM     27  C   UNL A   1      35.696  20.804  24.932  1.00  0.00     0.197 A 
ATOM     28  H   UNL A   1      34.342  19.175  24.902  1.00  0.00     0.167 HD
ATOM     29  N   UNL A   1      35.655  21.989  25.509  1.00  0.00    -0.236 NA
ENDBRANCH  15  18
ENDBRANCH  13  14
ENDBRANCH   6   8
ENDBRANCH   5   6
ENDBRANCH   4   5
ENDBRANCH   3   4
ENDBRANCH   2   3
ENDBRANCH   1   2
BRANCH   1  30
ATOM     30  C   UNL A   1      34.204  31.678  28.450  1.00  0.00     0.188 C 
BRANCH  30  31
ATOM     31  O   UNL A   1      34.458  33.001  28.020  1.00  0.00    -0.376 OA
BRANCH  31  32
ATOM     32  C   UNL A   1      33.410  33.958  28.029  1.00  0.00     0.202 C 
BRANCH  32  33
ATOM     33  C   UNL A   1      33.291  34.977  29.165  1.00  0.00     0.261 C 
BRANCH  33  34
ATOM     34  O   UNL A   1      34.074  34.676  30.302  1.00  0.00    -0.460 OA
BRANCH  34  35
ATOM     35  C   UNL A   1      33.466  34.900  31.483  1.00  0.00     0.338 C 
ATOM     36  O   UNL A   1      32.384  35.429  31.669  1.00  0.00    -0.246 OA
BRANCH  35  37
ATOM     37  C   UNL A   1      34.350  34.405  32.546  1.00  0.00     0.060 A 
ATOM     38  C   UNL A   1      35.412  35.245  32.882  1.00  0.00     0.016 A 
ATOM     39  C   UNL A   1      34.388  33.018  32.723  1.00  0.00     0.016 A 
ATOM     40  C   UNL A   1      36.650  34.666  32.963  1.00  0.00     0.010 A 
ATOM     41  C   UNL A   1      35.621  32.444  32.761  1.00  0.00     0.010 A 
ATOM     42  C   UNL A   1      36.727  33.290  32.737  1.00  0.00    -0.014 A 
BRANCH  42  43
ATOM     43  C   UNL A   1      38.009  32.720  32.412  1.00  0.00     0.031 A 
ATOM     44  C   UNL A   1      38.910  32.692  33.575  1.00  0.00     0.074 A 
ATOM     45  C   UNL A   1      38.231  32.172  31.203  1.00  0.00     0.049 A 
ATOM     46  N   UNL A   1      39.936  33.441  33.794  1.00  0.00    -0.248 NA
ATOM     47  C   UNL A   1      38.465  31.915  34.744  1.00  0.00     0.031 C 
ATOM     48  C   UNL A   1      37.276  31.916  30.117  1.00  0.00     0.029 A 
ATOM     49  N   UNL A   1      39.376  31.610  30.739  1.00  0.00    -0.354 N 
ATOM     50  C   UNL A   1      40.390  33.059  35.051  1.00  0.00     0.074 A 
ATOM     51  C   UNL A   1      39.304  32.362  35.676  1.00  0.00     0.031 C 
ATOM     52  C   UNL A   1      37.826  31.046  29.238  1.00  0.00     0.029 A 
ATOM     53  C   UNL A   1      39.198  30.789  29.629  1.00  0.00     0.049 A 
ATOM     54  H   UNL A   1      40.255  31.770  31.152  1.00  0.00     0.167 HD
ATOM     55  C   UNL A   1      41.716  33.058  35.345  1.00  0.00     0.037 A 
ATOM     56  C   UNL A   1      40.117  29.891  29.193  1.00  0.00     0.037 A 
ATOM     57  C   UNL A   1      42.452  33.845  34.386  1.00  0.00     0.049 A 
ATOM     58  C   UNL A   1      41.423  30.278  29.804  1.00  0.00     0.074 A 
ATOM     59  C   UNL A   1      42.438  35.173  34.007  1.00  0.00     0.029 A 
ATOM     60  N   UNL A   1      43.091  33.168  33.373  1.00  0.00    -0.354 N 
ATOM     61  N   UNL A   1      42.064  31.376  29.501  1.00  0.00    -0.248 NA
ATOM     62  C   UNL A   1      41.743  29.711  31.109  1.00  0.00     0.031 C 
ATOM     63  C   UNL A   1      42.648  35.160  32.598  1.00  0.00     0.029 A 
ATOM     64  C   UNL A   1      42.846  33.836  32.202  1.00  0.00     0.049 A 
ATOM     65  H   UNL A   1      43.630  32.349  33.473  1.00  0.00     0.167 HD
ATOM     66  C   UNL A   1      42.542  31.858  30.715  1.00  0.00     0.074 A 
ATOM     67  C   UNL A   1      42.358  30.761  31.663  1.00  0.00     0.031 C 
ATOM     68  C   UNL A   1      42.762  33.192  30.911  1.00  0.00     0.037 A 
BRANCH  55  69
ATOM     69  C   UNL A   1      42.385  32.025  36.223  1.00  0.00     0.057 A 
ATOM     70  C   UNL A   1      43.180  32.476  37.290  1.00  0.00     0.134 A 
ATOM     71  C   UNL A   1      42.524  30.653  35.920  1.00  0.00     0.134 A 
ATOM     72  F   UNL A   1      43.133  33.756  37.692  1.00  0.00    -0.206 F 
ATOM     73  C   UNL A   1      44.117  31.657  37.928  1.00  0.00     0.040 A 
ATOM     74  C   UNL A   1      43.417  29.813  36.586  1.00  0.00     0.040 A 
ATOM     75  F   UNL A   1      41.886  30.052  34.910  1.00  0.00    -0.206 F 
ATOM     76  C   UNL A   1      44.248  30.323  37.566  1.00  0.00     0.006 A 
ENDBRANCH  55  69
BRANCH  56  77
ATOM     77  C   UNL A   1      39.873  28.541  28.632  1.00  0.00     0.057 A 
ATOM     78  C   UNL A   1      40.409  28.156  27.396  1.00  0.00     0.134 A 
ATOM     79  C   UNL A   1      39.330  27.506  29.416  1.00  0.00     0.134 A 
ATOM     80  F   UNL A   1      40.993  29.062  26.597  1.00  0.00    -0.206 F 
ATOM     81  C   UNL A   1      40.418  26.820  26.970  1.00  0.00     0.040 A 
ATOM     82  C   UNL A   1      39.328  26.170  29.002  1.00  0.00     0.040 A 
ATOM     83  F   UNL A   1      38.865  27.743  30.651  1.00  0.00    -0.206 F 
ATOM     84  C   UNL A   1      39.884  25.821  27.778  1.00  0.00     0.006 A 
ENDBRANCH  56  77
BRANCH  68  85
ATOM     85  C   UNL A   1      42.677  34.108  29.723  1.00  0.00     0.057 A 
ATOM     86  C   UNL A   1      41.522  34.823  29.372  1.00  0.00     0.134 A 
ATOM     87  C   UNL A   1      43.856  34.436  29.047  1.00  0.00     0.134 A 
ATOM     88  F   UNL A   1      40.370  34.641  30.030  1.00  0.00    -0.206 F 
ATOM     89  C   UNL A   1      41.537  35.807  28.378  1.00  0.00     0.040 A 
ATOM     90  C   UNL A   1      43.893  35.437  28.075  1.00  0.00     0.040 A 
ATOM     91  F   UNL A   1      45.010  33.832  29.372  1.00  0.00    -0.206 F 
ATOM     92  C   UNL A   1      42.730  36.125  27.735  1.00  0.00     0.006 A 
ENDBRANCH  68  85
ENDBRANCH  42  43
ENDBRANCH  35  37
ENDBRANCH  34  35
ENDBRANCH  33  34
ENDBRANCH  32  33
ENDBRANCH  31  32
ENDBRANCH  30  31
ENDBRANCH   1  30
TORSDOF 19
ENDMDL
MODEL 3
REMARK VINA RESULT:     -10.6      5.194     10.033
REMARK SMILES Cc1nsc(NC(=O)[C@H]2Cc3[nH]cnc3C[NH2+]2)c1C(=O)OCCOCCOCCOC(=O)c1ccc(-c2c3nc(c(-c4c(F)cccc4F)c4ccc([nH]4)c(-c4c(F)cccc4F)c4nc(c(-c5c(F)cccc5F)c5ccc2[nH]5)C=C4)C=C3)cc1
REMARK SMILES IDX 25 1 24 2 23 3 22 4 21 5 19 6 20 7 18 8 1 9 2 10 3 11 4 12
REMARK SMILES IDX 5 13 6 14 7 15 8 17 9 18 10 19 17 20 11 21 16 22 12 25 15 26
REMARK SMILES IDX 13 27 14 29 26 30 27 31 28 32 29 33 30 34 31 35 32 36 33 37
REMARK SMILES IDX 34 38 86 39 35 40 85 41 36 42 37 43 38 44 79 45 39 46 84 47
REMARK SMILES IDX 78 48 80 49 40 50 83 51 77 52 76 53 41 55 67 56 50 57 66 58
REMARK SMILES IDX 51 59 54 60 65 61 81 62 52 63 53 64 64 66 82 67 55 68 42 69
REMARK SMILES IDX 43 70 48 71 44 72 45 73 47 74 49 75 46 76 68 77 69 78 74 79
REMARK SMILES IDX 70 80 71 81 73 82 75 83 72 84 56 85 57 86 62 87 58 88 59 89
REMARK SMILES IDX 61 90 63 91 60 92
REMARK H PARENT 6 16 17 23 17 24 12 28 80 54 54 65
REMARK Flexibility Score: inf
ROOT
ATOM      1  C   UNL A   1      34.926  30.312  27.558  1.00  0.00     0.188 C 
ENDROOT
BRANCH   1   2
ATOM      2  O   UNL A   1      34.368  29.244  26.798  1.00  0.00    -0.376 OA
BRANCH   2   3
ATOM      3  C   UNL A   1      33.156  28.634  27.223  1.00  0.00     0.202 C 
BRANCH   3   4
ATOM      4  C   UNL A   1      31.807  29.085  26.620  1.00  0.00     0.261 C 
BRANCH   4   5
ATOM      5  O   UNL A   1      31.853  29.559  25.263  1.00  0.00    -0.460 OA
BRANCH   5   6
ATOM      6  C   UNL A   1      32.081  28.680  24.246  1.00  0.00     0.343 C 
ATOM      7  O   UNL A   1      33.189  28.387  23.805  1.00  0.00    -0.246 OA
BRANCH   6   8
ATOM      8  C   UNL A   1      30.862  27.959  23.892  1.00  0.00     0.117 A 
ATOM      9  C   UNL A   1      29.589  29.900  22.628  1.00  0.00     0.069 C 
ATOM     10  C   UNL A   1      29.708  28.535  23.215  1.00  0.00     0.068 A 
ATOM     11  N   UNL A   1      28.610  27.785  23.192  1.00  0.00    -0.195 NA
ATOM     12  S   UNL A   1      28.893  26.399  24.017  1.00  0.00    -0.017 S 
ATOM     13  C   UNL A   1      30.553  26.662  24.297  1.00  0.00     0.131 A 
BRANCH  13  14
ATOM     14  N   UNL A   1      31.310  25.673  24.915  1.00  0.00    -0.310 N 
ATOM     15  C   UNL A   1      32.032  24.726  24.193  1.00  0.00     0.283 C 
ATOM     16  H   UNL A   1      31.338  25.641  25.898  1.00  0.00     0.171 HD
ATOM     17  O   UNL A   1      31.510  23.659  23.863  1.00  0.00    -0.268 OA
BRANCH  15  18
ATOM     18  C   UNL A   1      33.575  24.979  24.050  1.00  0.00     0.279 C 
ATOM     19  C   UNL A   1      34.265  25.066  25.460  1.00  0.00     0.131 C 
ATOM     20  N   UNL A   1      34.191  24.026  23.062  1.00  0.00    -0.331 N 
ATOM     21  C   UNL A   1      34.471  23.678  25.921  1.00  0.00     0.050 A 
ATOM     22  C   UNL A   1      34.927  22.852  23.601  1.00  0.00     0.320 C 
ATOM     23  H   UNL A   1      34.846  24.561  22.492  1.00  0.00     0.347 HD
ATOM     24  H   UNL A   1      33.398  23.626  22.561  1.00  0.00     0.347 HD
ATOM     25  N   UNL A   1      34.305  23.113  27.147  1.00  0.00    -0.348 N 
ATOM     26  C   UNL A   1      34.692  22.643  25.052  1.00  0.00     0.116 A 
ATOM     27  C   UNL A   1      34.138  21.771  26.915  1.00  0.00     0.197 A 
ATOM     28  H   UNL A   1      34.305  23.572  28.019  1.00  0.00     0.167 HD
ATOM     29  N   UNL A   1      34.469  21.447  25.680  1.00  0.00    -0.236 NA
ENDBRANCH  15  18
ENDBRANCH  13  14
ENDBRANCH   6   8
ENDBRANCH   5   6
ENDBRANCH   4   5
ENDBRANCH   3   4
ENDBRANCH   2   3
ENDBRANCH   1   2
BRANCH   1  30
ATOM     30  C   UNL A   1      34.073  31.556  27.903  1.00  0.00     0.188 C 
BRANCH  30  31
ATOM     31  O   UNL A   1      34.822  32.739  28.102  1.00  0.00    -0.376 OA
BRANCH  31  32
ATOM     32  C   UNL A   1      34.197  34.003  27.944  1.00  0.00     0.202 C 
BRANCH  32  33
ATOM     33  C   UNL A   1      33.438  34.652  29.105  1.00  0.00     0.261 C 
BRANCH  33  34
ATOM     34  O   UNL A   1      33.688  34.064  30.365  1.00  0.00    -0.460 OA
BRANCH  34  35
ATOM     35  C   UNL A   1      33.554  34.898  31.415  1.00  0.00     0.338 C 
ATOM     36  O   UNL A   1      32.883  35.914  31.471  1.00  0.00    -0.246 OA
BRANCH  35  37
ATOM     37  C   UNL A   1      34.386  34.382  32.510  1.00  0.00     0.060 A 
ATOM     38  C   UNL A   1      35.389  35.241  32.956  1.00  0.00     0.016 A 
ATOM     39  C   UNL A   1      34.466  32.990  32.621  1.00  0.00     0.016 A 
ATOM     40  C   UNL A   1      36.641  34.704  33.092  1.00  0.00     0.010 A 
ATOM     41  C   UNL A   1      35.716  32.459  32.713  1.00  0.00     0.010 A 
ATOM     42  C   UNL A   1      36.787  33.345  32.805  1.00  0.00    -0.014 A 
BRANCH  42  43
ATOM     43  C   UNL A   1      38.109  32.840  32.541  1.00  0.00     0.031 A 
ATOM     44  C   UNL A   1      38.970  32.897  33.732  1.00  0.00     0.074 A 
ATOM     45  C   UNL A   1      38.402  32.269  31.357  1.00  0.00     0.049 A 
ATOM     46  N   UNL A   1      39.944  33.710  33.960  1.00  0.00    -0.248 NA
ATOM     47  C   UNL A   1      38.530  32.131  34.910  1.00  0.00     0.031 C 
ATOM     48  C   UNL A   1      37.500  31.927  30.250  1.00  0.00     0.029 A 
ATOM     49  N   UNL A   1      39.592  31.760  30.948  1.00  0.00    -0.354 N 
ATOM     50  C   UNL A   1      40.376  33.391  35.242  1.00  0.00     0.074 A 
ATOM     51  C   UNL A   1      39.310  32.653  35.854  1.00  0.00     0.031 C 
ATOM     52  C   UNL A   1      38.127  31.064  29.416  1.00  0.00     0.029 A 
ATOM     53  C   UNL A   1      39.497  30.898  29.860  1.00  0.00     0.049 A 
ATOM     54  H   UNL A   1      40.446  31.981  31.384  1.00  0.00     0.167 HD
ATOM     55  C   UNL A   1      41.690  33.474  35.580  1.00  0.00     0.037 A 
ATOM     56  C   UNL A   1      40.480  30.040  29.481  1.00  0.00     0.037 A 
ATOM     57  C   UNL A   1      42.413  34.273  34.620  1.00  0.00     0.049 A 
ATOM     58  C   UNL A   1      41.740  30.519  30.122  1.00  0.00     0.074 A 
ATOM     59  C   UNL A   1      42.338  35.586  34.198  1.00  0.00     0.029 A 
ATOM     60  N   UNL A   1      43.123  33.603  33.650  1.00  0.00    -0.354 N 
ATOM     61  N   UNL A   1      42.329  31.642  29.805  1.00  0.00    -0.248 NA
ATOM     62  C   UNL A   1      42.047  30.010  31.454  1.00  0.00     0.031 C 
ATOM     63  C   UNL A   1      42.596  35.543  32.799  1.00  0.00     0.029 A 
ATOM     64  C   UNL A   1      42.881  34.221  32.451  1.00  0.00     0.049 A 
ATOM     65  H   UNL A   1      43.702  32.820  33.793  1.00  0.00     0.167 HD
ATOM     66  C   UNL A   1      42.738  32.186  31.018  1.00  0.00     0.074 A 
ATOM     67  C   UNL A   1      42.583  31.109  31.994  1.00  0.00     0.031 C 
ATOM     68  C   UNL A   1      42.877  33.535  31.179  1.00  0.00     0.037 A 
BRANCH  55  69
ATOM     69  C   UNL A   1      42.385  32.507  36.510  1.00  0.00     0.057 A 
ATOM     70  C   UNL A   1      43.115  33.035  37.589  1.00  0.00     0.134 A 
ATOM     71  C   UNL A   1      42.613  31.137  36.255  1.00  0.00     0.134 A 
ATOM     72  F   UNL A   1      42.980  34.320  37.950  1.00  0.00    -0.206 F 
ATOM     73  C   UNL A   1      44.073  32.290  38.283  1.00  0.00     0.040 A 
ATOM     74  C   UNL A   1      43.529  30.371  36.976  1.00  0.00     0.040 A 
ATOM     75  F   UNL A   1      42.047  30.472  35.243  1.00  0.00    -0.206 F 
ATOM     76  C   UNL A   1      44.294  30.956  37.967  1.00  0.00     0.006 A 
ENDBRANCH  55  69
BRANCH  56  77
ATOM     77  C   UNL A   1      40.330  28.663  28.956  1.00  0.00     0.057 A 
ATOM     78  C   UNL A   1      39.668  27.670  29.691  1.00  0.00     0.134 A 
ATOM     79  C   UNL A   1      40.599  28.355  27.610  1.00  0.00     0.134 A 
ATOM     80  F   UNL A   1      39.325  27.886  30.969  1.00  0.00    -0.206 F 
ATOM     81  C   UNL A   1      39.284  26.449  29.118  1.00  0.00     0.040 A 
ATOM     82  C   UNL A   1      40.225  27.140  27.026  1.00  0.00     0.040 A 
ATOM     83  F   UNL A   1      41.152  29.259  26.790  1.00  0.00    -0.206 F 
ATOM     84  C   UNL A   1      39.554  26.185  27.778  1.00  0.00     0.006 A 
ENDBRANCH  56  77
BRANCH  68  85
ATOM     85  C   UNL A   1      42.781  34.409  29.960  1.00  0.00     0.057 A 
ATOM     86  C   UNL A   1      43.841  34.616  29.065  1.00  0.00     0.134 A 
ATOM     87  C   UNL A   1      41.522  34.877  29.572  1.00  0.00     0.134 A 
ATOM     88  F   UNL A   1      45.060  34.120  29.310  1.00  0.00    -0.206 F 
ATOM     89  C   UNL A   1      43.658  35.278  27.846  1.00  0.00     0.040 A 
ATOM     90  C   UNL A   1      41.318  35.511  28.346  1.00  0.00     0.040 A 
ATOM     91  F   UNL A   1      40.452  34.663  30.355  1.00  0.00    -0.206 F 
ATOM     92  C   UNL A   1      42.389  35.717  27.478  1.00  0.00     0.006 A 
ENDBRANCH  68  85
ENDBRANCH  42  43
ENDBRANCH  35  37
ENDBRANCH  34  35
ENDBRANCH  33  34
ENDBRANCH  32  33
ENDBRANCH  31  32
ENDBRANCH  30  31
ENDBRANCH   1  30
TORSDOF 19
ENDMDL
