MODEL 1
REMARK VINA RESULT:     -10.5      0.000      0.000
REMARK SMILES C[NH2+][C@]1(C(=O)OCCOCCOCCOC(=O)c2ccc(-c3c4nc(c(-c5c(F)cccc5F)c5ccc([nH]5)c(-c5c(F)cccc5F)c5nc(c(-c6c(F)cccc6F)c6ccc3[nH]6)C=C5)C=C4)cc2)CCC[C@H]1CC[NH+]1C[C@@H](C)O[C@H](C)C1
REMARK SMILES IDX 10 1 9 2 8 3 7 4 6 5 4 6 5 7 3 8 72 9 75 10 73 11 74 12 2 13
REMARK SMILES IDX 1 14 76 17 77 18 78 19 79 20 85 21 80 23 83 24 81 25 82 26
REMARK SMILES IDX 84 27 11 28 12 29 13 30 14 31 15 32 16 33 17 34 18 35 19 36
REMARK SMILES IDX 71 37 20 38 70 39 21 40 22 41 23 42 64 43 24 44 69 45 63 46
REMARK SMILES IDX 65 47 25 48 68 49 62 50 61 51 26 53 52 54 35 55 51 56 36 57
REMARK SMILES IDX 39 58 50 59 66 60 37 61 38 62 49 64 67 65 40 66 27 67 28 68
REMARK SMILES IDX 33 69 29 70 30 71 32 72 34 73 31 74 53 75 54 76 59 77 55 78
REMARK SMILES IDX 56 79 58 80 60 81 57 82 41 83 42 84 47 85 43 86 44 87 46 88
REMARK SMILES IDX 48 89 45 90
REMARK H PARENT 2 15 2 16 78 22 65 52 39 63
REMARK Flexibility Score: inf
ROOT
ATOM      1  C   UNL A   1      40.501  21.036  26.940  1.00  0.00     0.188 C 
ENDROOT
BRANCH   1   2
ATOM      2  O   UNL A   1      39.451  21.853  26.475  1.00  0.00    -0.376 OA
BRANCH   2   3
ATOM      3  C   UNL A   1      38.459  21.310  25.621  1.00  0.00     0.202 C 
BRANCH   3   4
ATOM      4  C   UNL A   1      37.442  22.165  24.857  1.00  0.00     0.261 C 
BRANCH   4   5
ATOM      5  O   UNL A   1      36.192  21.545  24.498  1.00  0.00    -0.459 OA
BRANCH   5   6
ATOM      6  C   UNL A   1      35.141  21.820  25.335  1.00  0.00     0.368 C 
ATOM      7  O   UNL A   1      35.082  21.398  26.487  1.00  0.00    -0.245 OA
BRANCH   6   8
ATOM      8  C   UNL A   1      34.012  22.673  24.670  1.00  0.00     0.197 C 
ATOM      9  C   UNL A   1      34.200  23.151  23.206  1.00  0.00     0.081 C 
ATOM     10  C   UNL A   1      32.734  21.806  24.509  1.00  0.00     0.068 C 
ATOM     11  C   UNL A   1      32.784  23.456  22.700  1.00  0.00     0.008 C 
ATOM     12  C   UNL A   1      31.837  22.660  23.593  1.00  0.00     0.011 C 
BRANCH   8  13
ATOM     13  N   UNL A   1      33.856  23.939  25.466  1.00  0.00    -0.334 N 
ATOM     14  C   UNL A   1      32.837  23.909  26.505  1.00  0.00     0.331 C 
ATOM     15  H   UNL A   1      34.751  24.143  25.911  1.00  0.00     0.347 HD
ATOM     16  H   UNL A   1      33.554  24.651  24.800  1.00  0.00     0.347 HD
ENDBRANCH   8  13
BRANCH  10  17
ATOM     17  C   UNL A   1      32.952  20.429  23.823  1.00  0.00     0.072 C 
BRANCH  17  18
ATOM     18  C   UNL A   1      32.504  19.161  24.565  1.00  0.00     0.262 C 
BRANCH  18  19
ATOM     19  N   UNL A   1      32.245  17.961  23.773  1.00  0.00    -0.331 N 
ATOM     20  C   UNL A   1      33.372  17.446  22.983  1.00  0.00     0.294 C 
ATOM     21  C   UNL A   1      31.764  16.855  24.636  1.00  0.00     0.294 C 
ATOM     22  H   UNL A   1      31.539  18.273  23.106  1.00  0.00     0.348 HD
ATOM     23  C   UNL A   1      34.496  16.749  23.776  1.00  0.00     0.170 C 
ATOM     24  C   UNL A   1      32.891  16.239  25.500  1.00  0.00     0.170 C 
ATOM     25  C   UNL A   1      35.466  17.703  24.465  1.00  0.00     0.045 C 
ATOM     26  O   UNL A   1      33.986  15.771  24.696  1.00  0.00    -0.364 OA
ATOM     27  C   UNL A   1      32.380  15.050  26.306  1.00  0.00     0.045 C 
ENDBRANCH  18  19
ENDBRANCH  17  18
ENDBRANCH  10  17
ENDBRANCH   6   8
ENDBRANCH   5   6
ENDBRANCH   4   5
ENDBRANCH   3   4
ENDBRANCH   2   3
ENDBRANCH   1   2
BRANCH   1  28
ATOM     28  C   UNL A   1      40.775  19.715  26.210  1.00  0.00     0.188 C 
BRANCH  28  29
ATOM     29  O   UNL A   1      41.866  19.560  25.327  1.00  0.00    -0.376 OA
BRANCH  29  30
ATOM     30  C   UNL A   1      43.163  19.864  25.808  1.00  0.00     0.202 C 
BRANCH  30  31
ATOM     31  C   UNL A   1      43.888  21.160  25.397  1.00  0.00     0.261 C 
BRANCH  31  32
ATOM     32  O   UNL A   1      43.664  22.307  26.231  1.00  0.00    -0.460 OA
BRANCH  32  33
ATOM     33  C   UNL A   1      43.843  23.516  25.635  1.00  0.00     0.338 C 
ATOM     34  O   UNL A   1      44.299  23.727  24.522  1.00  0.00    -0.246 OA
BRANCH  33  35
ATOM     35  C   UNL A   1      43.158  24.561  26.436  1.00  0.00     0.060 A 
ATOM     36  C   UNL A   1      43.686  25.864  26.429  1.00  0.00     0.016 A 
ATOM     37  C   UNL A   1      42.003  24.279  27.162  1.00  0.00     0.016 A 
ATOM     38  C   UNL A   1      43.075  26.882  27.160  1.00  0.00     0.010 A 
ATOM     39  C   UNL A   1      41.417  25.288  27.935  1.00  0.00     0.010 A 
ATOM     40  C   UNL A   1      41.970  26.584  27.963  1.00  0.00    -0.014 A 
BRANCH  40  41
ATOM     41  C   UNL A   1      41.561  27.534  29.028  1.00  0.00     0.031 A 
ATOM     42  C   UNL A   1      42.318  27.489  30.329  1.00  0.00     0.074 A 
ATOM     43  C   UNL A   1      40.562  28.418  28.862  1.00  0.00     0.049 A 
ATOM     44  N   UNL A   1      42.097  28.129  31.447  1.00  0.00    -0.248 NA
ATOM     45  C   UNL A   1      43.485  26.591  30.368  1.00  0.00     0.031 C 
ATOM     46  C   UNL A   1      39.793  28.615  27.637  1.00  0.00     0.029 A 
ATOM     47  N   UNL A   1      40.017  29.312  29.752  1.00  0.00    -0.354 N 
ATOM     48  C   UNL A   1      43.085  27.701  32.325  1.00  0.00     0.074 A 
ATOM     49  C   UNL A   1      43.892  26.730  31.619  1.00  0.00     0.031 C 
ATOM     50  C   UNL A   1      38.854  29.553  27.861  1.00  0.00     0.029 A 
ATOM     51  C   UNL A   1      38.936  29.994  29.253  1.00  0.00     0.049 A 
ATOM     52  H   UNL A   1      40.368  29.448  30.662  1.00  0.00     0.167 HD
ATOM     53  C   UNL A   1      43.305  28.083  33.603  1.00  0.00     0.037 A 
ATOM     54  C   UNL A   1      38.093  30.853  29.863  1.00  0.00     0.037 A 
ATOM     55  C   UNL A   1      42.504  29.045  34.310  1.00  0.00     0.049 A 
ATOM     56  C   UNL A   1      38.301  31.196  31.317  1.00  0.00     0.074 A 
ATOM     57  C   UNL A   1      42.650  29.503  35.607  1.00  0.00     0.029 A 
ATOM     58  N   UNL A   1      41.398  29.690  33.778  1.00  0.00    -0.354 N 
ATOM     59  N   UNL A   1      39.241  30.795  32.140  1.00  0.00    -0.248 NA
ATOM     60  C   UNL A   1      37.326  32.113  31.930  1.00  0.00     0.031 C 
ATOM     61  C   UNL A   1      41.602  30.388  35.878  1.00  0.00     0.029 A 
ATOM     62  C   UNL A   1      40.837  30.524  34.731  1.00  0.00     0.049 A 
ATOM     63  H   UNL A   1      41.060  29.572  32.861  1.00  0.00     0.167 HD
ATOM     64  C   UNL A   1      38.991  31.434  33.349  1.00  0.00     0.074 A 
ATOM     65  C   UNL A   1      37.818  32.257  33.153  1.00  0.00     0.031 C 
ATOM     66  C   UNL A   1      39.675  31.349  34.519  1.00  0.00     0.037 A 
BRANCH  53  67
ATOM     67  C   UNL A   1      44.441  27.427  34.330  1.00  0.00     0.057 A 
ATOM     68  C   UNL A   1      45.724  27.988  34.365  1.00  0.00     0.134 A 
ATOM     69  C   UNL A   1      44.243  26.222  35.018  1.00  0.00     0.134 A 
ATOM     70  F   UNL A   1      45.985  29.130  33.710  1.00  0.00    -0.206 F 
ATOM     71  C   UNL A   1      46.775  27.364  35.039  1.00  0.00     0.040 A 
ATOM     72  C   UNL A   1      45.279  25.604  35.718  1.00  0.00     0.040 A 
ATOM     73  F   UNL A   1      43.039  25.632  35.025  1.00  0.00    -0.206 F 
ATOM     74  C   UNL A   1      46.551  26.172  35.724  1.00  0.00     0.006 A 
ENDBRANCH  53  67
BRANCH  54  75
ATOM     75  C   UNL A   1      36.948  31.436  29.115  1.00  0.00     0.057 A 
ATOM     76  C   UNL A   1      36.982  32.756  28.649  1.00  0.00     0.134 A 
ATOM     77  C   UNL A   1      35.777  30.704  28.888  1.00  0.00     0.134 A 
ATOM     78  F   UNL A   1      38.063  33.520  28.863  1.00  0.00    -0.206 F 
ATOM     79  C   UNL A   1      35.888  33.331  27.999  1.00  0.00     0.040 A 
ATOM     80  C   UNL A   1      34.685  31.258  28.217  1.00  0.00     0.040 A 
ATOM     81  F   UNL A   1      35.676  29.437  29.318  1.00  0.00    -0.206 F 
ATOM     82  C   UNL A   1      34.736  32.578  27.778  1.00  0.00     0.006 A 
ENDBRANCH  54  75
BRANCH  66  83
ATOM     83  C   UNL A   1      39.205  32.201  35.663  1.00  0.00     0.057 A 
ATOM     84  C   UNL A   1      39.604  33.535  35.811  1.00  0.00     0.134 A 
ATOM     85  C   UNL A   1      38.298  31.691  36.603  1.00  0.00     0.134 A 
ATOM     86  F   UNL A   1      40.478  34.083  34.952  1.00  0.00    -0.206 F 
ATOM     87  C   UNL A   1      39.136  34.324  36.863  1.00  0.00     0.040 A 
ATOM     88  C   UNL A   1      37.801  32.479  37.643  1.00  0.00     0.040 A 
ATOM     89  F   UNL A   1      37.865  30.425  36.514  1.00  0.00    -0.206 F 
ATOM     90  C   UNL A   1      38.226  33.799  37.778  1.00  0.00     0.006 A 
ENDBRANCH  66  83
ENDBRANCH  40  41
ENDBRANCH  33  35
ENDBRANCH  32  33
ENDBRANCH  31  32
ENDBRANCH  30  31
ENDBRANCH  29  30
ENDBRANCH  28  29
ENDBRANCH   1  28
TORSDOF 21
ENDMDL
MODEL 2
REMARK VINA RESULT:      -9.9      2.251      7.484
REMARK SMILES C[NH2+][C@]1(C(=O)OCCOCCOCCOC(=O)c2ccc(-c3c4nc(c(-c5c(F)cccc5F)c5ccc([nH]5)c(-c5c(F)cccc5F)c5nc(c(-c6c(F)cccc6F)c6ccc3[nH]6)C=C5)C=C4)cc2)CCC[C@H]1CC[NH+]1C[C@@H](C)O[C@H](C)C1
REMARK SMILES IDX 10 1 9 2 8 3 7 4 6 5 4 6 5 7 3 8 72 9 75 10 73 11 74 12 2 13
REMARK SMILES IDX 1 14 76 17 77 18 78 19 79 20 85 21 80 23 83 24 81 25 82 26
REMARK SMILES IDX 84 27 11 28 12 29 13 30 14 31 15 32 16 33 17 34 18 35 19 36
REMARK SMILES IDX 71 37 20 38 70 39 21 40 22 41 23 42 64 43 24 44 69 45 63 46
REMARK SMILES IDX 65 47 25 48 68 49 62 50 61 51 26 53 52 54 35 55 51 56 36 57
REMARK SMILES IDX 39 58 50 59 66 60 37 61 38 62 49 64 67 65 40 66 27 67 28 68
REMARK SMILES IDX 33 69 29 70 30 71 32 72 34 73 31 74 53 75 54 76 59 77 55 78
REMARK SMILES IDX 56 79 58 80 60 81 57 82 41 83 42 84 47 85 43 86 44 87 46 88
REMARK SMILES IDX 48 89 45 90
REMARK H PARENT 2 15 2 16 78 22 65 52 39 63
REMARK Flexibility Score: inf
ROOT
ATOM      1  C   UNL A   1      40.088  20.739  26.137  1.00  0.00     0.188 C 
ENDROOT
BRANCH   1   2
ATOM      2  O   UNL A   1      39.274  21.815  26.546  1.00  0.00    -0.376 OA
BRANCH   2   3
ATOM      3  C   UNL A   1      38.436  22.464  25.605  1.00  0.00     0.202 C 
BRANCH   3   4
ATOM      4  C   UNL A   1      36.966  22.091  25.385  1.00  0.00     0.261 C 
BRANCH   4   5
ATOM      5  O   UNL A   1      35.990  23.144  25.506  1.00  0.00    -0.459 OA
BRANCH   5   6
ATOM      6  C   UNL A   1      35.011  23.148  24.546  1.00  0.00     0.368 C 
ATOM      7  O   UNL A   1      35.258  23.239  23.346  1.00  0.00    -0.245 OA
BRANCH   6   8
ATOM      8  C   UNL A   1      33.561  23.076  25.125  1.00  0.00     0.197 C 
ATOM      9  C   UNL A   1      33.369  22.706  26.620  1.00  0.00     0.081 C 
ATOM     10  C   UNL A   1      32.928  24.495  25.114  1.00  0.00     0.068 C 
ATOM     11  C   UNL A   1      31.976  23.235  26.987  1.00  0.00     0.008 C 
ATOM     12  C   UNL A   1      31.656  24.324  25.967  1.00  0.00     0.011 C 
BRANCH   8  13
ATOM     13  N   UNL A   1      32.811  22.013  24.371  1.00  0.00    -0.334 N 
ATOM     14  C   UNL A   1      33.192  20.640  24.671  1.00  0.00     0.331 C 
ATOM     15  H   UNL A   1      31.819  22.117  24.585  1.00  0.00     0.347 HD
ATOM     16  H   UNL A   1      33.038  22.157  23.387  1.00  0.00     0.347 HD
ENDBRANCH   8  13
BRANCH  10  17
ATOM     17  C   UNL A   1      33.796  25.610  25.761  1.00  0.00     0.072 C 
BRANCH  17  18
ATOM     18  C   UNL A   1      33.156  26.983  26.013  1.00  0.00     0.262 C 
BRANCH  18  19
ATOM     19  N   UNL A   1      33.530  28.085  25.130  1.00  0.00    -0.331 N 
ATOM     20  C   UNL A   1      32.872  28.119  23.816  1.00  0.00     0.294 C 
ATOM     21  C   UNL A   1      33.285  29.392  25.785  1.00  0.00     0.294 C 
ATOM     22  H   UNL A   1      34.521  27.913  24.955  1.00  0.00     0.348 HD
ATOM     23  C   UNL A   1      31.390  28.543  23.810  1.00  0.00     0.170 C 
ATOM     24  C   UNL A   1      31.780  29.749  25.859  1.00  0.00     0.170 C 
ATOM     25  C   UNL A   1      30.418  27.443  24.224  1.00  0.00     0.045 C 
ATOM     26  O   UNL A   1      31.166  29.746  24.561  1.00  0.00    -0.364 OA
ATOM     27  C   UNL A   1      31.571  31.135  26.458  1.00  0.00     0.045 C 
ENDBRANCH  18  19
ENDBRANCH  17  18
ENDBRANCH  10  17
ENDBRANCH   6   8
ENDBRANCH   5   6
ENDBRANCH   4   5
ENDBRANCH   3   4
ENDBRANCH   2   3
ENDBRANCH   1   2
BRANCH   1  28
ATOM     28  C   UNL A   1      41.250  20.318  27.047  1.00  0.00     0.188 C 
BRANCH  28  29
ATOM     29  O   UNL A   1      42.549  20.848  26.895  1.00  0.00    -0.376 OA
BRANCH  29  30
ATOM     30  C   UNL A   1      42.769  21.789  25.859  1.00  0.00     0.202 C 
BRANCH  30  31
ATOM     31  C   UNL A   1      42.984  23.284  26.165  1.00  0.00     0.261 C 
BRANCH  31  32
ATOM     32  O   UNL A   1      41.813  24.116  26.131  1.00  0.00    -0.460 OA
BRANCH  32  33
ATOM     33  C   UNL A   1      42.016  25.407  25.754  1.00  0.00     0.338 C 
ATOM     34  O   UNL A   1      42.355  25.806  24.650  1.00  0.00    -0.246 OA
BRANCH  33  35
ATOM     35  C   UNL A   1      41.514  26.310  26.819  1.00  0.00     0.060 A 
ATOM     36  C   UNL A   1      41.983  27.635  26.849  1.00  0.00     0.016 A 
ATOM     37  C   UNL A   1      40.580  25.877  27.757  1.00  0.00     0.016 A 
ATOM     38  C   UNL A   1      41.536  28.524  27.826  1.00  0.00     0.010 A 
ATOM     39  C   UNL A   1      40.168  26.755  28.767  1.00  0.00     0.010 A 
ATOM     40  C   UNL A   1      40.669  28.071  28.825  1.00  0.00    -0.014 A 
BRANCH  40  41
ATOM     41  C   UNL A   1      40.501  28.867  30.065  1.00  0.00     0.031 A 
ATOM     42  C   UNL A   1      39.421  29.916  30.078  1.00  0.00     0.074 A 
ATOM     43  C   UNL A   1      41.263  28.674  31.156  1.00  0.00     0.049 A 
ATOM     44  N   UNL A   1      39.136  30.812  30.987  1.00  0.00    -0.248 NA
ATOM     45  C   UNL A   1      38.545  29.957  28.895  1.00  0.00     0.031 C 
ATOM     46  C   UNL A   1      42.295  27.653  31.305  1.00  0.00     0.029 A 
ATOM     47  N   UNL A   1      41.286  29.357  32.349  1.00  0.00    -0.354 N 
ATOM     48  C   UNL A   1      38.061  31.531  30.479  1.00  0.00     0.074 A 
ATOM     49  C   UNL A   1      37.759  30.984  29.175  1.00  0.00     0.031 C 
ATOM     50  C   UNL A   1      42.872  27.793  32.513  1.00  0.00     0.029 A 
ATOM     51  C   UNL A   1      42.273  28.934  33.205  1.00  0.00     0.049 A 
ATOM     52  H   UNL A   1      40.656  30.080  32.568  1.00  0.00     0.167 HD
ATOM     53  C   UNL A   1      37.382  32.553  31.048  1.00  0.00     0.037 A 
ATOM     54  C   UNL A   1      42.663  29.433  34.396  1.00  0.00     0.037 A 
ATOM     55  C   UNL A   1      37.681  33.102  32.343  1.00  0.00     0.049 A 
ATOM     56  C   UNL A   1      41.952  30.633  34.971  1.00  0.00     0.074 A 
ATOM     57  C   UNL A   1      37.046  34.135  33.009  1.00  0.00     0.029 A 
ATOM     58  N   UNL A   1      38.709  32.666  33.164  1.00  0.00    -0.354 N 
ATOM     59  N   UNL A   1      40.932  31.303  34.491  1.00  0.00    -0.248 NA
ATOM     60  C   UNL A   1      42.450  31.147  36.256  1.00  0.00     0.031 C 
ATOM     61  C   UNL A   1      37.722  34.358  34.212  1.00  0.00     0.029 A 
ATOM     62  C   UNL A   1      38.742  33.427  34.321  1.00  0.00     0.049 A 
ATOM     63  H   UNL A   1      39.325  31.926  32.956  1.00  0.00     0.167 HD
ATOM     64  C   UNL A   1      40.646  32.290  35.428  1.00  0.00     0.074 A 
ATOM     65  C   UNL A   1      41.593  32.128  36.508  1.00  0.00     0.031 C 
ATOM     66  C   UNL A   1      39.683  33.246  35.396  1.00  0.00     0.037 A 
BRANCH  53  67
ATOM     67  C   UNL A   1      36.270  33.166  30.250  1.00  0.00     0.057 A 
ATOM     68  C   UNL A   1      36.513  34.077  29.214  1.00  0.00     0.134 A 
ATOM     69  C   UNL A   1      34.936  32.828  30.514  1.00  0.00     0.134 A 
ATOM     70  F   UNL A   1      37.767  34.458  28.925  1.00  0.00    -0.206 F 
ATOM     71  C   UNL A   1      35.469  34.647  28.484  1.00  0.00     0.040 A 
ATOM     72  C   UNL A   1      33.886  33.370  29.773  1.00  0.00     0.040 A 
ATOM     73  F   UNL A   1      34.634  31.961  31.493  1.00  0.00    -0.206 F 
ATOM     74  C   UNL A   1      34.151  34.287  28.758  1.00  0.00     0.006 A 
ENDBRANCH  53  67
BRANCH  54  75
ATOM     75  C   UNL A   1      43.807  28.824  35.123  1.00  0.00     0.057 A 
ATOM     76  C   UNL A   1      45.128  29.185  34.832  1.00  0.00     0.134 A 
ATOM     77  C   UNL A   1      43.611  27.835  36.094  1.00  0.00     0.134 A 
ATOM     78  F   UNL A   1      45.385  30.103  33.889  1.00  0.00    -0.206 F 
ATOM     79  C   UNL A   1      46.212  28.574  35.466  1.00  0.00     0.040 A 
ATOM     80  C   UNL A   1      44.683  27.234  36.756  1.00  0.00     0.040 A 
ATOM     81  F   UNL A   1      42.370  27.436  36.413  1.00  0.00    -0.206 F 
ATOM     82  C   UNL A   1      45.989  27.598  36.436  1.00  0.00     0.006 A 
ENDBRANCH  54  75
BRANCH  66  83
ATOM     83  C   UNL A   1      39.569  34.159  36.583  1.00  0.00     0.057 A 
ATOM     84  C   UNL A   1      40.115  35.449  36.585  1.00  0.00     0.134 A 
ATOM     85  C   UNL A   1      38.856  33.759  37.722  1.00  0.00     0.134 A 
ATOM     86  F   UNL A   1      40.818  35.892  35.531  1.00  0.00    -0.206 F 
ATOM     87  C   UNL A   1      39.976  36.299  37.684  1.00  0.00     0.040 A 
ATOM     88  C   UNL A   1      38.686  34.610  38.815  1.00  0.00     0.040 A 
ATOM     89  F   UNL A   1      38.296  32.542  37.782  1.00  0.00    -0.206 F 
ATOM     90  C   UNL A   1      39.252  35.883  38.800  1.00  0.00     0.006 A 
ENDBRANCH  66  83
ENDBRANCH  40  41
ENDBRANCH  33  35
ENDBRANCH  32  33
ENDBRANCH  31  32
ENDBRANCH  30  31
ENDBRANCH  29  30
ENDBRANCH  28  29
ENDBRANCH   1  28
TORSDOF 21
ENDMDL
MODEL 3
REMARK VINA RESULT:      -9.8      2.074      4.431
REMARK SMILES C[NH2+][C@]1(C(=O)OCCOCCOCCOC(=O)c2ccc(-c3c4nc(c(-c5c(F)cccc5F)c5ccc([nH]5)c(-c5c(F)cccc5F)c5nc(c(-c6c(F)cccc6F)c6ccc3[nH]6)C=C5)C=C4)cc2)CCC[C@H]1CC[NH+]1C[C@@H](C)O[C@H](C)C1
REMARK SMILES IDX 10 1 9 2 8 3 7 4 6 5 4 6 5 7 3 8 72 9 75 10 73 11 74 12 2 13
REMARK SMILES IDX 1 14 76 17 77 18 78 19 79 20 85 21 80 23 83 24 81 25 82 26
REMARK SMILES IDX 84 27 11 28 12 29 13 30 14 31 15 32 16 33 17 34 18 35 19 36
REMARK SMILES IDX 71 37 20 38 70 39 21 40 22 41 23 42 64 43 24 44 69 45 63 46
REMARK SMILES IDX 65 47 25 48 68 49 62 50 61 51 26 53 52 54 35 55 51 56 36 57
REMARK SMILES IDX 39 58 50 59 66 60 37 61 38 62 49 64 67 65 40 66 27 67 28 68
REMARK SMILES IDX 33 69 29 70 30 71 32 72 34 73 31 74 53 75 54 76 59 77 55 78
REMARK SMILES IDX 56 79 58 80 60 81 57 82 41 83 42 84 47 85 43 86 44 87 46 88
REMARK SMILES IDX 48 89 45 90
REMARK H PARENT 2 15 2 16 78 22 65 52 39 63
REMARK Flexibility Score: inf
ROOT
ATOM      1  C   UNL A   1      38.976  20.855  25.389  1.00  0.00     0.188 C 
ENDROOT
BRANCH   1   2
ATOM      2  O   UNL A   1      38.760  22.244  25.492  1.00  0.00    -0.376 OA
BRANCH   2   3
ATOM      3  C   UNL A   1      37.501  22.734  25.921  1.00  0.00     0.202 C 
BRANCH   3   4
ATOM      4  C   UNL A   1      36.172  22.322  25.279  1.00  0.00     0.261 C 
BRANCH   4   5
ATOM      5  O   UNL A   1      35.331  23.372  24.764  1.00  0.00    -0.459 OA
BRANCH   5   6
ATOM      6  C   UNL A   1      34.657  23.070  23.609  1.00  0.00     0.368 C 
ATOM      7  O   UNL A   1      35.218  22.966  22.521  1.00  0.00    -0.245 OA
BRANCH   6   8
ATOM      8  C   UNL A   1      33.113  22.919  23.801  1.00  0.00     0.197 C 
ATOM      9  C   UNL A   1      32.498  23.226  25.193  1.00  0.00     0.081 C 
ATOM     10  C   UNL A   1      32.378  23.982  22.941  1.00  0.00     0.068 C 
ATOM     11  C   UNL A   1      31.016  23.511  24.921  1.00  0.00     0.008 C 
ATOM     12  C   UNL A   1      30.925  23.912  23.451  1.00  0.00     0.011 C 
BRANCH   8  13
ATOM     13  N   UNL A   1      32.748  21.485  23.533  1.00  0.00    -0.334 N 
ATOM     14  C   UNL A   1      33.039  20.549  24.610  1.00  0.00     0.331 C 
ATOM     15  H   UNL A   1      31.746  21.445  23.346  1.00  0.00     0.347 HD
ATOM     16  H   UNL A   1      33.327  21.193  22.746  1.00  0.00     0.347 HD
ENDBRANCH   8  13
BRANCH  10  17
ATOM     17  C   UNL A   1      32.882  25.441  23.120  1.00  0.00     0.072 C 
BRANCH  17  18
ATOM     18  C   UNL A   1      31.872  26.589  22.975  1.00  0.00     0.262 C 
BRANCH  18  19
ATOM     19  N   UNL A   1      32.388  27.955  22.947  1.00  0.00    -0.331 N 
ATOM     20  C   UNL A   1      31.509  28.971  22.352  1.00  0.00     0.294 C 
ATOM     21  C   UNL A   1      32.738  28.414  24.312  1.00  0.00     0.294 C 
ATOM     22  H   UNL A   1      33.203  27.880  22.337  1.00  0.00     0.348 HD
ATOM     23  C   UNL A   1      30.288  29.390  23.194  1.00  0.00     0.170 C 
ATOM     24  C   UNL A   1      31.492  28.730  25.174  1.00  0.00     0.170 C 
ATOM     25  C   UNL A   1      29.121  28.409  23.143  1.00  0.00     0.045 C 
ATOM     26  O   UNL A   1      30.644  29.707  24.548  1.00  0.00    -0.364 OA
ATOM     27  C   UNL A   1      31.889  29.281  26.538  1.00  0.00     0.045 C 
ENDBRANCH  18  19
ENDBRANCH  17  18
ENDBRANCH  10  17
ENDBRANCH   6   8
ENDBRANCH   5   6
ENDBRANCH   4   5
ENDBRANCH   3   4
ENDBRANCH   2   3
ENDBRANCH   1   2
BRANCH   1  28
ATOM     28  C   UNL A   1      40.267  20.273  25.979  1.00  0.00     0.188 C 
BRANCH  28  29
ATOM     29  O   UNL A   1      41.324  21.095  26.425  1.00  0.00    -0.376 OA
BRANCH  29  30
ATOM     30  C   UNL A   1      42.652  20.662  26.186  1.00  0.00     0.202 C 
BRANCH  30  31
ATOM     31  C   UNL A   1      43.612  21.475  25.296  1.00  0.00     0.261 C 
BRANCH  31  32
ATOM     32  O   UNL A   1      43.419  22.898  25.284  1.00  0.00    -0.460 OA
BRANCH  32  33
ATOM     33  C   UNL A   1      44.296  23.621  26.030  1.00  0.00     0.338 C 
ATOM     34  O   UNL A   1      45.514  23.614  25.945  1.00  0.00    -0.246 OA
BRANCH  33  35
ATOM     35  C   UNL A   1      43.549  24.636  26.813  1.00  0.00     0.060 A 
ATOM     36  C   UNL A   1      43.994  25.970  26.779  1.00  0.00     0.016 A 
ATOM     37  C   UNL A   1      42.414  24.297  27.548  1.00  0.00     0.016 A 
ATOM     38  C   UNL A   1      43.322  26.961  27.492  1.00  0.00     0.010 A 
ATOM     39  C   UNL A   1      41.768  25.283  28.302  1.00  0.00     0.010 A 
ATOM     40  C   UNL A   1      42.239  26.611  28.304  1.00  0.00    -0.014 A 
BRANCH  40  41
ATOM     41  C   UNL A   1      41.773  27.554  29.350  1.00  0.00     0.031 A 
ATOM     42  C   UNL A   1      42.489  27.533  30.675  1.00  0.00     0.074 A 
ATOM     43  C   UNL A   1      40.758  28.413  29.149  1.00  0.00     0.049 A 
ATOM     44  N   UNL A   1      42.217  28.172  31.783  1.00  0.00    -0.248 NA
ATOM     45  C   UNL A   1      43.676  26.664  30.755  1.00  0.00     0.031 C 
ATOM     46  C   UNL A   1      40.024  28.587  27.899  1.00  0.00     0.029 A 
ATOM     47  N   UNL A   1      40.163  29.296  30.018  1.00  0.00    -0.354 N 
ATOM     48  C   UNL A   1      43.187  27.771  32.693  1.00  0.00     0.074 A 
ATOM     49  C   UNL A   1      44.040  26.818  32.018  1.00  0.00     0.031 C 
ATOM     50  C   UNL A   1      39.055  29.501  28.090  1.00  0.00     0.029 A 
ATOM     51  C   UNL A   1      39.082  29.950  29.482  1.00  0.00     0.049 A 
ATOM     52  H   UNL A   1      40.482  29.444  30.938  1.00  0.00     0.167 HD
ATOM     53  C   UNL A   1      43.357  28.163  33.976  1.00  0.00     0.037 A 
ATOM     54  C   UNL A   1      38.199  30.789  30.061  1.00  0.00     0.037 A 
ATOM     55  C   UNL A   1      42.510  29.108  34.653  1.00  0.00     0.049 A 
ATOM     56  C   UNL A   1      38.352  31.143  31.520  1.00  0.00     0.074 A 
ATOM     57  C   UNL A   1      42.604  29.574  35.952  1.00  0.00     0.029 A 
ATOM     58  N   UNL A   1      41.406  29.723  34.084  1.00  0.00    -0.354 N 
ATOM     59  N   UNL A   1      39.275  30.768  32.373  1.00  0.00    -0.248 NA
ATOM     60  C   UNL A   1      37.336  32.037  32.097  1.00  0.00     0.031 C 
ATOM     61  C   UNL A   1      41.526  30.433  36.186  1.00  0.00     0.029 A 
ATOM     62  C   UNL A   1      40.794  30.546  35.015  1.00  0.00     0.049 A 
ATOM     63  H   UNL A   1      41.101  29.593  33.157  1.00  0.00     0.167 HD
ATOM     64  C   UNL A   1      38.972  31.405  33.571  1.00  0.00     0.074 A 
ATOM     65  C   UNL A   1      37.785  32.197  33.334  1.00  0.00     0.031 C 
ATOM     66  C   UNL A   1      39.620  31.341  34.762  1.00  0.00     0.037 A 
BRANCH  53  67
ATOM     67  C   UNL A   1      44.485  27.538  34.742  1.00  0.00     0.057 A 
ATOM     68  C   UNL A   1      44.282  26.470  35.625  1.00  0.00     0.134 A 
ATOM     69  C   UNL A   1      45.797  28.003  34.580  1.00  0.00     0.134 A 
ATOM     70  F   UNL A   1      43.047  25.991  35.841  1.00  0.00    -0.206 F 
ATOM     71  C   UNL A   1      45.340  25.902  36.337  1.00  0.00     0.040 A 
ATOM     72  C   UNL A   1      46.865  27.425  35.265  1.00  0.00     0.040 A 
ATOM     73  F   UNL A   1      46.060  29.023  33.749  1.00  0.00    -0.206 F 
ATOM     74  C   UNL A   1      46.637  26.375  36.152  1.00  0.00     0.006 A 
ENDBRANCH  53  67
BRANCH  54  75
ATOM     75  C   UNL A   1      37.065  31.341  29.275  1.00  0.00     0.057 A 
ATOM     76  C   UNL A   1      35.945  30.557  28.968  1.00  0.00     0.134 A 
ATOM     77  C   UNL A   1      37.091  32.648  28.773  1.00  0.00     0.134 A 
ATOM     78  F   UNL A   1      35.874  29.287  29.391  1.00  0.00    -0.206 F 
ATOM     79  C   UNL A   1      34.903  31.047  28.178  1.00  0.00     0.040 A 
ATOM     80  C   UNL A   1      36.045  33.159  28.004  1.00  0.00     0.040 A 
ATOM     81  F   UNL A   1      38.139  33.447  29.022  1.00  0.00    -0.206 F 
ATOM     82  C   UNL A   1      34.950  32.354  27.697  1.00  0.00     0.006 A 
ENDBRANCH  54  75
BRANCH  66  83
ATOM     83  C   UNL A   1      39.093  32.185  35.888  1.00  0.00     0.057 A 
ATOM     84  C   UNL A   1      38.213  31.676  36.851  1.00  0.00     0.134 A 
ATOM     85  C   UNL A   1      39.517  33.513  36.038  1.00  0.00     0.134 A 
ATOM     86  F   UNL A   1      37.760  30.416  36.760  1.00  0.00    -0.206 F 
ATOM     87  C   UNL A   1      37.755  32.463  37.909  1.00  0.00     0.040 A 
ATOM     88  C   UNL A   1      39.089  34.301  37.108  1.00  0.00     0.040 A 
ATOM     89  F   UNL A   1      40.369  34.059  35.159  1.00  0.00    -0.206 F 
ATOM     90  C   UNL A   1      38.200  33.777  38.044  1.00  0.00     0.006 A 
ENDBRANCH  66  83
ENDBRANCH  40  41
ENDBRANCH  33  35
ENDBRANCH  32  33
ENDBRANCH  31  32
ENDBRANCH  30  31
ENDBRANCH  29  30
ENDBRANCH  28  29
ENDBRANCH   1  28
TORSDOF 21
ENDMDL
