MODEL 1
REMARK VINA RESULT:     -10.0      0.000      0.000
REMARK SMILES Cc1ccc(OCCn2ccnc2)c(/C=C/C(=O)OCCOCCOCCOC(=O)c2ccc(-c3c4nc(c(-c5c(F)cccc5F)c5ccc([nH]5)c(-c5c(F)cccc5F)c5nc(c(-c6c(F)cccc6F)c6ccc3[nH]6)C=C5)C=C4)cc2)n1
REMARK SMILES IDX 22 1 21 2 20 3 19 4 17 5 18 6 16 7 15 8 14 9 1 10 2 11 3 12
REMARK SMILES IDX 85 13 4 14 5 15 6 16 7 17 8 18 9 19 10 20 13 21 11 22 12 23
REMARK SMILES IDX 23 24 24 25 25 26 26 27 27 28 28 29 29 30 30 31 31 32 32 33
REMARK SMILES IDX 84 34 33 35 83 36 34 37 35 38 36 39 77 40 37 41 82 42 76 43
REMARK SMILES IDX 78 44 38 45 81 46 75 47 74 48 39 50 65 51 48 52 64 53 49 54
REMARK SMILES IDX 52 55 63 56 79 57 50 58 51 59 62 61 80 62 53 63 40 64 41 65
REMARK SMILES IDX 46 66 42 67 43 68 45 69 47 70 44 71 66 72 67 73 72 74 68 75
REMARK SMILES IDX 69 76 71 77 73 78 70 79 54 80 55 81 60 82 56 83 57 84 59 85
REMARK SMILES IDX 61 86 58 87
REMARK H PARENT 78 49 52 60
REMARK Flexibility Score: inf
ROOT
ATOM      1  O   UNL A   1      41.606  20.957  25.800  1.00  0.00    -0.376 OA
ENDROOT
BRANCH   1   2
ATOM      2  C   UNL A   1      41.172  21.877  26.788  1.00  0.00     0.202 C 
BRANCH   2   3
ATOM      3  C   UNL A   1      39.706  22.274  27.082  1.00  0.00     0.261 C 
BRANCH   3   4
ATOM      4  O   UNL A   1      38.724  22.018  26.076  1.00  0.00    -0.460 OA
BRANCH   4   5
ATOM      5  C   UNL A   1      37.899  23.054  25.774  1.00  0.00     0.330 C 
ATOM      6  O   UNL A   1      38.088  24.229  26.053  1.00  0.00    -0.247 OA
BRANCH   5   7
ATOM      7  C   UNL A   1      36.787  22.637  24.900  1.00  0.00     0.096 C 
ATOM      8  C   UNL A   1      35.482  22.810  25.166  1.00  0.00     0.040 C 
BRANCH   8   9
ATOM      9  C   UNL A   1      34.417  22.241  24.316  1.00  0.00     0.105 A 
ATOM     10  C   UNL A   1      32.500  19.090  24.397  1.00  0.00     0.067 C 
ATOM     11  C   UNL A   1      32.941  20.466  23.999  1.00  0.00     0.038 A 
ATOM     12  C   UNL A   1      32.291  21.140  22.977  1.00  0.00     0.027 A 
ATOM     13  N   UNL A   1      33.963  21.015  24.695  1.00  0.00    -0.250 NA
ATOM     14  C   UNL A   1      32.768  22.390  22.588  1.00  0.00     0.050 A 
ATOM     15  C   UNL A   1      33.890  22.930  23.215  1.00  0.00     0.145 A 
BRANCH  15  16
ATOM     16  O   UNL A   1      34.510  24.080  22.798  1.00  0.00    -0.489 OA
BRANCH  16  17
ATOM     17  C   UNL A   1      33.735  25.289  22.831  1.00  0.00     0.251 C 
BRANCH  17  18
ATOM     18  C   UNL A   1      33.691  25.958  24.212  1.00  0.00     0.164 C 
BRANCH  18  19
ATOM     19  N   UNL A   1      32.364  26.055  24.788  1.00  0.00    -0.334 N 
ATOM     20  C   UNL A   1      31.635  25.029  25.323  1.00  0.00     0.107 A 
ATOM     21  C   UNL A   1      31.608  27.190  24.884  1.00  0.00     0.199 A 
ATOM     22  C   UNL A   1      30.486  25.619  25.797  1.00  0.00     0.130 A 
ATOM     23  N   UNL A   1      30.478  26.961  25.514  1.00  0.00    -0.245 NA
ENDBRANCH  18  19
ENDBRANCH  17  18
ENDBRANCH  16  17
ENDBRANCH  15  16
ENDBRANCH   8   9
ENDBRANCH   5   7
ENDBRANCH   4   5
ENDBRANCH   3   4
ENDBRANCH   2   3
ENDBRANCH   1   2
BRANCH   1  24
ATOM     24  C   UNL A   1      41.454  19.572  26.004  1.00  0.00     0.188 C 
BRANCH  24  25
ATOM     25  C   UNL A   1      42.759  18.765  26.138  1.00  0.00     0.188 C 
BRANCH  25  26
ATOM     26  O   UNL A   1      43.731  18.754  25.108  1.00  0.00    -0.376 OA
BRANCH  26  27
ATOM     27  C   UNL A   1      45.124  18.769  25.371  1.00  0.00     0.202 C 
BRANCH  27  28
ATOM     28  C   UNL A   1      46.146  19.597  24.592  1.00  0.00     0.261 C 
BRANCH  28  29
ATOM     29  O   UNL A   1      46.093  21.001  24.753  1.00  0.00    -0.460 OA
BRANCH  29  30
ATOM     30  C   UNL A   1      44.994  21.550  24.195  1.00  0.00     0.338 C 
ATOM     31  O   UNL A   1      44.553  21.361  23.076  1.00  0.00    -0.246 OA
BRANCH  30  32
ATOM     32  C   UNL A   1      44.447  22.541  25.120  1.00  0.00     0.060 A 
ATOM     33  C   UNL A   1      43.590  23.510  24.596  1.00  0.00     0.016 A 
ATOM     34  C   UNL A   1      44.979  22.634  26.414  1.00  0.00     0.016 A 
ATOM     35  C   UNL A   1      43.361  24.654  25.331  1.00  0.00     0.010 A 
ATOM     36  C   UNL A   1      44.762  23.783  27.139  1.00  0.00     0.010 A 
ATOM     37  C   UNL A   1      44.003  24.805  26.564  1.00  0.00    -0.014 A 
BRANCH  37  38
ATOM     38  C   UNL A   1      43.813  26.049  27.286  1.00  0.00     0.031 A 
ATOM     39  C   UNL A   1      44.841  27.078  27.009  1.00  0.00     0.074 A 
ATOM     40  C   UNL A   1      42.699  26.273  28.011  1.00  0.00     0.049 A 
ATOM     41  N   UNL A   1      45.552  27.743  27.858  1.00  0.00    -0.248 NA
ATOM     42  C   UNL A   1      45.182  27.343  25.599  1.00  0.00     0.031 C 
ATOM     43  C   UNL A   1      41.518  25.405  28.072  1.00  0.00     0.029 A 
ATOM     44  N   UNL A   1      42.322  27.370  28.734  1.00  0.00    -0.354 N 
ATOM     45  C   UNL A   1      46.276  28.656  27.098  1.00  0.00     0.074 A 
ATOM     46  C   UNL A   1      46.132  28.269  25.722  1.00  0.00     0.031 C 
ATOM     47  C   UNL A   1      40.487  26.098  28.598  1.00  0.00     0.029 A 
ATOM     48  C   UNL A   1      40.960  27.411  29.006  1.00  0.00     0.049 A 
ATOM     49  H   UNL A   1      42.953  28.062  29.032  1.00  0.00     0.167 HD
ATOM     50  C   UNL A   1      46.685  29.832  27.638  1.00  0.00     0.037 A 
ATOM     51  C   UNL A   1      40.246  28.468  29.462  1.00  0.00     0.037 A 
ATOM     52  C   UNL A   1      46.719  29.770  29.074  1.00  0.00     0.049 A 
ATOM     53  C   UNL A   1      41.183  29.434  30.080  1.00  0.00     0.074 A 
ATOM     54  C   UNL A   1      47.511  29.173  30.029  1.00  0.00     0.029 A 
ATOM     55  N   UNL A   1      45.570  30.177  29.690  1.00  0.00    -0.354 N 
ATOM     56  N   UNL A   1      41.820  29.231  31.199  1.00  0.00    -0.248 NA
ATOM     57  C   UNL A   1      41.644  30.579  29.301  1.00  0.00     0.031 C 
ATOM     58  C   UNL A   1      46.710  29.073  31.203  1.00  0.00     0.029 A 
ATOM     59  C   UNL A   1      45.454  29.612  30.930  1.00  0.00     0.049 A 
ATOM     60  H   UNL A   1      44.913  30.795  29.294  1.00  0.00     0.167 HD
ATOM     61  C   UNL A   1      43.000  29.933  31.052  1.00  0.00     0.074 A 
ATOM     62  C   UNL A   1      42.752  30.884  29.981  1.00  0.00     0.031 C 
ATOM     63  C   UNL A   1      44.166  29.454  31.571  1.00  0.00     0.037 A 
BRANCH  50  64
ATOM     64  C   UNL A   1      46.557  31.160  26.922  1.00  0.00     0.057 A 
ATOM     65  C   UNL A   1      47.668  32.022  26.895  1.00  0.00     0.134 A 
ATOM     66  C   UNL A   1      45.328  31.758  26.570  1.00  0.00     0.134 A 
ATOM     67  F   UNL A   1      48.891  31.579  27.226  1.00  0.00    -0.206 F 
ATOM     68  C   UNL A   1      47.552  33.389  26.618  1.00  0.00     0.040 A 
ATOM     69  C   UNL A   1      45.209  33.111  26.241  1.00  0.00     0.040 A 
ATOM     70  F   UNL A   1      44.163  31.101  26.626  1.00  0.00    -0.206 F 
ATOM     71  C   UNL A   1      46.317  33.941  26.299  1.00  0.00     0.006 A 
ENDBRANCH  50  64
BRANCH  51  72
ATOM     72  C   UNL A   1      38.816  28.792  29.251  1.00  0.00     0.057 A 
ATOM     73  C   UNL A   1      37.917  28.820  30.327  1.00  0.00     0.134 A 
ATOM     74  C   UNL A   1      38.337  29.319  28.038  1.00  0.00     0.134 A 
ATOM     75  F   UNL A   1      38.287  28.378  31.537  1.00  0.00    -0.206 F 
ATOM     76  C   UNL A   1      36.630  29.362  30.212  1.00  0.00     0.040 A 
ATOM     77  C   UNL A   1      37.048  29.844  27.904  1.00  0.00     0.040 A 
ATOM     78  F   UNL A   1      39.129  29.423  26.961  1.00  0.00    -0.206 F 
ATOM     79  C   UNL A   1      36.195  29.883  28.998  1.00  0.00     0.006 A 
ENDBRANCH  51  72
BRANCH  63  80
ATOM     80  C   UNL A   1      44.073  28.540  32.750  1.00  0.00     0.057 A 
ATOM     81  C   UNL A   1      43.969  28.966  34.081  1.00  0.00     0.134 A 
ATOM     82  C   UNL A   1      44.009  27.161  32.514  1.00  0.00     0.134 A 
ATOM     83  F   UNL A   1      43.937  30.270  34.392  1.00  0.00    -0.206 F 
ATOM     84  C   UNL A   1      43.855  28.052  35.131  1.00  0.00     0.040 A 
ATOM     85  C   UNL A   1      43.856  26.241  33.550  1.00  0.00     0.040 A 
ATOM     86  F   UNL A   1      44.058  26.687  31.258  1.00  0.00    -0.206 F 
ATOM     87  C   UNL A   1      43.791  26.685  34.867  1.00  0.00     0.006 A 
ENDBRANCH  63  80
ENDBRANCH  37  38
ENDBRANCH  30  32
ENDBRANCH  29  30
ENDBRANCH  28  29
ENDBRANCH  27  28
ENDBRANCH  26  27
ENDBRANCH  25  26
ENDBRANCH  24  25
ENDBRANCH   1  24
TORSDOF 22
ENDMDL
MODEL 2
REMARK VINA RESULT:      -9.3      1.232      2.123
REMARK SMILES Cc1ccc(OCCn2ccnc2)c(/C=C/C(=O)OCCOCCOCCOC(=O)c2ccc(-c3c4nc(c(-c5c(F)cccc5F)c5ccc([nH]5)c(-c5c(F)cccc5F)c5nc(c(-c6c(F)cccc6F)c6ccc3[nH]6)C=C5)C=C4)cc2)n1
REMARK SMILES IDX 22 1 21 2 20 3 19 4 17 5 18 6 16 7 15 8 14 9 1 10 2 11 3 12
REMARK SMILES IDX 85 13 4 14 5 15 6 16 7 17 8 18 9 19 10 20 13 21 11 22 12 23
REMARK SMILES IDX 23 24 24 25 25 26 26 27 27 28 28 29 29 30 30 31 31 32 32 33
REMARK SMILES IDX 84 34 33 35 83 36 34 37 35 38 36 39 77 40 37 41 82 42 76 43
REMARK SMILES IDX 78 44 38 45 81 46 75 47 74 48 39 50 65 51 48 52 64 53 49 54
REMARK SMILES IDX 52 55 63 56 79 57 50 58 51 59 62 61 80 62 53 63 40 64 41 65
REMARK SMILES IDX 46 66 42 67 43 68 45 69 47 70 44 71 66 72 67 73 72 74 68 75
REMARK SMILES IDX 69 76 71 77 73 78 70 79 54 80 55 81 60 82 56 83 57 84 59 85
REMARK SMILES IDX 61 86 58 87
REMARK H PARENT 78 49 52 60
REMARK Flexibility Score: inf
ROOT
ATOM      1  O   UNL A   1      40.818  21.801  26.542  1.00  0.00    -0.376 OA
ENDROOT
BRANCH   1   2
ATOM      2  C   UNL A   1      39.749  22.690  26.820  1.00  0.00     0.202 C 
BRANCH   2   3
ATOM      3  C   UNL A   1      38.274  22.502  26.395  1.00  0.00     0.261 C 
BRANCH   3   4
ATOM      4  O   UNL A   1      38.010  21.991  25.086  1.00  0.00    -0.460 OA
BRANCH   4   5
ATOM      5  C   UNL A   1      36.980  22.572  24.419  1.00  0.00     0.330 C 
ATOM      6  O   UNL A   1      37.000  23.670  23.882  1.00  0.00    -0.247 OA
BRANCH   5   7
ATOM      7  C   UNL A   1      35.841  21.652  24.252  1.00  0.00     0.096 C 
ATOM      8  C   UNL A   1      35.343  20.849  25.206  1.00  0.00     0.040 C 
BRANCH   8   9
ATOM      9  C   UNL A   1      34.294  19.847  24.932  1.00  0.00     0.105 A 
ATOM     10  C   UNL A   1      34.304  16.504  23.370  1.00  0.00     0.067 C 
ATOM     11  C   UNL A   1      33.823  17.721  24.101  1.00  0.00     0.038 A 
ATOM     12  C   UNL A   1      32.514  17.794  24.551  1.00  0.00     0.027 A 
ATOM     13  N   UNL A   1      34.722  18.709  24.320  1.00  0.00    -0.250 NA
ATOM     14  C   UNL A   1      32.081  18.965  25.168  1.00  0.00     0.050 A 
ATOM     15  C   UNL A   1      32.957  20.042  25.307  1.00  0.00     0.145 A 
BRANCH  15  16
ATOM     16  O   UNL A   1      32.574  21.275  25.766  1.00  0.00    -0.489 OA
BRANCH  16  17
ATOM     17  C   UNL A   1      32.127  22.227  24.789  1.00  0.00     0.251 C 
BRANCH  17  18
ATOM     18  C   UNL A   1      32.793  23.605  24.916  1.00  0.00     0.164 C 
BRANCH  18  19
ATOM     19  N   UNL A   1      32.689  24.431  23.729  1.00  0.00    -0.334 N 
ATOM     20  C   UNL A   1      33.704  25.130  23.136  1.00  0.00     0.107 A 
ATOM     21  C   UNL A   1      31.553  24.661  23.004  1.00  0.00     0.199 A 
ATOM     22  C   UNL A   1      33.139  25.695  22.016  1.00  0.00     0.130 A 
ATOM     23  N   UNL A   1      31.801  25.402  21.947  1.00  0.00    -0.245 NA
ENDBRANCH  18  19
ENDBRANCH  17  18
ENDBRANCH  16  17
ENDBRANCH  15  16
ENDBRANCH   8   9
ENDBRANCH   5   7
ENDBRANCH   4   5
ENDBRANCH   3   4
ENDBRANCH   2   3
ENDBRANCH   1   2
BRANCH   1  24
ATOM     24  C   UNL A   1      40.563  20.436  26.306  1.00  0.00     0.188 C 
BRANCH  24  25
ATOM     25  C   UNL A   1      41.786  19.502  26.375  1.00  0.00     0.188 C 
BRANCH  25  26
ATOM     26  O   UNL A   1      42.472  19.094  25.204  1.00  0.00    -0.376 OA
BRANCH  26  27
ATOM     27  C   UNL A   1      43.860  18.808  25.193  1.00  0.00     0.202 C 
BRANCH  27  28
ATOM     28  C   UNL A   1      44.897  19.575  24.371  1.00  0.00     0.261 C 
BRANCH  28  29
ATOM     29  O   UNL A   1      45.311  20.831  24.868  1.00  0.00    -0.460 OA
BRANCH  29  30
ATOM     30  C   UNL A   1      44.667  21.863  24.283  1.00  0.00     0.338 C 
ATOM     31  O   UNL A   1      44.571  22.102  23.094  1.00  0.00    -0.246 OA
BRANCH  30  32
ATOM     32  C   UNL A   1      44.181  22.762  25.328  1.00  0.00     0.060 A 
ATOM     33  C   UNL A   1      43.193  23.684  24.979  1.00  0.00     0.016 A 
ATOM     34  C   UNL A   1      44.875  22.835  26.545  1.00  0.00     0.016 A 
ATOM     35  C   UNL A   1      42.984  24.770  25.803  1.00  0.00     0.010 A 
ATOM     36  C   UNL A   1      44.676  23.927  27.357  1.00  0.00     0.010 A 
ATOM     37  C   UNL A   1      43.775  24.912  26.947  1.00  0.00    -0.014 A 
BRANCH  37  38
ATOM     38  C   UNL A   1      43.595  26.101  27.759  1.00  0.00     0.031 A 
ATOM     39  C   UNL A   1      44.696  27.085  27.651  1.00  0.00     0.074 A 
ATOM     40  C   UNL A   1      42.440  26.331  28.415  1.00  0.00     0.049 A 
ATOM     41  N   UNL A   1      45.371  27.632  28.606  1.00  0.00    -0.248 NA
ATOM     42  C   UNL A   1      45.162  27.445  26.300  1.00  0.00     0.031 C 
ATOM     43  C   UNL A   1      41.212  25.534  28.311  1.00  0.00     0.029 A 
ATOM     44  N   UNL A   1      42.065  27.385  29.201  1.00  0.00    -0.354 N 
ATOM     45  C   UNL A   1      46.202  28.560  27.986  1.00  0.00     0.074 A 
ATOM     46  C   UNL A   1      46.148  28.298  26.575  1.00  0.00     0.031 C 
ATOM     47  C   UNL A   1      40.182  26.243  28.816  1.00  0.00     0.029 A 
ATOM     48  C   UNL A   1      40.691  27.486  29.372  1.00  0.00     0.049 A 
ATOM     49  H   UNL A   1      42.708  28.011  29.606  1.00  0.00     0.167 HD
ATOM     50  C   UNL A   1      46.629  29.660  28.656  1.00  0.00     0.037 A 
ATOM     51  C   UNL A   1      40.001  28.543  29.864  1.00  0.00     0.037 A 
ATOM     52  C   UNL A   1      46.545  29.477  30.080  1.00  0.00     0.049 A 
ATOM     53  C   UNL A   1      40.936  29.395  30.633  1.00  0.00     0.074 A 
ATOM     54  C   UNL A   1      47.224  28.755  31.035  1.00  0.00     0.029 A 
ATOM     55  N   UNL A   1      45.374  29.901  30.641  1.00  0.00    -0.354 N 
ATOM     56  N   UNL A   1      41.469  29.062  31.775  1.00  0.00    -0.248 NA
ATOM     57  C   UNL A   1      41.519  30.571  29.994  1.00  0.00     0.031 C 
ATOM     58  C   UNL A   1      46.327  28.607  32.133  1.00  0.00     0.029 A 
ATOM     59  C   UNL A   1      45.128  29.243  31.814  1.00  0.00     0.049 A 
ATOM     60  H   UNL A   1      44.785  30.588  30.253  1.00  0.00     0.167 HD
ATOM     61  C   UNL A   1      42.693  29.700  31.779  1.00  0.00     0.074 A 
ATOM     62  C   UNL A   1      42.584  30.751  30.780  1.00  0.00     0.031 C 
ATOM     63  C   UNL A   1      43.786  29.110  32.340  1.00  0.00     0.037 A 
BRANCH  50  64
ATOM     64  C   UNL A   1      46.632  31.048  28.052  1.00  0.00     0.057 A 
ATOM     65  C   UNL A   1      45.420  31.579  27.576  1.00  0.00     0.134 A 
ATOM     66  C   UNL A   1      47.792  31.723  27.616  1.00  0.00     0.134 A 
ATOM     67  F   UNL A   1      44.246  31.017  27.904  1.00  0.00    -0.206 F 
ATOM     68  C   UNL A   1      45.371  32.648  26.672  1.00  0.00     0.040 A 
ATOM     69  C   UNL A   1      47.752  32.823  26.755  1.00  0.00     0.040 A 
ATOM     70  F   UNL A   1      49.027  31.298  27.908  1.00  0.00    -0.206 F 
ATOM     71  C   UNL A   1      46.541  33.268  26.251  1.00  0.00     0.006 A 
ENDBRANCH  50  64
BRANCH  51  72
ATOM     72  C   UNL A   1      38.612  28.970  29.575  1.00  0.00     0.057 A 
ATOM     73  C   UNL A   1      37.648  29.022  30.592  1.00  0.00     0.134 A 
ATOM     74  C   UNL A   1      38.249  29.569  28.355  1.00  0.00     0.134 A 
ATOM     75  F   UNL A   1      37.907  28.515  31.806  1.00  0.00    -0.206 F 
ATOM     76  C   UNL A   1      36.409  29.653  30.417  1.00  0.00     0.040 A 
ATOM     77  C   UNL A   1      37.009  30.184  28.160  1.00  0.00     0.040 A 
ATOM     78  F   UNL A   1      39.116  29.655  27.335  1.00  0.00    -0.206 F 
ATOM     79  C   UNL A   1      36.090  30.242  29.199  1.00  0.00     0.006 A 
ENDBRANCH  51  72
BRANCH  63  80
ATOM     80  C   UNL A   1      43.550  28.108  33.425  1.00  0.00     0.057 A 
ATOM     81  C   UNL A   1      43.471  26.724  33.226  1.00  0.00     0.134 A 
ATOM     82  C   UNL A   1      43.477  28.570  34.745  1.00  0.00     0.134 A 
ATOM     83  F   UNL A   1      43.616  26.188  32.006  1.00  0.00    -0.206 F 
ATOM     84  C   UNL A   1      43.280  25.844  34.295  1.00  0.00     0.040 A 
ATOM     85  C   UNL A   1      43.324  27.699  35.823  1.00  0.00     0.040 A 
ATOM     86  F   UNL A   1      43.590  29.882  35.011  1.00  0.00    -0.206 F 
ATOM     87  C   UNL A   1      43.212  26.331  35.598  1.00  0.00     0.006 A 
ENDBRANCH  63  80
ENDBRANCH  37  38
ENDBRANCH  30  32
ENDBRANCH  29  30
ENDBRANCH  28  29
ENDBRANCH  27  28
ENDBRANCH  26  27
ENDBRANCH  25  26
ENDBRANCH  24  25
ENDBRANCH   1  24
TORSDOF 22
ENDMDL
MODEL 3
REMARK VINA RESULT:      -9.3      1.167      2.674
REMARK SMILES Cc1ccc(OCCn2ccnc2)c(/C=C/C(=O)OCCOCCOCCOC(=O)c2ccc(-c3c4nc(c(-c5c(F)cccc5F)c5ccc([nH]5)c(-c5c(F)cccc5F)c5nc(c(-c6c(F)cccc6F)c6ccc3[nH]6)C=C5)C=C4)cc2)n1
REMARK SMILES IDX 22 1 21 2 20 3 19 4 17 5 18 6 16 7 15 8 14 9 1 10 2 11 3 12
REMARK SMILES IDX 85 13 4 14 5 15 6 16 7 17 8 18 9 19 10 20 13 21 11 22 12 23
REMARK SMILES IDX 23 24 24 25 25 26 26 27 27 28 28 29 29 30 30 31 31 32 32 33
REMARK SMILES IDX 84 34 33 35 83 36 34 37 35 38 36 39 77 40 37 41 82 42 76 43
REMARK SMILES IDX 78 44 38 45 81 46 75 47 74 48 39 50 65 51 48 52 64 53 49 54
REMARK SMILES IDX 52 55 63 56 79 57 50 58 51 59 62 61 80 62 53 63 40 64 41 65
REMARK SMILES IDX 46 66 42 67 43 68 45 69 47 70 44 71 66 72 67 73 72 74 68 75
REMARK SMILES IDX 69 76 71 77 73 78 70 79 54 80 55 81 60 82 56 83 57 84 59 85
REMARK SMILES IDX 61 86 58 87
REMARK H PARENT 78 49 52 60
REMARK Flexibility Score: inf
ROOT
ATOM      1  O   UNL A   1      40.276  21.889  26.688  1.00  0.00    -0.376 OA
ENDROOT
BRANCH   1   2
ATOM      2  C   UNL A   1      39.108  22.689  26.605  1.00  0.00     0.202 C 
BRANCH   2   3
ATOM      3  C   UNL A   1      37.897  22.440  25.677  1.00  0.00     0.261 C 
BRANCH   3   4
ATOM      4  O   UNL A   1      36.829  23.391  25.690  1.00  0.00    -0.460 OA
BRANCH   4   5
ATOM      5  C   UNL A   1      35.618  22.918  26.081  1.00  0.00     0.330 C 
ATOM      6  O   UNL A   1      35.419  21.909  26.742  1.00  0.00    -0.247 OA
BRANCH   5   7
ATOM      7  C   UNL A   1      34.529  23.859  25.762  1.00  0.00     0.096 C 
ATOM      8  C   UNL A   1      34.691  25.142  25.399  1.00  0.00     0.040 C 
BRANCH   8   9
ATOM      9  C   UNL A   1      33.555  26.070  25.234  1.00  0.00     0.105 A 
ATOM     10  C   UNL A   1      31.686  28.251  27.549  1.00  0.00     0.067 C 
ATOM     11  C   UNL A   1      32.156  27.615  26.276  1.00  0.00     0.038 A 
ATOM     12  C   UNL A   1      31.602  27.988  25.061  1.00  0.00     0.027 A 
ATOM     13  N   UNL A   1      33.149  26.701  26.370  1.00  0.00    -0.250 NA
ATOM     14  C   UNL A   1      32.015  27.331  23.905  1.00  0.00     0.050 A 
ATOM     15  C   UNL A   1      32.957  26.306  23.988  1.00  0.00     0.145 A 
BRANCH  15  16
ATOM     16  O   UNL A   1      33.309  25.514  22.926  1.00  0.00    -0.489 OA
BRANCH  16  17
ATOM     17  C   UNL A   1      32.364  24.514  22.516  1.00  0.00     0.251 C 
BRANCH  17  18
ATOM     18  C   UNL A   1      32.941  23.091  22.486  1.00  0.00     0.164 C 
BRANCH  18  19
ATOM     19  N   UNL A   1      32.479  22.236  23.562  1.00  0.00    -0.334 N 
ATOM     20  C   UNL A   1      32.943  20.985  23.860  1.00  0.00     0.107 A 
ATOM     21  C   UNL A   1      31.490  22.532  24.458  1.00  0.00     0.199 A 
ATOM     22  C   UNL A   1      32.255  20.611  24.991  1.00  0.00     0.130 A 
ATOM     23  N   UNL A   1      31.351  21.577  25.351  1.00  0.00    -0.245 NA
ENDBRANCH  18  19
ENDBRANCH  17  18
ENDBRANCH  16  17
ENDBRANCH  15  16
ENDBRANCH   8   9
ENDBRANCH   5   7
ENDBRANCH   4   5
ENDBRANCH   3   4
ENDBRANCH   2   3
ENDBRANCH   1   2
BRANCH   1  24
ATOM     24  C   UNL A   1      40.275  20.578  26.174  1.00  0.00     0.188 C 
BRANCH  24  25
ATOM     25  C   UNL A   1      41.595  19.798  26.319  1.00  0.00     0.188 C 
BRANCH  25  26
ATOM     26  O   UNL A   1      42.208  19.168  25.209  1.00  0.00    -0.376 OA
BRANCH  26  27
ATOM     27  C   UNL A   1      43.561  18.744  25.222  1.00  0.00     0.202 C 
BRANCH  27  28
ATOM     28  C   UNL A   1      44.694  19.432  24.460  1.00  0.00     0.261 C 
BRANCH  28  29
ATOM     29  O   UNL A   1      45.288  20.559  25.071  1.00  0.00    -0.460 OA
BRANCH  29  30
ATOM     30  C   UNL A   1      44.861  21.725  24.545  1.00  0.00     0.338 C 
ATOM     31  O   UNL A   1      44.865  22.061  23.375  1.00  0.00    -0.246 OA
BRANCH  30  32
ATOM     32  C   UNL A   1      44.486  22.621  25.639  1.00  0.00     0.060 A 
ATOM     33  C   UNL A   1      43.212  23.190  25.599  1.00  0.00     0.016 A 
ATOM     34  C   UNL A   1      45.474  23.059  26.532  1.00  0.00     0.016 A 
ATOM     35  C   UNL A   1      42.963  24.301  26.378  1.00  0.00     0.010 A 
ATOM     36  C   UNL A   1      45.228  24.176  27.296  1.00  0.00     0.010 A 
ATOM     37  C   UNL A   1      43.995  24.819  27.166  1.00  0.00    -0.014 A 
BRANCH  37  38
ATOM     38  C   UNL A   1      43.738  26.033  27.918  1.00  0.00     0.031 A 
ATOM     39  C   UNL A   1      44.824  27.037  27.845  1.00  0.00     0.074 A 
ATOM     40  C   UNL A   1      42.537  26.261  28.487  1.00  0.00     0.049 A 
ATOM     41  N   UNL A   1      45.423  27.634  28.821  1.00  0.00    -0.248 NA
ATOM     42  C   UNL A   1      45.373  27.357  26.515  1.00  0.00     0.031 C 
ATOM     43  C   UNL A   1      41.335  25.434  28.333  1.00  0.00     0.029 A 
ATOM     44  N   UNL A   1      42.091  27.335  29.205  1.00  0.00    -0.354 N 
ATOM     45  C   UNL A   1      46.275  28.556  28.221  1.00  0.00     0.074 A 
ATOM     46  C   UNL A   1      46.321  28.241  26.821  1.00  0.00     0.031 C 
ATOM     47  C   UNL A   1      40.260  26.138  28.741  1.00  0.00     0.029 A 
ATOM     48  C   UNL A   1      40.706  27.413  29.281  1.00  0.00     0.049 A 
ATOM     49  H   UNL A   1      42.692  27.990  29.627  1.00  0.00     0.167 HD
ATOM     50  C   UNL A   1      46.635  29.690  28.875  1.00  0.00     0.037 A 
ATOM     51  C   UNL A   1      39.964  28.471  29.685  1.00  0.00     0.037 A 
ATOM     52  C   UNL A   1      46.459  29.558  30.296  1.00  0.00     0.049 A 
ATOM     53  C   UNL A   1      40.829  29.372  30.480  1.00  0.00     0.074 A 
ATOM     54  C   UNL A   1      47.087  28.888  31.322  1.00  0.00     0.029 A 
ATOM     55  N   UNL A   1      45.245  29.976  30.762  1.00  0.00    -0.354 N 
ATOM     56  N   UNL A   1      41.290  29.093  31.667  1.00  0.00    -0.248 NA
ATOM     57  C   UNL A   1      41.430  30.536  29.836  1.00  0.00     0.031 C 
ATOM     58  C   UNL A   1      46.121  28.761  32.363  1.00  0.00     0.029 A 
ATOM     59  C   UNL A   1      44.934  29.357  31.941  1.00  0.00     0.049 A 
ATOM     60  H   UNL A   1      44.670  30.635  30.309  1.00  0.00     0.167 HD
ATOM     61  C   UNL A   1      42.498  29.759  31.727  1.00  0.00     0.074 A 
ATOM     62  C   UNL A   1      42.435  30.769  30.683  1.00  0.00     0.031 C 
ATOM     63  C   UNL A   1      43.563  29.215  32.382  1.00  0.00     0.037 A 
BRANCH  50  64
ATOM     64  C   UNL A   1      46.650  31.054  28.219  1.00  0.00     0.057 A 
ATOM     65  C   UNL A   1      45.465  31.536  27.636  1.00  0.00     0.134 A 
ATOM     66  C   UNL A   1      47.824  31.742  27.843  1.00  0.00     0.134 A 
ATOM     67  F   UNL A   1      44.283  30.957  27.899  1.00  0.00    -0.206 F 
ATOM     68  C   UNL A   1      45.459  32.569  26.690  1.00  0.00     0.040 A 
ATOM     69  C   UNL A   1      47.822  32.808  26.940  1.00  0.00     0.040 A 
ATOM     70  F   UNL A   1      49.043  31.360  28.241  1.00  0.00    -0.206 F 
ATOM     71  C   UNL A   1      46.642  33.202  26.332  1.00  0.00     0.006 A 
ENDBRANCH  50  64
BRANCH  51  72
ATOM     72  C   UNL A   1      38.589  28.856  29.288  1.00  0.00     0.057 A 
ATOM     73  C   UNL A   1      37.572  28.980  30.246  1.00  0.00     0.134 A 
ATOM     74  C   UNL A   1      38.288  29.348  28.005  1.00  0.00     0.134 A 
ATOM     75  F   UNL A   1      37.769  28.579  31.509  1.00  0.00    -0.206 F 
ATOM     76  C   UNL A   1      36.339  29.580  29.953  1.00  0.00     0.040 A 
ATOM     77  C   UNL A   1      37.055  29.929  27.695  1.00  0.00     0.040 A 
ATOM     78  F   UNL A   1      39.207  29.359  27.029  1.00  0.00    -0.206 F 
ATOM     79  C   UNL A   1      36.081  30.063  28.675  1.00  0.00     0.006 A 
ENDBRANCH  51  72
BRANCH  63  80
ATOM     80  C   UNL A   1      43.275  28.249  33.486  1.00  0.00     0.057 A 
ATOM     81  C   UNL A   1      42.891  28.615  34.783  1.00  0.00     0.134 A 
ATOM     82  C   UNL A   1      43.314  26.880  33.194  1.00  0.00     0.134 A 
ATOM     83  F   UNL A   1      42.744  29.903  35.127  1.00  0.00    -0.206 F 
ATOM     84  C   UNL A   1      42.607  27.654  35.757  1.00  0.00     0.040 A 
ATOM     85  C   UNL A   1      42.996  25.912  34.146  1.00  0.00     0.040 A 
ATOM     86  F   UNL A   1      43.632  26.461  31.958  1.00  0.00    -0.206 F 
ATOM     87  C   UNL A   1      42.653  26.299  35.438  1.00  0.00     0.006 A 
ENDBRANCH  63  80
ENDBRANCH  37  38
ENDBRANCH  30  32
ENDBRANCH  29  30
ENDBRANCH  28  29
ENDBRANCH  27  28
ENDBRANCH  26  27
ENDBRANCH  25  26
ENDBRANCH  24  25
ENDBRANCH   1  24
TORSDOF 22
ENDMDL
