MODEL 1
REMARK VINA RESULT:     -10.9      0.000      0.000
REMARK SMILES O=C(OCCOCCOCCOC(=O)[C@@H]1[C@@H](C(=O)Nc2ccc(F)c(F)c2)[C@H]2CC[C@@H]1O2)c1ccc(-c2c3nc(c(-c4c(F)cccc4F)c4ccc([nH]4)c(-c4c(F)cccc4F)c4nc(c(-c5c(F)cccc5F)c5ccc2[nH]5)C=C4)C=C3)cc1
REMARK SMILES IDX 7 1 6 2 5 3 4 4 3 5 2 6 1 7 33 8 34 9 86 10 35 11 85 12
REMARK SMILES IDX 36 13 37 14 38 15 79 16 39 17 84 18 78 19 80 20 40 21 83 22
REMARK SMILES IDX 77 23 76 24 41 26 67 27 50 28 66 29 51 30 54 31 65 32 81 33
REMARK SMILES IDX 52 34 53 35 64 37 82 38 55 39 42 40 43 41 48 42 44 43 45 44
REMARK SMILES IDX 47 45 49 46 46 47 68 48 69 49 74 50 70 51 71 52 73 53 75 54
REMARK SMILES IDX 72 55 56 56 57 57 62 58 58 59 59 60 61 61 63 62 60 63 8 64
REMARK SMILES IDX 9 65 10 66 11 67 12 68 13 69 14 70 15 71 16 72 31 73 28 74
REMARK SMILES IDX 30 75 32 76 29 77 17 78 18 79 19 80 20 82 21 83 27 84 22 85
REMARK SMILES IDX 25 86 23 87 26 88 24 89
REMARK H PARENT 80 25 54 36 19 81
REMARK Flexibility Score: inf
ROOT
ATOM      1  C   UNL A   1      34.087  33.219  28.327  1.00  0.00     0.188 C 
ENDROOT
BRANCH   1   2
ATOM      2  O   UNL A   1      34.843  33.927  29.304  1.00  0.00    -0.376 OA
BRANCH   2   3
ATOM      3  C   UNL A   1      34.139  34.410  30.443  1.00  0.00     0.202 C 
BRANCH   3   4
ATOM      4  C   UNL A   1      34.774  34.133  31.814  1.00  0.00     0.261 C 
BRANCH   4   5
ATOM      5  O   UNL A   1      34.861  32.743  32.169  1.00  0.00    -0.460 OA
BRANCH   5   6
ATOM      6  C   UNL A   1      35.913  32.176  32.820  1.00  0.00     0.338 C 
ATOM      7  O   UNL A   1      36.123  32.458  33.996  1.00  0.00    -0.246 OA
BRANCH   6   8
ATOM      8  C   UNL A   1      36.978  31.448  32.054  1.00  0.00     0.060 A 
ATOM      9  C   UNL A   1      38.112  30.875  32.628  1.00  0.00     0.016 A 
ATOM     10  C   UNL A   1      36.816  31.329  30.659  1.00  0.00     0.016 A 
ATOM     11  C   UNL A   1      39.006  30.126  31.879  1.00  0.00     0.010 A 
ATOM     12  C   UNL A   1      37.756  30.643  29.878  1.00  0.00     0.010 A 
ATOM     13  C   UNL A   1      38.859  30.043  30.498  1.00  0.00    -0.014 A 
BRANCH  13  14
ATOM     14  C   UNL A   1      40.039  29.569  29.754  1.00  0.00     0.031 A 
ATOM     15  C   UNL A   1      41.182  30.524  29.619  1.00  0.00     0.074 A 
ATOM     16  C   UNL A   1      40.183  28.274  29.431  1.00  0.00     0.049 A 
ATOM     17  N   UNL A   1      42.378  30.315  29.145  1.00  0.00    -0.248 NA
ATOM     18  C   UNL A   1      40.972  31.874  30.170  1.00  0.00     0.031 C 
ATOM     19  C   UNL A   1      39.215  27.231  29.742  1.00  0.00     0.029 A 
ATOM     20  N   UNL A   1      41.199  27.609  28.800  1.00  0.00    -0.354 N 
ATOM     21  C   UNL A   1      43.077  31.485  29.389  1.00  0.00     0.074 A 
ATOM     22  C   UNL A   1      42.170  32.413  30.023  1.00  0.00     0.031 C 
ATOM     23  C   UNL A   1      39.652  26.062  29.243  1.00  0.00     0.029 A 
ATOM     24  C   UNL A   1      40.916  26.286  28.559  1.00  0.00     0.049 A 
ATOM     25  H   UNL A   1      42.048  28.036  28.543  1.00  0.00     0.167 HD
ATOM     26  C   UNL A   1      44.373  31.753  29.113  1.00  0.00     0.037 A 
ATOM     27  C   UNL A   1      41.592  25.378  27.834  1.00  0.00     0.037 A 
ATOM     28  C   UNL A   1      45.228  30.841  28.409  1.00  0.00     0.049 A 
ATOM     29  C   UNL A   1      42.935  25.782  27.295  1.00  0.00     0.074 A 
ATOM     30  C   UNL A   1      46.519  31.036  27.960  1.00  0.00     0.029 A 
ATOM     31  N   UNL A   1      44.853  29.558  28.026  1.00  0.00    -0.354 N 
ATOM     32  N   UNL A   1      43.582  26.910  27.477  1.00  0.00    -0.248 NA
ATOM     33  C   UNL A   1      43.654  24.798  26.478  1.00  0.00     0.031 C 
ATOM     34  C   UNL A   1      46.904  29.890  27.252  1.00  0.00     0.029 A 
ATOM     35  C   UNL A   1      45.875  28.961  27.309  1.00  0.00     0.049 A 
ATOM     36  H   UNL A   1      43.988  29.137  28.232  1.00  0.00     0.167 HD
ATOM     37  C   UNL A   1      44.801  26.759  26.835  1.00  0.00     0.074 A 
ATOM     38  C   UNL A   1      44.799  25.429  26.255  1.00  0.00     0.031 C 
ATOM     39  C   UNL A   1      45.834  27.633  26.748  1.00  0.00     0.037 A 
BRANCH  26  40
ATOM     40  C   UNL A   1      44.861  33.115  29.497  1.00  0.00     0.057 A 
ATOM     41  C   UNL A   1      44.750  34.214  28.635  1.00  0.00     0.134 A 
ATOM     42  C   UNL A   1      45.544  33.303  30.703  1.00  0.00     0.134 A 
ATOM     43  F   UNL A   1      44.146  34.086  27.443  1.00  0.00    -0.206 F 
ATOM     44  C   UNL A   1      45.326  35.447  28.948  1.00  0.00     0.040 A 
ATOM     45  C   UNL A   1      46.108  34.535  31.037  1.00  0.00     0.040 A 
ATOM     46  F   UNL A   1      45.704  32.284  31.561  1.00  0.00    -0.206 F 
ATOM     47  C   UNL A   1      46.008  35.608  30.153  1.00  0.00     0.006 A 
ENDBRANCH  26  40
BRANCH  27  48
ATOM     48  C   UNL A   1      40.995  24.049  27.534  1.00  0.00     0.057 A 
ATOM     49  C   UNL A   1      41.444  22.875  28.146  1.00  0.00     0.134 A 
ATOM     50  C   UNL A   1      39.966  23.924  26.589  1.00  0.00     0.134 A 
ATOM     51  F   UNL A   1      42.437  22.920  29.046  1.00  0.00    -0.206 F 
ATOM     52  C   UNL A   1      40.909  21.625  27.816  1.00  0.00     0.040 A 
ATOM     53  C   UNL A   1      39.408  22.686  26.265  1.00  0.00     0.040 A 
ATOM     54  F   UNL A   1      39.487  25.008  25.961  1.00  0.00    -0.206 F 
ATOM     55  C   UNL A   1      39.887  21.529  26.874  1.00  0.00     0.006 A 
ENDBRANCH  27  48
BRANCH  39  56
ATOM     56  C   UNL A   1      47.057  27.155  26.030  1.00  0.00     0.057 A 
ATOM     57  C   UNL A   1      47.280  27.439  24.678  1.00  0.00     0.134 A 
ATOM     58  C   UNL A   1      48.044  26.440  26.720  1.00  0.00     0.134 A 
ATOM     59  F   UNL A   1      46.362  28.106  23.963  1.00  0.00    -0.206 F 
ATOM     60  C   UNL A   1      48.439  27.011  24.030  1.00  0.00     0.040 A 
ATOM     61  C   UNL A   1      49.219  26.032  26.090  1.00  0.00     0.040 A 
ATOM     62  F   UNL A   1      47.889  26.144  28.019  1.00  0.00    -0.206 F 
ATOM     63  C   UNL A   1      49.415  26.313  24.740  1.00  0.00     0.006 A 
ENDBRANCH  39  56
ENDBRANCH  13  14
ENDBRANCH   6   8
ENDBRANCH   5   6
ENDBRANCH   4   5
ENDBRANCH   3   4
ENDBRANCH   2   3
ENDBRANCH   1   2
BRANCH   1  64
ATOM     64  C   UNL A   1      34.404  31.733  28.195  1.00  0.00     0.188 C 
BRANCH  64  65
ATOM     65  O   UNL A   1      33.802  31.102  27.074  1.00  0.00    -0.376 OA
BRANCH  65  66
ATOM     66  C   UNL A   1      32.418  30.789  27.156  1.00  0.00     0.202 C 
BRANCH  66  67
ATOM     67  C   UNL A   1      32.043  29.312  27.004  1.00  0.00     0.261 C 
BRANCH  67  68
ATOM     68  O   UNL A   1      32.075  28.839  25.642  1.00  0.00    -0.463 OA
BRANCH  68  69
ATOM     69  C   UNL A   1      32.748  27.692  25.362  1.00  0.00     0.312 C 
ATOM     70  O   UNL A   1      33.966  27.615  25.273  1.00  0.00    -0.252 OA
BRANCH  69  71
ATOM     71  C   UNL A   1      31.762  26.522  25.314  1.00  0.00     0.143 C 
ATOM     72  C   UNL A   1      32.451  25.139  25.319  1.00  0.00     0.124 C 
ATOM     73  C   UNL A   1      31.086  26.544  23.949  1.00  0.00     0.133 C 
ATOM     74  C   UNL A   1      32.152  24.654  23.869  1.00  0.00     0.132 C 
ATOM     75  C   UNL A   1      29.956  25.507  23.898  1.00  0.00     0.036 C 
ATOM     76  O   UNL A   1      32.120  25.922  23.149  1.00  0.00    -0.373 OA
ATOM     77  C   UNL A   1      30.717  24.233  23.563  1.00  0.00     0.035 C 
BRANCH  72  78
ATOM     78  C   UNL A   1      31.969  24.155  26.391  1.00  0.00     0.231 C 
ATOM     79  O   UNL A   1      31.050  24.433  27.166  1.00  0.00    -0.274 OA
ATOM     80  N   UNL A   1      32.433  22.878  26.501  1.00  0.00    -0.326 N 
ATOM     81  H   UNL A   1      31.828  22.299  27.020  1.00  0.00     0.169 HD
BRANCH  80  82
ATOM     82  C   UNL A   1      33.569  22.199  26.050  1.00  0.00     0.044 A 
ATOM     83  C   UNL A   1      34.863  22.602  26.343  1.00  0.00     0.029 A 
ATOM     84  C   UNL A   1      33.390  20.990  25.371  1.00  0.00     0.068 A 
ATOM     85  C   UNL A   1      35.970  21.863  25.918  1.00  0.00     0.044 A 
ATOM     86  C   UNL A   1      34.495  20.254  24.943  1.00  0.00     0.160 A 
ATOM     87  C   UNL A   1      35.782  20.695  25.207  1.00  0.00     0.158 A 
ATOM     88  F   UNL A   1      34.304  19.106  24.281  1.00  0.00    -0.204 F 
ATOM     89  F   UNL A   1      36.848  19.988  24.814  1.00  0.00    -0.204 F 
ENDBRANCH  80  82
ENDBRANCH  72  78
ENDBRANCH  69  71
ENDBRANCH  68  69
ENDBRANCH  67  68
ENDBRANCH  66  67
ENDBRANCH  65  66
ENDBRANCH  64  65
ENDBRANCH   1  64
TORSDOF 19
ENDMDL
MODEL 2
REMARK VINA RESULT:     -10.9      3.698      6.269
REMARK SMILES O=C(OCCOCCOCCOC(=O)[C@@H]1[C@@H](C(=O)Nc2ccc(F)c(F)c2)[C@H]2CC[C@@H]1O2)c1ccc(-c2c3nc(c(-c4c(F)cccc4F)c4ccc([nH]4)c(-c4c(F)cccc4F)c4nc(c(-c5c(F)cccc5F)c5ccc2[nH]5)C=C4)C=C3)cc1
REMARK SMILES IDX 7 1 6 2 5 3 4 4 3 5 2 6 1 7 33 8 34 9 86 10 35 11 85 12
REMARK SMILES IDX 36 13 37 14 38 15 79 16 39 17 84 18 78 19 80 20 40 21 83 22
REMARK SMILES IDX 77 23 76 24 41 26 67 27 50 28 66 29 51 30 54 31 65 32 81 33
REMARK SMILES IDX 52 34 53 35 64 37 82 38 55 39 42 40 43 41 48 42 44 43 45 44
REMARK SMILES IDX 47 45 49 46 46 47 68 48 69 49 74 50 70 51 71 52 73 53 75 54
REMARK SMILES IDX 72 55 56 56 57 57 62 58 58 59 59 60 61 61 63 62 60 63 8 64
REMARK SMILES IDX 9 65 10 66 11 67 12 68 13 69 14 70 15 71 16 72 31 73 28 74
REMARK SMILES IDX 30 75 32 76 29 77 17 78 18 79 19 80 20 82 21 83 27 84 22 85
REMARK SMILES IDX 25 86 23 87 26 88 24 89
REMARK H PARENT 80 25 54 36 19 81
REMARK Flexibility Score: inf
ROOT
ATOM      1  C   UNL A   1      31.533  29.786  25.909  1.00  0.00     0.188 C 
ENDROOT
BRANCH   1   2
ATOM      2  O   UNL A   1      31.361  31.184  25.706  1.00  0.00    -0.376 OA
BRANCH   2   3
ATOM      3  C   UNL A   1      31.356  32.012  26.864  1.00  0.00     0.202 C 
BRANCH   3   4
ATOM      4  C   UNL A   1      32.515  33.011  27.003  1.00  0.00     0.261 C 
BRANCH   4   5
ATOM      5  O   UNL A   1      32.281  34.081  27.933  1.00  0.00    -0.460 OA
BRANCH   5   6
ATOM      6  C   UNL A   1      33.211  34.573  28.796  1.00  0.00     0.338 C 
ATOM      7  O   UNL A   1      33.186  35.761  29.103  1.00  0.00    -0.246 OA
BRANCH   6   8
ATOM      8  C   UNL A   1      34.425  33.765  29.147  1.00  0.00     0.060 A 
ATOM      9  C   UNL A   1      34.403  32.594  29.902  1.00  0.00     0.016 A 
ATOM     10  C   UNL A   1      35.672  34.219  28.674  1.00  0.00     0.016 A 
ATOM     11  C   UNL A   1      35.547  31.837  30.104  1.00  0.00     0.010 A 
ATOM     12  C   UNL A   1      36.849  33.506  28.941  1.00  0.00     0.010 A 
ATOM     13  C   UNL A   1      36.780  32.310  29.665  1.00  0.00    -0.014 A 
BRANCH  13  14
ATOM     14  C   UNL A   1      37.963  31.654  30.249  1.00  0.00     0.031 A 
ATOM     15  C   UNL A   1      38.278  31.973  31.675  1.00  0.00     0.074 A 
ATOM     16  C   UNL A   1      38.578  30.640  29.619  1.00  0.00     0.049 A 
ATOM     17  N   UNL A   1      39.164  31.432  32.464  1.00  0.00    -0.248 NA
ATOM     18  C   UNL A   1      37.420  32.980  32.323  1.00  0.00     0.031 C 
ATOM     19  C   UNL A   1      38.180  30.109  28.323  1.00  0.00     0.029 A 
ATOM     20  N   UNL A   1      39.641  29.862  29.987  1.00  0.00    -0.354 N 
ATOM     21  C   UNL A   1      38.935  31.993  33.709  1.00  0.00     0.074 A 
ATOM     22  C   UNL A   1      37.852  32.937  33.571  1.00  0.00     0.031 C 
ATOM     23  C   UNL A   1      39.030  29.129  27.968  1.00  0.00     0.029 A 
ATOM     24  C   UNL A   1      40.041  28.988  29.005  1.00  0.00     0.049 A 
ATOM     25  H   UNL A   1      40.077  29.923  30.867  1.00  0.00     0.167 HD
ATOM     26  C   UNL A   1      39.575  31.730  34.870  1.00  0.00     0.037 A 
ATOM     27  C   UNL A   1      41.126  28.195  28.944  1.00  0.00     0.037 A 
ATOM     28  C   UNL A   1      40.702  30.846  34.961  1.00  0.00     0.049 A 
ATOM     29  C   UNL A   1      41.994  28.116  30.168  1.00  0.00     0.074 A 
ATOM     30  C   UNL A   1      41.514  30.586  36.047  1.00  0.00     0.029 A 
ATOM     31  N   UNL A   1      41.193  30.097  33.897  1.00  0.00    -0.354 N 
ATOM     32  N   UNL A   1      41.813  28.687  31.336  1.00  0.00    -0.248 NA
ATOM     33  C   UNL A   1      43.193  27.274  30.086  1.00  0.00     0.031 C 
ATOM     34  C   UNL A   1      42.532  29.722  35.623  1.00  0.00     0.029 A 
ATOM     35  C   UNL A   1      42.322  29.401  34.289  1.00  0.00     0.049 A 
ATOM     36  H   UNL A   1      40.796  30.066  32.997  1.00  0.00     0.167 HD
ATOM     37  C   UNL A   1      42.848  28.243  32.143  1.00  0.00     0.074 A 
ATOM     38  C   UNL A   1      43.657  27.357  31.326  1.00  0.00     0.031 C 
ATOM     39  C   UNL A   1      43.099  28.528  33.444  1.00  0.00     0.037 A 
BRANCH  26  40
ATOM     40  C   UNL A   1      39.106  32.493  36.069  1.00  0.00     0.057 A 
ATOM     41  C   UNL A   1      39.605  33.765  36.382  1.00  0.00     0.134 A 
ATOM     42  C   UNL A   1      38.222  31.902  36.978  1.00  0.00     0.134 A 
ATOM     43  F   UNL A   1      40.492  34.366  35.573  1.00  0.00    -0.206 F 
ATOM     44  C   UNL A   1      39.261  34.410  37.571  1.00  0.00     0.040 A 
ATOM     45  C   UNL A   1      37.854  32.545  38.161  1.00  0.00     0.040 A 
ATOM     46  F   UNL A   1      37.727  30.676  36.747  1.00  0.00    -0.206 F 
ATOM     47  C   UNL A   1      38.383  33.799  38.464  1.00  0.00     0.006 A 
ENDBRANCH  26  40
BRANCH  27  48
ATOM     48  C   UNL A   1      41.473  27.478  27.689  1.00  0.00     0.057 A 
ATOM     49  C   UNL A   1      42.156  28.098  26.639  1.00  0.00     0.134 A 
ATOM     50  C   UNL A   1      41.091  26.140  27.501  1.00  0.00     0.134 A 
ATOM     51  F   UNL A   1      42.535  29.380  26.745  1.00  0.00    -0.206 F 
ATOM     52  C   UNL A   1      42.429  27.427  25.443  1.00  0.00     0.040 A 
ATOM     53  C   UNL A   1      41.376  25.451  26.321  1.00  0.00     0.040 A 
ATOM     54  F   UNL A   1      40.431  25.482  28.465  1.00  0.00    -0.206 F 
ATOM     55  C   UNL A   1      42.040  26.098  25.282  1.00  0.00     0.006 A 
ENDBRANCH  27  48
BRANCH  39  56
ATOM     56  C   UNL A   1      44.274  27.841  34.067  1.00  0.00     0.057 A 
ATOM     57  C   UNL A   1      45.557  28.400  34.043  1.00  0.00     0.134 A 
ATOM     58  C   UNL A   1      44.104  26.623  34.738  1.00  0.00     0.134 A 
ATOM     59  F   UNL A   1      45.783  29.556  33.401  1.00  0.00    -0.206 F 
ATOM     60  C   UNL A   1      46.636  27.761  34.652  1.00  0.00     0.040 A 
ATOM     61  C   UNL A   1      45.170  25.990  35.374  1.00  0.00     0.040 A 
ATOM     62  F   UNL A   1      42.896  26.042  34.800  1.00  0.00    -0.206 F 
ATOM     63  C   UNL A   1      46.441  26.557  35.328  1.00  0.00     0.006 A 
ENDBRANCH  39  56
ENDBRANCH  13  14
ENDBRANCH   6   8
ENDBRANCH   5   6
ENDBRANCH   4   5
ENDBRANCH   3   4
ENDBRANCH   2   3
ENDBRANCH   1   2
BRANCH   1  64
ATOM     64  C   UNL A   1      32.788  29.178  25.292  1.00  0.00     0.188 C 
BRANCH  64  65
ATOM     65  O   UNL A   1      32.763  27.762  25.187  1.00  0.00    -0.376 OA
BRANCH  65  66
ATOM     66  C   UNL A   1      32.494  27.016  26.368  1.00  0.00     0.202 C 
BRANCH  66  67
ATOM     67  C   UNL A   1      31.452  25.901  26.246  1.00  0.00     0.261 C 
BRANCH  67  68
ATOM     68  O   UNL A   1      31.687  24.785  27.130  1.00  0.00    -0.463 OA
BRANCH  68  69
ATOM     69  C   UNL A   1      31.527  23.524  26.649  1.00  0.00     0.312 C 
ATOM     70  O   UNL A   1      30.489  22.883  26.732  1.00  0.00    -0.252 OA
BRANCH  69  71
ATOM     71  C   UNL A   1      32.788  23.106  25.887  1.00  0.00     0.143 C 
ATOM     72  C   UNL A   1      32.851  21.592  25.588  1.00  0.00     0.124 C 
ATOM     73  C   UNL A   1      33.977  23.304  26.819  1.00  0.00     0.133 C 
ATOM     74  C   UNL A   1      34.013  21.152  26.528  1.00  0.00     0.132 C 
ATOM     75  C   UNL A   1      35.291  23.075  26.061  1.00  0.00     0.036 C 
ATOM     76  O   UNL A   1      33.865  22.105  27.623  1.00  0.00    -0.373 OA
ATOM     77  C   UNL A   1      35.425  21.561  26.119  1.00  0.00     0.035 C 
BRANCH  72  78
ATOM     78  C   UNL A   1      33.088  21.208  24.123  1.00  0.00     0.231 C 
ATOM     79  O   UNL A   1      33.043  22.042  23.215  1.00  0.00    -0.274 OA
ATOM     80  N   UNL A   1      33.468  19.961  23.725  1.00  0.00    -0.326 N 
ATOM     81  H   UNL A   1      33.864  19.956  22.823  1.00  0.00     0.169 HD
BRANCH  80  82
ATOM     82  C   UNL A   1      33.427  18.688  24.300  1.00  0.00     0.044 A 
ATOM     83  C   UNL A   1      32.246  18.008  24.560  1.00  0.00     0.029 A 
ATOM     84  C   UNL A   1      34.636  18.018  24.512  1.00  0.00     0.068 A 
ATOM     85  C   UNL A   1      32.251  16.713  25.086  1.00  0.00     0.044 A 
ATOM     86  C   UNL A   1      34.641  16.726  25.039  1.00  0.00     0.160 A 
ATOM     87  C   UNL A   1      33.452  16.080  25.335  1.00  0.00     0.158 A 
ATOM     88  F   UNL A   1      35.809  16.106  25.249  1.00  0.00    -0.204 F 
ATOM     89  F   UNL A   1      33.446  14.835  25.826  1.00  0.00    -0.204 F 
ENDBRANCH  80  82
ENDBRANCH  72  78
ENDBRANCH  69  71
ENDBRANCH  68  69
ENDBRANCH  67  68
ENDBRANCH  66  67
ENDBRANCH  65  66
ENDBRANCH  64  65
ENDBRANCH   1  64
TORSDOF 19
ENDMDL
MODEL 3
REMARK VINA RESULT:     -10.9      4.425      9.362
REMARK SMILES O=C(OCCOCCOCCOC(=O)[C@@H]1[C@@H](C(=O)Nc2ccc(F)c(F)c2)[C@H]2CC[C@@H]1O2)c1ccc(-c2c3nc(c(-c4c(F)cccc4F)c4ccc([nH]4)c(-c4c(F)cccc4F)c4nc(c(-c5c(F)cccc5F)c5ccc2[nH]5)C=C4)C=C3)cc1
REMARK SMILES IDX 7 1 6 2 5 3 4 4 3 5 2 6 1 7 33 8 34 9 86 10 35 11 85 12
REMARK SMILES IDX 36 13 37 14 38 15 79 16 39 17 84 18 78 19 80 20 40 21 83 22
REMARK SMILES IDX 77 23 76 24 41 26 67 27 50 28 66 29 51 30 54 31 65 32 81 33
REMARK SMILES IDX 52 34 53 35 64 37 82 38 55 39 42 40 43 41 48 42 44 43 45 44
REMARK SMILES IDX 47 45 49 46 46 47 68 48 69 49 74 50 70 51 71 52 73 53 75 54
REMARK SMILES IDX 72 55 56 56 57 57 62 58 58 59 59 60 61 61 63 62 60 63 8 64
REMARK SMILES IDX 9 65 10 66 11 67 12 68 13 69 14 70 15 71 16 72 31 73 28 74
REMARK SMILES IDX 30 75 32 76 29 77 17 78 18 79 19 80 20 82 21 83 27 84 22 85
REMARK SMILES IDX 25 86 23 87 26 88 24 89
REMARK H PARENT 80 25 54 36 19 81
REMARK Flexibility Score: inf
ROOT
ATOM      1  C   UNL A   1      41.016  20.671  26.145  1.00  0.00     0.188 C 
ENDROOT
BRANCH   1   2
ATOM      2  O   UNL A   1      42.196  21.453  26.291  1.00  0.00    -0.376 OA
BRANCH   2   3
ATOM      3  C   UNL A   1      43.400  20.919  25.751  1.00  0.00     0.202 C 
BRANCH   3   4
ATOM      4  C   UNL A   1      44.337  21.907  25.041  1.00  0.00     0.261 C 
BRANCH   4   5
ATOM      5  O   UNL A   1      44.769  23.015  25.848  1.00  0.00    -0.460 OA
BRANCH   5   6
ATOM      6  C   UNL A   1      44.545  24.323  25.548  1.00  0.00     0.338 C 
ATOM      7  O   UNL A   1      45.163  24.849  24.626  1.00  0.00    -0.246 OA
BRANCH   6   8
ATOM      8  C   UNL A   1      43.784  25.201  26.496  1.00  0.00     0.060 A 
ATOM      9  C   UNL A   1      44.123  26.519  26.798  1.00  0.00     0.016 A 
ATOM     10  C   UNL A   1      42.643  24.657  27.119  1.00  0.00     0.016 A 
ATOM     11  C   UNL A   1      43.319  27.311  27.603  1.00  0.00     0.010 A 
ATOM     12  C   UNL A   1      41.866  25.423  27.999  1.00  0.00     0.010 A 
ATOM     13  C   UNL A   1      42.215  26.757  28.242  1.00  0.00    -0.014 A 
BRANCH  13  14
ATOM     14  C   UNL A   1      41.658  27.542  29.357  1.00  0.00     0.031 A 
ATOM     15  C   UNL A   1      42.382  27.470  30.663  1.00  0.00     0.074 A 
ATOM     16  C   UNL A   1      40.704  28.465  29.150  1.00  0.00     0.049 A 
ATOM     17  N   UNL A   1      42.191  28.164  31.751  1.00  0.00    -0.248 NA
ATOM     18  C   UNL A   1      43.529  26.548  30.722  1.00  0.00     0.031 C 
ATOM     19  C   UNL A   1      40.111  28.765  27.854  1.00  0.00     0.029 A 
ATOM     20  N   UNL A   1      40.086  29.332  30.009  1.00  0.00    -0.354 N 
ATOM     21  C   UNL A   1      43.224  27.802  32.600  1.00  0.00     0.074 A 
ATOM     22  C   UNL A   1      44.021  26.808  31.921  1.00  0.00     0.031 C 
ATOM     23  C   UNL A   1      39.164  29.707  28.010  1.00  0.00     0.029 A 
ATOM     24  C   UNL A   1      39.074  30.051  29.421  1.00  0.00     0.049 A 
ATOM     25  H   UNL A   1      40.341  29.431  30.955  1.00  0.00     0.167 HD
ATOM     26  C   UNL A   1      43.484  28.274  33.840  1.00  0.00     0.037 A 
ATOM     27  C   UNL A   1      38.157  30.864  29.976  1.00  0.00     0.037 A 
ATOM     28  C   UNL A   1      42.629  29.202  34.521  1.00  0.00     0.049 A 
ATOM     29  C   UNL A   1      38.302  31.173  31.439  1.00  0.00     0.074 A 
ATOM     30  C   UNL A   1      42.711  29.665  35.819  1.00  0.00     0.029 A 
ATOM     31  N   UNL A   1      41.504  29.789  33.950  1.00  0.00    -0.354 N 
ATOM     32  N   UNL A   1      39.249  30.790  32.265  1.00  0.00    -0.248 NA
ATOM     33  C   UNL A   1      37.282  32.035  32.047  1.00  0.00     0.031 C 
ATOM     34  C   UNL A   1      41.601  30.487  36.052  1.00  0.00     0.029 A 
ATOM     35  C   UNL A   1      40.859  30.581  34.883  1.00  0.00     0.049 A 
ATOM     36  H   UNL A   1      41.209  29.660  33.020  1.00  0.00     0.167 HD
ATOM     37  C   UNL A   1      38.965  31.398  33.478  1.00  0.00     0.074 A 
ATOM     38  C   UNL A   1      37.754  32.171  33.279  1.00  0.00     0.031 C 
ATOM     39  C   UNL A   1      39.653  31.336  34.645  1.00  0.00     0.037 A 
BRANCH  26  40
ATOM     40  C   UNL A   1      44.682  27.696  34.526  1.00  0.00     0.057 A 
ATOM     41  C   UNL A   1      44.606  26.526  35.295  1.00  0.00     0.134 A 
ATOM     42  C   UNL A   1      45.904  28.378  34.502  1.00  0.00     0.134 A 
ATOM     43  F   UNL A   1      43.450  25.852  35.395  1.00  0.00    -0.206 F 
ATOM     44  C   UNL A   1      45.697  26.071  36.038  1.00  0.00     0.040 A 
ATOM     45  C   UNL A   1      47.007  27.922  35.224  1.00  0.00     0.040 A 
ATOM     46  F   UNL A   1      46.035  29.516  33.803  1.00  0.00    -0.206 F 
ATOM     47  C   UNL A   1      46.901  26.770  36.003  1.00  0.00     0.006 A 
ENDBRANCH  26  40
BRANCH  27  48
ATOM     48  C   UNL A   1      37.017  31.383  29.174  1.00  0.00     0.057 A 
ATOM     49  C   UNL A   1      36.972  32.700  28.707  1.00  0.00     0.134 A 
ATOM     50  C   UNL A   1      35.916  30.563  28.883  1.00  0.00     0.134 A 
ATOM     51  F   UNL A   1      37.982  33.542  28.965  1.00  0.00    -0.206 F 
ATOM     52  C   UNL A   1      35.869  33.189  28.000  1.00  0.00     0.040 A 
ATOM     53  C   UNL A   1      34.819  31.032  28.160  1.00  0.00     0.040 A 
ATOM     54  F   UNL A   1      35.891  29.289  29.302  1.00  0.00    -0.206 F 
ATOM     55  C   UNL A   1      34.789  32.353  27.722  1.00  0.00     0.006 A 
ENDBRANCH  27  48
BRANCH  39  56
ATOM     56  C   UNL A   1      39.125  32.159  35.778  1.00  0.00     0.057 A 
ATOM     57  C   UNL A   1      38.237  31.634  36.723  1.00  0.00     0.134 A 
ATOM     58  C   UNL A   1      39.553  33.482  35.947  1.00  0.00     0.134 A 
ATOM     59  F   UNL A   1      37.781  30.377  36.604  1.00  0.00    -0.206 F 
ATOM     60  C   UNL A   1      37.776  32.404  37.790  1.00  0.00     0.040 A 
ATOM     61  C   UNL A   1      39.121  34.252  37.025  1.00  0.00     0.040 A 
ATOM     62  F   UNL A   1      40.410  34.038  35.077  1.00  0.00    -0.206 F 
ATOM     63  C   UNL A   1      38.226  33.714  37.947  1.00  0.00     0.006 A 
ENDBRANCH  39  56
ENDBRANCH  13  14
ENDBRANCH   6   8
ENDBRANCH   5   6
ENDBRANCH   4   5
ENDBRANCH   3   4
ENDBRANCH   2   3
ENDBRANCH   1   2
BRANCH   1  64
ATOM     64  C   UNL A   1      39.700  21.436  26.235  1.00  0.00     0.188 C 
BRANCH  64  65
ATOM     65  O   UNL A   1      39.778  22.655  26.961  1.00  0.00    -0.376 OA
BRANCH  65  66
ATOM     66  C   UNL A   1      38.682  23.555  26.864  1.00  0.00     0.202 C 
BRANCH  66  67
ATOM     67  C   UNL A   1      38.168  23.853  25.453  1.00  0.00     0.261 C 
BRANCH  67  68
ATOM     68  O   UNL A   1      36.736  24.015  25.375  1.00  0.00    -0.463 OA
BRANCH  68  69
ATOM     69  C   UNL A   1      36.055  23.367  24.395  1.00  0.00     0.312 C 
ATOM     70  O   UNL A   1      36.569  22.592  23.599  1.00  0.00    -0.252 OA
BRANCH  69  71
ATOM     71  C   UNL A   1      34.559  23.657  24.536  1.00  0.00     0.143 C 
ATOM     72  C   UNL A   1      33.660  22.561  23.921  1.00  0.00     0.124 C 
ATOM     73  C   UNL A   1      34.239  24.867  23.668  1.00  0.00     0.133 C 
ATOM     74  C   UNL A   1      33.068  23.319  22.695  1.00  0.00     0.132 C 
ATOM     75  C   UNL A   1      32.792  25.322  23.903  1.00  0.00     0.036 C 
ATOM     76  O   UNL A   1      34.161  24.229  22.371  1.00  0.00    -0.373 OA
ATOM     77  C   UNL A   1      32.019  24.388  22.985  1.00  0.00     0.035 C 
BRANCH  72  78
ATOM     78  C   UNL A   1      32.584  21.981  24.844  1.00  0.00     0.231 C 
ATOM     79  O   UNL A   1      31.962  22.685  25.644  1.00  0.00    -0.274 OA
ATOM     80  N   UNL A   1      32.157  20.687  24.781  1.00  0.00    -0.326 N 
ATOM     81  H   UNL A   1      31.281  20.556  25.211  1.00  0.00     0.169 HD
BRANCH  80  82
ATOM     82  C   UNL A   1      32.675  19.504  24.247  1.00  0.00     0.044 A 
ATOM     83  C   UNL A   1      32.136  18.869  23.139  1.00  0.00     0.029 A 
ATOM     84  C   UNL A   1      33.865  19.003  24.783  1.00  0.00     0.068 A 
ATOM     85  C   UNL A   1      32.718  17.716  22.604  1.00  0.00     0.044 A 
ATOM     86  C   UNL A   1      34.446  17.850  24.251  1.00  0.00     0.160 A 
ATOM     87  C   UNL A   1      33.868  17.203  23.171  1.00  0.00     0.158 A 
ATOM     88  F   UNL A   1      35.578  17.377  24.786  1.00  0.00    -0.204 F 
ATOM     89  F   UNL A   1      34.425  16.107  22.644  1.00  0.00    -0.204 F 
ENDBRANCH  80  82
ENDBRANCH  72  78
ENDBRANCH  69  71
ENDBRANCH  68  69
ENDBRANCH  67  68
ENDBRANCH  66  67
ENDBRANCH  65  66
ENDBRANCH  64  65
ENDBRANCH   1  64
TORSDOF 19
ENDMDL
