MODEL 1
REMARK VINA RESULT:     -10.9      0.000      0.000
REMARK SMILES [NH3+][C@@]1(C(=O)OCCOCCOCCOC(=O)c2ccc(-c3c4nc(c(-c5c(F)cccc5F)c5ccc([nH]5)c(-c5c(F)cccc5F)c5nc(c(-c6c(F)cccc6F)c6ccc3[nH]6)C=C5)C=C4)cc2)CC[N@H+](Cc2ccc(OCC(=O)N3CCCCC3)cc2)C1
REMARK SMILES IDX 8 1 7 2 6 3 5 4 3 5 4 6 2 7 71 8 91 9 72 10 73 11 1 13 74 17
REMARK SMILES IDX 75 18 76 19 90 20 77 21 89 22 78 23 79 24 80 25 81 26 82 27
REMARK SMILES IDX 83 28 84 29 88 30 85 31 87 32 86 33 9 34 10 35 11 36 12 37
REMARK SMILES IDX 13 38 14 39 15 40 16 41 17 42 18 43 70 44 19 45 69 46 20 47
REMARK SMILES IDX 21 48 22 49 63 50 23 51 68 52 62 53 64 54 24 55 67 56 61 57
REMARK SMILES IDX 60 58 25 60 51 61 34 62 50 63 35 64 38 65 49 66 65 67 36 68
REMARK SMILES IDX 37 69 48 71 66 72 39 73 26 74 27 75 32 76 28 77 29 78 31 79
REMARK SMILES IDX 33 80 30 81 52 82 53 83 58 84 54 85 55 86 57 87 59 88 56 89
REMARK SMILES IDX 40 90 41 91 46 92 42 93 43 94 45 95 47 96 44 97
REMARK H PARENT 73 12 1 14 1 15 1 16 64 59 38 70
REMARK Flexibility Score: inf
ROOT
ATOM      1  O   UNL A   1      30.531  26.379  23.940  1.00  0.00    -0.376 OA
ENDROOT
BRANCH   1   2
ATOM      2  C   UNL A   1      30.532  26.404  25.365  1.00  0.00     0.202 C 
BRANCH   2   3
ATOM      3  C   UNL A   1      30.459  25.035  26.037  1.00  0.00     0.261 C 
BRANCH   3   4
ATOM      4  O   UNL A   1      31.666  24.331  25.781  1.00  0.00    -0.458 OA
BRANCH   4   5
ATOM      5  C   UNL A   1      31.524  23.102  25.243  1.00  0.00     0.374 C 
ATOM      6  O   UNL A   1      30.765  22.232  25.657  1.00  0.00    -0.244 OA
BRANCH   5   7
ATOM      7  C   UNL A   1      32.325  22.986  23.935  1.00  0.00     0.246 C 
ATOM      8  C   UNL A   1      32.686  21.521  23.713  1.00  0.00     0.148 C 
ATOM      9  C   UNL A   1      33.727  23.629  24.030  1.00  0.00     0.344 C 
ATOM     10  C   UNL A   1      33.916  21.333  24.606  1.00  0.00     0.270 C 
ATOM     11  N   UNL A   1      34.615  22.607  24.578  1.00  0.00    -0.325 N 
ATOM     12  H   UNL A   1      35.398  22.468  23.938  1.00  0.00     0.348 HD
BRANCH   7  13
ATOM     13  N   UNL A   1      31.471  23.518  22.840  1.00  0.00    -0.338 N 
ATOM     14  H   UNL A   1      31.853  24.404  22.509  1.00  0.00     0.345 HD
ATOM     15  H   UNL A   1      30.524  23.666  23.189  1.00  0.00     0.345 HD
ATOM     16  H   UNL A   1      31.449  22.849  22.069  1.00  0.00     0.345 HD
ENDBRANCH   7  13
BRANCH  11  17
ATOM     17  C   UNL A   1      35.518  22.991  25.674  1.00  0.00     0.299 C 
BRANCH  17  18
ATOM     18  C   UNL A   1      36.963  22.491  25.693  1.00  0.00     0.006 A 
ATOM     19  C   UNL A   1      37.990  23.302  26.201  1.00  0.00     0.013 A 
ATOM     20  C   UNL A   1      37.358  21.252  25.164  1.00  0.00     0.013 A 
ATOM     21  C   UNL A   1      39.298  22.803  26.351  1.00  0.00     0.047 A 
ATOM     22  C   UNL A   1      38.652  20.723  25.379  1.00  0.00     0.047 A 
ATOM     23  C   UNL A   1      39.588  21.458  26.092  1.00  0.00     0.120 A 
BRANCH  23  24
ATOM     24  O   UNL A   1      40.706  20.984  26.728  1.00  0.00    -0.484 OA
BRANCH  24  25
ATOM     25  C   UNL A   1      41.144  19.634  26.633  1.00  0.00     0.329 C 
BRANCH  25  26
ATOM     26  C   UNL A   1      42.500  19.054  26.075  1.00  0.00     0.260 C 
ATOM     27  O   UNL A   1      42.695  17.836  26.199  1.00  0.00    -0.271 OA
ATOM     28  N   UNL A   1      43.419  19.842  25.368  1.00  0.00    -0.340 N 
ATOM     29  C   UNL A   1      44.411  19.172  24.519  1.00  0.00     0.119 C 
ATOM     30  C   UNL A   1      43.567  21.301  25.371  1.00  0.00     0.119 C 
ATOM     31  C   UNL A   1      45.837  19.460  24.972  1.00  0.00     0.022 C 
ATOM     32  C   UNL A   1      45.006  21.725  25.742  1.00  0.00     0.022 C 
ATOM     33  C   UNL A   1      46.112  20.961  25.019  1.00  0.00     0.004 C 
ENDBRANCH  25  26
ENDBRANCH  24  25
ENDBRANCH  23  24
ENDBRANCH  17  18
ENDBRANCH  11  17
ENDBRANCH   5   7
ENDBRANCH   4   5
ENDBRANCH   3   4
ENDBRANCH   2   3
ENDBRANCH   1   2
BRANCH   1  34
ATOM     34  C   UNL A   1      30.628  27.656  23.328  1.00  0.00     0.188 C 
BRANCH  34  35
ATOM     35  C   UNL A   1      32.037  28.269  23.305  1.00  0.00     0.188 C 
BRANCH  35  36
ATOM     36  O   UNL A   1      32.317  29.225  24.298  1.00  0.00    -0.376 OA
BRANCH  36  37
ATOM     37  C   UNL A   1      31.257  29.988  24.860  1.00  0.00     0.202 C 
BRANCH  37  38
ATOM     38  C   UNL A   1      31.402  31.073  25.954  1.00  0.00     0.261 C 
BRANCH  38  39
ATOM     39  O   UNL A   1      32.472  30.986  26.901  1.00  0.00    -0.460 OA
BRANCH  39  40
ATOM     40  C   UNL A   1      33.082  32.123  27.301  1.00  0.00     0.338 C 
ATOM     41  O   UNL A   1      32.587  33.233  27.395  1.00  0.00    -0.246 OA
BRANCH  40  42
ATOM     42  C   UNL A   1      34.404  31.728  27.846  1.00  0.00     0.060 A 
ATOM     43  C   UNL A   1      34.664  30.374  28.125  1.00  0.00     0.016 A 
ATOM     44  C   UNL A   1      35.409  32.683  28.002  1.00  0.00     0.016 A 
ATOM     45  C   UNL A   1      35.923  29.974  28.571  1.00  0.00     0.010 A 
ATOM     46  C   UNL A   1      36.652  32.292  28.503  1.00  0.00     0.010 A 
ATOM     47  C   UNL A   1      36.902  30.942  28.818  1.00  0.00    -0.014 A 
BRANCH  47  48
ATOM     48  C   UNL A   1      38.062  30.603  29.673  1.00  0.00     0.031 A 
ATOM     49  C   UNL A   1      39.091  29.671  29.092  1.00  0.00     0.074 A 
ATOM     50  C   UNL A   1      38.200  31.089  30.917  1.00  0.00     0.049 A 
ATOM     51  N   UNL A   1      40.128  29.115  29.659  1.00  0.00    -0.248 NA
ATOM     52  C   UNL A   1      38.912  29.308  27.675  1.00  0.00     0.031 C 
ATOM     53  C   UNL A   1      37.299  32.041  31.563  1.00  0.00     0.029 A 
ATOM     54  N   UNL A   1      39.152  30.823  31.869  1.00  0.00    -0.354 N 
ATOM     55  C   UNL A   1      40.713  28.328  28.676  1.00  0.00     0.074 A 
ATOM     56  C   UNL A   1      39.905  28.455  27.485  1.00  0.00     0.031 C 
ATOM     57  C   UNL A   1      37.727  32.258  32.820  1.00  0.00     0.029 A 
ATOM     58  C   UNL A   1      38.907  31.432  33.075  1.00  0.00     0.049 A 
ATOM     59  H   UNL A   1      39.936  30.250  31.702  1.00  0.00     0.167 HD
ATOM     60  C   UNL A   1      41.827  27.566  28.759  1.00  0.00     0.037 A 
ATOM     61  C   UNL A   1      39.546  31.302  34.254  1.00  0.00     0.037 A 
ATOM     62  C   UNL A   1      42.621  27.440  29.950  1.00  0.00     0.049 A 
ATOM     63  C   UNL A   1      40.741  30.384  34.345  1.00  0.00     0.074 A 
ATOM     64  C   UNL A   1      43.777  26.707  30.141  1.00  0.00     0.029 A 
ATOM     65  N   UNL A   1      42.332  28.059  31.158  1.00  0.00    -0.354 N 
ATOM     66  N   UNL A   1      41.301  29.655  33.408  1.00  0.00    -0.248 NA
ATOM     67  C   UNL A   1      41.393  30.271  35.658  1.00  0.00     0.031 C 
ATOM     68  C   UNL A   1      44.154  26.834  31.482  1.00  0.00     0.029 A 
ATOM     69  C   UNL A   1      43.271  27.701  32.107  1.00  0.00     0.049 A 
ATOM     70  H   UNL A   1      41.570  28.663  31.315  1.00  0.00     0.167 HD
ATOM     71  C   UNL A   1      42.387  29.028  34.009  1.00  0.00     0.074 A 
ATOM     72  C   UNL A   1      42.414  29.472  35.387  1.00  0.00     0.031 C 
ATOM     73  C   UNL A   1      43.285  28.165  33.472  1.00  0.00     0.037 A 
BRANCH  60  74
ATOM     74  C   UNL A   1      42.226  26.784  27.542  1.00  0.00     0.057 A 
ATOM     75  C   UNL A   1      42.991  27.347  26.513  1.00  0.00     0.134 A 
ATOM     76  C   UNL A   1      41.859  25.439  27.411  1.00  0.00     0.134 A 
ATOM     77  F   UNL A   1      43.357  28.637  26.564  1.00  0.00    -0.206 F 
ATOM     78  C   UNL A   1      43.361  26.606  25.388  1.00  0.00     0.040 A 
ATOM     79  C   UNL A   1      42.248  24.679  26.307  1.00  0.00     0.040 A 
ATOM     80  F   UNL A   1      41.122  24.838  28.358  1.00  0.00    -0.206 F 
ATOM     81  C   UNL A   1      42.997  25.265  25.289  1.00  0.00     0.006 A 
ENDBRANCH  60  74
BRANCH  61  82
ATOM     82  C   UNL A   1      39.062  32.032  35.456  1.00  0.00     0.057 A 
ATOM     83  C   UNL A   1      38.199  31.426  36.377  1.00  0.00     0.134 A 
ATOM     84  C   UNL A   1      39.417  33.366  35.692  1.00  0.00     0.134 A 
ATOM     85  F   UNL A   1      37.799  30.159  36.194  1.00  0.00    -0.206 F 
ATOM     86  C   UNL A   1      37.688  32.124  37.473  1.00  0.00     0.040 A 
ATOM     87  C   UNL A   1      38.938  34.068  36.800  1.00  0.00     0.040 A 
ATOM     88  F   UNL A   1      40.238  34.009  34.849  1.00  0.00    -0.206 F 
ATOM     89  C   UNL A   1      38.063  33.448  37.690  1.00  0.00     0.006 A 
ENDBRANCH  61  82
BRANCH  73  90
ATOM     90  C   UNL A   1      44.398  27.682  34.358  1.00  0.00     0.057 A 
ATOM     91  C   UNL A   1      44.281  26.524  35.137  1.00  0.00     0.134 A 
ATOM     92  C   UNL A   1      45.622  28.363  34.394  1.00  0.00     0.134 A 
ATOM     93  F   UNL A   1      43.132  25.830  35.156  1.00  0.00    -0.206 F 
ATOM     94  C   UNL A   1      45.330  26.078  35.942  1.00  0.00     0.040 A 
ATOM     95  C   UNL A   1      46.689  27.908  35.167  1.00  0.00     0.040 A 
ATOM     96  F   UNL A   1      45.808  29.471  33.659  1.00  0.00    -0.206 F 
ATOM     97  C   UNL A   1      46.542  26.767  35.953  1.00  0.00     0.006 A 
ENDBRANCH  73  90
ENDBRANCH  47  48
ENDBRANCH  40  42
ENDBRANCH  39  40
ENDBRANCH  38  39
ENDBRANCH  37  38
ENDBRANCH  36  37
ENDBRANCH  35  36
ENDBRANCH  34  35
ENDBRANCH   1  34
TORSDOF 23
ENDMDL
MODEL 2
REMARK VINA RESULT:     -10.6      0.818      5.940
REMARK SMILES [NH3+][C@@]1(C(=O)OCCOCCOCCOC(=O)c2ccc(-c3c4nc(c(-c5c(F)cccc5F)c5ccc([nH]5)c(-c5c(F)cccc5F)c5nc(c(-c6c(F)cccc6F)c6ccc3[nH]6)C=C5)C=C4)cc2)CC[N@H+](Cc2ccc(OCC(=O)N3CCCCC3)cc2)C1
REMARK SMILES IDX 8 1 7 2 6 3 5 4 3 5 4 6 2 7 71 8 91 9 72 10 73 11 1 13 74 17
REMARK SMILES IDX 75 18 76 19 90 20 77 21 89 22 78 23 79 24 80 25 81 26 82 27
REMARK SMILES IDX 83 28 84 29 88 30 85 31 87 32 86 33 9 34 10 35 11 36 12 37
REMARK SMILES IDX 13 38 14 39 15 40 16 41 17 42 18 43 70 44 19 45 69 46 20 47
REMARK SMILES IDX 21 48 22 49 63 50 23 51 68 52 62 53 64 54 24 55 67 56 61 57
REMARK SMILES IDX 60 58 25 60 51 61 34 62 50 63 35 64 38 65 49 66 65 67 36 68
REMARK SMILES IDX 37 69 48 71 66 72 39 73 26 74 27 75 32 76 28 77 29 78 31 79
REMARK SMILES IDX 33 80 30 81 52 82 53 83 58 84 54 85 55 86 57 87 59 88 56 89
REMARK SMILES IDX 40 90 41 91 46 92 42 93 43 94 45 95 47 96 44 97
REMARK H PARENT 73 12 1 14 1 15 1 16 64 59 38 70
REMARK Flexibility Score: inf
ROOT
ATOM      1  O   UNL A   1      30.253  26.764  24.424  1.00  0.00    -0.376 OA
ENDROOT
BRANCH   1   2
ATOM      2  C   UNL A   1      30.662  26.583  25.778  1.00  0.00     0.202 C 
BRANCH   2   3
ATOM      3  C   UNL A   1      31.157  25.180  26.122  1.00  0.00     0.261 C 
BRANCH   3   4
ATOM      4  O   UNL A   1      32.250  24.856  25.275  1.00  0.00    -0.458 OA
BRANCH   4   5
ATOM      5  C   UNL A   1      31.993  23.951  24.308  1.00  0.00     0.374 C 
ATOM      6  O   UNL A   1      30.988  23.250  24.245  1.00  0.00    -0.244 OA
BRANCH   5   7
ATOM      7  C   UNL A   1      33.054  24.027  23.197  1.00  0.00     0.246 C 
ATOM      8  C   UNL A   1      33.460  22.608  22.814  1.00  0.00     0.148 C 
ATOM      9  C   UNL A   1      34.401  24.601  23.691  1.00  0.00     0.344 C 
ATOM     10  C   UNL A   1      34.472  22.236  23.901  1.00  0.00     0.270 C 
ATOM     11  N   UNL A   1      35.157  23.475  24.235  1.00  0.00    -0.325 N 
ATOM     12  H   UNL A   1      36.058  23.418  23.760  1.00  0.00     0.348 HD
BRANCH   7  13
ATOM     13  N   UNL A   1      32.450  24.758  22.051  1.00  0.00    -0.338 N 
ATOM     14  H   UNL A   1      32.314  24.116  21.271  1.00  0.00     0.345 HD
ATOM     15  H   UNL A   1      33.073  25.513  21.764  1.00  0.00     0.345 HD
ATOM     16  H   UNL A   1      31.550  25.148  22.332  1.00  0.00     0.345 HD
ENDBRANCH   7  13
BRANCH  11  17
ATOM     17  C   UNL A   1      35.804  23.645  25.545  1.00  0.00     0.299 C 
BRANCH  17  18
ATOM     18  C   UNL A   1      37.252  23.198  25.753  1.00  0.00     0.006 A 
ATOM     19  C   UNL A   1      38.195  24.075  26.308  1.00  0.00     0.013 A 
ATOM     20  C   UNL A   1      37.735  21.940  25.358  1.00  0.00     0.013 A 
ATOM     21  C   UNL A   1      39.492  23.633  26.632  1.00  0.00     0.047 A 
ATOM     22  C   UNL A   1      39.012  21.471  25.746  1.00  0.00     0.047 A 
ATOM     23  C   UNL A   1      39.844  22.285  26.501  1.00  0.00     0.120 A 
BRANCH  23  24
ATOM     24  O   UNL A   1      40.899  21.893  27.285  1.00  0.00    -0.484 OA
BRANCH  24  25
ATOM     25  C   UNL A   1      41.150  20.538  27.634  1.00  0.00     0.329 C 
BRANCH  25  26
ATOM     26  C   UNL A   1      42.278  19.560  27.125  1.00  0.00     0.260 C 
ATOM     27  O   UNL A   1      42.384  18.464  27.693  1.00  0.00    -0.271 OA
ATOM     28  N   UNL A   1      43.074  19.850  26.007  1.00  0.00    -0.340 N 
ATOM     29  C   UNL A   1      43.773  18.745  25.338  1.00  0.00     0.119 C 
ATOM     30  C   UNL A   1      43.352  21.153  25.393  1.00  0.00     0.119 C 
ATOM     31  C   UNL A   1      45.286  18.925  25.373  1.00  0.00     0.022 C 
ATOM     32  C   UNL A   1      44.870  21.422  25.297  1.00  0.00     0.022 C 
ATOM     33  C   UNL A   1      45.701  20.260  24.759  1.00  0.00     0.004 C 
ENDBRANCH  25  26
ENDBRANCH  24  25
ENDBRANCH  23  24
ENDBRANCH  17  18
ENDBRANCH  11  17
ENDBRANCH   5   7
ENDBRANCH   4   5
ENDBRANCH   3   4
ENDBRANCH   2   3
ENDBRANCH   1   2
BRANCH   1  34
ATOM     34  C   UNL A   1      30.641  28.004  23.853  1.00  0.00     0.188 C 
BRANCH  34  35
ATOM     35  C   UNL A   1      32.139  28.331  23.946  1.00  0.00     0.188 C 
BRANCH  35  36
ATOM     36  O   UNL A   1      32.493  29.394  24.799  1.00  0.00    -0.376 OA
BRANCH  36  37
ATOM     37  C   UNL A   1      31.475  30.204  25.372  1.00  0.00     0.202 C 
BRANCH  37  38
ATOM     38  C   UNL A   1      31.693  31.341  26.399  1.00  0.00     0.261 C 
BRANCH  38  39
ATOM     39  O   UNL A   1      32.708  31.207  27.401  1.00  0.00    -0.460 OA
BRANCH  39  40
ATOM     40  C   UNL A   1      33.544  32.244  27.624  1.00  0.00     0.338 C 
ATOM     41  O   UNL A   1      33.263  33.431  27.631  1.00  0.00    -0.246 OA
BRANCH  40  42
ATOM     42  C   UNL A   1      34.820  31.665  28.109  1.00  0.00     0.060 A 
ATOM     43  C   UNL A   1      34.934  30.273  28.273  1.00  0.00     0.016 A 
ATOM     44  C   UNL A   1      35.925  32.490  28.322  1.00  0.00     0.016 A 
ATOM     45  C   UNL A   1      36.146  29.704  28.660  1.00  0.00     0.010 A 
ATOM     46  C   UNL A   1      37.124  31.927  28.765  1.00  0.00     0.010 A 
ATOM     47  C   UNL A   1      37.228  30.537  28.966  1.00  0.00    -0.014 A 
BRANCH  47  48
ATOM     48  C   UNL A   1      38.353  30.005  29.767  1.00  0.00     0.031 A 
ATOM     49  C   UNL A   1      38.470  30.487  31.187  1.00  0.00     0.074 A 
ATOM     50  C   UNL A   1      39.243  29.136  29.260  1.00  0.00     0.049 A 
ATOM     51  N   UNL A   1      39.419  30.282  32.062  1.00  0.00    -0.248 NA
ATOM     52  C   UNL A   1      37.365  31.328  31.681  1.00  0.00     0.031 C 
ATOM     53  C   UNL A   1      39.198  28.558  27.920  1.00  0.00     0.029 A 
ATOM     54  N   UNL A   1      40.379  28.608  29.820  1.00  0.00    -0.354 N 
ATOM     55  C   UNL A   1      39.033  30.981  33.200  1.00  0.00     0.074 A 
ATOM     56  C   UNL A   1      37.781  31.635  32.899  1.00  0.00     0.031 C 
ATOM     57  C   UNL A   1      40.279  27.773  27.750  1.00  0.00     0.029 A 
ATOM     58  C   UNL A   1      41.105  27.828  28.955  1.00  0.00     0.049 A 
ATOM     59  H   UNL A   1      40.646  28.772  30.754  1.00  0.00     0.167 HD
ATOM     60  C   UNL A   1      39.669  31.068  34.390  1.00  0.00     0.037 A 
ATOM     61  C   UNL A   1      42.316  27.257  29.115  1.00  0.00     0.037 A 
ATOM     62  C   UNL A   1      40.918  30.419  34.678  1.00  0.00     0.049 A 
ATOM     63  C   UNL A   1      43.044  27.434  30.425  1.00  0.00     0.074 A 
ATOM     64  C   UNL A   1      41.643  30.428  35.855  1.00  0.00     0.029 A 
ATOM     65  N   UNL A   1      41.633  29.651  33.770  1.00  0.00    -0.354 N 
ATOM     66  N   UNL A   1      42.668  28.080  31.503  1.00  0.00    -0.248 NA
ATOM     67  C   UNL A   1      44.366  26.800  30.540  1.00  0.00     0.031 C 
ATOM     68  C   UNL A   1      42.826  29.714  35.641  1.00  0.00     0.029 A 
ATOM     69  C   UNL A   1      42.806  29.204  34.352  1.00  0.00     0.049 A 
ATOM     70  H   UNL A   1      41.347  29.452  32.849  1.00  0.00     0.167 HD
ATOM     71  C   UNL A   1      43.687  27.901  32.432  1.00  0.00     0.074 A 
ATOM     72  C   UNL A   1      44.691  27.075  31.795  1.00  0.00     0.031 C 
ATOM     73  C   UNL A   1      43.786  28.373  33.700  1.00  0.00     0.037 A 
BRANCH  60  74
ATOM     74  C   UNL A   1      39.041  31.923  35.450  1.00  0.00     0.057 A 
ATOM     75  C   UNL A   1      38.216  31.388  36.448  1.00  0.00     0.134 A 
ATOM     76  C   UNL A   1      39.287  33.301  35.489  1.00  0.00     0.134 A 
ATOM     77  F   UNL A   1      37.921  30.078  36.457  1.00  0.00    -0.206 F 
ATOM     78  C   UNL A   1      37.643  32.195  37.434  1.00  0.00     0.040 A 
ATOM     79  C   UNL A   1      38.745  34.114  36.486  1.00  0.00     0.040 A 
ATOM     80  F   UNL A   1      40.064  33.881  34.561  1.00  0.00    -0.206 F 
ATOM     81  C   UNL A   1      37.916  33.561  37.459  1.00  0.00     0.006 A 
ENDBRANCH  60  74
BRANCH  61  82
ATOM     82  C   UNL A   1      42.937  26.488  28.003  1.00  0.00     0.057 A 
ATOM     83  C   UNL A   1      42.738  25.108  27.874  1.00  0.00     0.134 A 
ATOM     84  C   UNL A   1      43.778  27.106  27.068  1.00  0.00     0.134 A 
ATOM     85  F   UNL A   1      41.967  24.453  28.754  1.00  0.00    -0.206 F 
ATOM     86  C   UNL A   1      43.368  24.367  26.872  1.00  0.00     0.040 A 
ATOM     87  C   UNL A   1      44.391  26.382  26.043  1.00  0.00     0.040 A 
ATOM     88  F   UNL A   1      44.014  28.424  27.135  1.00  0.00    -0.206 F 
ATOM     89  C   UNL A   1      44.194  25.006  25.950  1.00  0.00     0.006 A 
ENDBRANCH  61  82
BRANCH  73  90
ATOM     90  C   UNL A   1      44.994  27.970  34.497  1.00  0.00     0.057 A 
ATOM     91  C   UNL A   1      46.154  28.754  34.540  1.00  0.00     0.134 A 
ATOM     92  C   UNL A   1      44.976  26.802  35.272  1.00  0.00     0.134 A 
ATOM     93  F   UNL A   1      46.241  29.880  33.815  1.00  0.00    -0.206 F 
ATOM     94  C   UNL A   1      47.262  28.375  35.300  1.00  0.00     0.040 A 
ATOM     95  C   UNL A   1      46.063  26.431  36.061  1.00  0.00     0.040 A 
ATOM     96  F   UNL A   1      43.890  26.013  35.289  1.00  0.00    -0.206 F 
ATOM     97  C   UNL A   1      47.216  27.214  36.070  1.00  0.00     0.006 A 
ENDBRANCH  73  90
ENDBRANCH  47  48
ENDBRANCH  40  42
ENDBRANCH  39  40
ENDBRANCH  38  39
ENDBRANCH  37  38
ENDBRANCH  36  37
ENDBRANCH  35  36
ENDBRANCH  34  35
ENDBRANCH   1  34
TORSDOF 23
ENDMDL
MODEL 3
REMARK VINA RESULT:     -10.4      1.681      2.214
REMARK SMILES [NH3+][C@@]1(C(=O)OCCOCCOCCOC(=O)c2ccc(-c3c4nc(c(-c5c(F)cccc5F)c5ccc([nH]5)c(-c5c(F)cccc5F)c5nc(c(-c6c(F)cccc6F)c6ccc3[nH]6)C=C5)C=C4)cc2)CC[N@H+](Cc2ccc(OCC(=O)N3CCCCC3)cc2)C1
REMARK SMILES IDX 8 1 7 2 6 3 5 4 3 5 4 6 2 7 71 8 91 9 72 10 73 11 1 13 74 17
REMARK SMILES IDX 75 18 76 19 90 20 77 21 89 22 78 23 79 24 80 25 81 26 82 27
REMARK SMILES IDX 83 28 84 29 88 30 85 31 87 32 86 33 9 34 10 35 11 36 12 37
REMARK SMILES IDX 13 38 14 39 15 40 16 41 17 42 18 43 70 44 19 45 69 46 20 47
REMARK SMILES IDX 21 48 22 49 63 50 23 51 68 52 62 53 64 54 24 55 67 56 61 57
REMARK SMILES IDX 60 58 25 60 51 61 34 62 50 63 35 64 38 65 49 66 65 67 36 68
REMARK SMILES IDX 37 69 48 71 66 72 39 73 26 74 27 75 32 76 28 77 29 78 31 79
REMARK SMILES IDX 33 80 30 81 52 82 53 83 58 84 54 85 55 86 57 87 59 88 56 89
REMARK SMILES IDX 40 90 41 91 46 92 42 93 43 94 45 95 47 96 44 97
REMARK H PARENT 73 12 1 14 1 15 1 16 64 59 38 70
REMARK Flexibility Score: inf
ROOT
ATOM      1  O   UNL A   1      30.809  27.076  24.770  1.00  0.00    -0.376 OA
ENDROOT
BRANCH   1   2
ATOM      2  C   UNL A   1      31.217  26.875  26.121  1.00  0.00     0.202 C 
BRANCH   2   3
ATOM      3  C   UNL A   1      31.790  25.492  26.425  1.00  0.00     0.261 C 
BRANCH   3   4
ATOM      4  O   UNL A   1      32.451  25.003  25.267  1.00  0.00    -0.458 OA
BRANCH   4   5
ATOM      5  C   UNL A   1      31.886  23.926  24.683  1.00  0.00     0.374 C 
ATOM      6  O   UNL A   1      30.836  23.399  25.035  1.00  0.00    -0.244 OA
BRANCH   5   7
ATOM      7  C   UNL A   1      32.652  23.536  23.407  1.00  0.00     0.246 C 
ATOM      8  C   UNL A   1      32.497  22.035  23.185  1.00  0.00     0.148 C 
ATOM      9  C   UNL A   1      34.184  23.659  23.564  1.00  0.00     0.344 C 
ATOM     10  C   UNL A   1      33.549  21.440  24.124  1.00  0.00     0.270 C 
ATOM     11  N   UNL A   1      34.644  22.396  24.137  1.00  0.00    -0.325 N 
ATOM     12  H   UNL A   1      35.357  21.995  23.528  1.00  0.00     0.348 HD
BRANCH   7  13
ATOM     13  N   UNL A   1      32.078  24.324  22.283  1.00  0.00    -0.338 N 
ATOM     14  H   UNL A   1      31.581  25.134  22.654  1.00  0.00     0.345 HD
ATOM     15  H   UNL A   1      31.429  23.740  21.756  1.00  0.00     0.345 HD
ATOM     16  H   UNL A   1      32.829  24.638  21.669  1.00  0.00     0.345 HD
ENDBRANCH   7  13
BRANCH  11  17
ATOM     17  C   UNL A   1      35.578  22.452  25.273  1.00  0.00     0.299 C 
BRANCH  17  18
ATOM     18  C   UNL A   1      36.858  21.615  25.260  1.00  0.00     0.006 A 
ATOM     19  C   UNL A   1      38.068  22.156  25.718  1.00  0.00     0.013 A 
ATOM     20  C   UNL A   1      36.919  20.309  24.748  1.00  0.00     0.013 A 
ATOM     21  C   UNL A   1      39.219  21.355  25.841  1.00  0.00     0.047 A 
ATOM     22  C   UNL A   1      38.052  19.482  24.936  1.00  0.00     0.047 A 
ATOM     23  C   UNL A   1      39.162  19.976  25.604  1.00  0.00     0.120 A 
BRANCH  23  24
ATOM     24  O   UNL A   1      40.152  19.253  26.217  1.00  0.00    -0.484 OA
BRANCH  24  25
ATOM     25  C   UNL A   1      41.477  19.738  26.395  1.00  0.00     0.329 C 
BRANCH  25  26
ATOM     26  C   UNL A   1      42.834  19.205  25.793  1.00  0.00     0.260 C 
ATOM     27  O   UNL A   1      43.044  17.985  25.851  1.00  0.00    -0.271 OA
ATOM     28  N   UNL A   1      43.735  20.040  25.118  1.00  0.00    -0.340 N 
ATOM     29  C   UNL A   1      44.725  19.428  24.224  1.00  0.00     0.119 C 
ATOM     30  C   UNL A   1      43.865  21.499  25.196  1.00  0.00     0.119 C 
ATOM     31  C   UNL A   1      46.153  19.710  24.677  1.00  0.00     0.022 C 
ATOM     32  C   UNL A   1      45.303  21.921  25.573  1.00  0.00     0.022 C 
ATOM     33  C   UNL A   1      46.410  21.210  24.800  1.00  0.00     0.004 C 
ENDBRANCH  25  26
ENDBRANCH  24  25
ENDBRANCH  23  24
ENDBRANCH  17  18
ENDBRANCH  11  17
ENDBRANCH   5   7
ENDBRANCH   4   5
ENDBRANCH   3   4
ENDBRANCH   2   3
ENDBRANCH   1   2
BRANCH   1  34
ATOM     34  C   UNL A   1      30.899  28.419  24.322  1.00  0.00     0.188 C 
BRANCH  34  35
ATOM     35  C   UNL A   1      32.315  29.015  24.305  1.00  0.00     0.188 C 
BRANCH  35  36
ATOM     36  O   UNL A   1      32.596  29.983  25.287  1.00  0.00    -0.376 OA
BRANCH  36  37
ATOM     37  C   UNL A   1      31.537  30.759  25.833  1.00  0.00     0.202 C 
BRANCH  37  38
ATOM     38  C   UNL A   1      31.696  31.951  26.807  1.00  0.00     0.261 C 
BRANCH  38  39
ATOM     39  O   UNL A   1      32.872  32.053  27.617  1.00  0.00    -0.460 OA
BRANCH  39  40
ATOM     40  C   UNL A   1      33.274  33.273  28.031  1.00  0.00     0.338 C 
ATOM     41  O   UNL A   1      32.620  34.302  28.044  1.00  0.00    -0.246 OA
BRANCH  40  42
ATOM     42  C   UNL A   1      34.583  33.085  28.704  1.00  0.00     0.060 A 
ATOM     43  C   UNL A   1      35.760  33.520  28.069  1.00  0.00     0.016 A 
ATOM     44  C   UNL A   1      34.636  32.554  29.993  1.00  0.00     0.016 A 
ATOM     45  C   UNL A   1      36.990  33.416  28.715  1.00  0.00     0.010 A 
ATOM     46  C   UNL A   1      35.874  32.396  30.618  1.00  0.00     0.010 A 
ATOM     47  C   UNL A   1      37.057  32.798  29.968  1.00  0.00    -0.014 A 
BRANCH  47  48
ATOM     48  C   UNL A   1      38.360  32.302  30.467  1.00  0.00     0.031 A 
ATOM     49  C   UNL A   1      38.890  31.035  29.853  1.00  0.00     0.074 A 
ATOM     50  C   UNL A   1      39.045  32.938  31.431  1.00  0.00     0.049 A 
ATOM     51  N   UNL A   1      39.932  30.320  30.185  1.00  0.00    -0.248 NA
ATOM     52  C   UNL A   1      38.128  30.497  28.712  1.00  0.00     0.031 C 
ATOM     53  C   UNL A   1      38.658  34.199  32.058  1.00  0.00     0.029 A 
ATOM     54  N   UNL A   1      40.210  32.587  32.065  1.00  0.00    -0.354 N 
ATOM     55  C   UNL A   1      39.939  29.243  29.307  1.00  0.00     0.074 A 
ATOM     56  C   UNL A   1      38.788  29.382  28.445  1.00  0.00     0.031 C 
ATOM     57  C   UNL A   1      39.558  34.503  33.012  1.00  0.00     0.029 A 
ATOM     58  C   UNL A   1      40.558  33.438  33.084  1.00  0.00     0.049 A 
ATOM     59  H   UNL A   1      40.745  31.798  31.813  1.00  0.00     0.167 HD
ATOM     60  C   UNL A   1      40.829  28.228  29.227  1.00  0.00     0.037 A 
ATOM     61  C   UNL A   1      41.552  33.341  33.990  1.00  0.00     0.037 A 
ATOM     62  C   UNL A   1      41.968  28.094  30.093  1.00  0.00     0.049 A 
ATOM     63  C   UNL A   1      42.486  32.158  33.932  1.00  0.00     0.074 A 
ATOM     64  C   UNL A   1      42.942  27.113  30.090  1.00  0.00     0.029 A 
ATOM     65  N   UNL A   1      42.279  28.968  31.125  1.00  0.00    -0.354 N 
ATOM     66  N   UNL A   1      42.500  31.151  33.089  1.00  0.00    -0.248 NA
ATOM     67  C   UNL A   1      43.544  32.096  34.951  1.00  0.00     0.031 C 
ATOM     68  C   UNL A   1      43.808  27.359  31.159  1.00  0.00     0.029 A 
ATOM     69  C   UNL A   1      43.413  28.532  31.785  1.00  0.00     0.049 A 
ATOM     70  H   UNL A   1      41.767  29.778  31.353  1.00  0.00     0.167 HD
ATOM     71  C   UNL A   1      43.584  30.361  33.454  1.00  0.00     0.074 A 
ATOM     72  C   UNL A   1      44.211  31.011  34.586  1.00  0.00     0.031 C 
ATOM     73  C   UNL A   1      44.026  29.202  32.904  1.00  0.00     0.037 A 
BRANCH  60  74
ATOM     74  C   UNL A   1      40.581  27.168  28.194  1.00  0.00     0.057 A 
ATOM     75  C   UNL A   1      41.196  27.197  26.935  1.00  0.00     0.134 A 
ATOM     76  C   UNL A   1      39.734  26.089  28.473  1.00  0.00     0.134 A 
ATOM     77  F   UNL A   1      42.002  28.214  26.594  1.00  0.00    -0.206 F 
ATOM     78  C   UNL A   1      40.962  26.200  25.985  1.00  0.00     0.040 A 
ATOM     79  C   UNL A   1      39.516  25.071  27.544  1.00  0.00     0.040 A 
ATOM     80  F   UNL A   1      39.110  26.001  29.658  1.00  0.00    -0.206 F 
ATOM     81  C   UNL A   1      40.127  25.128  26.294  1.00  0.00     0.006 A 
ENDBRANCH  60  74
BRANCH  61  82
ATOM     82  C   UNL A   1      41.706  34.373  35.049  1.00  0.00     0.057 A 
ATOM     83  C   UNL A   1      40.991  34.295  36.251  1.00  0.00     0.134 A 
ATOM     84  C   UNL A   1      42.540  35.484  34.871  1.00  0.00     0.134 A 
ATOM     85  F   UNL A   1      40.155  33.270  36.472  1.00  0.00    -0.206 F 
ATOM     86  C   UNL A   1      41.081  35.292  37.224  1.00  0.00     0.040 A 
ATOM     87  C   UNL A   1      42.662  36.475  35.848  1.00  0.00     0.040 A 
ATOM     88  F   UNL A   1      43.252  35.624  33.743  1.00  0.00    -0.206 F 
ATOM     89  C   UNL A   1      41.923  36.384  37.025  1.00  0.00     0.006 A 
ENDBRANCH  61  82
BRANCH  73  90
ATOM     90  C   UNL A   1      45.269  28.590  33.484  1.00  0.00     0.057 A 
ATOM     91  C   UNL A   1      46.550  28.944  33.042  1.00  0.00     0.134 A 
ATOM     92  C   UNL A   1      45.181  27.665  34.534  1.00  0.00     0.134 A 
ATOM     93  F   UNL A   1      46.706  29.817  32.035  1.00  0.00    -0.206 F 
ATOM     94  C   UNL A   1      47.697  28.379  33.604  1.00  0.00     0.040 A 
ATOM     95  C   UNL A   1      46.320  27.120  35.125  1.00  0.00     0.040 A 
ATOM     96  F   UNL A   1      43.985  27.293  35.016  1.00  0.00    -0.206 F 
ATOM     97  C   UNL A   1      47.584  27.470  34.654  1.00  0.00     0.006 A 
ENDBRANCH  73  90
ENDBRANCH  47  48
ENDBRANCH  40  42
ENDBRANCH  39  40
ENDBRANCH  38  39
ENDBRANCH  37  38
ENDBRANCH  36  37
ENDBRANCH  35  36
ENDBRANCH  34  35
ENDBRANCH   1  34
TORSDOF 23
ENDMDL
