MODEL 1
REMARK VINA RESULT:     -10.8      0.000      0.000
REMARK SMILES COc1ccc2[nH]c(C(=O)c3cc(C)ccn3)c(CC(=O)OCCOCCOCCOC(=O)c3ccc(-c4c5nc(c(-c6c(F)cccc6F)c6ccc([nH]6)c(-c6c(F)cccc6F)c6nc(c(-c7c(F)cccc7F)c7ccc4[nH]7)C=C6)C=C5)cc3)c2c1
REMARK SMILES IDX 26 1 25 2 24 3 23 4 22 5 20 6 21 7 19 8 18 9 3 10 4 11 89 12
REMARK SMILES IDX 5 13 88 14 6 15 7 16 8 17 2 19 1 20 9 21 10 22 11 23 12 24
REMARK SMILES IDX 17 25 13 26 16 27 14 28 15 29 27 30 28 31 29 32 30 33 31 34
REMARK SMILES IDX 32 35 33 36 34 37 35 38 87 39 36 40 86 41 37 42 38 43 39 44
REMARK SMILES IDX 80 45 40 46 85 47 79 48 81 49 41 50 84 51 78 52 77 53 42 55
REMARK SMILES IDX 68 56 51 57 67 58 52 59 55 60 66 61 82 62 53 63 54 64 65 66
REMARK SMILES IDX 83 67 56 68 43 69 44 70 49 71 45 72 46 73 48 74 50 75 47 76
REMARK SMILES IDX 69 77 70 78 75 79 71 80 72 81 74 82 76 83 73 84 57 85 58 86
REMARK SMILES IDX 63 87 59 88 60 89 62 90 64 91 61 92
REMARK H PARENT 7 18 81 54 55 65
REMARK Flexibility Score: inf
ROOT
ATOM      1  C   UNL A   1      39.239  21.116  25.749  1.00  0.00     0.188 C 
ENDROOT
BRANCH   1   2
ATOM      2  O   UNL A   1      38.250  20.276  25.158  1.00  0.00    -0.376 OA
BRANCH   2   3
ATOM      3  C   UNL A   1      37.055  20.883  24.682  1.00  0.00     0.202 C 
BRANCH   3   4
ATOM      4  C   UNL A   1      36.745  22.269  25.260  1.00  0.00     0.261 C 
BRANCH   4   5
ATOM      5  O   UNL A   1      36.667  23.283  24.233  1.00  0.00    -0.463 OA
BRANCH   5   6
ATOM      6  C   UNL A   1      35.512  23.994  24.159  1.00  0.00     0.310 C 
ATOM      7  O   UNL A   1      34.782  23.995  23.170  1.00  0.00    -0.252 OA
BRANCH   6   8
ATOM      8  C   UNL A   1      35.087  24.643  25.470  1.00  0.00     0.161 C 
BRANCH   8   9
ATOM      9  C   UNL A   1      33.624  24.635  25.856  1.00  0.00     0.000 A 
ATOM     10  C   UNL A   1      31.543  27.459  24.343  1.00  0.00     0.119 A 
ATOM     11  C   UNL A   1      30.306  26.991  24.783  1.00  0.00     0.048 A 
ATOM     12  C   UNL A   1      32.728  26.796  24.683  1.00  0.00     0.057 A 
ATOM     13  C   UNL A   1      30.220  25.869  25.610  1.00  0.00     0.030 A 
ATOM     14  C   UNL A   1      32.661  25.629  25.469  1.00  0.00     0.008 A 
ATOM     15  C   UNL A   1      31.413  25.207  25.919  1.00  0.00     0.046 A 
ATOM     16  N   UNL A   1      31.615  24.054  26.633  1.00  0.00    -0.352 N 
ATOM     17  C   UNL A   1      32.878  23.565  26.374  1.00  0.00     0.093 A 
ATOM     18  H   UNL A   1      30.960  23.639  27.239  1.00  0.00     0.167 HD
BRANCH  10  19
ATOM     19  O   UNL A   1      31.677  28.510  23.474  1.00  0.00    -0.497 OA
ATOM     20  C   UNL A   1      30.426  29.010  23.011  1.00  0.00     0.278 C 
ENDBRANCH  10  19
BRANCH  17  21
ATOM     21  C   UNL A   1      33.240  22.165  26.533  1.00  0.00     0.227 C 
ATOM     22  O   UNL A   1      33.714  21.708  27.570  1.00  0.00    -0.285 OA
BRANCH  21  23
ATOM     23  C   UNL A   1      33.097  21.238  25.372  1.00  0.00     0.113 A 
ATOM     24  C   UNL A   1      33.553  19.926  25.459  1.00  0.00     0.036 A 
ATOM     25  N   UNL A   1      32.443  21.743  24.295  1.00  0.00    -0.253 NA
ATOM     26  C   UNL A   1      33.295  19.064  24.388  1.00  0.00    -0.047 A 
ATOM     27  C   UNL A   1      32.149  20.868  23.308  1.00  0.00     0.112 A 
ATOM     28  C   UNL A   1      33.782  17.644  24.374  1.00  0.00     0.044 C 
ATOM     29  C   UNL A   1      32.540  19.540  23.313  1.00  0.00     0.023 A 
ENDBRANCH  21  23
ENDBRANCH  17  21
ENDBRANCH   8   9
ENDBRANCH   6   8
ENDBRANCH   5   6
ENDBRANCH   4   5
ENDBRANCH   3   4
ENDBRANCH   2   3
ENDBRANCH   1   2
BRANCH   1  30
ATOM     30  C   UNL A   1      40.422  20.467  26.500  1.00  0.00     0.188 C 
BRANCH  30  31
ATOM     31  O   UNL A   1      41.344  19.809  25.638  1.00  0.00    -0.376 OA
BRANCH  31  32
ATOM     32  C   UNL A   1      42.653  19.672  26.174  1.00  0.00     0.202 C 
BRANCH  32  33
ATOM     33  C   UNL A   1      43.586  20.771  25.672  1.00  0.00     0.261 C 
BRANCH  33  34
ATOM     34  O   UNL A   1      43.344  22.015  26.364  1.00  0.00    -0.460 OA
BRANCH  34  35
ATOM     35  C   UNL A   1      42.968  23.081  25.630  1.00  0.00     0.338 C 
ATOM     36  O   UNL A   1      42.885  23.136  24.416  1.00  0.00    -0.246 OA
BRANCH  35  37
ATOM     37  C   UNL A   1      42.707  24.244  26.519  1.00  0.00     0.060 A 
ATOM     38  C   UNL A   1      43.292  25.496  26.305  1.00  0.00     0.016 A 
ATOM     39  C   UNL A   1      41.919  24.050  27.650  1.00  0.00     0.016 A 
ATOM     40  C   UNL A   1      43.126  26.532  27.229  1.00  0.00     0.010 A 
ATOM     41  C   UNL A   1      41.698  25.108  28.541  1.00  0.00     0.010 A 
ATOM     42  C   UNL A   1      42.305  26.361  28.346  1.00  0.00    -0.014 A 
BRANCH  42  43
ATOM     43  C   UNL A   1      42.044  27.469  29.306  1.00  0.00     0.031 A 
ATOM     44  C   UNL A   1      42.852  27.584  30.567  1.00  0.00     0.074 A 
ATOM     45  C   UNL A   1      41.038  28.340  29.091  1.00  0.00     0.049 A 
ATOM     46  N   UNL A   1      42.589  28.247  31.665  1.00  0.00    -0.248 NA
ATOM     47  C   UNL A   1      44.128  26.853  30.595  1.00  0.00     0.031 C 
ATOM     48  C   UNL A   1      40.224  28.420  27.879  1.00  0.00     0.029 A 
ATOM     49  N   UNL A   1      40.508  29.308  29.911  1.00  0.00    -0.354 N 
ATOM     50  C   UNL A   1      43.638  27.976  32.533  1.00  0.00     0.074 A 
ATOM     51  C   UNL A   1      44.549  27.094  31.829  1.00  0.00     0.031 C 
ATOM     52  C   UNL A   1      39.290  29.370  28.039  1.00  0.00     0.029 A 
ATOM     53  C   UNL A   1      39.378  29.897  29.396  1.00  0.00     0.049 A 
ATOM     54  H   UNL A   1      40.899  29.554  30.781  1.00  0.00     0.167 HD
ATOM     55  C   UNL A   1      43.814  28.414  33.804  1.00  0.00     0.037 A 
ATOM     56  C   UNL A   1      38.468  30.708  29.967  1.00  0.00     0.037 A 
ATOM     57  C   UNL A   1      42.917  29.312  34.488  1.00  0.00     0.049 A 
ATOM     58  C   UNL A   1      38.619  31.090  31.412  1.00  0.00     0.074 A 
ATOM     59  C   UNL A   1      43.016  29.816  35.774  1.00  0.00     0.029 A 
ATOM     60  N   UNL A   1      41.758  29.841  33.943  1.00  0.00    -0.354 N 
ATOM     61  N   UNL A   1      39.572  30.779  32.255  1.00  0.00    -0.248 NA
ATOM     62  C   UNL A   1      37.549  31.915  31.993  1.00  0.00     0.031 C 
ATOM     63  C   UNL A   1      41.891  30.611  36.024  1.00  0.00     0.029 A 
ATOM     64  C   UNL A   1      41.117  30.641  34.876  1.00  0.00     0.049 A 
ATOM     65  H   UNL A   1      41.437  29.673  33.027  1.00  0.00     0.167 HD
ATOM     66  C   UNL A   1      39.225  31.378  33.459  1.00  0.00     0.074 A 
ATOM     67  C   UNL A   1      37.984  32.088  33.232  1.00  0.00     0.031 C 
ATOM     68  C   UNL A   1      39.877  31.338  34.647  1.00  0.00     0.037 A 
BRANCH  55  69
ATOM     69  C   UNL A   1      44.997  27.889  34.565  1.00  0.00     0.057 A 
ATOM     70  C   UNL A   1      46.219  28.567  34.611  1.00  0.00     0.134 A 
ATOM     71  C   UNL A   1      44.885  26.707  35.310  1.00  0.00     0.134 A 
ATOM     72  F   UNL A   1      46.398  29.697  33.909  1.00  0.00    -0.206 F 
ATOM     73  C   UNL A   1      47.295  28.083  35.359  1.00  0.00     0.040 A 
ATOM     74  C   UNL A   1      45.944  26.225  36.081  1.00  0.00     0.040 A 
ATOM     75  F   UNL A   1      43.739  26.010  35.316  1.00  0.00    -0.206 F 
ATOM     76  C   UNL A   1      47.155  26.912  36.103  1.00  0.00     0.006 A 
ENDBRANCH  55  69
BRANCH  56  77
ATOM     77  C   UNL A   1      37.283  31.148  29.188  1.00  0.00     0.057 A 
ATOM     78  C   UNL A   1      37.188  32.452  28.690  1.00  0.00     0.134 A 
ATOM     79  C   UNL A   1      36.217  30.277  28.926  1.00  0.00     0.134 A 
ATOM     80  F   UNL A   1      38.161  33.341  28.936  1.00  0.00    -0.206 F 
ATOM     81  C   UNL A   1      36.075  32.875  27.960  1.00  0.00     0.040 A 
ATOM     82  C   UNL A   1      35.113  30.678  28.173  1.00  0.00     0.040 A 
ATOM     83  F   UNL A   1      36.244  29.016  29.383  1.00  0.00    -0.206 F 
ATOM     84  C   UNL A   1      35.039  31.983  27.693  1.00  0.00     0.006 A 
ENDBRANCH  56  77
BRANCH  68  85
ATOM     85  C   UNL A   1      39.267  32.100  35.786  1.00  0.00     0.057 A 
ATOM     86  C   UNL A   1      39.593  33.439  36.036  1.00  0.00     0.134 A 
ATOM     87  C   UNL A   1      38.328  31.495  36.632  1.00  0.00     0.134 A 
ATOM     88  F   UNL A   1      40.497  34.073  35.273  1.00  0.00    -0.206 F 
ATOM     89  C   UNL A   1      39.025  34.142  37.101  1.00  0.00     0.040 A 
ATOM     90  C   UNL A   1      37.735  32.195  37.683  1.00  0.00     0.040 A 
ATOM     91  F   UNL A   1      37.965  30.218  36.444  1.00  0.00    -0.206 F 
ATOM     92  C   UNL A   1      38.088  33.521  37.925  1.00  0.00     0.006 A 
ENDBRANCH  68  85
ENDBRANCH  42  43
ENDBRANCH  35  37
ENDBRANCH  34  35
ENDBRANCH  33  34
ENDBRANCH  32  33
ENDBRANCH  31  32
ENDBRANCH  30  31
ENDBRANCH   1  30
TORSDOF 21
ENDMDL
MODEL 2
REMARK VINA RESULT:     -10.7      3.540      8.677
REMARK SMILES COc1ccc2[nH]c(C(=O)c3cc(C)ccn3)c(CC(=O)OCCOCCOCCOC(=O)c3ccc(-c4c5nc(c(-c6c(F)cccc6F)c6ccc([nH]6)c(-c6c(F)cccc6F)c6nc(c(-c7c(F)cccc7F)c7ccc4[nH]7)C=C6)C=C5)cc3)c2c1
REMARK SMILES IDX 26 1 25 2 24 3 23 4 22 5 20 6 21 7 19 8 18 9 3 10 4 11 89 12
REMARK SMILES IDX 5 13 88 14 6 15 7 16 8 17 2 19 1 20 9 21 10 22 11 23 12 24
REMARK SMILES IDX 17 25 13 26 16 27 14 28 15 29 27 30 28 31 29 32 30 33 31 34
REMARK SMILES IDX 32 35 33 36 34 37 35 38 87 39 36 40 86 41 37 42 38 43 39 44
REMARK SMILES IDX 80 45 40 46 85 47 79 48 81 49 41 50 84 51 78 52 77 53 42 55
REMARK SMILES IDX 68 56 51 57 67 58 52 59 55 60 66 61 82 62 53 63 54 64 65 66
REMARK SMILES IDX 83 67 56 68 43 69 44 70 49 71 45 72 46 73 48 74 50 75 47 76
REMARK SMILES IDX 69 77 70 78 75 79 71 80 72 81 74 82 76 83 73 84 57 85 58 86
REMARK SMILES IDX 63 87 59 88 60 89 62 90 64 91 61 92
REMARK H PARENT 7 18 81 54 55 65
REMARK Flexibility Score: inf
ROOT
ATOM      1  C   UNL A   1      33.363  32.608  28.061  1.00  0.00     0.188 C 
ENDROOT
BRANCH   1   2
ATOM      2  O   UNL A   1      34.713  32.151  28.026  1.00  0.00    -0.376 OA
BRANCH   2   3
ATOM      3  C   UNL A   1      34.945  30.749  28.090  1.00  0.00     0.202 C 
BRANCH   3   4
ATOM      4  C   UNL A   1      34.514  29.952  26.854  1.00  0.00     0.261 C 
BRANCH   4   5
ATOM      5  O   UNL A   1      34.336  28.547  27.144  1.00  0.00    -0.463 OA
BRANCH   5   6
ATOM      6  C   UNL A   1      33.065  28.068  27.110  1.00  0.00     0.310 C 
ATOM      7  O   UNL A   1      32.110  28.653  27.614  1.00  0.00    -0.252 OA
BRANCH   6   8
ATOM      8  C   UNL A   1      32.879  26.840  26.228  1.00  0.00     0.161 C 
BRANCH   8   9
ATOM      9  C   UNL A   1      31.484  26.447  25.796  1.00  0.00     0.000 A 
ATOM     10  C   UNL A   1      29.880  28.768  23.222  1.00  0.00     0.119 A 
ATOM     11  C   UNL A   1      28.753  27.982  22.985  1.00  0.00     0.048 A 
ATOM     12  C   UNL A   1      30.833  28.395  24.176  1.00  0.00     0.057 A 
ATOM     13  C   UNL A   1      28.526  26.820  23.726  1.00  0.00     0.030 A 
ATOM     14  C   UNL A   1      30.655  27.197  24.894  1.00  0.00     0.008 A 
ATOM     15  C   UNL A   1      29.503  26.452  24.658  1.00  0.00     0.046 A 
ATOM     16  N   UNL A   1      29.578  25.338  25.454  1.00  0.00    -0.352 N 
ATOM     17  C   UNL A   1      30.866  25.193  25.927  1.00  0.00     0.093 A 
ATOM     18  H   UNL A   1      28.829  24.734  25.658  1.00  0.00     0.167 HD
BRANCH  10  19
ATOM     19  O   UNL A   1      30.184  29.876  22.476  1.00  0.00    -0.497 OA
ATOM     20  C   UNL A   1      29.081  30.350  21.708  1.00  0.00     0.278 C 
ENDBRANCH  10  19
BRANCH  17  21
ATOM     21  C   UNL A   1      31.422  23.918  26.351  1.00  0.00     0.227 C 
ATOM     22  O   UNL A   1      31.600  23.624  27.531  1.00  0.00    -0.285 OA
BRANCH  21  23
ATOM     23  C   UNL A   1      31.863  22.934  25.320  1.00  0.00     0.113 A 
ATOM     24  C   UNL A   1      32.293  21.665  25.696  1.00  0.00     0.036 A 
ATOM     25  N   UNL A   1      31.741  23.342  24.031  1.00  0.00    -0.253 NA
ATOM     26  C   UNL A   1      32.589  20.741  24.688  1.00  0.00    -0.047 A 
ATOM     27  C   UNL A   1      31.968  22.406  23.082  1.00  0.00     0.112 A 
ATOM     28  C   UNL A   1      33.098  19.363  24.996  1.00  0.00     0.044 C 
ATOM     29  C   UNL A   1      32.377  21.112  23.358  1.00  0.00     0.023 A 
ENDBRANCH  21  23
ENDBRANCH  17  21
ENDBRANCH   8   9
ENDBRANCH   6   8
ENDBRANCH   5   6
ENDBRANCH   4   5
ENDBRANCH   3   4
ENDBRANCH   2   3
ENDBRANCH   1   2
BRANCH   1  30
ATOM     30  C   UNL A   1      33.085  34.127  28.030  1.00  0.00     0.188 C 
BRANCH  30  31
ATOM     31  O   UNL A   1      33.840  34.858  28.989  1.00  0.00    -0.376 OA
BRANCH  31  32
ATOM     32  C   UNL A   1      33.793  36.268  28.823  1.00  0.00     0.202 C 
BRANCH  32  33
ATOM     33  C   UNL A   1      33.163  36.958  30.029  1.00  0.00     0.261 C 
BRANCH  33  34
ATOM     34  O   UNL A   1      32.435  36.016  30.846  1.00  0.00    -0.460 OA
BRANCH  34  35
ATOM     35  C   UNL A   1      32.557  36.117  32.185  1.00  0.00     0.338 C 
ATOM     36  O   UNL A   1      31.880  36.805  32.928  1.00  0.00    -0.246 OA
BRANCH  35  37
ATOM     37  C   UNL A   1      33.701  35.291  32.654  1.00  0.00     0.060 A 
ATOM     38  C   UNL A   1      35.013  35.774  32.676  1.00  0.00     0.016 A 
ATOM     39  C   UNL A   1      33.462  33.965  33.003  1.00  0.00     0.016 A 
ATOM     40  C   UNL A   1      36.081  34.933  33.003  1.00  0.00     0.010 A 
ATOM     41  C   UNL A   1      34.524  33.140  33.396  1.00  0.00     0.010 A 
ATOM     42  C   UNL A   1      35.850  33.612  33.394  1.00  0.00    -0.014 A 
BRANCH  42  43
ATOM     43  C   UNL A   1      36.957  32.714  33.824  1.00  0.00     0.031 A 
ATOM     44  C   UNL A   1      37.660  32.951  35.130  1.00  0.00     0.074 A 
ATOM     45  C   UNL A   1      37.387  31.722  33.020  1.00  0.00     0.049 A 
ATOM     46  N   UNL A   1      38.825  32.515  35.538  1.00  0.00    -0.248 NA
ATOM     47  C   UNL A   1      36.955  33.794  36.109  1.00  0.00     0.031 C 
ATOM     48  C   UNL A   1      36.756  31.305  31.767  1.00  0.00     0.029 A 
ATOM     49  N   UNL A   1      38.487  30.904  33.126  1.00  0.00    -0.354 N 
ATOM     50  C   UNL A   1      39.018  33.067  36.797  1.00  0.00     0.074 A 
ATOM     51  C   UNL A   1      37.843  33.864  37.091  1.00  0.00     0.031 C 
ATOM     52  C   UNL A   1      37.484  30.324  31.214  1.00  0.00     0.029 A 
ATOM     53  C   UNL A   1      38.681  30.110  32.020  1.00  0.00     0.049 A 
ATOM     54  H   UNL A   1      39.077  30.889  33.914  1.00  0.00     0.167 HD
ATOM     55  C   UNL A   1      40.085  32.930  37.622  1.00  0.00     0.037 A 
ATOM     56  C   UNL A   1      39.732  29.353  31.651  1.00  0.00     0.037 A 
ATOM     57  C   UNL A   1      41.239  32.115  37.334  1.00  0.00     0.049 A 
ATOM     58  C   UNL A   1      40.953  29.305  32.525  1.00  0.00     0.074 A 
ATOM     59  C   UNL A   1      42.365  31.908  38.112  1.00  0.00     0.029 A 
ATOM     60  N   UNL A   1      41.414  31.369  36.179  1.00  0.00    -0.354 N 
ATOM     61  N   UNL A   1      41.166  29.881  33.682  1.00  0.00    -0.248 NA
ATOM     62  C   UNL A   1      42.092  28.521  32.026  1.00  0.00     0.031 C 
ATOM     63  C   UNL A   1      43.243  31.078  37.406  1.00  0.00     0.029 A 
ATOM     64  C   UNL A   1      42.641  30.728  36.209  1.00  0.00     0.049 A 
ATOM     65  H   UNL A   1      40.760  31.305  35.444  1.00  0.00     0.167 HD
ATOM     66  C   UNL A   1      42.455  29.522  34.055  1.00  0.00     0.074 A 
ATOM     67  C   UNL A   1      42.968  28.660  33.010  1.00  0.00     0.031 C 
ATOM     68  C   UNL A   1      43.150  29.878  35.162  1.00  0.00     0.037 A 
BRANCH  55  69
ATOM     69  C   UNL A   1      40.085  33.719  38.899  1.00  0.00     0.057 A 
ATOM     70  C   UNL A   1      39.458  33.262  40.063  1.00  0.00     0.134 A 
ATOM     71  C   UNL A   1      40.776  34.937  38.973  1.00  0.00     0.134 A 
ATOM     72  F   UNL A   1      38.768  32.111  40.057  1.00  0.00    -0.206 F 
ATOM     73  C   UNL A   1      39.506  33.992  41.253  1.00  0.00     0.040 A 
ATOM     74  C   UNL A   1      40.851  35.664  40.162  1.00  0.00     0.040 A 
ATOM     75  F   UNL A   1      41.405  35.430  37.896  1.00  0.00    -0.206 F 
ATOM     76  C   UNL A   1      40.211  35.194  41.305  1.00  0.00     0.006 A 
ENDBRANCH  55  69
BRANCH  56  77
ATOM     77  C   UNL A   1      39.706  28.642  30.348  1.00  0.00     0.057 A 
ATOM     78  C   UNL A   1      39.162  27.358  30.235  1.00  0.00     0.134 A 
ATOM     79  C   UNL A   1      40.226  29.228  29.186  1.00  0.00     0.134 A 
ATOM     80  F   UNL A   1      38.679  26.732  31.318  1.00  0.00    -0.206 F 
ATOM     81  C   UNL A   1      39.137  26.681  29.014  1.00  0.00     0.040 A 
ATOM     82  C   UNL A   1      40.181  28.575  27.955  1.00  0.00     0.040 A 
ATOM     83  F   UNL A   1      40.769  30.454  29.230  1.00  0.00    -0.206 F 
ATOM     84  C   UNL A   1      39.640  27.294  27.869  1.00  0.00     0.006 A 
ENDBRANCH  56  77
BRANCH  68  85
ATOM     85  C   UNL A   1      44.535  29.320  35.307  1.00  0.00     0.057 A 
ATOM     86  C   UNL A   1      44.772  28.086  35.926  1.00  0.00     0.134 A 
ATOM     87  C   UNL A   1      45.644  30.014  34.806  1.00  0.00     0.134 A 
ATOM     88  F   UNL A   1      43.755  27.378  36.442  1.00  0.00    -0.206 F 
ATOM     89  C   UNL A   1      46.064  27.573  36.063  1.00  0.00     0.040 A 
ATOM     90  C   UNL A   1      46.937  29.500  34.913  1.00  0.00     0.040 A 
ATOM     91  F   UNL A   1      45.487  31.198  34.195  1.00  0.00    -0.206 F 
ATOM     92  C   UNL A   1      47.151  28.280  35.550  1.00  0.00     0.006 A 
ENDBRANCH  68  85
ENDBRANCH  42  43
ENDBRANCH  35  37
ENDBRANCH  34  35
ENDBRANCH  33  34
ENDBRANCH  32  33
ENDBRANCH  31  32
ENDBRANCH  30  31
ENDBRANCH   1  30
TORSDOF 21
ENDMDL
MODEL 3
REMARK VINA RESULT:     -10.6      4.150      9.210
REMARK SMILES COc1ccc2[nH]c(C(=O)c3cc(C)ccn3)c(CC(=O)OCCOCCOCCOC(=O)c3ccc(-c4c5nc(c(-c6c(F)cccc6F)c6ccc([nH]6)c(-c6c(F)cccc6F)c6nc(c(-c7c(F)cccc7F)c7ccc4[nH]7)C=C6)C=C5)cc3)c2c1
REMARK SMILES IDX 26 1 25 2 24 3 23 4 22 5 20 6 21 7 19 8 18 9 3 10 4 11 89 12
REMARK SMILES IDX 5 13 88 14 6 15 7 16 8 17 2 19 1 20 9 21 10 22 11 23 12 24
REMARK SMILES IDX 17 25 13 26 16 27 14 28 15 29 27 30 28 31 29 32 30 33 31 34
REMARK SMILES IDX 32 35 33 36 34 37 35 38 87 39 36 40 86 41 37 42 38 43 39 44
REMARK SMILES IDX 80 45 40 46 85 47 79 48 81 49 41 50 84 51 78 52 77 53 42 55
REMARK SMILES IDX 68 56 51 57 67 58 52 59 55 60 66 61 82 62 53 63 54 64 65 66
REMARK SMILES IDX 83 67 56 68 43 69 44 70 49 71 45 72 46 73 48 74 50 75 47 76
REMARK SMILES IDX 69 77 70 78 75 79 71 80 72 81 74 82 76 83 73 84 57 85 58 86
REMARK SMILES IDX 63 87 59 88 60 89 62 90 64 91 61 92
REMARK H PARENT 7 18 81 54 55 65
REMARK Flexibility Score: inf
ROOT
ATOM      1  C   UNL A   1      33.978  27.086  24.932  1.00  0.00     0.188 C 
ENDROOT
BRANCH   1   2
ATOM      2  O   UNL A   1      34.219  25.801  24.361  1.00  0.00    -0.376 OA
BRANCH   2   3
ATOM      3  C   UNL A   1      34.948  24.854  25.132  1.00  0.00     0.202 C 
BRANCH   3   4
ATOM      4  C   UNL A   1      34.154  24.155  26.242  1.00  0.00     0.261 C 
BRANCH   4   5
ATOM      5  O   UNL A   1      34.951  23.181  26.952  1.00  0.00    -0.463 OA
BRANCH   5   6
ATOM      6  C   UNL A   1      35.094  21.962  26.370  1.00  0.00     0.310 C 
ATOM      7  O   UNL A   1      36.182  21.491  26.048  1.00  0.00    -0.252 OA
BRANCH   6   8
ATOM      8  C   UNL A   1      33.816  21.135  26.319  1.00  0.00     0.161 C 
BRANCH   8   9
ATOM      9  C   UNL A   1      33.220  20.781  24.975  1.00  0.00     0.000 A 
ATOM     10  C   UNL A   1      33.705  17.147  23.904  1.00  0.00     0.119 A 
ATOM     11  C   UNL A   1      32.893  17.210  22.772  1.00  0.00     0.048 A 
ATOM     12  C   UNL A   1      33.939  18.282  24.688  1.00  0.00     0.057 A 
ATOM     13  C   UNL A   1      32.327  18.420  22.367  1.00  0.00     0.030 A 
ATOM     14  C   UNL A   1      33.331  19.501  24.331  1.00  0.00     0.008 A 
ATOM     15  C   UNL A   1      32.554  19.538  23.176  1.00  0.00     0.046 A 
ATOM     16  N   UNL A   1      32.065  20.814  23.066  1.00  0.00    -0.352 N 
ATOM     17  C   UNL A   1      32.232  21.479  24.262  1.00  0.00     0.093 A 
ATOM     18  H   UNL A   1      31.656  21.197  22.256  1.00  0.00     0.167 HD
BRANCH  10  19
ATOM     19  O   UNL A   1      34.225  15.973  24.383  1.00  0.00    -0.497 OA
ATOM     20  C   UNL A   1      33.345  15.300  25.278  1.00  0.00     0.278 C 
ENDBRANCH  10  19
BRANCH  17  21
ATOM     21  C   UNL A   1      31.414  22.611  24.668  1.00  0.00     0.227 C 
ATOM     22  O   UNL A   1      30.724  22.611  25.685  1.00  0.00    -0.285 OA
BRANCH  21  23
ATOM     23  C   UNL A   1      31.345  23.815  23.787  1.00  0.00     0.113 A 
ATOM     24  C   UNL A   1      30.587  24.919  24.164  1.00  0.00     0.036 A 
ATOM     25  N   UNL A   1      32.115  23.770  22.671  1.00  0.00    -0.253 NA
ATOM     26  C   UNL A   1      30.643  26.065  23.362  1.00  0.00    -0.047 A 
ATOM     27  C   UNL A   1      32.203  24.913  21.956  1.00  0.00     0.112 A 
ATOM     28  C   UNL A   1      29.830  27.289  23.665  1.00  0.00     0.044 C 
ATOM     29  C   UNL A   1      31.504  26.069  22.263  1.00  0.00     0.023 A 
ENDBRANCH  21  23
ENDBRANCH  17  21
ENDBRANCH   8   9
ENDBRANCH   6   8
ENDBRANCH   5   6
ENDBRANCH   4   5
ENDBRANCH   3   4
ENDBRANCH   2   3
ENDBRANCH   1   2
BRANCH   1  30
ATOM     30  C   UNL A   1      33.781  28.297  23.995  1.00  0.00     0.188 C 
BRANCH  30  31
ATOM     31  O   UNL A   1      33.020  29.346  24.583  1.00  0.00    -0.376 OA
BRANCH  31  32
ATOM     32  C   UNL A   1      32.765  29.180  25.971  1.00  0.00     0.202 C 
BRANCH  32  33
ATOM     33  C   UNL A   1      33.369  30.314  26.795  1.00  0.00     0.261 C 
BRANCH  33  34
ATOM     34  O   UNL A   1      34.299  29.807  27.776  1.00  0.00    -0.460 OA
BRANCH  34  35
ATOM     35  C   UNL A   1      35.096  30.693  28.405  1.00  0.00     0.338 C 
ATOM     36  O   UNL A   1      34.797  31.821  28.753  1.00  0.00    -0.246 OA
BRANCH  35  37
ATOM     37  C   UNL A   1      36.456  30.117  28.582  1.00  0.00     0.060 A 
ATOM     38  C   UNL A   1      36.909  29.635  29.814  1.00  0.00     0.016 A 
ATOM     39  C   UNL A   1      37.332  30.141  27.500  1.00  0.00     0.016 A 
ATOM     40  C   UNL A   1      38.234  29.216  29.976  1.00  0.00     0.010 A 
ATOM     41  C   UNL A   1      38.638  29.658  27.645  1.00  0.00     0.010 A 
ATOM     42  C   UNL A   1      39.109  29.197  28.888  1.00  0.00    -0.014 A 
BRANCH  42  43
ATOM     43  C   UNL A   1      40.501  28.683  29.009  1.00  0.00     0.031 A 
ATOM     44  C   UNL A   1      41.631  29.623  29.317  1.00  0.00     0.074 A 
ATOM     45  C   UNL A   1      40.775  27.384  28.777  1.00  0.00     0.049 A 
ATOM     46  N   UNL A   1      42.919  29.459  29.148  1.00  0.00    -0.248 NA
ATOM     47  C   UNL A   1      41.261  30.925  29.893  1.00  0.00     0.031 C 
ATOM     48  C   UNL A   1      39.786  26.330  28.557  1.00  0.00     0.029 A 
ATOM     49  N   UNL A   1      41.983  26.737  28.654  1.00  0.00    -0.354 N 
ATOM     50  C   UNL A   1      43.511  30.649  29.548  1.00  0.00     0.074 A 
ATOM     51  C   UNL A   1      42.440  31.526  29.979  1.00  0.00     0.031 C 
ATOM     52  C   UNL A   1      40.421  25.174  28.311  1.00  0.00     0.029 A 
ATOM     53  C   UNL A   1      41.857  25.426  28.260  1.00  0.00     0.049 A 
ATOM     54  H   UNL A   1      42.849  27.169  28.830  1.00  0.00     0.167 HD
ATOM     55  C   UNL A   1      44.826  30.980  29.542  1.00  0.00     0.037 A 
ATOM     56  C   UNL A   1      42.779  24.542  27.831  1.00  0.00     0.037 A 
ATOM     57  C   UNL A   1      45.887  30.093  29.137  1.00  0.00     0.049 A 
ATOM     58  C   UNL A   1      44.216  24.965  27.722  1.00  0.00     0.074 A 
ATOM     59  C   UNL A   1      47.250  30.338  29.105  1.00  0.00     0.029 A 
ATOM     60  N   UNL A   1      45.708  28.791  28.697  1.00  0.00    -0.354 N 
ATOM     61  N   UNL A   1      44.767  26.111  28.034  1.00  0.00    -0.248 NA
ATOM     62  C   UNL A   1      45.156  23.975  27.175  1.00  0.00     0.031 C 
ATOM     63  C   UNL A   1      47.890  29.201  28.598  1.00  0.00     0.029 A 
ATOM     64  C   UNL A   1      46.930  28.231  28.361  1.00  0.00     0.049 A 
ATOM     65  H   UNL A   1      44.839  28.332  28.633  1.00  0.00     0.167 HD
ATOM     66  C   UNL A   1      46.117  25.979  27.732  1.00  0.00     0.074 A 
ATOM     67  C   UNL A   1      46.305  24.633  27.233  1.00  0.00     0.031 C 
ATOM     68  C   UNL A   1      47.109  26.894  27.856  1.00  0.00     0.037 A 
BRANCH  55  69
ATOM     69  C   UNL A   1      45.194  32.381  29.938  1.00  0.00     0.057 A 
ATOM     70  C   UNL A   1      45.232  33.434  29.018  1.00  0.00     0.134 A 
ATOM     71  C   UNL A   1      45.460  32.685  31.280  1.00  0.00     0.134 A 
ATOM     72  F   UNL A   1      45.000  33.209  27.715  1.00  0.00    -0.206 F 
ATOM     73  C   UNL A   1      45.536  34.738  29.415  1.00  0.00     0.040 A 
ATOM     74  C   UNL A   1      45.742  33.988  31.693  1.00  0.00     0.040 A 
ATOM     75  F   UNL A   1      45.434  31.724  32.216  1.00  0.00    -0.206 F 
ATOM     76  C   UNL A   1      45.785  35.019  30.758  1.00  0.00     0.006 A 
ENDBRANCH  55  69
BRANCH  56  77
ATOM     77  C   UNL A   1      42.353  23.189  27.392  1.00  0.00     0.057 A 
ATOM     78  C   UNL A   1      42.081  22.179  28.321  1.00  0.00     0.134 A 
ATOM     79  C   UNL A   1      42.209  22.874  26.034  1.00  0.00     0.134 A 
ATOM     80  F   UNL A   1      42.233  22.410  29.633  1.00  0.00    -0.206 F 
ATOM     81  C   UNL A   1      41.685  20.903  27.916  1.00  0.00     0.040 A 
ATOM     82  C   UNL A   1      41.784  21.613  25.617  1.00  0.00     0.040 A 
ATOM     83  F   UNL A   1      42.461  23.797  25.094  1.00  0.00    -0.206 F 
ATOM     84  C   UNL A   1      41.526  20.621  26.561  1.00  0.00     0.006 A 
ENDBRANCH  56  77
BRANCH  68  85
ATOM     85  C   UNL A   1      48.490  26.460  27.460  1.00  0.00     0.057 A 
ATOM     86  C   UNL A   1      49.344  25.808  28.358  1.00  0.00     0.134 A 
ATOM     87  C   UNL A   1      48.965  26.681  26.161  1.00  0.00     0.134 A 
ATOM     88  F   UNL A   1      48.956  25.581  29.623  1.00  0.00    -0.206 F 
ATOM     89  C   UNL A   1      50.630  25.411  27.986  1.00  0.00     0.040 A 
ATOM     90  C   UNL A   1      50.239  26.266  25.770  1.00  0.00     0.040 A 
ATOM     91  F   UNL A   1      48.196  27.293  25.248  1.00  0.00    -0.206 F 
ATOM     92  C   UNL A   1      51.079  25.635  26.686  1.00  0.00     0.006 A 
ENDBRANCH  68  85
ENDBRANCH  42  43
ENDBRANCH  35  37
ENDBRANCH  34  35
ENDBRANCH  33  34
ENDBRANCH  32  33
ENDBRANCH  31  32
ENDBRANCH  30  31
ENDBRANCH   1  30
TORSDOF 21
ENDMDL
