MODEL 1
REMARK VINA RESULT:     -11.5      0.000      0.000
REMARK SMILES O=C(OCCOCCOCCOC(=O)c1ccc(-c2c3nc(c(-c4c(F)cccc4F)c4ccc([nH]4)c(-c4c(F)cccc4F)c4nc(c(-c5c(F)cccc5F)c5ccc2[nH]5)C=C4)C=C3)cc1)C1=NN(c2cc(F)ccc2F)[C@@H](c2ccccc2)C1
REMARK SMILES IDX 8 1 7 2 6 3 5 4 4 5 3 6 2 7 1 8 69 9 70 10 87 11 71 12 80 13
REMARK SMILES IDX 72 14 73 15 78 16 74 17 77 18 79 19 75 20 76 21 81 22 82 23
REMARK SMILES IDX 86 24 83 25 85 26 84 27 9 28 10 29 11 30 12 31 13 32 14 33
REMARK SMILES IDX 15 34 16 35 68 36 17 37 67 38 18 39 19 40 20 41 61 42 21 43
REMARK SMILES IDX 66 44 60 45 62 46 22 47 65 48 59 49 58 50 23 52 49 53 32 54
REMARK SMILES IDX 48 55 33 56 36 57 47 58 63 59 34 60 35 61 46 63 64 64 37 65
REMARK SMILES IDX 24 66 25 67 30 68 26 69 27 70 29 71 31 72 28 73 50 74 51 75
REMARK SMILES IDX 56 76 52 77 53 78 55 79 57 80 54 81 38 82 39 83 44 84 40 85
REMARK SMILES IDX 41 86 43 87 45 88 42 89
REMARK H PARENT 62 51 36 62
REMARK Flexibility Score: inf
ROOT
ATOM      1  C   UNL A   1      39.228  22.171  26.501  1.00  0.00     0.188 C 
ENDROOT
BRANCH   1   2
ATOM      2  C   UNL A   1      38.246  21.485  25.545  1.00  0.00     0.188 C 
BRANCH   2   3
ATOM      3  O   UNL A   1      36.855  21.599  25.745  1.00  0.00    -0.376 OA
BRANCH   3   4
ATOM      4  C   UNL A   1      35.941  21.278  24.705  1.00  0.00     0.202 C 
BRANCH   4   5
ATOM      5  C   UNL A   1      34.431  21.549  24.830  1.00  0.00     0.261 C 
BRANCH   5   6
ATOM      6  O   UNL A   1      33.768  22.298  23.801  1.00  0.00    -0.459 OA
BRANCH   6   7
ATOM      7  C   UNL A   1      34.295  23.357  23.174  1.00  0.00     0.354 C 
ATOM      8  O   UNL A   1      35.298  23.271  22.477  1.00  0.00    -0.245 OA
BRANCH   7   9
ATOM      9  C   UNL A   1      33.747  24.741  23.443  1.00  0.00     0.148 C 
ATOM     10  N   UNL A   1      32.895  25.354  22.683  1.00  0.00    -0.169 NA
ATOM     11  C   UNL A   1      34.141  25.458  24.704  1.00  0.00     0.098 C 
ATOM     12  N   UNL A   1      32.694  26.568  23.246  1.00  0.00    -0.254 N 
ATOM     13  C   UNL A   1      33.657  26.857  24.322  1.00  0.00     0.144 C 
BRANCH  12  14
ATOM     14  C   UNL A   1      31.478  27.225  23.088  1.00  0.00     0.099 A 
ATOM     15  C   UNL A   1      30.273  26.639  23.510  1.00  0.00     0.070 A 
ATOM     16  C   UNL A   1      31.430  28.539  22.606  1.00  0.00     0.148 A 
ATOM     17  C   UNL A   1      29.088  27.370  23.493  1.00  0.00     0.125 A 
ATOM     18  C   UNL A   1      30.235  29.255  22.543  1.00  0.00     0.044 A 
ATOM     19  F   UNL A   1      32.560  29.139  22.196  1.00  0.00    -0.205 F 
ATOM     20  F   UNL A   1      27.966  26.825  23.985  1.00  0.00    -0.207 F 
ATOM     21  C   UNL A   1      29.058  28.672  23.006  1.00  0.00     0.042 A 
ENDBRANCH  12  14
BRANCH  13  22
ATOM     22  C   UNL A   1      33.106  27.725  25.433  1.00  0.00    -0.023 A 
ATOM     23  C   UNL A   1      32.312  27.206  26.466  1.00  0.00     0.006 A 
ATOM     24  C   UNL A   1      33.241  29.119  25.333  1.00  0.00     0.006 A 
ATOM     25  C   UNL A   1      31.594  28.064  27.301  1.00  0.00     0.000 A 
ATOM     26  C   UNL A   1      32.551  29.968  26.195  1.00  0.00     0.000 A 
ATOM     27  C   UNL A   1      31.714  29.441  27.170  1.00  0.00     0.000 A 
ENDBRANCH  13  22
ENDBRANCH   7   9
ENDBRANCH   6   7
ENDBRANCH   5   6
ENDBRANCH   4   5
ENDBRANCH   3   4
ENDBRANCH   2   3
ENDBRANCH   1   2
BRANCH   1  28
ATOM     28  O   UNL A   1      40.165  21.395  27.219  1.00  0.00    -0.376 OA
BRANCH  28  29
ATOM     29  C   UNL A   1      41.034  20.536  26.489  1.00  0.00     0.202 C 
BRANCH  29  30
ATOM     30  C   UNL A   1      42.475  20.967  26.195  1.00  0.00     0.261 C 
BRANCH  30  31
ATOM     31  O   UNL A   1      42.601  22.322  25.721  1.00  0.00    -0.460 OA
BRANCH  31  32
ATOM     32  C   UNL A   1      43.590  23.039  26.298  1.00  0.00     0.338 C 
ATOM     33  O   UNL A   1      44.789  22.775  26.311  1.00  0.00    -0.246 OA
BRANCH  32  34
ATOM     34  C   UNL A   1      43.080  24.291  26.876  1.00  0.00     0.060 A 
ATOM     35  C   UNL A   1      43.937  25.399  26.958  1.00  0.00     0.016 A 
ATOM     36  C   UNL A   1      41.845  24.308  27.518  1.00  0.00     0.016 A 
ATOM     37  C   UNL A   1      43.580  26.515  27.725  1.00  0.00     0.010 A 
ATOM     38  C   UNL A   1      41.500  25.418  28.296  1.00  0.00     0.010 A 
ATOM     39  C   UNL A   1      42.375  26.519  28.435  1.00  0.00    -0.014 A 
BRANCH  39  40
ATOM     40  C   UNL A   1      42.060  27.566  29.451  1.00  0.00     0.031 A 
ATOM     41  C   UNL A   1      42.640  27.429  30.833  1.00  0.00     0.074 A 
ATOM     42  C   UNL A   1      41.213  28.584  29.203  1.00  0.00     0.049 A 
ATOM     43  N   UNL A   1      42.347  28.085  31.927  1.00  0.00    -0.248 NA
ATOM     44  C   UNL A   1      43.703  26.423  30.999  1.00  0.00     0.031 C 
ATOM     45  C   UNL A   1      40.619  28.913  27.912  1.00  0.00     0.029 A 
ATOM     46  N   UNL A   1      40.620  29.471  30.075  1.00  0.00    -0.354 N 
ATOM     47  C   UNL A   1      43.218  27.608  32.896  1.00  0.00     0.074 A 
ATOM     48  C   UNL A   1      43.985  26.541  32.287  1.00  0.00     0.031 C 
ATOM     49  C   UNL A   1      39.624  29.797  28.101  1.00  0.00     0.029 A 
ATOM     50  C   UNL A   1      39.540  30.120  29.521  1.00  0.00     0.049 A 
ATOM     51  H   UNL A   1      40.935  29.624  30.995  1.00  0.00     0.167 HD
ATOM     52  C   UNL A   1      43.404  28.053  34.161  1.00  0.00     0.037 A 
ATOM     53  C   UNL A   1      38.560  30.838  30.102  1.00  0.00     0.037 A 
ATOM     54  C   UNL A   1      42.645  29.109  34.776  1.00  0.00     0.049 A 
ATOM     55  C   UNL A   1      38.628  31.162  31.564  1.00  0.00     0.074 A 
ATOM     56  C   UNL A   1      42.826  29.699  36.014  1.00  0.00     0.029 A 
ATOM     57  N   UNL A   1      41.539  29.716  34.203  1.00  0.00    -0.354 N 
ATOM     58  N   UNL A   1      39.497  30.764  32.458  1.00  0.00    -0.248 NA
ATOM     59  C   UNL A   1      37.604  32.082  32.083  1.00  0.00     0.031 C 
ATOM     60  C   UNL A   1      41.799  30.628  36.213  1.00  0.00     0.029 A 
ATOM     61  C   UNL A   1      41.006  30.648  35.078  1.00  0.00     0.049 A 
ATOM     62  H   UNL A   1      41.186  29.515  33.306  1.00  0.00     0.167 HD
ATOM     63  C   UNL A   1      39.174  31.443  33.625  1.00  0.00     0.074 A 
ATOM     64  C   UNL A   1      37.997  32.236  33.341  1.00  0.00     0.031 C 
ATOM     65  C   UNL A   1      39.834  31.441  34.807  1.00  0.00     0.037 A 
BRANCH  52  66
ATOM     66  C   UNL A   1      44.505  27.414  34.954  1.00  0.00     0.057 A 
ATOM     67  C   UNL A   1      45.815  27.911  34.914  1.00  0.00     0.134 A 
ATOM     68  C   UNL A   1      44.253  26.316  35.782  1.00  0.00     0.134 A 
ATOM     69  F   UNL A   1      46.121  28.959  34.133  1.00  0.00    -0.206 F 
ATOM     70  C   UNL A   1      46.842  27.320  35.648  1.00  0.00     0.040 A 
ATOM     71  C   UNL A   1      45.268  25.730  36.541  1.00  0.00     0.040 A 
ATOM     72  F   UNL A   1      43.019  25.796  35.871  1.00  0.00    -0.206 F 
ATOM     73  C   UNL A   1      46.569  26.228  36.469  1.00  0.00     0.006 A 
ENDBRANCH  52  66
BRANCH  53  74
ATOM     74  C   UNL A   1      37.385  31.275  29.315  1.00  0.00     0.057 A 
ATOM     75  C   UNL A   1      37.289  32.561  28.781  1.00  0.00     0.134 A 
ATOM     76  C   UNL A   1      36.297  30.413  29.137  1.00  0.00     0.134 A 
ATOM     77  F   UNL A   1      38.277  33.446  28.971  1.00  0.00    -0.206 F 
ATOM     78  C   UNL A   1      36.153  32.971  28.078  1.00  0.00     0.040 A 
ATOM     79  C   UNL A   1      35.165  30.802  28.421  1.00  0.00     0.040 A 
ATOM     80  F   UNL A   1      36.306  29.193  29.693  1.00  0.00    -0.206 F 
ATOM     81  C   UNL A   1      35.092  32.087  27.888  1.00  0.00     0.006 A 
ENDBRANCH  53  74
BRANCH  65  82
ATOM     82  C   UNL A   1      39.359  32.390  35.863  1.00  0.00     0.057 A 
ATOM     83  C   UNL A   1      38.380  32.040  36.800  1.00  0.00     0.134 A 
ATOM     84  C   UNL A   1      39.913  33.674  35.954  1.00  0.00     0.134 A 
ATOM     85  F   UNL A   1      37.793  30.835  36.752  1.00  0.00    -0.206 F 
ATOM     86  C   UNL A   1      37.959  32.939  37.782  1.00  0.00     0.040 A 
ATOM     87  C   UNL A   1      39.518  34.573  36.945  1.00  0.00     0.040 A 
ATOM     88  F   UNL A   1      40.854  34.072  35.085  1.00  0.00    -0.206 F 
ATOM     89  C   UNL A   1      38.535  34.206  37.861  1.00  0.00     0.006 A 
ENDBRANCH  65  82
ENDBRANCH  39  40
ENDBRANCH  32  34
ENDBRANCH  31  32
ENDBRANCH  30  31
ENDBRANCH  29  30
ENDBRANCH  28  29
ENDBRANCH   1  28
TORSDOF 19
ENDMDL
MODEL 2
REMARK VINA RESULT:     -11.3      3.934      7.273
REMARK SMILES O=C(OCCOCCOCCOC(=O)c1ccc(-c2c3nc(c(-c4c(F)cccc4F)c4ccc([nH]4)c(-c4c(F)cccc4F)c4nc(c(-c5c(F)cccc5F)c5ccc2[nH]5)C=C4)C=C3)cc1)C1=NN(c2cc(F)ccc2F)[C@@H](c2ccccc2)C1
REMARK SMILES IDX 8 1 7 2 6 3 5 4 4 5 3 6 2 7 1 8 69 9 70 10 87 11 71 12 80 13
REMARK SMILES IDX 72 14 73 15 78 16 74 17 77 18 79 19 75 20 76 21 81 22 82 23
REMARK SMILES IDX 86 24 83 25 85 26 84 27 9 28 10 29 11 30 12 31 13 32 14 33
REMARK SMILES IDX 15 34 16 35 68 36 17 37 67 38 18 39 19 40 20 41 61 42 21 43
REMARK SMILES IDX 66 44 60 45 62 46 22 47 65 48 59 49 58 50 23 52 49 53 32 54
REMARK SMILES IDX 48 55 33 56 36 57 47 58 63 59 34 60 35 61 46 63 64 64 37 65
REMARK SMILES IDX 24 66 25 67 30 68 26 69 27 70 29 71 31 72 28 73 50 74 51 75
REMARK SMILES IDX 56 76 52 77 53 78 55 79 57 80 54 81 38 82 39 83 44 84 40 85
REMARK SMILES IDX 41 86 43 87 45 88 42 89
REMARK H PARENT 62 51 36 62
REMARK Flexibility Score: inf
ROOT
ATOM      1  C   UNL A   1      36.453  21.569  24.658  1.00  0.00     0.188 C 
ENDROOT
BRANCH   1   2
ATOM      2  C   UNL A   1      35.387  22.332  25.452  1.00  0.00     0.188 C 
BRANCH   2   3
ATOM      3  O   UNL A   1      34.963  21.867  26.714  1.00  0.00    -0.376 OA
BRANCH   3   4
ATOM      4  C   UNL A   1      33.791  21.075  26.843  1.00  0.00     0.202 C 
BRANCH   4   5
ATOM      5  C   UNL A   1      33.053  20.496  25.623  1.00  0.00     0.261 C 
BRANCH   5   6
ATOM      6  O   UNL A   1      32.073  21.302  24.953  1.00  0.00    -0.459 OA
BRANCH   6   7
ATOM      7  C   UNL A   1      31.375  22.286  25.532  1.00  0.00     0.354 C 
ATOM      8  O   UNL A   1      30.325  22.078  26.127  1.00  0.00    -0.245 OA
BRANCH   7   9
ATOM      9  C   UNL A   1      31.789  23.726  25.327  1.00  0.00     0.148 C 
ATOM     10  N   UNL A   1      31.629  24.387  24.224  1.00  0.00    -0.169 NA
ATOM     11  C   UNL A   1      32.362  24.500  26.482  1.00  0.00     0.098 C 
ATOM     12  N   UNL A   1      32.160  25.613  24.440  1.00  0.00    -0.254 N 
ATOM     13  C   UNL A   1      32.925  25.683  25.695  1.00  0.00     0.144 C 
BRANCH  12  14
ATOM     14  C   UNL A   1      31.665  26.723  23.762  1.00  0.00     0.099 A 
ATOM     15  C   UNL A   1      30.299  27.048  23.795  1.00  0.00     0.070 A 
ATOM     16  C   UNL A   1      32.533  27.616  23.119  1.00  0.00     0.148 A 
ATOM     17  C   UNL A   1      29.844  28.245  23.248  1.00  0.00     0.125 A 
ATOM     18  C   UNL A   1      32.070  28.791  22.529  1.00  0.00     0.044 A 
ATOM     19  F   UNL A   1      33.847  27.346  23.069  1.00  0.00    -0.205 F 
ATOM     20  F   UNL A   1      28.552  28.580  23.369  1.00  0.00    -0.207 F 
ATOM     21  C   UNL A   1      30.718  29.117  22.609  1.00  0.00     0.042 A 
ENDBRANCH  12  14
BRANCH  13  22
ATOM     22  C   UNL A   1      32.893  27.039  26.369  1.00  0.00    -0.023 A 
ATOM     23  C   UNL A   1      31.717  27.579  26.909  1.00  0.00     0.006 A 
ATOM     24  C   UNL A   1      34.030  27.859  26.293  1.00  0.00     0.006 A 
ATOM     25  C   UNL A   1      31.659  28.929  27.260  1.00  0.00     0.000 A 
ATOM     26  C   UNL A   1      33.974  29.196  26.682  1.00  0.00     0.000 A 
ATOM     27  C   UNL A   1      32.784  29.736  27.151  1.00  0.00     0.000 A 
ENDBRANCH  13  22
ENDBRANCH   7   9
ENDBRANCH   6   7
ENDBRANCH   5   6
ENDBRANCH   4   5
ENDBRANCH   3   4
ENDBRANCH   2   3
ENDBRANCH   1   2
BRANCH   1  28
ATOM     28  O   UNL A   1      37.628  21.128  25.305  1.00  0.00    -0.376 OA
BRANCH  28  29
ATOM     29  C   UNL A   1      38.135  19.838  24.984  1.00  0.00     0.202 C 
BRANCH  29  30
ATOM     30  C   UNL A   1      39.222  19.199  25.855  1.00  0.00     0.261 C 
BRANCH  30  31
ATOM     31  O   UNL A   1      40.559  19.351  25.339  1.00  0.00    -0.460 OA
BRANCH  31  32
ATOM     32  C   UNL A   1      41.511  19.564  26.273  1.00  0.00     0.338 C 
ATOM     33  O   UNL A   1      42.336  18.756  26.691  1.00  0.00    -0.246 OA
BRANCH  32  34
ATOM     34  C   UNL A   1      41.527  20.966  26.715  1.00  0.00     0.060 A 
ATOM     35  C   UNL A   1      41.448  21.982  25.752  1.00  0.00     0.016 A 
ATOM     36  C   UNL A   1      41.828  21.273  28.040  1.00  0.00     0.016 A 
ATOM     37  C   UNL A   1      41.717  23.311  26.101  1.00  0.00     0.010 A 
ATOM     38  C   UNL A   1      42.113  22.600  28.380  1.00  0.00     0.010 A 
ATOM     39  C   UNL A   1      42.092  23.628  27.410  1.00  0.00    -0.014 A 
BRANCH  39  40
ATOM     40  C   UNL A   1      42.622  24.974  27.777  1.00  0.00     0.031 A 
ATOM     41  C   UNL A   1      41.654  26.029  28.242  1.00  0.00     0.074 A 
ATOM     42  C   UNL A   1      43.919  25.306  27.632  1.00  0.00     0.049 A 
ATOM     43  N   UNL A   1      41.842  27.313  28.413  1.00  0.00    -0.248 NA
ATOM     44  C   UNL A   1      40.294  25.569  28.570  1.00  0.00     0.031 C 
ATOM     45  C   UNL A   1      45.002  24.400  27.266  1.00  0.00     0.029 A 
ATOM     46  N   UNL A   1      44.524  26.544  27.673  1.00  0.00    -0.354 N 
ATOM     47  C   UNL A   1      40.644  27.805  28.912  1.00  0.00     0.074 A 
ATOM     48  C   UNL A   1      39.707  26.701  28.926  1.00  0.00     0.031 C 
ATOM     49  C   UNL A   1      46.088  25.124  26.942  1.00  0.00     0.029 A 
ATOM     50  C   UNL A   1      45.782  26.540  27.115  1.00  0.00     0.049 A 
ATOM     51  H   UNL A   1      44.101  27.345  28.060  1.00  0.00     0.167 HD
ATOM     52  C   UNL A   1      40.363  29.048  29.370  1.00  0.00     0.037 A 
ATOM     53  C   UNL A   1      46.569  27.563  26.729  1.00  0.00     0.037 A 
ATOM     54  C   UNL A   1      41.286  30.151  29.356  1.00  0.00     0.049 A 
ATOM     55  C   UNL A   1      46.171  28.975  27.029  1.00  0.00     0.074 A 
ATOM     56  C   UNL A   1      41.129  31.418  29.889  1.00  0.00     0.029 A 
ATOM     57  N   UNL A   1      42.532  30.124  28.753  1.00  0.00    -0.354 N 
ATOM     58  N   UNL A   1      45.067  29.426  27.566  1.00  0.00    -0.248 NA
ATOM     59  C   UNL A   1      47.160  30.019  26.716  1.00  0.00     0.031 C 
ATOM     60  C   UNL A   1      42.261  32.175  29.564  1.00  0.00     0.029 A 
ATOM     61  C   UNL A   1      43.141  31.363  28.868  1.00  0.00     0.049 A 
ATOM     62  H   UNL A   1      42.928  29.339  28.308  1.00  0.00     0.167 HD
ATOM     63  C   UNL A   1      45.256  30.791  27.728  1.00  0.00     0.074 A 
ATOM     64  C   UNL A   1      46.559  31.105  27.182  1.00  0.00     0.031 C 
ATOM     65  C   UNL A   1      44.435  31.687  28.327  1.00  0.00     0.037 A 
BRANCH  52  66
ATOM     66  C   UNL A   1      39.003  29.266  29.961  1.00  0.00     0.057 A 
ATOM     67  C   UNL A   1      38.774  29.122  31.336  1.00  0.00     0.134 A 
ATOM     68  C   UNL A   1      37.921  29.648  29.160  1.00  0.00     0.134 A 
ATOM     69  F   UNL A   1      39.770  28.751  32.156  1.00  0.00    -0.206 F 
ATOM     70  C   UNL A   1      37.510  29.322  31.891  1.00  0.00     0.040 A 
ATOM     71  C   UNL A   1      36.657  29.874  29.707  1.00  0.00     0.040 A 
ATOM     72  F   UNL A   1      38.075  29.809  27.837  1.00  0.00    -0.206 F 
ATOM     73  C   UNL A   1      36.448  29.704  31.075  1.00  0.00     0.006 A 
ENDBRANCH  52  66
BRANCH  53  74
ATOM     74  C   UNL A   1      47.810  27.304  25.963  1.00  0.00     0.057 A 
ATOM     75  C   UNL A   1      47.835  27.322  24.567  1.00  0.00     0.134 A 
ATOM     76  C   UNL A   1      48.992  26.967  26.631  1.00  0.00     0.134 A 
ATOM     77  F   UNL A   1      46.717  27.582  23.876  1.00  0.00    -0.206 F 
ATOM     78  C   UNL A   1      49.003  27.032  23.860  1.00  0.00     0.040 A 
ATOM     79  C   UNL A   1      50.171  26.693  25.938  1.00  0.00     0.040 A 
ATOM     80  F   UNL A   1      49.004  26.860  27.967  1.00  0.00    -0.206 F 
ATOM     81  C   UNL A   1      50.179  26.726  24.546  1.00  0.00     0.006 A 
ENDBRANCH  53  74
BRANCH  65  82
ATOM     82  C   UNL A   1      44.953  33.081  28.508  1.00  0.00     0.057 A 
ATOM     83  C   UNL A   1      44.658  34.112  27.610  1.00  0.00     0.134 A 
ATOM     84  C   UNL A   1      45.744  33.397  29.621  1.00  0.00     0.134 A 
ATOM     85  F   UNL A   1      43.926  33.870  26.512  1.00  0.00    -0.206 F 
ATOM     86  C   UNL A   1      45.144  35.407  27.804  1.00  0.00     0.040 A 
ATOM     87  C   UNL A   1      46.215  34.692  29.839  1.00  0.00     0.040 A 
ATOM     88  F   UNL A   1      46.063  32.453  30.519  1.00  0.00    -0.206 F 
ATOM     89  C   UNL A   1      45.917  35.701  28.927  1.00  0.00     0.006 A 
ENDBRANCH  65  82
ENDBRANCH  39  40
ENDBRANCH  32  34
ENDBRANCH  31  32
ENDBRANCH  30  31
ENDBRANCH  29  30
ENDBRANCH  28  29
ENDBRANCH   1  28
TORSDOF 19
ENDMDL
MODEL 3
REMARK VINA RESULT:     -11.2      3.579      5.830
REMARK SMILES O=C(OCCOCCOCCOC(=O)c1ccc(-c2c3nc(c(-c4c(F)cccc4F)c4ccc([nH]4)c(-c4c(F)cccc4F)c4nc(c(-c5c(F)cccc5F)c5ccc2[nH]5)C=C4)C=C3)cc1)C1=NN(c2cc(F)ccc2F)[C@@H](c2ccccc2)C1
REMARK SMILES IDX 8 1 7 2 6 3 5 4 4 5 3 6 2 7 1 8 69 9 70 10 87 11 71 12 80 13
REMARK SMILES IDX 72 14 73 15 78 16 74 17 77 18 79 19 75 20 76 21 81 22 82 23
REMARK SMILES IDX 86 24 83 25 85 26 84 27 9 28 10 29 11 30 12 31 13 32 14 33
REMARK SMILES IDX 15 34 16 35 68 36 17 37 67 38 18 39 19 40 20 41 61 42 21 43
REMARK SMILES IDX 66 44 60 45 62 46 22 47 65 48 59 49 58 50 23 52 49 53 32 54
REMARK SMILES IDX 48 55 33 56 36 57 47 58 63 59 34 60 35 61 46 63 64 64 37 65
REMARK SMILES IDX 24 66 25 67 30 68 26 69 27 70 29 71 31 72 28 73 50 74 51 75
REMARK SMILES IDX 56 76 52 77 53 78 55 79 57 80 54 81 38 82 39 83 44 84 40 85
REMARK SMILES IDX 41 86 43 87 45 88 42 89
REMARK H PARENT 62 51 36 62
REMARK Flexibility Score: inf
ROOT
ATOM      1  C   UNL A   1      36.733  21.797  25.497  1.00  0.00     0.188 C 
ENDROOT
BRANCH   1   2
ATOM      2  C   UNL A   1      35.399  21.063  25.667  1.00  0.00     0.188 C 
BRANCH   2   3
ATOM      3  O   UNL A   1      34.258  21.747  26.132  1.00  0.00    -0.376 OA
BRANCH   3   4
ATOM      4  C   UNL A   1      33.071  21.799  25.353  1.00  0.00     0.202 C 
BRANCH   4   5
ATOM      5  C   UNL A   1      33.028  21.324  23.890  1.00  0.00     0.261 C 
BRANCH   5   6
ATOM      6  O   UNL A   1      33.199  22.284  22.838  1.00  0.00    -0.459 OA
BRANCH   6   7
ATOM      7  C   UNL A   1      34.069  23.301  22.873  1.00  0.00     0.354 C 
ATOM      8  O   UNL A   1      35.276  23.131  22.754  1.00  0.00    -0.245 OA
BRANCH   7   9
ATOM      9  C   UNL A   1      33.590  24.692  23.223  1.00  0.00     0.148 C 
ATOM     10  N   UNL A   1      32.763  25.387  22.507  1.00  0.00    -0.169 NA
ATOM     11  C   UNL A   1      34.025  25.317  24.519  1.00  0.00     0.098 C 
ATOM     12  N   UNL A   1      32.624  26.576  23.139  1.00  0.00    -0.254 N 
ATOM     13  C   UNL A   1      33.606  26.757  24.221  1.00  0.00     0.144 C 
BRANCH  12  14
ATOM     14  C   UNL A   1      31.440  27.297  23.029  1.00  0.00     0.099 A 
ATOM     15  C   UNL A   1      30.208  26.739  23.408  1.00  0.00     0.070 A 
ATOM     16  C   UNL A   1      31.454  28.644  22.642  1.00  0.00     0.148 A 
ATOM     17  C   UNL A   1      29.058  27.523  23.444  1.00  0.00     0.125 A 
ATOM     18  C   UNL A   1      30.294  29.416  22.632  1.00  0.00     0.044 A 
ATOM     19  F   UNL A   1      32.612  29.218  22.276  1.00  0.00    -0.205 F 
ATOM     20  F   UNL A   1      27.911  26.997  23.895  1.00  0.00    -0.207 F 
ATOM     21  C   UNL A   1      29.089  28.856  23.052  1.00  0.00     0.042 A 
ENDBRANCH  12  14
BRANCH  13  22
ATOM     22  C   UNL A   1      33.105  27.585  25.384  1.00  0.00    -0.023 A 
ATOM     23  C   UNL A   1      32.211  27.076  26.337  1.00  0.00     0.006 A 
ATOM     24  C   UNL A   1      33.398  28.958  25.413  1.00  0.00     0.006 A 
ATOM     25  C   UNL A   1      31.555  27.938  27.218  1.00  0.00     0.000 A 
ATOM     26  C   UNL A   1      32.767  29.806  26.321  1.00  0.00     0.000 A 
ATOM     27  C   UNL A   1      31.833  29.298  27.215  1.00  0.00     0.000 A 
ENDBRANCH  13  22
ENDBRANCH   7   9
ENDBRANCH   6   7
ENDBRANCH   5   6
ENDBRANCH   4   5
ENDBRANCH   3   4
ENDBRANCH   2   3
ENDBRANCH   1   2
BRANCH   1  28
ATOM     28  O   UNL A   1      37.776  21.197  24.758  1.00  0.00    -0.376 OA
BRANCH  28  29
ATOM     29  C   UNL A   1      38.009  19.803  24.925  1.00  0.00     0.202 C 
BRANCH  29  30
ATOM     30  C   UNL A   1      39.271  19.315  25.646  1.00  0.00     0.261 C 
BRANCH  30  31
ATOM     31  O   UNL A   1      40.268  20.335  25.849  1.00  0.00    -0.460 OA
BRANCH  31  32
ATOM     32  C   UNL A   1      40.646  20.517  27.132  1.00  0.00     0.338 C 
ATOM     33  O   UNL A   1      40.971  19.651  27.941  1.00  0.00    -0.246 OA
BRANCH  32  34
ATOM     34  C   UNL A   1      40.720  21.944  27.475  1.00  0.00     0.060 A 
ATOM     35  C   UNL A   1      39.998  22.866  26.702  1.00  0.00     0.016 A 
ATOM     36  C   UNL A   1      41.652  22.387  28.410  1.00  0.00     0.016 A 
ATOM     37  C   UNL A   1      40.240  24.240  26.829  1.00  0.00     0.010 A 
ATOM     38  C   UNL A   1      41.902  23.759  28.522  1.00  0.00     0.010 A 
ATOM     39  C   UNL A   1      41.224  24.697  27.711  1.00  0.00    -0.014 A 
BRANCH  39  40
ATOM     40  C   UNL A   1      41.690  26.115  27.709  1.00  0.00     0.031 A 
ATOM     41  C   UNL A   1      43.109  26.409  27.298  1.00  0.00     0.074 A 
ATOM     42  C   UNL A   1      40.917  27.132  28.135  1.00  0.00     0.049 A 
ATOM     43  N   UNL A   1      43.795  27.517  27.415  1.00  0.00    -0.248 NA
ATOM     44  C   UNL A   1      43.845  25.306  26.659  1.00  0.00     0.031 C 
ATOM     45  C   UNL A   1      39.507  27.046  28.499  1.00  0.00     0.029 A 
ATOM     46  N   UNL A   1      41.257  28.433  28.440  1.00  0.00    -0.354 N 
ATOM     47  C   UNL A   1      45.024  27.261  26.823  1.00  0.00     0.074 A 
ATOM     48  C   UNL A   1      45.024  25.866  26.434  1.00  0.00     0.031 C 
ATOM     49  C   UNL A   1      39.149  28.174  29.138  1.00  0.00     0.029 A 
ATOM     50  C   UNL A   1      40.299  29.071  29.193  1.00  0.00     0.049 A 
ATOM     51  H   UNL A   1      42.096  28.859  28.149  1.00  0.00     0.167 HD
ATOM     52  C   UNL A   1      46.040  28.121  26.573  1.00  0.00     0.037 A 
ATOM     53  C   UNL A   1      40.362  30.216  29.900  1.00  0.00     0.037 A 
ATOM     54  C   UNL A   1      46.051  29.506  26.959  1.00  0.00     0.049 A 
ATOM     55  C   UNL A   1      41.579  31.087  29.815  1.00  0.00     0.074 A 
ATOM     56  C   UNL A   1      46.988  30.481  26.662  1.00  0.00     0.029 A 
ATOM     57  N   UNL A   1      45.087  30.109  27.750  1.00  0.00    -0.354 N 
ATOM     58  N   UNL A   1      42.709  30.869  29.195  1.00  0.00    -0.248 NA
ATOM     59  C   UNL A   1      41.502  32.393  30.490  1.00  0.00     0.031 C 
ATOM     60  C   UNL A   1      46.616  31.661  27.317  1.00  0.00     0.029 A 
ATOM     61  C   UNL A   1      45.424  31.431  27.983  1.00  0.00     0.049 A 
ATOM     62  H   UNL A   1      44.279  29.662  28.095  1.00  0.00     0.167 HD
ATOM     63  C   UNL A   1      43.448  32.035  29.335  1.00  0.00     0.074 A 
ATOM     64  C   UNL A   1      42.661  32.939  30.147  1.00  0.00     0.031 C 
ATOM     65  C   UNL A   1      44.650  32.338  28.791  1.00  0.00     0.037 A 
BRANCH  52  66
ATOM     66  C   UNL A   1      47.215  27.585  25.812  1.00  0.00     0.057 A 
ATOM     67  C   UNL A   1      48.321  27.032  26.473  1.00  0.00     0.134 A 
ATOM     68  C   UNL A   1      47.234  27.595  24.413  1.00  0.00     0.134 A 
ATOM     69  F   UNL A   1      48.365  27.000  27.813  1.00  0.00    -0.206 F 
ATOM     70  C   UNL A   1      49.417  26.534  25.769  1.00  0.00     0.040 A 
ATOM     71  C   UNL A   1      48.315  27.078  23.697  1.00  0.00     0.040 A 
ATOM     72  F   UNL A   1      46.204  28.105  23.721  1.00  0.00    -0.206 F 
ATOM     73  C   UNL A   1      49.414  26.552  24.376  1.00  0.00     0.006 A 
ENDBRANCH  52  66
BRANCH  53  74
ATOM     74  C   UNL A   1      39.253  30.601  30.802  1.00  0.00     0.057 A 
ATOM     75  C   UNL A   1      39.157  30.113  32.106  1.00  0.00     0.134 A 
ATOM     76  C   UNL A   1      38.225  31.429  30.339  1.00  0.00     0.134 A 
ATOM     77  F   UNL A   1      40.083  29.270  32.581  1.00  0.00    -0.206 F 
ATOM     78  C   UNL A   1      38.080  30.451  32.929  1.00  0.00     0.040 A 
ATOM     79  C   UNL A   1      37.154  31.791  31.156  1.00  0.00     0.040 A 
ATOM     80  F   UNL A   1      38.230  31.865  29.071  1.00  0.00    -0.206 F 
ATOM     81  C   UNL A   1      37.080  31.301  32.457  1.00  0.00     0.006 A 
ENDBRANCH  53  74
BRANCH  65  82
ATOM     82  C   UNL A   1      45.157  33.736  28.975  1.00  0.00     0.057 A 
ATOM     83  C   UNL A   1      46.032  34.086  30.009  1.00  0.00     0.134 A 
ATOM     84  C   UNL A   1      44.775  34.744  28.079  1.00  0.00     0.134 A 
ATOM     85  F   UNL A   1      46.416  33.172  30.913  1.00  0.00    -0.206 F 
ATOM     86  C   UNL A   1      46.499  35.393  30.155  1.00  0.00     0.040 A 
ATOM     87  C   UNL A   1      45.254  36.049  28.201  1.00  0.00     0.040 A 
ATOM     88  F   UNL A   1      43.938  34.474  27.067  1.00  0.00    -0.206 F 
ATOM     89  C   UNL A   1      46.117  36.377  29.243  1.00  0.00     0.006 A 
ENDBRANCH  65  82
ENDBRANCH  39  40
ENDBRANCH  32  34
ENDBRANCH  31  32
ENDBRANCH  30  31
ENDBRANCH  29  30
ENDBRANCH  28  29
ENDBRANCH   1  28
TORSDOF 19
ENDMDL
