MODEL 1
REMARK VINA RESULT:      -9.4      0.000      0.000
REMARK SMILES Cc1nn(-c2cccc(C(=O)OCCOCCOCCOC(=O)c3ccc(-c4c5nc(c(-c6c(F)cccc6F)c6ccc([nH]6)c(-c6c(F)cccc6F)c6nc(c(-c7c(F)cccc7F)c7ccc4[nH]7)C=C6)C=C5)cc3)c2)c(C)c1Cl
REMARK SMILES IDX 17 1 16 2 15 3 14 4 13 5 12 6 10 7 11 8 9 9 5 10 6 11 78 12
REMARK SMILES IDX 7 13 8 14 4 15 1 16 2 17 3 18 81 19 79 20 82 21 80 22 18 23
REMARK SMILES IDX 19 24 20 25 21 26 22 27 23 28 24 29 25 30 77 31 26 32 76 33
REMARK SMILES IDX 27 34 28 35 29 36 70 37 30 38 75 39 69 40 71 41 31 42 74 43
REMARK SMILES IDX 68 44 67 45 32 47 58 48 41 49 57 50 42 51 45 52 56 53 72 54
REMARK SMILES IDX 43 55 44 56 55 58 73 59 46 60 33 61 34 62 39 63 35 64 36 65
REMARK SMILES IDX 38 66 40 67 37 68 59 69 60 70 65 71 61 72 62 73 64 74 66 75
REMARK SMILES IDX 63 76 47 77 48 78 53 79 49 80 50 81 52 82 54 83 51 84
REMARK H PARENT 71 46 45 57
REMARK Flexibility Score: inf
ROOT
ATOM      1  C   UNL A   1      43.211  18.071  26.676  1.00  0.00     0.188 C 
ENDROOT
BRANCH   1   2
ATOM      2  C   UNL A   1      43.961  18.518  25.401  1.00  0.00     0.188 C 
BRANCH   2   3
ATOM      3  O   UNL A   1      45.317  18.133  25.208  1.00  0.00    -0.376 OA
BRANCH   3   4
ATOM      4  C   UNL A   1      46.355  19.077  25.459  1.00  0.00     0.202 C 
BRANCH   4   5
ATOM      5  C   UNL A   1      46.340  20.462  24.780  1.00  0.00     0.261 C 
BRANCH   5   6
ATOM      6  O   UNL A   1      45.825  21.534  25.588  1.00  0.00    -0.460 OA
BRANCH   6   7
ATOM      7  C   UNL A   1      44.932  22.365  24.996  1.00  0.00     0.338 C 
ATOM      8  O   UNL A   1      44.109  22.075  24.149  1.00  0.00    -0.246 OA
BRANCH   7   9
ATOM      9  C   UNL A   1      44.961  23.682  25.678  1.00  0.00     0.062 A 
ATOM     10  C   UNL A   1      45.695  25.147  27.459  1.00  0.00     0.066 A 
ATOM     11  C   UNL A   1      44.832  26.150  26.995  1.00  0.00     0.028 A 
ATOM     12  C   UNL A   1      45.716  23.892  26.833  1.00  0.00     0.044 A 
ATOM     13  C   UNL A   1      44.082  25.935  25.836  1.00  0.00     0.003 A 
ATOM     14  C   UNL A   1      44.167  24.714  25.163  1.00  0.00     0.016 A 
BRANCH  10  15
ATOM     15  N   UNL A   1      46.576  25.428  28.539  1.00  0.00    -0.236 N 
ATOM     16  C   UNL A   1      49.910  25.664  29.753  1.00  0.00     0.070 C 
ATOM     17  C   UNL A   1      48.438  25.668  29.557  1.00  0.00     0.079 A 
ATOM     18  N   UNL A   1      47.904  25.166  28.435  1.00  0.00    -0.171 NA
ATOM     19  C   UNL A   1      47.440  26.130  30.440  1.00  0.00     0.085 A 
ATOM     20  C   UNL A   1      46.243  25.899  29.801  1.00  0.00     0.060 A 
ATOM     21  Cl  UNL A   1      47.677  26.760  31.997  1.00  0.00    -0.080 Cl
ATOM     22  C   UNL A   1      44.853  25.997  30.321  1.00  0.00     0.068 C 
ENDBRANCH  10  15
ENDBRANCH   7   9
ENDBRANCH   6   7
ENDBRANCH   5   6
ENDBRANCH   4   5
ENDBRANCH   3   4
ENDBRANCH   2   3
ENDBRANCH   1   2
BRANCH   1  23
ATOM     23  O   UNL A   1      42.342  19.052  27.201  1.00  0.00    -0.376 OA
BRANCH  23  24
ATOM     24  C   UNL A   1      41.304  19.590  26.398  1.00  0.00     0.202 C 
BRANCH  24  25
ATOM     25  C   UNL A   1      41.158  21.093  26.134  1.00  0.00     0.261 C 
BRANCH  25  26
ATOM     26  O   UNL A   1      40.622  21.877  27.184  1.00  0.00    -0.460 OA
BRANCH  26  27
ATOM     27  C   UNL A   1      39.838  22.898  26.784  1.00  0.00     0.338 C 
ATOM     28  O   UNL A   1      38.727  22.821  26.297  1.00  0.00    -0.246 OA
BRANCH  27  29
ATOM     29  C   UNL A   1      40.574  24.155  26.972  1.00  0.00     0.060 A 
ATOM     30  C   UNL A   1      41.342  24.275  28.131  1.00  0.00     0.016 A 
ATOM     31  C   UNL A   1      40.279  25.261  26.159  1.00  0.00     0.016 A 
ATOM     32  C   UNL A   1      41.635  25.539  28.593  1.00  0.00     0.010 A 
ATOM     33  C   UNL A   1      40.561  26.525  26.629  1.00  0.00     0.010 A 
ATOM     34  C   UNL A   1      41.150  26.644  27.885  1.00  0.00    -0.014 A 
BRANCH  34  35
ATOM     35  C   UNL A   1      41.186  27.923  28.560  1.00  0.00     0.031 A 
ATOM     36  C   UNL A   1      42.346  28.783  28.268  1.00  0.00     0.074 A 
ATOM     37  C   UNL A   1      40.183  28.321  29.365  1.00  0.00     0.049 A 
ATOM     38  N   UNL A   1      43.252  29.197  29.090  1.00  0.00    -0.248 NA
ATOM     39  C   UNL A   1      42.559  29.179  26.869  1.00  0.00     0.031 C 
ATOM     40  C   UNL A   1      38.853  27.724  29.513  1.00  0.00     0.029 A 
ATOM     41  N   UNL A   1      40.123  29.426  30.154  1.00  0.00    -0.354 N 
ATOM     42  C   UNL A   1      44.064  30.048  28.351  1.00  0.00     0.074 A 
ATOM     43  C   UNL A   1      43.669  29.908  26.972  1.00  0.00     0.031 C 
ATOM     44  C   UNL A   1      38.054  28.592  30.173  1.00  0.00     0.029 A 
ATOM     45  C   UNL A   1      38.846  29.738  30.592  1.00  0.00     0.049 A 
ATOM     46  H   UNL A   1      40.915  29.959  30.394  1.00  0.00     0.167 HD
ATOM     47  C   UNL A   1      44.873  30.963  28.947  1.00  0.00     0.037 A 
ATOM     48  C   UNL A   1      38.462  30.894  31.181  1.00  0.00     0.037 A 
ATOM     49  C   UNL A   1      45.106  30.670  30.334  1.00  0.00     0.049 A 
ATOM     50  C   UNL A   1      39.676  31.576  31.696  1.00  0.00     0.074 A 
ATOM     51  C   UNL A   1      45.651  29.604  31.023  1.00  0.00     0.029 A 
ATOM     52  N   UNL A   1      44.463  31.431  31.278  1.00  0.00    -0.354 N 
ATOM     53  N   UNL A   1      40.367  31.179  32.728  1.00  0.00    -0.248 NA
ATOM     54  C   UNL A   1      40.361  32.511  30.814  1.00  0.00     0.031 C 
ATOM     55  C   UNL A   1      44.921  29.534  32.246  1.00  0.00     0.029 A 
ATOM     56  C   UNL A   1      43.987  30.569  32.231  1.00  0.00     0.049 A 
ATOM     57  H   UNL A   1      44.363  32.411  31.272  1.00  0.00     0.167 HD
ATOM     58  C   UNL A   1      41.684  31.472  32.407  1.00  0.00     0.074 A 
ATOM     59  C   UNL A   1      41.607  32.394  31.280  1.00  0.00     0.031 C 
ATOM     60  C   UNL A   1      42.716  30.726  32.899  1.00  0.00     0.037 A 
BRANCH  47  61
ATOM     61  C   UNL A   1      45.190  32.296  28.337  1.00  0.00     0.057 A 
ATOM     62  C   UNL A   1      46.526  32.653  28.091  1.00  0.00     0.134 A 
ATOM     63  C   UNL A   1      44.251  33.343  28.232  1.00  0.00     0.134 A 
ATOM     64  F   UNL A   1      47.510  31.748  28.202  1.00  0.00    -0.206 F 
ATOM     65  C   UNL A   1      46.903  33.968  27.798  1.00  0.00     0.040 A 
ATOM     66  C   UNL A   1      44.609  34.646  27.886  1.00  0.00     0.040 A 
ATOM     67  F   UNL A   1      42.962  33.174  28.555  1.00  0.00    -0.206 F 
ATOM     68  C   UNL A   1      45.943  34.969  27.693  1.00  0.00     0.006 A 
ENDBRANCH  47  61
BRANCH  48  69
ATOM     69  C   UNL A   1      37.149  31.570  31.107  1.00  0.00     0.057 A 
ATOM     70  C   UNL A   1      36.356  31.738  32.250  1.00  0.00     0.134 A 
ATOM     71  C   UNL A   1      36.749  32.291  29.967  1.00  0.00     0.134 A 
ATOM     72  F   UNL A   1      36.681  31.129  33.400  1.00  0.00    -0.206 F 
ATOM     73  C   UNL A   1      35.241  32.584  32.264  1.00  0.00     0.040 A 
ATOM     74  C   UNL A   1      35.630  33.127  29.963  1.00  0.00     0.040 A 
ATOM     75  F   UNL A   1      37.480  32.276  28.842  1.00  0.00    -0.206 F 
ATOM     76  C   UNL A   1      34.879  33.288  31.120  1.00  0.00     0.006 A 
ENDBRANCH  48  69
BRANCH  60  77
ATOM     77  C   UNL A   1      42.421  29.786  34.031  1.00  0.00     0.057 A 
ATOM     78  C   UNL A   1      41.990  28.462  33.854  1.00  0.00     0.134 A 
ATOM     79  C   UNL A   1      42.713  30.188  35.340  1.00  0.00     0.134 A 
ATOM     80  F   UNL A   1      41.792  27.956  32.629  1.00  0.00    -0.206 F 
ATOM     81  C   UNL A   1      41.803  27.599  34.936  1.00  0.00     0.040 A 
ATOM     82  C   UNL A   1      42.563  29.323  36.427  1.00  0.00     0.040 A 
ATOM     83  F   UNL A   1      43.191  31.420  35.580  1.00  0.00    -0.206 F 
ATOM     84  C   UNL A   1      42.093  28.028  36.229  1.00  0.00     0.006 A 
ENDBRANCH  60  77
ENDBRANCH  34  35
ENDBRANCH  27  29
ENDBRANCH  26  27
ENDBRANCH  25  26
ENDBRANCH  24  25
ENDBRANCH  23  24
ENDBRANCH   1  23
TORSDOF 18
ENDMDL
MODEL 2
REMARK VINA RESULT:      -9.4      4.004      6.803
REMARK SMILES Cc1nn(-c2cccc(C(=O)OCCOCCOCCOC(=O)c3ccc(-c4c5nc(c(-c6c(F)cccc6F)c6ccc([nH]6)c(-c6c(F)cccc6F)c6nc(c(-c7c(F)cccc7F)c7ccc4[nH]7)C=C6)C=C5)cc3)c2)c(C)c1Cl
REMARK SMILES IDX 17 1 16 2 15 3 14 4 13 5 12 6 10 7 11 8 9 9 5 10 6 11 78 12
REMARK SMILES IDX 7 13 8 14 4 15 1 16 2 17 3 18 81 19 79 20 82 21 80 22 18 23
REMARK SMILES IDX 19 24 20 25 21 26 22 27 23 28 24 29 25 30 77 31 26 32 76 33
REMARK SMILES IDX 27 34 28 35 29 36 70 37 30 38 75 39 69 40 71 41 31 42 74 43
REMARK SMILES IDX 68 44 67 45 32 47 58 48 41 49 57 50 42 51 45 52 56 53 72 54
REMARK SMILES IDX 43 55 44 56 55 58 73 59 46 60 33 61 34 62 39 63 35 64 36 65
REMARK SMILES IDX 38 66 40 67 37 68 59 69 60 70 65 71 61 72 62 73 64 74 66 75
REMARK SMILES IDX 63 76 47 77 48 78 53 79 49 80 50 81 52 82 54 83 51 84
REMARK H PARENT 71 46 45 57
REMARK Flexibility Score: inf
ROOT
ATOM      1  C   UNL A   1      43.768  18.738  24.977  1.00  0.00     0.188 C 
ENDROOT
BRANCH   1   2
ATOM      2  C   UNL A   1      42.702  19.208  25.992  1.00  0.00     0.188 C 
BRANCH   2   3
ATOM      3  O   UNL A   1      41.461  19.721  25.525  1.00  0.00    -0.376 OA
BRANCH   3   4
ATOM      4  C   UNL A   1      40.505  20.204  26.466  1.00  0.00     0.202 C 
BRANCH   4   5
ATOM      5  C   UNL A   1      39.855  21.592  26.286  1.00  0.00     0.261 C 
BRANCH   5   6
ATOM      6  O   UNL A   1      38.611  21.594  25.563  1.00  0.00    -0.460 OA
BRANCH   6   7
ATOM      7  C   UNL A   1      37.816  22.679  25.730  1.00  0.00     0.338 C 
ATOM      8  O   UNL A   1      38.168  23.817  25.977  1.00  0.00    -0.246 OA
BRANCH   7   9
ATOM      9  C   UNL A   1      36.421  22.326  25.371  1.00  0.00     0.062 A 
ATOM     10  C   UNL A   1      34.090  22.896  25.048  1.00  0.00     0.066 A 
ATOM     11  C   UNL A   1      33.785  21.543  24.841  1.00  0.00     0.028 A 
ATOM     12  C   UNL A   1      35.401  23.279  25.369  1.00  0.00     0.044 A 
ATOM     13  C   UNL A   1      34.810  20.595  24.838  1.00  0.00     0.003 A 
ATOM     14  C   UNL A   1      36.129  20.988  25.076  1.00  0.00     0.016 A 
BRANCH  10  15
ATOM     15  N   UNL A   1      33.073  23.875  24.886  1.00  0.00    -0.236 N 
ATOM     16  C   UNL A   1      30.091  25.381  26.102  1.00  0.00     0.070 C 
ATOM     17  C   UNL A   1      31.309  24.985  25.353  1.00  0.00     0.079 A 
ATOM     18  N   UNL A   1      31.975  23.870  25.685  1.00  0.00    -0.171 NA
ATOM     19  C   UNL A   1      31.905  25.631  24.250  1.00  0.00     0.085 A 
ATOM     20  C   UNL A   1      32.996  24.862  23.914  1.00  0.00     0.060 A 
ATOM     21  Cl  UNL A   1      31.336  27.021  23.459  1.00  0.00    -0.080 Cl
ATOM     22  C   UNL A   1      33.883  24.938  22.722  1.00  0.00     0.068 C 
ENDBRANCH  10  15
ENDBRANCH   7   9
ENDBRANCH   6   7
ENDBRANCH   5   6
ENDBRANCH   4   5
ENDBRANCH   3   4
ENDBRANCH   2   3
ENDBRANCH   1   2
BRANCH   1  23
ATOM     23  O   UNL A   1      44.894  18.129  25.572  1.00  0.00    -0.376 OA
BRANCH  23  24
ATOM     24  C   UNL A   1      46.152  18.786  25.558  1.00  0.00     0.202 C 
BRANCH  24  25
ATOM     25  C   UNL A   1      46.527  19.829  24.499  1.00  0.00     0.261 C 
BRANCH  25  26
ATOM     26  O   UNL A   1      46.307  21.187  24.833  1.00  0.00    -0.460 OA
BRANCH  26  27
ATOM     27  C   UNL A   1      45.160  21.708  24.352  1.00  0.00     0.338 C 
ATOM     28  O   UNL A   1      44.740  21.628  23.213  1.00  0.00    -0.246 OA
BRANCH  27  29
ATOM     29  C   UNL A   1      44.503  22.464  25.426  1.00  0.00     0.060 A 
ATOM     30  C   UNL A   1      43.284  23.071  25.121  1.00  0.00     0.016 A 
ATOM     31  C   UNL A   1      45.217  22.776  26.593  1.00  0.00     0.016 A 
ATOM     32  C   UNL A   1      42.884  24.150  25.879  1.00  0.00     0.010 A 
ATOM     33  C   UNL A   1      44.824  23.864  27.342  1.00  0.00     0.010 A 
ATOM     34  C   UNL A   1      43.715  24.591  26.915  1.00  0.00    -0.014 A 
BRANCH  34  35
ATOM     35  C   UNL A   1      43.441  25.901  27.465  1.00  0.00     0.031 A 
ATOM     36  C   UNL A   1      44.439  26.947  27.184  1.00  0.00     0.074 A 
ATOM     37  C   UNL A   1      42.308  26.154  28.145  1.00  0.00     0.049 A 
ATOM     38  N   UNL A   1      45.166  27.596  28.032  1.00  0.00    -0.248 NA
ATOM     39  C   UNL A   1      44.707  27.266  25.775  1.00  0.00     0.031 C 
ATOM     40  C   UNL A   1      41.107  25.319  28.244  1.00  0.00     0.029 A 
ATOM     41  N   UNL A   1      41.963  27.284  28.818  1.00  0.00    -0.354 N 
ATOM     42  C   UNL A   1      45.869  28.530  27.282  1.00  0.00     0.074 A 
ATOM     43  C   UNL A   1      45.643  28.207  25.896  1.00  0.00     0.031 C 
ATOM     44  C   UNL A   1      40.099  26.061  28.753  1.00  0.00     0.029 A 
ATOM     45  C   UNL A   1      40.614  27.370  29.121  1.00  0.00     0.049 A 
ATOM     46  H   UNL A   1      42.613  27.981  29.067  1.00  0.00     0.167 HD
ATOM     47  C   UNL A   1      46.428  29.631  27.849  1.00  0.00     0.037 A 
ATOM     48  C   UNL A   1      39.962  28.471  29.564  1.00  0.00     0.037 A 
ATOM     49  C   UNL A   1      46.578  29.500  29.272  1.00  0.00     0.049 A 
ATOM     50  C   UNL A   1      40.968  29.417  30.105  1.00  0.00     0.074 A 
ATOM     51  C   UNL A   1      47.246  28.620  30.102  1.00  0.00     0.029 A 
ATOM     52  N   UNL A   1      45.714  30.191  30.085  1.00  0.00    -0.354 N 
ATOM     53  N   UNL A   1      41.619  29.248  31.222  1.00  0.00    -0.248 NA
ATOM     54  C   UNL A   1      41.545  30.397  29.195  1.00  0.00     0.031 C 
ATOM     55  C   UNL A   1      46.428  28.504  31.263  1.00  0.00     0.029 A 
ATOM     56  C   UNL A   1      45.320  29.329  31.076  1.00  0.00     0.049 A 
ATOM     57  H   UNL A   1      45.430  31.128  29.977  1.00  0.00     0.167 HD
ATOM     58  C   UNL A   1      42.882  29.769  30.980  1.00  0.00     0.074 A 
ATOM     59  C   UNL A   1      42.740  30.566  29.767  1.00  0.00     0.031 C 
ATOM     60  C   UNL A   1      43.984  29.283  31.622  1.00  0.00     0.037 A 
BRANCH  47  61
ATOM     61  C   UNL A   1      46.543  30.948  27.141  1.00  0.00     0.057 A 
ATOM     62  C   UNL A   1      47.784  31.602  27.077  1.00  0.00     0.134 A 
ATOM     63  C   UNL A   1      45.428  31.720  26.756  1.00  0.00     0.134 A 
ATOM     64  F   UNL A   1      48.909  30.978  27.459  1.00  0.00    -0.206 F 
ATOM     65  C   UNL A   1      47.901  32.942  26.691  1.00  0.00     0.040 A 
ATOM     66  C   UNL A   1      45.539  33.040  26.317  1.00  0.00     0.040 A 
ATOM     67  F   UNL A   1      44.174  31.266  26.880  1.00  0.00    -0.206 F 
ATOM     68  C   UNL A   1      46.777  33.664  26.308  1.00  0.00     0.006 A 
ENDBRANCH  47  61
BRANCH  48  69
ATOM     69  C   UNL A   1      38.558  28.865  29.321  1.00  0.00     0.057 A 
ATOM     70  C   UNL A   1      37.639  28.955  30.375  1.00  0.00     0.134 A 
ATOM     71  C   UNL A   1      38.142  29.407  28.092  1.00  0.00     0.134 A 
ATOM     72  F   UNL A   1      37.960  28.508  31.598  1.00  0.00    -0.206 F 
ATOM     73  C   UNL A   1      36.387  29.562  30.221  1.00  0.00     0.040 A 
ATOM     74  C   UNL A   1      36.889  30.001  27.919  1.00  0.00     0.040 A 
ATOM     75  F   UNL A   1      38.968  29.455  27.036  1.00  0.00    -0.206 F 
ATOM     76  C   UNL A   1      36.011  30.094  28.991  1.00  0.00     0.006 A 
ENDBRANCH  48  69
BRANCH  60  77
ATOM     77  C   UNL A   1      43.765  28.395  32.812  1.00  0.00     0.057 A 
ATOM     78  C   UNL A   1      43.638  27.000  32.732  1.00  0.00     0.134 A 
ATOM     79  C   UNL A   1      43.822  28.954  34.095  1.00  0.00     0.134 A 
ATOM     80  F   UNL A   1      43.684  26.367  31.552  1.00  0.00    -0.206 F 
ATOM     81  C   UNL A   1      43.513  26.206  33.874  1.00  0.00     0.040 A 
ATOM     82  C   UNL A   1      43.734  28.167  35.245  1.00  0.00     0.040 A 
ATOM     83  F   UNL A   1      44.008  30.275  34.250  1.00  0.00    -0.206 F 
ATOM     84  C   UNL A   1      43.565  26.790  35.138  1.00  0.00     0.006 A 
ENDBRANCH  60  77
ENDBRANCH  34  35
ENDBRANCH  27  29
ENDBRANCH  26  27
ENDBRANCH  25  26
ENDBRANCH  24  25
ENDBRANCH  23  24
ENDBRANCH   1  23
TORSDOF 18
ENDMDL
MODEL 3
REMARK VINA RESULT:      -9.2      4.707     11.141
REMARK SMILES Cc1nn(-c2cccc(C(=O)OCCOCCOCCOC(=O)c3ccc(-c4c5nc(c(-c6c(F)cccc6F)c6ccc([nH]6)c(-c6c(F)cccc6F)c6nc(c(-c7c(F)cccc7F)c7ccc4[nH]7)C=C6)C=C5)cc3)c2)c(C)c1Cl
REMARK SMILES IDX 17 1 16 2 15 3 14 4 13 5 12 6 10 7 11 8 9 9 5 10 6 11 78 12
REMARK SMILES IDX 7 13 8 14 4 15 1 16 2 17 3 18 81 19 79 20 82 21 80 22 18 23
REMARK SMILES IDX 19 24 20 25 21 26 22 27 23 28 24 29 25 30 77 31 26 32 76 33
REMARK SMILES IDX 27 34 28 35 29 36 70 37 30 38 75 39 69 40 71 41 31 42 74 43
REMARK SMILES IDX 68 44 67 45 32 47 58 48 41 49 57 50 42 51 45 52 56 53 72 54
REMARK SMILES IDX 43 55 44 56 55 58 73 59 46 60 33 61 34 62 39 63 35 64 36 65
REMARK SMILES IDX 38 66 40 67 37 68 59 69 60 70 65 71 61 72 62 73 64 74 66 75
REMARK SMILES IDX 63 76 47 77 48 78 53 79 49 80 50 81 52 82 54 83 51 84
REMARK H PARENT 71 46 45 57
REMARK Flexibility Score: inf
ROOT
ATOM      1  C   UNL A   1      33.179  36.448  28.752  1.00  0.00     0.188 C 
ENDROOT
BRANCH   1   2
ATOM      2  C   UNL A   1      33.095  36.173  30.270  1.00  0.00     0.188 C 
BRANCH   2   3
ATOM      3  O   UNL A   1      32.773  37.232  31.163  1.00  0.00    -0.376 OA
BRANCH   3   4
ATOM      4  C   UNL A   1      33.688  37.575  32.202  1.00  0.00     0.202 C 
BRANCH   4   5
ATOM      5  C   UNL A   1      33.994  36.580  33.340  1.00  0.00     0.261 C 
BRANCH   5   6
ATOM      6  O   UNL A   1      35.132  35.729  33.118  1.00  0.00    -0.460 OA
BRANCH   6   7
ATOM      7  C   UNL A   1      34.888  34.398  33.046  1.00  0.00     0.338 C 
ATOM      8  O   UNL A   1      33.817  33.857  32.848  1.00  0.00    -0.246 OA
BRANCH   7   9
ATOM      9  C   UNL A   1      36.176  33.662  33.050  1.00  0.00     0.062 A 
ATOM     10  C   UNL A   1      38.595  33.594  33.008  1.00  0.00     0.066 A 
ATOM     11  C   UNL A   1      38.558  32.197  32.894  1.00  0.00     0.028 A 
ATOM     12  C   UNL A   1      37.401  34.330  33.029  1.00  0.00     0.044 A 
ATOM     13  C   UNL A   1      37.329  31.534  32.921  1.00  0.00     0.003 A 
ATOM     14  C   UNL A   1      36.141  32.262  33.027  1.00  0.00     0.016 A 
BRANCH  10  15
ATOM     15  N   UNL A   1      39.848  34.251  33.146  1.00  0.00    -0.236 N 
ATOM     16  C   UNL A   1      42.122  36.047  35.207  1.00  0.00     0.070 C 
ATOM     17  C   UNL A   1      41.417  35.327  34.117  1.00  0.00     0.079 A 
ATOM     18  N   UNL A   1      40.132  34.971  34.262  1.00  0.00    -0.171 NA
ATOM     19  C   UNL A   1      41.915  34.953  32.852  1.00  0.00     0.085 A 
ATOM     20  C   UNL A   1      40.870  34.328  32.211  1.00  0.00     0.060 A 
ATOM     21  Cl  UNL A   1      43.459  35.286  32.231  1.00  0.00    -0.080 Cl
ATOM     22  C   UNL A   1      40.743  33.902  30.791  1.00  0.00     0.068 C 
ENDBRANCH  10  15
ENDBRANCH   7   9
ENDBRANCH   6   7
ENDBRANCH   5   6
ENDBRANCH   4   5
ENDBRANCH   3   4
ENDBRANCH   2   3
ENDBRANCH   1   2
BRANCH   1  23
ATOM     23  O   UNL A   1      34.371  35.986  28.153  1.00  0.00    -0.376 OA
BRANCH  23  24
ATOM     24  C   UNL A   1      34.764  34.631  28.300  1.00  0.00     0.202 C 
BRANCH  24  25
ATOM     25  C   UNL A   1      33.791  33.462  28.108  1.00  0.00     0.261 C 
BRANCH  25  26
ATOM     26  O   UNL A   1      34.354  32.165  28.048  1.00  0.00    -0.460 OA
BRANCH  26  27
ATOM     27  C   UNL A   1      35.042  31.795  29.147  1.00  0.00     0.338 C 
ATOM     28  O   UNL A   1      34.676  31.879  30.303  1.00  0.00    -0.246 OA
BRANCH  27  29
ATOM     29  C   UNL A   1      36.367  31.316  28.731  1.00  0.00     0.060 A 
ATOM     30  C   UNL A   1      36.457  29.994  28.294  1.00  0.00     0.016 A 
ATOM     31  C   UNL A   1      37.507  32.078  29.033  1.00  0.00     0.016 A 
ATOM     32  C   UNL A   1      37.680  29.365  28.366  1.00  0.00     0.010 A 
ATOM     33  C   UNL A   1      38.727  31.444  29.117  1.00  0.00     0.010 A 
ATOM     34  C   UNL A   1      38.774  30.074  28.874  1.00  0.00    -0.014 A 
BRANCH  34  35
ATOM     35  C   UNL A   1      39.942  29.303  29.244  1.00  0.00     0.031 A 
ATOM     36  C   UNL A   1      40.216  29.188  30.688  1.00  0.00     0.074 A 
ATOM     37  C   UNL A   1      40.697  28.683  28.319  1.00  0.00     0.049 A 
ATOM     38  N   UNL A   1      41.249  29.615  31.334  1.00  0.00    -0.248 NA
ATOM     39  C   UNL A   1      39.176  28.575  31.526  1.00  0.00     0.031 C 
ATOM     40  C   UNL A   1      40.388  28.457  26.905  1.00  0.00     0.029 A 
ATOM     41  N   UNL A   1      41.877  28.029  28.493  1.00  0.00    -0.354 N 
ATOM     42  C   UNL A   1      41.076  29.180  32.642  1.00  0.00     0.074 A 
ATOM     43  C   UNL A   1      39.738  28.653  32.732  1.00  0.00     0.031 C 
ATOM     44  C   UNL A   1      41.250  27.541  26.409  1.00  0.00     0.029 A 
ATOM     45  C   UNL A   1      42.232  27.215  27.431  1.00  0.00     0.049 A 
ATOM     46  H   UNL A   1      42.430  28.125  29.302  1.00  0.00     0.167 HD
ATOM     47  C   UNL A   1      42.115  29.095  33.512  1.00  0.00     0.037 A 
ATOM     48  C   UNL A   1      43.212  26.281  27.431  1.00  0.00     0.037 A 
ATOM     49  C   UNL A   1      43.250  29.871  33.091  1.00  0.00     0.049 A 
ATOM     50  C   UNL A   1      44.132  26.578  28.558  1.00  0.00     0.074 A 
ATOM     51  C   UNL A   1      43.465  31.208  32.820  1.00  0.00     0.029 A 
ATOM     52  N   UNL A   1      44.337  29.209  32.577  1.00  0.00    -0.354 N 
ATOM     53  N   UNL A   1      44.966  27.579  28.590  1.00  0.00    -0.248 NA
ATOM     54  C   UNL A   1      43.852  25.964  29.849  1.00  0.00     0.031 C 
ATOM     55  C   UNL A   1      44.422  31.228  31.764  1.00  0.00     0.029 A 
ATOM     56  C   UNL A   1      44.740  29.904  31.466  1.00  0.00     0.049 A 
ATOM     57  H   UNL A   1      44.749  28.391  32.938  1.00  0.00     0.167 HD
ATOM     58  C   UNL A   1      44.986  27.983  29.917  1.00  0.00     0.074 A 
ATOM     59  C   UNL A   1      44.380  26.884  30.659  1.00  0.00     0.031 C 
ATOM     60  C   UNL A   1      45.232  29.281  30.259  1.00  0.00     0.037 A 
BRANCH  47  61
ATOM     61  C   UNL A   1      42.203  28.050  34.585  1.00  0.00     0.057 A 
ATOM     62  C   UNL A   1      42.571  26.737  34.253  1.00  0.00     0.134 A 
ATOM     63  C   UNL A   1      41.680  28.226  35.882  1.00  0.00     0.134 A 
ATOM     64  F   UNL A   1      43.042  26.443  33.032  1.00  0.00    -0.206 F 
ATOM     65  C   UNL A   1      42.397  25.668  35.140  1.00  0.00     0.040 A 
ATOM     66  C   UNL A   1      41.553  27.178  36.794  1.00  0.00     0.040 A 
ATOM     67  F   UNL A   1      41.179  29.400  36.292  1.00  0.00    -0.206 F 
ATOM     68  C   UNL A   1      41.887  25.887  36.414  1.00  0.00     0.006 A 
ENDBRANCH  47  61
BRANCH  48  69
ATOM     69  C   UNL A   1      43.269  25.009  26.681  1.00  0.00     0.057 A 
ATOM     70  C   UNL A   1      42.411  23.946  26.994  1.00  0.00     0.134 A 
ATOM     71  C   UNL A   1      43.987  24.889  25.478  1.00  0.00     0.134 A 
ATOM     72  F   UNL A   1      41.650  23.987  28.096  1.00  0.00    -0.206 F 
ATOM     73  C   UNL A   1      42.264  22.837  26.152  1.00  0.00     0.040 A 
ATOM     74  C   UNL A   1      43.862  23.781  24.636  1.00  0.00     0.040 A 
ATOM     75  F   UNL A   1      44.772  25.883  25.032  1.00  0.00    -0.206 F 
ATOM     76  C   UNL A   1      42.986  22.755  24.965  1.00  0.00     0.006 A 
ENDBRANCH  48  69
BRANCH  60  77
ATOM     77  C   UNL A   1      45.784  30.191  29.201  1.00  0.00     0.057 A 
ATOM     78  C   UNL A   1      44.993  30.846  28.245  1.00  0.00     0.134 A 
ATOM     79  C   UNL A   1      47.144  30.523  29.234  1.00  0.00     0.134 A 
ATOM     80  F   UNL A   1      43.664  30.674  28.210  1.00  0.00    -0.206 F 
ATOM     81  C   UNL A   1      45.542  31.744  27.327  1.00  0.00     0.040 A 
ATOM     82  C   UNL A   1      47.698  31.446  28.344  1.00  0.00     0.040 A 
ATOM     83  F   UNL A   1      47.951  29.984  30.162  1.00  0.00    -0.206 F 
ATOM     84  C   UNL A   1      46.900  32.050  27.378  1.00  0.00     0.006 A 
ENDBRANCH  60  77
ENDBRANCH  34  35
ENDBRANCH  27  29
ENDBRANCH  26  27
ENDBRANCH  25  26
ENDBRANCH  24  25
ENDBRANCH  23  24
ENDBRANCH   1  23
TORSDOF 18
ENDMDL
