MODEL 1
REMARK VINA RESULT:     -11.1      0.000      0.000
REMARK SMILES Cc1ccc(C)c(/C=C2\SC(=S)N(CC(=O)OCCOCCOCCOC(=O)c3ccc(-c4c5nc(c(-c6c(F)cccc6F)c6ccc([nH]6)c(-c6c(F)cccc6F)c6nc(c(-c7c(F)cccc7F)c7ccc4[nH]7)C=C6)C=C5)cc3)C2=O)c1
REMARK SMILES IDX 21 1 20 2 19 3 18 4 17 5 15 6 16 7 14 8 13 9 8 10 9 11 10 12
REMARK SMILES IDX 83 13 11 14 84 15 12 16 7 17 1 18 2 19 3 20 85 21 4 22 5 23
REMARK SMILES IDX 6 24 22 25 23 26 24 27 25 28 26 29 27 30 28 31 29 32 30 33
REMARK SMILES IDX 82 34 31 35 81 36 32 37 33 38 34 39 75 40 35 41 80 42 74 43
REMARK SMILES IDX 76 44 36 45 79 46 73 47 72 48 37 50 63 51 46 52 62 53 47 54
REMARK SMILES IDX 50 55 61 56 77 57 48 58 49 59 60 61 78 62 51 63 38 64 39 65
REMARK SMILES IDX 44 66 40 67 41 68 43 69 45 70 42 71 64 72 65 73 70 74 66 75
REMARK SMILES IDX 67 76 69 77 71 78 68 79 52 80 53 81 58 82 54 83 55 84 57 85
REMARK SMILES IDX 59 86 56 87
REMARK H PARENT 76 49 50 60
REMARK Flexibility Score: inf
ROOT
ATOM      1  C   UNL A   1      39.681  21.161  25.778  1.00  0.00     0.188 C 
ENDROOT
BRANCH   1   2
ATOM      2  O   UNL A   1      39.155  22.368  26.324  1.00  0.00    -0.376 OA
BRANCH   2   3
ATOM      3  C   UNL A   1      37.859  22.745  25.853  1.00  0.00     0.202 C 
BRANCH   3   4
ATOM      4  C   UNL A   1      36.956  21.636  25.238  1.00  0.00     0.261 C 
BRANCH   4   5
ATOM      5  O   UNL A   1      35.737  21.234  25.966  1.00  0.00    -0.462 OA
BRANCH   5   6
ATOM      6  C   UNL A   1      34.813  20.628  25.158  1.00  0.00     0.326 C 
ATOM      7  O   UNL A   1      35.041  19.511  24.684  1.00  0.00    -0.250 OA
BRANCH   6   8
ATOM      8  C   UNL A   1      33.590  21.464  24.583  1.00  0.00     0.250 C 
BRANCH   8   9
ATOM      9  N   UNL A   1      33.007  22.855  24.738  1.00  0.00    -0.282 N 
ATOM     10  C   UNL A   1      31.253  25.654  23.219  1.00  0.00     0.029 C 
ATOM     11  C   UNL A   1      31.780  24.848  24.164  1.00  0.00     0.081 C 
ATOM     12  S   UNL A   1      32.063  25.051  25.831  1.00  0.00    -0.054 SA
ATOM     13  C   UNL A   1      32.107  23.406  23.858  1.00  0.00     0.266 C 
ATOM     14  C   UNL A   1      32.733  23.402  25.986  1.00  0.00     0.148 C 
ATOM     15  O   UNL A   1      31.366  22.762  23.126  1.00  0.00    -0.268 OA
ATOM     16  S   UNL A   1      32.816  22.671  27.490  1.00  0.00    -0.052 S 
BRANCH  10  17
ATOM     17  C   UNL A   1      30.638  27.026  23.116  1.00  0.00    -0.021 A 
ATOM     18  C   UNL A   1      27.201  28.766  23.209  1.00  0.00     0.044 C 
ATOM     19  C   UNL A   1      28.675  28.524  23.061  1.00  0.00    -0.051 A 
ATOM     20  C   UNL A   1      29.460  29.588  22.625  1.00  0.00     0.004 A 
ATOM     21  C   UNL A   1      29.261  27.255  23.293  1.00  0.00     0.011 A 
ATOM     22  C   UNL A   1      30.821  29.412  22.485  1.00  0.00     0.004 A 
ATOM     23  C   UNL A   1      31.423  28.165  22.747  1.00  0.00    -0.044 A 
ATOM     24  C   UNL A   1      32.912  28.194  22.556  1.00  0.00     0.045 C 
ENDBRANCH  10  17
ENDBRANCH   8   9
ENDBRANCH   6   8
ENDBRANCH   5   6
ENDBRANCH   4   5
ENDBRANCH   3   4
ENDBRANCH   2   3
ENDBRANCH   1   2
BRANCH   1  25
ATOM     25  C   UNL A   1      40.951  20.572  26.447  1.00  0.00     0.188 C 
BRANCH  25  26
ATOM     26  O   UNL A   1      41.371  19.367  25.827  1.00  0.00    -0.376 OA
BRANCH  26  27
ATOM     27  C   UNL A   1      42.403  18.601  26.428  1.00  0.00     0.202 C 
BRANCH  27  28
ATOM     28  C   UNL A   1      43.669  18.222  25.640  1.00  0.00     0.261 C 
BRANCH  28  29
ATOM     29  O   UNL A   1      43.881  18.623  24.267  1.00  0.00    -0.460 OA
BRANCH  29  30
ATOM     30  C   UNL A   1      44.904  19.317  23.720  1.00  0.00     0.338 C 
ATOM     31  O   UNL A   1      45.710  18.810  22.974  1.00  0.00    -0.246 OA
BRANCH  30  32
ATOM     32  C   UNL A   1      45.073  20.700  24.179  1.00  0.00     0.060 A 
ATOM     33  C   UNL A   1      45.752  20.810  25.372  1.00  0.00     0.016 A 
ATOM     34  C   UNL A   1      44.526  21.829  23.549  1.00  0.00     0.016 A 
ATOM     35  C   UNL A   1      45.686  22.018  26.025  1.00  0.00     0.010 A 
ATOM     36  C   UNL A   1      44.496  23.054  24.229  1.00  0.00     0.010 A 
ATOM     37  C   UNL A   1      45.023  23.117  25.512  1.00  0.00    -0.014 A 
BRANCH  37  38
ATOM     38  C   UNL A   1      45.058  24.263  26.424  1.00  0.00     0.031 A 
ATOM     39  C   UNL A   1      46.401  24.855  26.662  1.00  0.00     0.074 A 
ATOM     40  C   UNL A   1      43.961  24.624  27.126  1.00  0.00     0.049 A 
ATOM     41  N   UNL A   1      46.960  25.118  27.804  1.00  0.00    -0.248 NA
ATOM     42  C   UNL A   1      47.267  25.102  25.499  1.00  0.00     0.031 C 
ATOM     43  C   UNL A   1      42.620  24.072  26.936  1.00  0.00     0.029 A 
ATOM     44  N   UNL A   1      43.768  25.593  28.081  1.00  0.00    -0.354 N 
ATOM     45  C   UNL A   1      48.137  25.791  27.485  1.00  0.00     0.074 A 
ATOM     46  C   UNL A   1      48.345  25.637  26.070  1.00  0.00     0.031 C 
ATOM     47  C   UNL A   1      41.723  24.866  27.548  1.00  0.00     0.029 A 
ATOM     48  C   UNL A   1      42.428  25.937  28.232  1.00  0.00     0.049 A 
ATOM     49  H   UNL A   1      44.499  26.001  28.602  1.00  0.00     0.167 HD
ATOM     50  C   UNL A   1      48.653  26.726  28.322  1.00  0.00     0.037 A 
ATOM     51  C   UNL A   1      41.892  27.050  28.787  1.00  0.00     0.037 A 
ATOM     52  C   UNL A   1      48.315  26.511  29.696  1.00  0.00     0.049 A 
ATOM     53  C   UNL A   1      42.857  27.647  29.732  1.00  0.00     0.074 A 
ATOM     54  C   UNL A   1      48.800  25.773  30.752  1.00  0.00     0.029 A 
ATOM     55  N   UNL A   1      47.093  26.994  30.063  1.00  0.00    -0.354 N 
ATOM     56  N   UNL A   1      43.149  27.128  30.890  1.00  0.00    -0.248 NA
ATOM     57  C   UNL A   1      43.743  28.718  29.281  1.00  0.00     0.031 C 
ATOM     58  C   UNL A   1      47.785  25.776  31.753  1.00  0.00     0.029 A 
ATOM     59  C   UNL A   1      46.710  26.525  31.289  1.00  0.00     0.049 A 
ATOM     60  H   UNL A   1      46.554  27.606  29.513  1.00  0.00     0.167 HD
ATOM     61  C   UNL A   1      44.461  27.496  31.097  1.00  0.00     0.074 A 
ATOM     62  C   UNL A   1      44.714  28.604  30.190  1.00  0.00     0.031 C 
ATOM     63  C   UNL A   1      45.333  26.644  31.699  1.00  0.00     0.037 A 
BRANCH  50  64
ATOM     64  C   UNL A   1      48.964  28.114  27.814  1.00  0.00     0.057 A 
ATOM     65  C   UNL A   1      50.224  28.685  28.043  1.00  0.00     0.134 A 
ATOM     66  C   UNL A   1      47.959  29.012  27.388  1.00  0.00     0.134 A 
ATOM     67  F   UNL A   1      51.237  27.944  28.515  1.00  0.00    -0.206 F 
ATOM     68  C   UNL A   1      50.462  30.054  27.864  1.00  0.00     0.040 A 
ATOM     69  C   UNL A   1      48.199  30.366  27.156  1.00  0.00     0.040 A 
ATOM     70  F   UNL A   1      46.675  28.643  27.284  1.00  0.00    -0.206 F 
ATOM     71  C   UNL A   1      49.451  30.897  27.414  1.00  0.00     0.006 A 
ENDBRANCH  50  64
BRANCH  51  72
ATOM     72  C   UNL A   1      40.614  27.715  28.434  1.00  0.00     0.057 A 
ATOM     73  C   UNL A   1      39.539  27.776  29.331  1.00  0.00     0.134 A 
ATOM     74  C   UNL A   1      40.492  28.509  27.278  1.00  0.00     0.134 A 
ATOM     75  F   UNL A   1      39.576  27.104  30.491  1.00  0.00    -0.206 F 
ATOM     76  C   UNL A   1      38.414  28.578  29.092  1.00  0.00     0.040 A 
ATOM     77  C   UNL A   1      39.367  29.295  27.018  1.00  0.00     0.040 A 
ATOM     78  F   UNL A   1      41.495  28.614  26.394  1.00  0.00    -0.206 F 
ATOM     79  C   UNL A   1      38.326  29.342  27.933  1.00  0.00     0.006 A 
ENDBRANCH  51  72
BRANCH  63  80
ATOM     80  C   UNL A   1      44.786  25.654  32.669  1.00  0.00     0.057 A 
ATOM     81  C   UNL A   1      44.442  24.338  32.340  1.00  0.00     0.134 A 
ATOM     82  C   UNL A   1      44.679  26.038  34.011  1.00  0.00     0.134 A 
ATOM     83  F   UNL A   1      44.580  23.876  31.088  1.00  0.00    -0.206 F 
ATOM     84  C   UNL A   1      43.980  23.448  33.313  1.00  0.00     0.040 A 
ATOM     85  C   UNL A   1      44.250  25.149  34.994  1.00  0.00     0.040 A 
ATOM     86  F   UNL A   1      45.024  27.278  34.390  1.00  0.00    -0.206 F 
ATOM     87  C   UNL A   1      43.892  23.850  34.646  1.00  0.00     0.006 A 
ENDBRANCH  63  80
ENDBRANCH  37  38
ENDBRANCH  30  32
ENDBRANCH  29  30
ENDBRANCH  28  29
ENDBRANCH  27  28
ENDBRANCH  26  27
ENDBRANCH  25  26
ENDBRANCH   1  25
TORSDOF 19
ENDMDL
MODEL 2
REMARK VINA RESULT:     -10.5      4.716     10.050
REMARK SMILES Cc1ccc(C)c(/C=C2\SC(=S)N(CC(=O)OCCOCCOCCOC(=O)c3ccc(-c4c5nc(c(-c6c(F)cccc6F)c6ccc([nH]6)c(-c6c(F)cccc6F)c6nc(c(-c7c(F)cccc7F)c7ccc4[nH]7)C=C6)C=C5)cc3)C2=O)c1
REMARK SMILES IDX 21 1 20 2 19 3 18 4 17 5 15 6 16 7 14 8 13 9 8 10 9 11 10 12
REMARK SMILES IDX 83 13 11 14 84 15 12 16 7 17 1 18 2 19 3 20 85 21 4 22 5 23
REMARK SMILES IDX 6 24 22 25 23 26 24 27 25 28 26 29 27 30 28 31 29 32 30 33
REMARK SMILES IDX 82 34 31 35 81 36 32 37 33 38 34 39 75 40 35 41 80 42 74 43
REMARK SMILES IDX 76 44 36 45 79 46 73 47 72 48 37 50 63 51 46 52 62 53 47 54
REMARK SMILES IDX 50 55 61 56 77 57 48 58 49 59 60 61 78 62 51 63 38 64 39 65
REMARK SMILES IDX 44 66 40 67 41 68 43 69 45 70 42 71 64 72 65 73 70 74 66 75
REMARK SMILES IDX 67 76 69 77 71 78 68 79 52 80 53 81 58 82 54 83 55 84 57 85
REMARK SMILES IDX 59 86 56 87
REMARK H PARENT 76 49 50 60
REMARK Flexibility Score: inf
ROOT
ATOM      1  C   UNL A   1      33.340  30.863  27.631  1.00  0.00     0.188 C 
ENDROOT
BRANCH   1   2
ATOM      2  O   UNL A   1      33.124  30.470  26.278  1.00  0.00    -0.376 OA
BRANCH   2   3
ATOM      3  C   UNL A   1      31.774  30.559  25.817  1.00  0.00     0.202 C 
BRANCH   3   4
ATOM      4  C   UNL A   1      31.256  29.445  24.860  1.00  0.00     0.261 C 
BRANCH   4   5
ATOM      5  O   UNL A   1      30.223  29.793  23.866  1.00  0.00    -0.462 OA
BRANCH   5   6
ATOM      6  C   UNL A   1      30.441  29.207  22.648  1.00  0.00     0.326 C 
ATOM      7  O   UNL A   1      29.654  29.399  21.717  1.00  0.00    -0.250 OA
BRANCH   6   8
ATOM      8  C   UNL A   1      31.523  28.052  22.504  1.00  0.00     0.250 C 
BRANCH   8   9
ATOM      9  N   UNL A   1      31.672  26.595  22.899  1.00  0.00    -0.282 N 
ATOM     10  C   UNL A   1      33.887  23.819  23.680  1.00  0.00     0.029 C 
ATOM     11  C   UNL A   1      32.762  24.561  23.590  1.00  0.00     0.081 C 
ATOM     12  S   UNL A   1      31.113  24.191  23.802  1.00  0.00    -0.054 SA
ATOM     13  C   UNL A   1      32.833  26.056  23.397  1.00  0.00     0.266 C 
ATOM     14  C   UNL A   1      30.623  25.875  23.457  1.00  0.00     0.148 C 
ATOM     15  O   UNL A   1      33.709  26.696  23.965  1.00  0.00    -0.268 OA
ATOM     16  S   UNL A   1      29.118  26.424  23.944  1.00  0.00    -0.052 S 
BRANCH  10  17
ATOM     17  C   UNL A   1      34.288  22.409  24.028  1.00  0.00    -0.021 A 
ATOM     18  C   UNL A   1      32.726  18.972  24.801  1.00  0.00     0.044 C 
ATOM     19  C   UNL A   1      33.724  20.078  24.619  1.00  0.00    -0.051 A 
ATOM     20  C   UNL A   1      35.045  19.816  24.975  1.00  0.00     0.004 A 
ATOM     21  C   UNL A   1      33.352  21.366  24.161  1.00  0.00     0.011 A 
ATOM     22  C   UNL A   1      35.996  20.802  24.816  1.00  0.00     0.004 A 
ATOM     23  C   UNL A   1      35.647  22.076  24.326  1.00  0.00    -0.044 A 
ATOM     24  C   UNL A   1      36.833  22.991  24.207  1.00  0.00     0.045 C 
ENDBRANCH  10  17
ENDBRANCH   8   9
ENDBRANCH   6   8
ENDBRANCH   5   6
ENDBRANCH   4   5
ENDBRANCH   3   4
ENDBRANCH   2   3
ENDBRANCH   1   2
BRANCH   1  25
ATOM     25  C   UNL A   1      34.730  31.454  27.987  1.00  0.00     0.188 C 
BRANCH  25  26
ATOM     26  O   UNL A   1      34.829  32.827  27.644  1.00  0.00    -0.376 OA
BRANCH  26  27
ATOM     27  C   UNL A   1      33.712  33.676  27.854  1.00  0.00     0.202 C 
BRANCH  27  28
ATOM     28  C   UNL A   1      33.682  34.669  29.030  1.00  0.00     0.261 C 
BRANCH  28  29
ATOM     29  O   UNL A   1      33.558  34.243  30.406  1.00  0.00    -0.460 OA
BRANCH  29  30
ATOM     30  C   UNL A   1      34.305  34.574  31.482  1.00  0.00     0.338 C 
ATOM     31  O   UNL A   1      34.177  35.625  32.067  1.00  0.00    -0.246 OA
BRANCH  30  32
ATOM     32  C   UNL A   1      35.385  33.647  31.836  1.00  0.00     0.060 A 
ATOM     33  C   UNL A   1      36.645  34.192  31.722  1.00  0.00     0.016 A 
ATOM     34  C   UNL A   1      35.207  32.295  32.168  1.00  0.00     0.016 A 
ATOM     35  C   UNL A   1      37.710  33.323  31.730  1.00  0.00     0.010 A 
ATOM     36  C   UNL A   1      36.316  31.437  32.194  1.00  0.00     0.010 A 
ATOM     37  C   UNL A   1      37.569  31.958  31.898  1.00  0.00    -0.014 A 
BRANCH  37  38
ATOM     38  C   UNL A   1      38.850  31.253  31.816  1.00  0.00     0.031 A 
ATOM     39  C   UNL A   1      39.746  31.407  32.993  1.00  0.00     0.074 A 
ATOM     40  C   UNL A   1      39.241  30.657  30.668  1.00  0.00     0.049 A 
ATOM     41  N   UNL A   1      40.998  31.748  32.996  1.00  0.00    -0.248 NA
ATOM     42  C   UNL A   1      39.163  31.252  34.336  1.00  0.00     0.031 C 
ATOM     43  C   UNL A   1      38.404  30.483  29.482  1.00  0.00     0.029 A 
ATOM     44  N   UNL A   1      40.406  30.013  30.326  1.00  0.00    -0.354 N 
ATOM     45  C   UNL A   1      41.411  31.605  34.318  1.00  0.00     0.074 A 
ATOM     46  C   UNL A   1      40.227  31.431  35.117  1.00  0.00     0.031 C 
ATOM     47  C   UNL A   1      38.976  29.582  28.663  1.00  0.00     0.029 A 
ATOM     48  C   UNL A   1      40.250  29.171  29.229  1.00  0.00     0.049 A 
ATOM     49  H   UNL A   1      41.259  30.134  30.805  1.00  0.00     0.167 HD
ATOM     50  C   UNL A   1      42.691  31.270  34.615  1.00  0.00     0.037 A 
ATOM     51  C   UNL A   1      41.033  28.142  28.828  1.00  0.00     0.037 A 
ATOM     52  C   UNL A   1      43.636  31.689  33.625  1.00  0.00     0.049 A 
ATOM     53  C   UNL A   1      42.400  28.323  29.356  1.00  0.00     0.074 A 
ATOM     54  C   UNL A   1      44.350  32.828  33.329  1.00  0.00     0.029 A 
ATOM     55  N   UNL A   1      43.761  30.841  32.564  1.00  0.00    -0.354 N 
ATOM     56  N   UNL A   1      43.234  29.218  28.910  1.00  0.00    -0.248 NA
ATOM     57  C   UNL A   1      42.784  27.674  30.608  1.00  0.00     0.031 C 
ATOM     58  C   UNL A   1      44.859  32.658  32.008  1.00  0.00     0.029 A 
ATOM     59  C   UNL A   1      44.454  31.416  31.535  1.00  0.00     0.049 A 
ATOM     60  H   UNL A   1      43.396  29.927  32.542  1.00  0.00     0.167 HD
ATOM     61  C   UNL A   1      43.994  29.542  30.013  1.00  0.00     0.074 A 
ATOM     62  C   UNL A   1      43.808  28.454  30.961  1.00  0.00     0.031 C 
ATOM     63  C   UNL A   1      44.403  30.821  30.223  1.00  0.00     0.037 A 
BRANCH  50  64
ATOM     64  C   UNL A   1      42.982  30.081  35.501  1.00  0.00     0.057 A 
ATOM     65  C   UNL A   1      43.892  30.195  36.562  1.00  0.00     0.134 A 
ATOM     66  C   UNL A   1      42.630  28.760  35.143  1.00  0.00     0.134 A 
ATOM     67  F   UNL A   1      44.352  31.395  36.945  1.00  0.00    -0.206 F 
ATOM     68  C   UNL A   1      44.417  29.071  37.214  1.00  0.00     0.040 A 
ATOM     69  C   UNL A   1      43.105  27.637  35.819  1.00  0.00     0.040 A 
ATOM     70  F   UNL A   1      41.898  28.492  34.052  1.00  0.00    -0.206 F 
ATOM     71  C   UNL A   1      44.019  27.788  36.848  1.00  0.00     0.006 A 
ENDBRANCH  50  64
BRANCH  51  72
ATOM     72  C   UNL A   1      40.618  26.912  28.110  1.00  0.00     0.057 A 
ATOM     73  C   UNL A   1      39.615  26.068  28.607  1.00  0.00     0.134 A 
ATOM     74  C   UNL A   1      41.042  26.649  26.793  1.00  0.00     0.134 A 
ATOM     75  F   UNL A   1      39.097  26.265  29.828  1.00  0.00    -0.206 F 
ATOM     76  C   UNL A   1      39.069  25.029  27.842  1.00  0.00     0.040 A 
ATOM     77  C   UNL A   1      40.521  25.603  26.028  1.00  0.00     0.040 A 
ATOM     78  F   UNL A   1      41.921  27.446  26.170  1.00  0.00    -0.206 F 
ATOM     79  C   UNL A   1      39.521  24.794  26.547  1.00  0.00     0.006 A 
ENDBRANCH  51  72
BRANCH  63  80
ATOM     80  C   UNL A   1      44.599  31.695  29.032  1.00  0.00     0.057 A 
ATOM     81  C   UNL A   1      43.714  32.708  28.645  1.00  0.00     0.134 A 
ATOM     82  C   UNL A   1      45.780  31.548  28.294  1.00  0.00     0.134 A 
ATOM     83  F   UNL A   1      42.594  32.955  29.342  1.00  0.00    -0.206 F 
ATOM     84  C   UNL A   1      43.987  33.524  27.544  1.00  0.00     0.040 A 
ATOM     85  C   UNL A   1      46.076  32.377  27.214  1.00  0.00     0.040 A 
ATOM     86  F   UNL A   1      46.680  30.614  28.638  1.00  0.00    -0.206 F 
ATOM     87  C   UNL A   1      45.175  33.365  26.832  1.00  0.00     0.006 A 
ENDBRANCH  63  80
ENDBRANCH  37  38
ENDBRANCH  30  32
ENDBRANCH  29  30
ENDBRANCH  28  29
ENDBRANCH  27  28
ENDBRANCH  26  27
ENDBRANCH  25  26
ENDBRANCH   1  25
TORSDOF 19
ENDMDL
MODEL 3
REMARK VINA RESULT:     -10.4      1.859      2.498
REMARK SMILES Cc1ccc(C)c(/C=C2\SC(=S)N(CC(=O)OCCOCCOCCOC(=O)c3ccc(-c4c5nc(c(-c6c(F)cccc6F)c6ccc([nH]6)c(-c6c(F)cccc6F)c6nc(c(-c7c(F)cccc7F)c7ccc4[nH]7)C=C6)C=C5)cc3)C2=O)c1
REMARK SMILES IDX 21 1 20 2 19 3 18 4 17 5 15 6 16 7 14 8 13 9 8 10 9 11 10 12
REMARK SMILES IDX 83 13 11 14 84 15 12 16 7 17 1 18 2 19 3 20 85 21 4 22 5 23
REMARK SMILES IDX 6 24 22 25 23 26 24 27 25 28 26 29 27 30 28 31 29 32 30 33
REMARK SMILES IDX 82 34 31 35 81 36 32 37 33 38 34 39 75 40 35 41 80 42 74 43
REMARK SMILES IDX 76 44 36 45 79 46 73 47 72 48 37 50 63 51 46 52 62 53 47 54
REMARK SMILES IDX 50 55 61 56 77 57 48 58 49 59 60 61 78 62 51 63 38 64 39 65
REMARK SMILES IDX 44 66 40 67 41 68 43 69 45 70 42 71 64 72 65 73 70 74 66 75
REMARK SMILES IDX 67 76 69 77 71 78 68 79 52 80 53 81 58 82 54 83 55 84 57 85
REMARK SMILES IDX 59 86 56 87
REMARK H PARENT 76 49 50 60
REMARK Flexibility Score: inf
ROOT
ATOM      1  C   UNL A   1      38.631  21.322  25.369  1.00  0.00     0.188 C 
ENDROOT
BRANCH   1   2
ATOM      2  O   UNL A   1      37.737  22.374  25.722  1.00  0.00    -0.376 OA
BRANCH   2   3
ATOM      3  C   UNL A   1      36.694  22.640  24.782  1.00  0.00     0.202 C 
BRANCH   3   4
ATOM      4  C   UNL A   1      35.558  21.586  24.635  1.00  0.00     0.261 C 
BRANCH   4   5
ATOM      5  O   UNL A   1      34.922  21.059  25.859  1.00  0.00    -0.462 OA
BRANCH   5   6
ATOM      6  C   UNL A   1      33.597  20.764  25.681  1.00  0.00     0.326 C 
ATOM      7  O   UNL A   1      33.192  19.608  25.836  1.00  0.00    -0.250 OA
BRANCH   6   8
ATOM      8  C   UNL A   1      32.632  21.822  24.991  1.00  0.00     0.250 C 
BRANCH   8   9
ATOM      9  N   UNL A   1      32.587  23.321  24.762  1.00  0.00    -0.282 N 
ATOM     10  C   UNL A   1      32.676  26.665  26.188  1.00  0.00     0.029 C 
ATOM     11  C   UNL A   1      32.723  25.671  25.276  1.00  0.00     0.081 C 
ATOM     12  S   UNL A   1      32.689  25.662  23.573  1.00  0.00    -0.054 SA
ATOM     13  C   UNL A   1      32.990  24.245  25.696  1.00  0.00     0.266 C 
ATOM     14  C   UNL A   1      32.824  23.881  23.514  1.00  0.00     0.148 C 
ATOM     15  O   UNL A   1      33.788  24.022  26.597  1.00  0.00    -0.268 OA
ATOM     16  S   UNL A   1      33.335  23.127  22.108  1.00  0.00    -0.052 S 
BRANCH  10  17
ATOM     17  C   UNL A   1      32.619  28.170  26.220  1.00  0.00    -0.021 A 
ATOM     18  C   UNL A   1      34.181  31.172  28.063  1.00  0.00     0.044 C 
ATOM     19  C   UNL A   1      33.310  30.346  27.162  1.00  0.00    -0.051 A 
ATOM     20  C   UNL A   1      32.288  31.001  26.479  1.00  0.00     0.004 A 
ATOM     21  C   UNL A   1      33.463  28.943  27.039  1.00  0.00     0.011 A 
ATOM     22  C   UNL A   1      31.470  30.282  25.633  1.00  0.00     0.004 A 
ATOM     23  C   UNL A   1      31.634  28.891  25.473  1.00  0.00    -0.044 A 
ATOM     24  C   UNL A   1      30.659  28.307  24.491  1.00  0.00     0.045 C 
ENDBRANCH  10  17
ENDBRANCH   8   9
ENDBRANCH   6   8
ENDBRANCH   5   6
ENDBRANCH   4   5
ENDBRANCH   3   4
ENDBRANCH   2   3
ENDBRANCH   1   2
BRANCH   1  25
ATOM     25  C   UNL A   1      40.016  21.300  26.069  1.00  0.00     0.188 C 
BRANCH  25  26
ATOM     26  O   UNL A   1      40.543  19.986  26.167  1.00  0.00    -0.376 OA
BRANCH  26  27
ATOM     27  C   UNL A   1      41.850  19.802  26.687  1.00  0.00     0.202 C 
BRANCH  27  28
ATOM     28  C   UNL A   1      42.931  19.071  25.872  1.00  0.00     0.261 C 
BRANCH  28  29
ATOM     29  O   UNL A   1      43.503  19.622  24.663  1.00  0.00    -0.460 OA
BRANCH  29  30
ATOM     30  C   UNL A   1      44.644  20.324  24.492  1.00  0.00     0.338 C 
ATOM     31  O   UNL A   1      45.670  19.816  24.101  1.00  0.00    -0.246 OA
BRANCH  30  32
ATOM     32  C   UNL A   1      44.622  21.723  24.932  1.00  0.00     0.060 A 
ATOM     33  C   UNL A   1      45.427  21.976  26.020  1.00  0.00     0.016 A 
ATOM     34  C   UNL A   1      43.799  22.723  24.391  1.00  0.00     0.016 A 
ATOM     35  C   UNL A   1      45.234  23.164  26.685  1.00  0.00     0.010 A 
ATOM     36  C   UNL A   1      43.641  23.936  25.077  1.00  0.00     0.010 A 
ATOM     37  C   UNL A   1      44.319  24.116  26.276  1.00  0.00    -0.014 A 
BRANCH  37  38
ATOM     38  C   UNL A   1      44.271  25.266  27.182  1.00  0.00     0.031 A 
ATOM     39  C   UNL A   1      45.560  25.981  27.383  1.00  0.00     0.074 A 
ATOM     40  C   UNL A   1      43.164  25.530  27.909  1.00  0.00     0.049 A 
ATOM     41  N   UNL A   1      46.120  26.302  28.509  1.00  0.00    -0.248 NA
ATOM     42  C   UNL A   1      46.371  26.299  26.197  1.00  0.00     0.031 C 
ATOM     43  C   UNL A   1      41.874  24.857  27.755  1.00  0.00     0.029 A 
ATOM     44  N   UNL A   1      42.906  26.484  28.865  1.00  0.00    -0.354 N 
ATOM     45  C   UNL A   1      47.222  27.077  28.158  1.00  0.00     0.074 A 
ATOM     46  C   UNL A   1      47.409  26.935  26.739  1.00  0.00     0.031 C 
ATOM     47  C   UNL A   1      40.924  25.569  28.386  1.00  0.00     0.029 A 
ATOM     48  C   UNL A   1      41.544  26.704  29.047  1.00  0.00     0.049 A 
ATOM     49  H   UNL A   1      43.608  26.960  29.365  1.00  0.00     0.167 HD
ATOM     50  C   UNL A   1      47.670  28.061  28.978  1.00  0.00     0.037 A 
ATOM     51  C   UNL A   1      40.922  27.767  29.611  1.00  0.00     0.037 A 
ATOM     52  C   UNL A   1      47.387  27.825  30.361  1.00  0.00     0.049 A 
ATOM     53  C   UNL A   1      41.851  28.456  30.529  1.00  0.00     0.074 A 
ATOM     54  C   UNL A   1      47.964  27.142  31.407  1.00  0.00     0.029 A 
ATOM     55  N   UNL A   1      46.136  28.197  30.756  1.00  0.00    -0.354 N 
ATOM     56  N   UNL A   1      42.218  27.974  31.682  1.00  0.00    -0.248 NA
ATOM     57  C   UNL A   1      42.623  29.601  30.051  1.00  0.00     0.031 C 
ATOM     58  C   UNL A   1      46.978  27.059  32.433  1.00  0.00     0.029 A 
ATOM     59  C   UNL A   1      45.828  27.702  31.993  1.00  0.00     0.049 A 
ATOM     60  H   UNL A   1      45.529  28.753  30.217  1.00  0.00     0.167 HD
ATOM     61  C   UNL A   1      43.495  28.462  31.854  1.00  0.00     0.074 A 
ATOM     62  C   UNL A   1      43.623  29.583  30.936  1.00  0.00     0.031 C 
ATOM     63  C   UNL A   1      44.457  27.698  32.437  1.00  0.00     0.037 A 
BRANCH  50  64
ATOM     64  C   UNL A   1      47.840  29.469  28.456  1.00  0.00     0.057 A 
ATOM     65  C   UNL A   1      46.756  30.145  27.881  1.00  0.00     0.134 A 
ATOM     66  C   UNL A   1      49.109  30.046  28.223  1.00  0.00     0.134 A 
ATOM     67  F   UNL A   1      45.512  29.654  27.977  1.00  0.00    -0.206 F 
ATOM     68  C   UNL A   1      46.926  31.312  27.123  1.00  0.00     0.040 A 
ATOM     69  C   UNL A   1      49.284  31.235  27.515  1.00  0.00     0.040 A 
ATOM     70  F   UNL A   1      50.246  29.428  28.572  1.00  0.00    -0.206 F 
ATOM     71  C   UNL A   1      48.191  31.863  26.943  1.00  0.00     0.006 A 
ENDBRANCH  50  64
BRANCH  51  72
ATOM     72  C   UNL A   1      39.580  28.310  29.287  1.00  0.00     0.057 A 
ATOM     73  C   UNL A   1      38.548  28.345  30.234  1.00  0.00     0.134 A 
ATOM     74  C   UNL A   1      39.340  29.018  28.094  1.00  0.00     0.134 A 
ATOM     75  F   UNL A   1      38.693  27.752  31.428  1.00  0.00    -0.206 F 
ATOM     76  C   UNL A   1      37.353  29.043  30.009  1.00  0.00     0.040 A 
ATOM     77  C   UNL A   1      38.146  29.699  27.848  1.00  0.00     0.040 A 
ATOM     78  F   UNL A   1      40.288  29.144  27.154  1.00  0.00    -0.206 F 
ATOM     79  C   UNL A   1      37.149  29.723  28.812  1.00  0.00     0.006 A 
ENDBRANCH  51  72
BRANCH  63  80
ATOM     80  C   UNL A   1      44.026  26.668  33.425  1.00  0.00     0.057 A 
ATOM     81  C   UNL A   1      44.042  25.290  33.182  1.00  0.00     0.134 A 
ATOM     82  C   UNL A   1      43.654  27.098  34.704  1.00  0.00     0.134 A 
ATOM     83  F   UNL A   1      44.449  24.797  32.002  1.00  0.00    -0.206 F 
ATOM     84  C   UNL A   1      43.671  24.378  34.174  1.00  0.00     0.040 A 
ATOM     85  C   UNL A   1      43.313  26.196  35.710  1.00  0.00     0.040 A 
ATOM     86  F   UNL A   1      43.651  28.407  35.004  1.00  0.00    -0.206 F 
ATOM     87  C   UNL A   1      43.315  24.830  35.444  1.00  0.00     0.006 A 
ENDBRANCH  63  80
ENDBRANCH  37  38
ENDBRANCH  30  32
ENDBRANCH  29  30
ENDBRANCH  28  29
ENDBRANCH  27  28
ENDBRANCH  26  27
ENDBRANCH  25  26
ENDBRANCH   1  25
TORSDOF 19
ENDMDL
