MODEL 1
REMARK VINA RESULT:      -8.9      0.000      0.000
REMARK SMILES CC(C)CCOCC[N@@H+]1[C@@H](C(=O)OCCOCCOCCOC(=O)c2ccc(-c3c4nc(c(-c5c(F)cccc5F)c5ccc([nH]5)c(-c5c(F)cccc5F)c5nc(c(-c6c(F)cccc6F)c6ccc3[nH]6)C=C5)C=C4)cc2)CC[C@H]2CCCC[C@H]21
REMARK SMILES IDX 15 1 14 2 13 3 11 4 12 5 10 6 9 7 86 8 79 10 81 11 85 12
REMARK SMILES IDX 80 13 82 14 84 15 83 16 8 17 7 18 6 19 5 20 4 21 2 22 1 23
REMARK SMILES IDX 3 24 16 25 17 26 18 27 19 28 20 29 21 30 22 31 23 32 24 33
REMARK SMILES IDX 25 34 26 35 78 36 27 37 77 38 28 39 29 40 30 41 71 42 31 43
REMARK SMILES IDX 76 44 70 45 72 46 32 47 75 48 69 49 68 50 33 52 59 53 42 54
REMARK SMILES IDX 58 55 43 56 46 57 57 58 73 59 44 60 45 61 56 63 74 64 47 65
REMARK SMILES IDX 34 66 35 67 40 68 36 69 37 70 39 71 41 72 38 73 60 74 61 75
REMARK SMILES IDX 66 76 62 77 63 78 65 79 67 80 64 81 48 82 49 83 54 84 50 85
REMARK SMILES IDX 51 86 53 87 55 88 52 89
REMARK H PARENT 9 9 72 51 46 62
REMARK Flexibility Score: inf
ROOT
ATOM      1  C   UNL A   1      37.147  22.370  24.375  1.00  0.00     0.202 C 
ENDROOT
BRANCH   1   2
ATOM      2  C   UNL A   1      35.760  23.015  24.304  1.00  0.00     0.261 C 
BRANCH   2   3
ATOM      3  O   UNL A   1      34.633  22.238  24.787  1.00  0.00    -0.459 OA
BRANCH   3   4
ATOM      4  C   UNL A   1      33.413  22.830  24.679  1.00  0.00     0.364 C 
ATOM      5  O   UNL A   1      32.425  22.443  25.305  1.00  0.00    -0.245 OA
BRANCH   4   6
ATOM      6  C   UNL A   1      33.321  24.065  23.731  1.00  0.00     0.295 C 
ATOM      7  N   UNL A   1      32.770  25.342  24.348  1.00  0.00    -0.319 N 
ATOM      8  C   UNL A   1      33.198  26.483  23.447  1.00  0.00     0.187 C 
ATOM      9  H   UNL A   1      31.753  25.326  24.420  1.00  0.00     0.349 HD
ATOM     10  C   UNL A   1      32.674  23.829  22.361  1.00  0.00     0.078 C 
ATOM     11  C   UNL A   1      32.717  26.337  21.969  1.00  0.00     0.048 C 
ATOM     12  C   UNL A   1      32.831  27.922  23.884  1.00  0.00     0.065 C 
ATOM     13  C   UNL A   1      33.028  24.956  21.395  1.00  0.00     0.016 C 
ATOM     14  C   UNL A   1      31.238  26.679  21.739  1.00  0.00     0.010 C 
ATOM     15  C   UNL A   1      31.361  28.283  23.736  1.00  0.00     0.006 C 
ATOM     16  C   UNL A   1      30.810  28.012  22.343  1.00  0.00     0.001 C 
BRANCH   7  17
ATOM     17  C   UNL A   1      33.301  25.496  25.732  1.00  0.00     0.291 C 
BRANCH  17  18
ATOM     18  C   UNL A   1      32.284  25.723  26.885  1.00  0.00     0.221 C 
BRANCH  18  19
ATOM     19  O   UNL A   1      31.469  26.882  26.874  1.00  0.00    -0.376 OA
BRANCH  19  20
ATOM     20  C   UNL A   1      31.810  28.033  27.637  1.00  0.00     0.160 C 
BRANCH  20  21
ATOM     21  C   UNL A   1      33.209  28.648  27.577  1.00  0.00     0.031 C 
BRANCH  21  22
ATOM     22  C   UNL A   1      33.327  29.965  26.800  1.00  0.00    -0.015 C 
ATOM     23  C   UNL A   1      32.020  30.740  26.720  1.00  0.00     0.007 C 
ATOM     24  C   UNL A   1      34.390  30.887  27.396  1.00  0.00     0.007 C 
ENDBRANCH  21  22
ENDBRANCH  20  21
ENDBRANCH  19  20
ENDBRANCH  18  19
ENDBRANCH  17  18
ENDBRANCH   7  17
ENDBRANCH   4   6
ENDBRANCH   3   4
ENDBRANCH   2   3
ENDBRANCH   1   2
BRANCH   1  25
ATOM     25  O   UNL A   1      37.419  21.509  25.467  1.00  0.00    -0.376 OA
BRANCH  25  26
ATOM     26  C   UNL A   1      38.761  21.366  25.911  1.00  0.00     0.188 C 
BRANCH  26  27
ATOM     27  C   UNL A   1      39.481  22.588  26.497  1.00  0.00     0.188 C 
BRANCH  27  28
ATOM     28  O   UNL A   1      40.794  22.338  26.959  1.00  0.00    -0.376 OA
BRANCH  28  29
ATOM     29  C   UNL A   1      41.757  22.021  25.972  1.00  0.00     0.202 C 
BRANCH  29  30
ATOM     30  C   UNL A   1      42.894  23.045  25.917  1.00  0.00     0.261 C 
BRANCH  30  31
ATOM     31  O   UNL A   1      42.666  24.228  26.706  1.00  0.00    -0.460 OA
BRANCH  31  32
ATOM     32  C   UNL A   1      42.318  25.352  26.040  1.00  0.00     0.338 C 
ATOM     33  O   UNL A   1      42.264  25.499  24.831  1.00  0.00    -0.246 OA
BRANCH  32  34
ATOM     34  C   UNL A   1      41.763  26.314  27.023  1.00  0.00     0.060 A 
ATOM     35  C   UNL A   1      42.235  27.636  27.004  1.00  0.00     0.016 A 
ATOM     36  C   UNL A   1      40.773  25.934  27.933  1.00  0.00     0.016 A 
ATOM     37  C   UNL A   1      41.767  28.559  27.940  1.00  0.00     0.010 A 
ATOM     38  C   UNL A   1      40.317  26.854  28.881  1.00  0.00     0.010 A 
ATOM     39  C   UNL A   1      40.854  28.153  28.922  1.00  0.00    -0.014 A 
BRANCH  39  40
ATOM     40  C   UNL A   1      40.716  28.969  30.153  1.00  0.00     0.031 A 
ATOM     41  C   UNL A   1      39.611  29.993  30.181  1.00  0.00     0.074 A 
ATOM     42  C   UNL A   1      41.509  28.807  31.224  1.00  0.00     0.049 A 
ATOM     43  N   UNL A   1      39.269  30.829  31.126  1.00  0.00    -0.248 NA
ATOM     44  C   UNL A   1      38.783  30.085  28.966  1.00  0.00     0.031 C 
ATOM     45  C   UNL A   1      42.601  27.844  31.338  1.00  0.00     0.029 A 
ATOM     46  N   UNL A   1      41.515  29.472  32.426  1.00  0.00    -0.354 N 
ATOM     47  C   UNL A   1      38.195  31.549  30.616  1.00  0.00     0.074 A 
ATOM     48  C   UNL A   1      37.964  31.079  29.270  1.00  0.00     0.031 C 
ATOM     49  C   UNL A   1      43.183  27.990  32.542  1.00  0.00     0.029 A 
ATOM     50  C   UNL A   1      42.515  29.067  33.274  1.00  0.00     0.049 A 
ATOM     51  H   UNL A   1      40.862  30.172  32.658  1.00  0.00     0.167 HD
ATOM     52  C   UNL A   1      37.456  32.511  31.216  1.00  0.00     0.037 A 
ATOM     53  C   UNL A   1      42.856  29.525  34.496  1.00  0.00     0.037 A 
ATOM     54  C   UNL A   1      37.683  32.989  32.551  1.00  0.00     0.049 A 
ATOM     55  C   UNL A   1      42.046  30.625  35.134  1.00  0.00     0.074 A 
ATOM     56  C   UNL A   1      36.973  33.942  33.259  1.00  0.00     0.029 A 
ATOM     57  N   UNL A   1      38.711  32.558  33.376  1.00  0.00    -0.354 N 
ATOM     58  N   UNL A   1      41.001  31.265  34.666  1.00  0.00    -0.248 NA
ATOM     59  C   UNL A   1      42.457  31.057  36.479  1.00  0.00     0.031 C 
ATOM     60  C   UNL A   1      37.602  34.122  34.496  1.00  0.00     0.029 A 
ATOM     61  C   UNL A   1      38.670  33.243  34.578  1.00  0.00     0.049 A 
ATOM     62  H   UNL A   1      39.372  31.868  33.140  1.00  0.00     0.167 HD
ATOM     63  C   UNL A   1      40.613  32.150  35.666  1.00  0.00     0.074 A 
ATOM     64  C   UNL A   1      41.529  31.958  36.770  1.00  0.00     0.031 C 
ATOM     65  C   UNL A   1      39.587  33.038  35.671  1.00  0.00     0.037 A 
BRANCH  52  66
ATOM     66  C   UNL A   1      36.358  33.129  30.400  1.00  0.00     0.057 A 
ATOM     67  C   UNL A   1      36.619  34.056  29.381  1.00  0.00     0.134 A 
ATOM     68  C   UNL A   1      35.020  32.811  30.657  1.00  0.00     0.134 A 
ATOM     69  F   UNL A   1      37.880  34.421  29.101  1.00  0.00    -0.206 F 
ATOM     70  C   UNL A   1      35.586  34.673  28.674  1.00  0.00     0.040 A 
ATOM     71  C   UNL A   1      33.979  33.399  29.937  1.00  0.00     0.040 A 
ATOM     72  F   UNL A   1      34.700  31.933  31.620  1.00  0.00    -0.206 F 
ATOM     73  C   UNL A   1      34.261  34.341  28.949  1.00  0.00     0.006 A 
ENDBRANCH  52  66
BRANCH  53  74
ATOM     74  C   UNL A   1      44.026  28.943  35.201  1.00  0.00     0.057 A 
ATOM     75  C   UNL A   1      43.891  27.838  36.048  1.00  0.00     0.134 A 
ATOM     76  C   UNL A   1      45.307  29.489  35.050  1.00  0.00     0.134 A 
ATOM     77  F   UNL A   1      42.685  27.289  36.254  1.00  0.00    -0.206 F 
ATOM     78  C   UNL A   1      44.986  27.300  36.727  1.00  0.00     0.040 A 
ATOM     79  C   UNL A   1      46.414  28.947  35.706  1.00  0.00     0.040 A 
ATOM     80  F   UNL A   1      45.500  30.553  34.257  1.00  0.00    -0.206 F 
ATOM     81  C   UNL A   1      46.253  27.851  36.551  1.00  0.00     0.006 A 
ENDBRANCH  53  74
BRANCH  65  82
ATOM     82  C   UNL A   1      39.371  33.842  36.922  1.00  0.00     0.057 A 
ATOM     83  C   UNL A   1      38.591  33.370  37.985  1.00  0.00     0.134 A 
ATOM     84  C   UNL A   1      39.991  35.089  37.080  1.00  0.00     0.134 A 
ATOM     85  F   UNL A   1      37.964  32.187  37.896  1.00  0.00    -0.206 F 
ATOM     86  C   UNL A   1      38.415  34.120  39.150  1.00  0.00     0.040 A 
ATOM     87  C   UNL A   1      39.844  35.835  38.250  1.00  0.00     0.040 A 
ATOM     88  F   UNL A   1      40.761  35.595  36.105  1.00  0.00    -0.206 F 
ATOM     89  C   UNL A   1      39.048  35.354  39.286  1.00  0.00     0.006 A 
ENDBRANCH  65  82
ENDBRANCH  39  40
ENDBRANCH  32  34
ENDBRANCH  31  32
ENDBRANCH  30  31
ENDBRANCH  29  30
ENDBRANCH  28  29
ENDBRANCH  27  28
ENDBRANCH  26  27
ENDBRANCH  25  26
ENDBRANCH   1  25
TORSDOF 23
ENDMDL
MODEL 2
REMARK VINA RESULT:      -8.9      2.619      7.900
REMARK SMILES CC(C)CCOCC[N@@H+]1[C@@H](C(=O)OCCOCCOCCOC(=O)c2ccc(-c3c4nc(c(-c5c(F)cccc5F)c5ccc([nH]5)c(-c5c(F)cccc5F)c5nc(c(-c6c(F)cccc6F)c6ccc3[nH]6)C=C5)C=C4)cc2)CC[C@H]2CCCC[C@H]21
REMARK SMILES IDX 15 1 14 2 13 3 11 4 12 5 10 6 9 7 86 8 79 10 81 11 85 12
REMARK SMILES IDX 80 13 82 14 84 15 83 16 8 17 7 18 6 19 5 20 4 21 2 22 1 23
REMARK SMILES IDX 3 24 16 25 17 26 18 27 19 28 20 29 21 30 22 31 23 32 24 33
REMARK SMILES IDX 25 34 26 35 78 36 27 37 77 38 28 39 29 40 30 41 71 42 31 43
REMARK SMILES IDX 76 44 70 45 72 46 32 47 75 48 69 49 68 50 33 52 59 53 42 54
REMARK SMILES IDX 58 55 43 56 46 57 57 58 73 59 44 60 45 61 56 63 74 64 47 65
REMARK SMILES IDX 34 66 35 67 40 68 36 69 37 70 39 71 41 72 38 73 60 74 61 75
REMARK SMILES IDX 66 76 62 77 63 78 65 79 67 80 64 81 48 82 49 83 54 84 50 85
REMARK SMILES IDX 51 86 53 87 55 88 52 89
REMARK H PARENT 9 9 72 51 46 62
REMARK Flexibility Score: inf
ROOT
ATOM      1  C   UNL A   1      33.867  27.167  25.353  1.00  0.00     0.202 C 
ENDROOT
BRANCH   1   2
ATOM      2  C   UNL A   1      34.057  25.650  25.427  1.00  0.00     0.261 C 
BRANCH   2   3
ATOM      3  O   UNL A   1      34.157  24.925  24.173  1.00  0.00    -0.459 OA
BRANCH   3   4
ATOM      4  C   UNL A   1      34.676  23.670  24.252  1.00  0.00     0.364 C 
ATOM      5  O   UNL A   1      35.862  23.451  24.506  1.00  0.00    -0.245 OA
BRANCH   4   6
ATOM      6  C   UNL A   1      33.679  22.491  24.034  1.00  0.00     0.295 C 
ATOM      7  N   UNL A   1      34.020  21.186  24.739  1.00  0.00    -0.319 N 
ATOM      8  C   UNL A   1      32.745  20.369  24.790  1.00  0.00     0.187 C 
ATOM      9  H   UNL A   1      34.742  20.662  24.246  1.00  0.00     0.349 HD
ATOM     10  C   UNL A   1      33.263  22.205  22.586  1.00  0.00     0.078 C 
ATOM     11  C   UNL A   1      32.117  20.087  23.389  1.00  0.00     0.048 C 
ATOM     12  C   UNL A   1      32.789  19.010  25.529  1.00  0.00     0.065 C 
ATOM     13  C   UNL A   1      31.997  21.353  22.545  1.00  0.00     0.016 C 
ATOM     14  C   UNL A   1      32.817  18.984  22.583  1.00  0.00     0.010 C 
ATOM     15  C   UNL A   1      33.533  17.904  24.796  1.00  0.00     0.006 C 
ATOM     16  C   UNL A   1      33.051  17.697  23.366  1.00  0.00     0.001 C 
BRANCH   7  17
ATOM     17  C   UNL A   1      34.549  21.479  26.101  1.00  0.00     0.291 C 
BRANCH  17  18
ATOM     18  C   UNL A   1      33.533  21.853  27.216  1.00  0.00     0.221 C 
BRANCH  18  19
ATOM     19  O   UNL A   1      32.695  22.983  27.041  1.00  0.00    -0.376 OA
BRANCH  19  20
ATOM     20  C   UNL A   1      31.350  22.845  26.600  1.00  0.00     0.160 C 
BRANCH  20  21
ATOM     21  C   UNL A   1      30.434  24.058  26.430  1.00  0.00     0.031 C 
BRANCH  21  22
ATOM     22  C   UNL A   1      30.726  24.952  25.219  1.00  0.00    -0.015 C 
ATOM     23  C   UNL A   1      30.511  24.253  23.884  1.00  0.00     0.007 C 
ATOM     24  C   UNL A   1      29.879  26.224  25.229  1.00  0.00     0.007 C 
ENDBRANCH  21  22
ENDBRANCH  20  21
ENDBRANCH  19  20
ENDBRANCH  18  19
ENDBRANCH  17  18
ENDBRANCH   7  17
ENDBRANCH   4   6
ENDBRANCH   3   4
ENDBRANCH   2   3
ENDBRANCH   1   2
BRANCH   1  25
ATOM     25  O   UNL A   1      33.771  27.881  26.574  1.00  0.00    -0.376 OA
BRANCH  25  26
ATOM     26  C   UNL A   1      32.485  28.131  27.124  1.00  0.00     0.188 C 
BRANCH  26  27
ATOM     27  C   UNL A   1      31.991  29.580  27.224  1.00  0.00     0.188 C 
BRANCH  27  28
ATOM     28  O   UNL A   1      31.873  30.253  25.985  1.00  0.00    -0.376 OA
BRANCH  28  29
ATOM     29  C   UNL A   1      31.172  31.482  26.002  1.00  0.00     0.202 C 
BRANCH  29  30
ATOM     30  C   UNL A   1      31.560  32.358  27.196  1.00  0.00     0.261 C 
BRANCH  30  31
ATOM     31  O   UNL A   1      32.799  33.073  27.030  1.00  0.00    -0.460 OA
BRANCH  31  32
ATOM     32  C   UNL A   1      33.373  33.573  28.148  1.00  0.00     0.338 C 
ATOM     33  O   UNL A   1      32.860  34.321  28.962  1.00  0.00    -0.246 OA
BRANCH  32  34
ATOM     34  C   UNL A   1      34.656  32.860  28.363  1.00  0.00     0.060 A 
ATOM     35  C   UNL A   1      34.629  31.464  28.503  1.00  0.00     0.016 A 
ATOM     36  C   UNL A   1      35.872  33.547  28.398  1.00  0.00     0.016 A 
ATOM     37  C   UNL A   1      35.810  30.762  28.749  1.00  0.00     0.010 A 
ATOM     38  C   UNL A   1      37.053  32.847  28.661  1.00  0.00     0.010 A 
ATOM     39  C   UNL A   1      37.017  31.460  28.892  1.00  0.00    -0.014 A 
BRANCH  39  40
ATOM     40  C   UNL A   1      38.148  30.800  29.588  1.00  0.00     0.031 A 
ATOM     41  C   UNL A   1      38.365  31.149  31.037  1.00  0.00     0.074 A 
ATOM     42  C   UNL A   1      38.947  29.904  28.986  1.00  0.00     0.049 A 
ATOM     43  N   UNL A   1      39.272  30.718  31.875  1.00  0.00    -0.248 NA
ATOM     44  C   UNL A   1      37.429  32.129  31.614  1.00  0.00     0.031 C 
ATOM     45  C   UNL A   1      38.837  29.462  27.598  1.00  0.00     0.029 A 
ATOM     46  N   UNL A   1      40.025  29.210  29.479  1.00  0.00    -0.354 N 
ATOM     47  C   UNL A   1      39.018  31.378  33.071  1.00  0.00     0.074 A 
ATOM     48  C   UNL A   1      37.900  32.263  32.843  1.00  0.00     0.031 C 
ATOM     49  C   UNL A   1      39.821  28.580  27.346  1.00  0.00     0.029 A 
ATOM     50  C   UNL A   1      40.637  28.409  28.549  1.00  0.00     0.049 A 
ATOM     51  H   UNL A   1      40.328  29.280  30.414  1.00  0.00     0.167 HD
ATOM     52  C   UNL A   1      39.651  31.254  34.261  1.00  0.00     0.037 A 
ATOM     53  C   UNL A   1      41.739  27.639  28.656  1.00  0.00     0.037 A 
ATOM     54  C   UNL A   1      40.768  30.381  34.494  1.00  0.00     0.049 A 
ATOM     55  C   UNL A   1      42.456  27.542  29.979  1.00  0.00     0.074 A 
ATOM     56  C   UNL A   1      41.462  30.163  35.670  1.00  0.00     0.029 A 
ATOM     57  N   UNL A   1      41.364  29.591  33.523  1.00  0.00    -0.354 N 
ATOM     58  N   UNL A   1      42.180  28.130  31.119  1.00  0.00    -0.248 NA
ATOM     59  C   UNL A   1      43.633  26.661  30.033  1.00  0.00     0.031 C 
ATOM     60  C   UNL A   1      42.510  29.277  35.399  1.00  0.00     0.029 A 
ATOM     61  C   UNL A   1      42.434  28.901  34.067  1.00  0.00     0.049 A 
ATOM     62  H   UNL A   1      41.069  29.530  32.585  1.00  0.00     0.167 HD
ATOM     63  C   UNL A   1      43.126  27.671  32.028  1.00  0.00     0.074 A 
ATOM     64  C   UNL A   1      43.979  26.746  31.310  1.00  0.00     0.031 C 
ATOM     65  C   UNL A   1      43.272  27.980  33.341  1.00  0.00     0.037 A 
BRANCH  52  66
ATOM     66  C   UNL A   1      39.161  32.122  35.382  1.00  0.00     0.057 A 
ATOM     67  C   UNL A   1      38.249  31.655  36.340  1.00  0.00     0.134 A 
ATOM     68  C   UNL A   1      39.585  33.452  35.488  1.00  0.00     0.134 A 
ATOM     69  F   UNL A   1      37.785  30.397  36.280  1.00  0.00    -0.206 F 
ATOM     70  C   UNL A   1      37.750  32.491  37.339  1.00  0.00     0.040 A 
ATOM     71  C   UNL A   1      39.115  34.289  36.500  1.00  0.00     0.040 A 
ATOM     72  F   UNL A   1      40.454  33.962  34.603  1.00  0.00    -0.206 F 
ATOM     73  C   UNL A   1      38.186  33.812  37.424  1.00  0.00     0.006 A 
ENDBRANCH  52  66
BRANCH  53  74
ATOM     74  C   UNL A   1      42.235  26.892  27.473  1.00  0.00     0.057 A 
ATOM     75  C   UNL A   1      43.089  27.489  26.540  1.00  0.00     0.134 A 
ATOM     76  C   UNL A   1      41.855  25.564  27.244  1.00  0.00     0.134 A 
ATOM     77  F   UNL A   1      43.465  28.767  26.690  1.00  0.00    -0.206 F 
ATOM     78  C   UNL A   1      43.542  26.795  25.415  1.00  0.00     0.040 A 
ATOM     79  C   UNL A   1      42.317  24.852  26.136  1.00  0.00     0.040 A 
ATOM     80  F   UNL A   1      41.032  24.938  28.098  1.00  0.00    -0.206 F 
ATOM     81  C   UNL A   1      43.161  25.470  25.216  1.00  0.00     0.006 A 
ENDBRANCH  53  74
BRANCH  65  82
ATOM     82  C   UNL A   1      44.367  27.287  34.100  1.00  0.00     0.057 A 
ATOM     83  C   UNL A   1      45.635  27.859  34.264  1.00  0.00     0.134 A 
ATOM     84  C   UNL A   1      44.133  26.049  34.712  1.00  0.00     0.134 A 
ATOM     85  F   UNL A   1      45.928  29.040  33.698  1.00  0.00    -0.206 F 
ATOM     86  C   UNL A   1      46.638  27.212  34.989  1.00  0.00     0.040 A 
ATOM     87  C   UNL A   1      45.119  25.406  35.462  1.00  0.00     0.040 A 
ATOM     88  F   UNL A   1      42.937  25.451  34.605  1.00  0.00    -0.206 F 
ATOM     89  C   UNL A   1      46.379  25.984  35.595  1.00  0.00     0.006 A 
ENDBRANCH  65  82
ENDBRANCH  39  40
ENDBRANCH  32  34
ENDBRANCH  31  32
ENDBRANCH  30  31
ENDBRANCH  29  30
ENDBRANCH  28  29
ENDBRANCH  27  28
ENDBRANCH  26  27
ENDBRANCH  25  26
ENDBRANCH   1  25
TORSDOF 23
ENDMDL
MODEL 3
REMARK VINA RESULT:      -8.9      1.686      2.844
REMARK SMILES CC(C)CCOCC[N@@H+]1[C@@H](C(=O)OCCOCCOCCOC(=O)c2ccc(-c3c4nc(c(-c5c(F)cccc5F)c5ccc([nH]5)c(-c5c(F)cccc5F)c5nc(c(-c6c(F)cccc6F)c6ccc3[nH]6)C=C5)C=C4)cc2)CC[C@H]2CCCC[C@H]21
REMARK SMILES IDX 15 1 14 2 13 3 11 4 12 5 10 6 9 7 86 8 79 10 81 11 85 12
REMARK SMILES IDX 80 13 82 14 84 15 83 16 8 17 7 18 6 19 5 20 4 21 2 22 1 23
REMARK SMILES IDX 3 24 16 25 17 26 18 27 19 28 20 29 21 30 22 31 23 32 24 33
REMARK SMILES IDX 25 34 26 35 78 36 27 37 77 38 28 39 29 40 30 41 71 42 31 43
REMARK SMILES IDX 76 44 70 45 72 46 32 47 75 48 69 49 68 50 33 52 59 53 42 54
REMARK SMILES IDX 58 55 43 56 46 57 57 58 73 59 44 60 45 61 56 63 74 64 47 65
REMARK SMILES IDX 34 66 35 67 40 68 36 69 37 70 39 71 41 72 38 73 60 74 61 75
REMARK SMILES IDX 66 76 62 77 63 78 65 79 67 80 64 81 48 82 49 83 54 84 50 85
REMARK SMILES IDX 51 86 53 87 55 88 52 89
REMARK H PARENT 9 9 72 51 46 62
REMARK Flexibility Score: inf
ROOT
ATOM      1  C   UNL A   1      39.633  21.332  26.338  1.00  0.00     0.202 C 
ENDROOT
BRANCH   1   2
ATOM      2  C   UNL A   1      38.918  22.595  25.851  1.00  0.00     0.261 C 
BRANCH   2   3
ATOM      3  O   UNL A   1      37.640  22.426  25.182  1.00  0.00    -0.459 OA
BRANCH   3   4
ATOM      4  C   UNL A   1      36.592  23.106  25.722  1.00  0.00     0.364 C 
ATOM      5  O   UNL A   1      36.734  24.131  26.391  1.00  0.00    -0.245 OA
BRANCH   4   6
ATOM      6  C   UNL A   1      35.170  22.539  25.427  1.00  0.00     0.295 C 
ATOM      7  N   UNL A   1      34.074  23.567  25.190  1.00  0.00    -0.319 N 
ATOM      8  C   UNL A   1      32.945  22.849  24.480  1.00  0.00     0.187 C 
ATOM      9  H   UNL A   1      33.730  23.969  26.061  1.00  0.00     0.349 HD
ATOM     10  C   UNL A   1      34.659  21.446  26.375  1.00  0.00     0.078 C 
ATOM     11  C   UNL A   1      32.382  21.622  25.265  1.00  0.00     0.048 C 
ATOM     12  C   UNL A   1      31.718  23.687  24.046  1.00  0.00     0.065 C 
ATOM     13  C   UNL A   1      33.491  20.690  25.748  1.00  0.00     0.016 C 
ATOM     14  C   UNL A   1      31.452  21.980  26.432  1.00  0.00     0.010 C 
ATOM     15  C   UNL A   1      30.803  24.121  25.181  1.00  0.00     0.006 C 
ATOM     16  C   UNL A   1      30.351  22.968  26.066  1.00  0.00     0.001 C 
BRANCH   7  17
ATOM     17  C   UNL A   1      34.616  24.694  24.377  1.00  0.00     0.291 C 
BRANCH  17  18
ATOM     18  C   UNL A   1      34.269  26.144  24.813  1.00  0.00     0.221 C 
BRANCH  18  19
ATOM     19  O   UNL A   1      33.695  27.034  23.871  1.00  0.00    -0.376 OA
BRANCH  19  20
ATOM     20  C   UNL A   1      32.290  27.252  23.822  1.00  0.00     0.160 C 
BRANCH  20  21
ATOM     21  C   UNL A   1      31.508  27.720  25.050  1.00  0.00     0.031 C 
BRANCH  21  22
ATOM     22  C   UNL A   1      32.246  28.686  25.985  1.00  0.00    -0.015 C 
ATOM     23  C   UNL A   1      31.829  30.138  25.806  1.00  0.00     0.007 C 
ATOM     24  C   UNL A   1      32.057  28.317  27.455  1.00  0.00     0.007 C 
ENDBRANCH  21  22
ENDBRANCH  20  21
ENDBRANCH  19  20
ENDBRANCH  18  19
ENDBRANCH  17  18
ENDBRANCH   7  17
ENDBRANCH   4   6
ENDBRANCH   3   4
ENDBRANCH   2   3
ENDBRANCH   1   2
BRANCH   1  25
ATOM     25  O   UNL A   1      40.538  21.463  27.420  1.00  0.00    -0.376 OA
BRANCH  25  26
ATOM     26  C   UNL A   1      41.723  20.678  27.423  1.00  0.00     0.188 C 
BRANCH  26  27
ATOM     27  C   UNL A   1      42.033  19.801  26.203  1.00  0.00     0.188 C 
BRANCH  27  28
ATOM     28  O   UNL A   1      43.095  20.267  25.392  1.00  0.00    -0.376 OA
BRANCH  28  29
ATOM     29  C   UNL A   1      43.238  21.671  25.290  1.00  0.00     0.202 C 
BRANCH  29  30
ATOM     30  C   UNL A   1      44.652  22.139  25.644  1.00  0.00     0.261 C 
BRANCH  30  31
ATOM     31  O   UNL A   1      44.698  23.323  26.463  1.00  0.00    -0.460 OA
BRANCH  31  32
ATOM     32  C   UNL A   1      44.515  24.509  25.838  1.00  0.00     0.338 C 
ATOM     33  O   UNL A   1      44.768  24.769  24.674  1.00  0.00    -0.246 OA
BRANCH  32  34
ATOM     34  C   UNL A   1      43.716  25.380  26.734  1.00  0.00     0.060 A 
ATOM     35  C   UNL A   1      44.018  26.750  26.776  1.00  0.00     0.016 A 
ATOM     36  C   UNL A   1      42.667  24.867  27.501  1.00  0.00     0.016 A 
ATOM     37  C   UNL A   1      43.316  27.595  27.637  1.00  0.00     0.010 A 
ATOM     38  C   UNL A   1      41.975  25.710  28.376  1.00  0.00     0.010 A 
ATOM     39  C   UNL A   1      42.336  27.065  28.486  1.00  0.00    -0.014 A 
BRANCH  39  40
ATOM     40  C   UNL A   1      41.931  27.839  29.685  1.00  0.00     0.031 A 
ATOM     41  C   UNL A   1      40.694  28.692  29.569  1.00  0.00     0.074 A 
ATOM     42  C   UNL A   1      42.602  27.783  30.846  1.00  0.00     0.049 A 
ATOM     43  N   UNL A   1      40.121  29.460  30.458  1.00  0.00    -0.248 NA
ATOM     44  C   UNL A   1      40.017  28.676  28.261  1.00  0.00     0.031 C 
ATOM     45  C   UNL A   1      43.799  26.987  31.100  1.00  0.00     0.029 A 
ATOM     46  N   UNL A   1      42.364  28.429  32.035  1.00  0.00    -0.354 N 
ATOM     47  C   UNL A   1      39.025  30.022  29.816  1.00  0.00     0.074 A 
ATOM     48  C   UNL A   1      39.031  29.537  28.454  1.00  0.00     0.031 C 
ATOM     49  C   UNL A   1      44.202  27.204  32.365  1.00  0.00     0.029 A 
ATOM     50  C   UNL A   1      43.301  28.165  33.002  1.00  0.00     0.049 A 
ATOM     51  H   UNL A   1      41.593  29.025  32.179  1.00  0.00     0.167 HD
ATOM     52  C   UNL A   1      38.086  30.861  30.312  1.00  0.00     0.037 A 
ATOM     53  C   UNL A   1      43.420  28.655  34.253  1.00  0.00     0.037 A 
ATOM     54  C   UNL A   1      38.076  31.353  31.662  1.00  0.00     0.049 A 
ATOM     55  C   UNL A   1      42.387  29.619  34.778  1.00  0.00     0.074 A 
ATOM     56  C   UNL A   1      37.155  32.185  32.270  1.00  0.00     0.029 A 
ATOM     57  N   UNL A   1      39.048  31.067  32.610  1.00  0.00    -0.354 N 
ATOM     58  N   UNL A   1      41.325  30.106  34.181  1.00  0.00    -0.248 NA
ATOM     59  C   UNL A   1      42.563  30.092  36.160  1.00  0.00     0.031 C 
ATOM     60  C   UNL A   1      37.595  32.442  33.574  1.00  0.00     0.029 A 
ATOM     61  C   UNL A   1      38.760  31.726  33.793  1.00  0.00     0.049 A 
ATOM     62  H   UNL A   1      39.826  30.482  32.462  1.00  0.00     0.167 HD
ATOM     63  C   UNL A   1      40.694  30.915  35.118  1.00  0.00     0.074 A 
ATOM     64  C   UNL A   1      41.486  30.847  36.329  1.00  0.00     0.031 C 
ATOM     65  C   UNL A   1      39.556  31.645  34.991  1.00  0.00     0.037 A 
BRANCH  52  66
ATOM     66  C   UNL A   1      37.019  31.321  29.363  1.00  0.00     0.057 A 
ATOM     67  C   UNL A   1      37.039  32.597  28.783  1.00  0.00     0.134 A 
ATOM     68  C   UNL A   1      35.942  30.484  29.049  1.00  0.00     0.134 A 
ATOM     69  F   UNL A   1      38.032  33.456  29.063  1.00  0.00    -0.206 F 
ATOM     70  C   UNL A   1      36.006  33.037  27.954  1.00  0.00     0.040 A 
ATOM     71  C   UNL A   1      34.917  30.903  28.198  1.00  0.00     0.040 A 
ATOM     72  F   UNL A   1      35.860  29.252  29.572  1.00  0.00    -0.206 F 
ATOM     73  C   UNL A   1      34.943  32.186  27.656  1.00  0.00     0.006 A 
ENDBRANCH  52  66
BRANCH  53  74
ATOM     74  C   UNL A   1      44.566  28.241  35.100  1.00  0.00     0.057 A 
ATOM     75  C   UNL A   1      44.515  27.082  35.881  1.00  0.00     0.134 A 
ATOM     76  C   UNL A   1      45.739  29.005  35.155  1.00  0.00     0.134 A 
ATOM     77  F   UNL A   1      43.409  26.324  35.892  1.00  0.00    -0.206 F 
ATOM     78  C   UNL A   1      45.585  26.700  36.695  1.00  0.00     0.040 A 
ATOM     79  C   UNL A   1      46.824  28.624  35.946  1.00  0.00     0.040 A 
ATOM     80  F   UNL A   1      45.847  30.132  34.434  1.00  0.00    -0.206 F 
ATOM     81  C   UNL A   1      46.746  27.470  36.722  1.00  0.00     0.006 A 
ENDBRANCH  53  74
BRANCH  65  82
ATOM     82  C   UNL A   1      39.075  32.396  36.200  1.00  0.00     0.057 A 
ATOM     83  C   UNL A   1      39.457  33.719  36.454  1.00  0.00     0.134 A 
ATOM     84  C   UNL A   1      38.181  31.799  37.098  1.00  0.00     0.134 A 
ATOM     85  F   UNL A   1      40.316  34.348  35.638  1.00  0.00    -0.206 F 
ATOM     86  C   UNL A   1      38.987  34.412  37.571  1.00  0.00     0.040 A 
ATOM     87  C   UNL A   1      37.683  32.490  38.203  1.00  0.00     0.040 A 
ATOM     88  F   UNL A   1      37.765  30.538  36.907  1.00  0.00    -0.206 F 
ATOM     89  C   UNL A   1      38.092  33.799  38.447  1.00  0.00     0.006 A 
ENDBRANCH  65  82
ENDBRANCH  39  40
ENDBRANCH  32  34
ENDBRANCH  31  32
ENDBRANCH  30  31
ENDBRANCH  29  30
ENDBRANCH  28  29
ENDBRANCH  27  28
ENDBRANCH  26  27
ENDBRANCH  25  26
ENDBRANCH   1  25
TORSDOF 23
ENDMDL
