MODEL 1
REMARK VINA RESULT:      -9.8      0.000      0.000
REMARK SMILES CC(C)(C)[NH+]1CCN(C(=O)CCCC(=O)OCCOCCOCCOC(=O)c2ccc(-c3c4nc(c(-c5c(F)cccc5F)c5ccc([nH]5)c(-c5c(F)cccc5F)c5nc(c(-c6c(F)cccc6F)c6ccc3[nH]6)C=C5)C=C4)cc2)CC1
REMARK SMILES IDX 20 1 19 2 18 3 17 4 16 5 14 6 15 7 13 8 12 9 11 10 9 11 5 12
REMARK SMILES IDX 6 13 83 14 7 16 82 17 8 18 10 19 2 20 1 21 3 22 4 23 21 24
REMARK SMILES IDX 22 25 23 26 24 27 25 28 26 29 27 30 28 31 29 32 81 33 30 34
REMARK SMILES IDX 80 35 31 36 32 37 33 38 74 39 34 40 79 41 73 42 75 43 35 44
REMARK SMILES IDX 78 45 72 46 71 47 36 49 62 50 45 51 61 52 46 53 49 54 60 55
REMARK SMILES IDX 76 56 47 57 48 58 59 60 77 61 50 62 37 63 38 64 43 65 39 66
REMARK SMILES IDX 40 67 42 68 44 69 41 70 63 71 64 72 69 73 65 74 66 75 68 76
REMARK SMILES IDX 70 77 67 78 51 79 52 80 57 81 53 82 54 83 56 84 58 85 55 86
REMARK H PARENT 5 15 75 48 49 59
REMARK Flexibility Score: inf
ROOT
ATOM      1  C   UNL A   1      41.643  20.756  27.496  1.00  0.00     0.188 C 
ENDROOT
BRANCH   1   2
ATOM      2  O   UNL A   1      40.274  21.127  27.343  1.00  0.00    -0.376 OA
BRANCH   2   3
ATOM      3  C   UNL A   1      39.862  21.684  26.102  1.00  0.00     0.202 C 
BRANCH   3   4
ATOM      4  C   UNL A   1      38.512  21.201  25.570  1.00  0.00     0.261 C 
BRANCH   4   5
ATOM      5  O   UNL A   1      37.862  22.173  24.714  1.00  0.00    -0.463 OA
BRANCH   5   6
ATOM      6  C   UNL A   1      36.747  22.779  25.184  1.00  0.00     0.305 C 
ATOM      7  O   UNL A   1      36.478  22.872  26.376  1.00  0.00    -0.252 OA
BRANCH   6   8
ATOM      8  C   UNL A   1      35.789  23.312  24.118  1.00  0.00     0.123 C 
BRANCH   8   9
ATOM      9  C   UNL A   1      34.301  23.662  24.301  1.00  0.00     0.022 C 
BRANCH   9  10
ATOM     10  C   UNL A   1      33.352  23.926  23.127  1.00  0.00     0.101 C 
BRANCH  10  11
ATOM     11  C   UNL A   1      33.285  25.372  22.623  1.00  0.00     0.222 C 
ATOM     12  N   UNL A   1      31.160  28.256  25.009  1.00  0.00    -0.328 N 
ATOM     13  C   UNL A   1      31.407  28.546  23.588  1.00  0.00     0.284 C 
ATOM     14  C   UNL A   1      30.775  26.857  25.121  1.00  0.00     0.284 C 
ATOM     15  H   UNL A   1      30.378  28.846  25.300  1.00  0.00     0.348 HD
ATOM     16  C   UNL A   1      32.483  27.674  22.908  1.00  0.00     0.181 C 
ATOM     17  C   UNL A   1      31.818  25.915  24.535  1.00  0.00     0.181 C 
ATOM     18  N   UNL A   1      32.431  26.257  23.271  1.00  0.00    -0.331 N 
ATOM     19  O   UNL A   1      33.980  25.720  21.666  1.00  0.00    -0.275 OA
BRANCH  12  20
ATOM     20  C   UNL A   1      32.039  28.835  26.055  1.00  0.00     0.089 C 
ATOM     21  C   UNL A   1      31.826  30.357  25.905  1.00  0.00     0.078 C 
ATOM     22  C   UNL A   1      33.544  28.545  25.878  1.00  0.00     0.078 C 
ATOM     23  C   UNL A   1      31.714  28.495  27.535  1.00  0.00     0.078 C 
ENDBRANCH  12  20
ENDBRANCH  10  11
ENDBRANCH   9  10
ENDBRANCH   8   9
ENDBRANCH   6   8
ENDBRANCH   5   6
ENDBRANCH   4   5
ENDBRANCH   3   4
ENDBRANCH   2   3
ENDBRANCH   1   2
BRANCH   1  24
ATOM     24  C   UNL A   1      42.542  20.770  26.245  1.00  0.00     0.188 C 
BRANCH  24  25
ATOM     25  O   UNL A   1      43.562  21.747  26.300  1.00  0.00    -0.376 OA
BRANCH  25  26
ATOM     26  C   UNL A   1      44.446  21.783  25.193  1.00  0.00     0.202 C 
BRANCH  26  27
ATOM     27  C   UNL A   1      44.231  22.958  24.228  1.00  0.00     0.261 C 
BRANCH  27  28
ATOM     28  O   UNL A   1      43.613  24.131  24.793  1.00  0.00    -0.460 OA
BRANCH  28  29
ATOM     29  C   UNL A   1      44.410  25.141  25.209  1.00  0.00     0.338 C 
ATOM     30  O   UNL A   1      45.435  25.529  24.672  1.00  0.00    -0.246 OA
BRANCH  29  31
ATOM     31  C   UNL A   1      43.686  25.872  26.281  1.00  0.00     0.060 A 
ATOM     32  C   UNL A   1      43.996  27.220  26.521  1.00  0.00     0.016 A 
ATOM     33  C   UNL A   1      42.664  25.253  27.004  1.00  0.00     0.016 A 
ATOM     34  C   UNL A   1      43.307  27.940  27.504  1.00  0.00     0.010 A 
ATOM     35  C   UNL A   1      41.990  25.966  28.002  1.00  0.00     0.010 A 
ATOM     36  C   UNL A   1      42.330  27.303  28.281  1.00  0.00    -0.014 A 
BRANCH  36  37
ATOM     37  C   UNL A   1      41.836  27.932  29.533  1.00  0.00     0.031 A 
ATOM     38  C   UNL A   1      40.599  28.786  29.445  1.00  0.00     0.074 A 
ATOM     39  C   UNL A   1      42.458  27.777  30.716  1.00  0.00     0.049 A 
ATOM     40  N   UNL A   1      40.026  29.525  30.359  1.00  0.00    -0.248 NA
ATOM     41  C   UNL A   1      39.921  28.808  28.137  1.00  0.00     0.031 C 
ATOM     42  C   UNL A   1      43.633  26.946  30.960  1.00  0.00     0.029 A 
ATOM     43  N   UNL A   1      42.182  28.339  31.941  1.00  0.00    -0.354 N 
ATOM     44  C   UNL A   1      38.927  30.105  29.736  1.00  0.00     0.074 A 
ATOM     45  C   UNL A   1      38.929  29.655  28.361  1.00  0.00     0.031 C 
ATOM     46  C   UNL A   1      43.990  27.066  32.252  1.00  0.00     0.029 A 
ATOM     47  C   UNL A   1      43.091  28.009  32.917  1.00  0.00     0.049 A 
ATOM     48  H   UNL A   1      41.406  28.922  32.103  1.00  0.00     0.167 HD
ATOM     49  C   UNL A   1      37.994  30.934  30.260  1.00  0.00     0.037 A 
ATOM     50  C   UNL A   1      43.197  28.441  34.190  1.00  0.00     0.037 A 
ATOM     51  C   UNL A   1      37.991  31.395  31.621  1.00  0.00     0.049 A 
ATOM     52  C   UNL A   1      42.198  29.437  34.728  1.00  0.00     0.074 A 
ATOM     53  C   UNL A   1      37.087  32.238  32.244  1.00  0.00     0.029 A 
ATOM     54  N   UNL A   1      38.945  31.060  32.568  1.00  0.00    -0.354 N 
ATOM     55  N   UNL A   1      41.155  29.969  34.137  1.00  0.00    -0.248 NA
ATOM     56  C   UNL A   1      42.397  29.897  36.113  1.00  0.00     0.031 C 
ATOM     57  C   UNL A   1      37.520  32.447  33.557  1.00  0.00     0.029 A 
ATOM     58  C   UNL A   1      38.664  31.695  33.765  1.00  0.00     0.049 A 
ATOM     59  H   UNL A   1      39.709  30.458  32.412  1.00  0.00     0.167 HD
ATOM     60  C   UNL A   1      40.556  30.793  35.085  1.00  0.00     0.074 A 
ATOM     61  C   UNL A   1      41.348  30.687  36.292  1.00  0.00     0.031 C 
ATOM     62  C   UNL A   1      39.449  31.567  34.966  1.00  0.00     0.037 A 
BRANCH  49  63
ATOM     63  C   UNL A   1      36.912  31.415  29.340  1.00  0.00     0.057 A 
ATOM     64  C   UNL A   1      35.838  30.594  28.972  1.00  0.00     0.134 A 
ATOM     65  C   UNL A   1      36.940  32.716  28.825  1.00  0.00     0.134 A 
ATOM     66  F   UNL A   1      35.765  29.330  29.414  1.00  0.00    -0.206 F 
ATOM     67  C   UNL A   1      34.840  31.046  28.106  1.00  0.00     0.040 A 
ATOM     68  C   UNL A   1      35.935  33.187  27.981  1.00  0.00     0.040 A 
ATOM     69  F   UNL A   1      37.942  33.552  29.139  1.00  0.00    -0.206 F 
ATOM     70  C   UNL A   1      34.884  32.349  27.613  1.00  0.00     0.006 A 
ENDBRANCH  49  63
BRANCH  50  71
ATOM     71  C   UNL A   1      44.305  27.962  35.057  1.00  0.00     0.057 A 
ATOM     72  C   UNL A   1      45.551  28.600  35.062  1.00  0.00     0.134 A 
ATOM     73  C   UNL A   1      44.163  26.822  35.859  1.00  0.00     0.134 A 
ATOM     74  F   UNL A   1      45.760  29.676  34.291  1.00  0.00    -0.206 F 
ATOM     75  C   UNL A   1      46.620  28.115  35.819  1.00  0.00     0.040 A 
ATOM     76  C   UNL A   1      45.216  26.340  36.640  1.00  0.00     0.040 A 
ATOM     77  F   UNL A   1      42.999  26.157  35.892  1.00  0.00    -0.206 F 
ATOM     78  C   UNL A   1      46.452  26.984  36.613  1.00  0.00     0.006 A 
ENDBRANCH  50  71
BRANCH  62  79
ATOM     79  C   UNL A   1      38.994  32.322  36.181  1.00  0.00     0.057 A 
ATOM     80  C   UNL A   1      38.174  31.738  37.155  1.00  0.00     0.134 A 
ATOM     81  C   UNL A   1      39.428  33.635  36.405  1.00  0.00     0.134 A 
ATOM     82  F   UNL A   1      37.716  30.487  36.997  1.00  0.00    -0.206 F 
ATOM     83  C   UNL A   1      37.786  32.441  38.298  1.00  0.00     0.040 A 
ATOM     84  C   UNL A   1      39.068  34.339  37.555  1.00  0.00     0.040 A 
ATOM     85  F   UNL A   1      40.224  34.251  35.518  1.00  0.00    -0.206 F 
ATOM     86  C   UNL A   1      38.240  33.743  38.504  1.00  0.00     0.006 A 
ENDBRANCH  62  79
ENDBRANCH  36  37
ENDBRANCH  29  31
ENDBRANCH  28  29
ENDBRANCH  27  28
ENDBRANCH  26  27
ENDBRANCH  25  26
ENDBRANCH  24  25
ENDBRANCH   1  24
TORSDOF 21
ENDMDL
MODEL 2
REMARK VINA RESULT:      -9.7      0.815      6.206
REMARK SMILES CC(C)(C)[NH+]1CCN(C(=O)CCCC(=O)OCCOCCOCCOC(=O)c2ccc(-c3c4nc(c(-c5c(F)cccc5F)c5ccc([nH]5)c(-c5c(F)cccc5F)c5nc(c(-c6c(F)cccc6F)c6ccc3[nH]6)C=C5)C=C4)cc2)CC1
REMARK SMILES IDX 20 1 19 2 18 3 17 4 16 5 14 6 15 7 13 8 12 9 11 10 9 11 5 12
REMARK SMILES IDX 6 13 83 14 7 16 82 17 8 18 10 19 2 20 1 21 3 22 4 23 21 24
REMARK SMILES IDX 22 25 23 26 24 27 25 28 26 29 27 30 28 31 29 32 81 33 30 34
REMARK SMILES IDX 80 35 31 36 32 37 33 38 74 39 34 40 79 41 73 42 75 43 35 44
REMARK SMILES IDX 78 45 72 46 71 47 36 49 62 50 45 51 61 52 46 53 49 54 60 55
REMARK SMILES IDX 76 56 47 57 48 58 59 60 77 61 50 62 37 63 38 64 43 65 39 66
REMARK SMILES IDX 40 67 42 68 44 69 41 70 63 71 64 72 69 73 65 74 66 75 68 76
REMARK SMILES IDX 70 77 67 78 51 79 52 80 57 81 53 82 54 83 56 84 58 85 55 86
REMARK H PARENT 5 15 75 48 49 59
REMARK Flexibility Score: inf
ROOT
ATOM      1  C   UNL A   1      41.224  21.122  27.716  1.00  0.00     0.188 C 
ENDROOT
BRANCH   1   2
ATOM      2  O   UNL A   1      40.040  21.872  27.458  1.00  0.00    -0.376 OA
BRANCH   2   3
ATOM      3  C   UNL A   1      39.581  21.967  26.115  1.00  0.00     0.202 C 
BRANCH   3   4
ATOM      4  C   UNL A   1      38.130  21.549  25.875  1.00  0.00     0.261 C 
BRANCH   4   5
ATOM      5  O   UNL A   1      37.720  21.699  24.493  1.00  0.00    -0.463 OA
BRANCH   5   6
ATOM      6  C   UNL A   1      36.658  22.496  24.234  1.00  0.00     0.305 C 
ATOM      7  O   UNL A   1      36.749  23.704  24.040  1.00  0.00    -0.252 OA
BRANCH   6   8
ATOM      8  C   UNL A   1      35.296  21.803  24.249  1.00  0.00     0.123 C 
BRANCH   8   9
ATOM      9  C   UNL A   1      33.981  22.354  24.832  1.00  0.00     0.022 C 
BRANCH   9  10
ATOM     10  C   UNL A   1      32.753  22.671  23.974  1.00  0.00     0.101 C 
BRANCH  10  11
ATOM     11  C   UNL A   1      32.804  23.978  23.175  1.00  0.00     0.222 C 
ATOM     12  N   UNL A   1      31.284  27.552  25.032  1.00  0.00    -0.328 N 
ATOM     13  C   UNL A   1      31.417  27.508  23.567  1.00  0.00     0.284 C 
ATOM     14  C   UNL A   1      30.752  26.271  25.472  1.00  0.00     0.284 C 
ATOM     15  H   UNL A   1      30.611  28.289  25.246  1.00  0.00     0.348 HD
ATOM     16  C   UNL A   1      32.310  26.377  23.013  1.00  0.00     0.181 C 
ATOM     17  C   UNL A   1      31.613  25.096  25.028  1.00  0.00     0.181 C 
ATOM     18  N   UNL A   1      32.129  25.085  23.678  1.00  0.00    -0.331 N 
ATOM     19  O   UNL A   1      33.434  24.025  22.116  1.00  0.00    -0.275 OA
BRANCH  12  20
ATOM     20  C   UNL A   1      32.326  28.208  25.859  1.00  0.00     0.089 C 
ATOM     21  C   UNL A   1      31.660  28.339  27.246  1.00  0.00     0.078 C 
ATOM     22  C   UNL A   1      32.736  29.622  25.393  1.00  0.00     0.078 C 
ATOM     23  C   UNL A   1      33.655  27.437  26.086  1.00  0.00     0.078 C 
ENDBRANCH  12  20
ENDBRANCH  10  11
ENDBRANCH   9  10
ENDBRANCH   8   9
ENDBRANCH   6   8
ENDBRANCH   5   6
ENDBRANCH   4   5
ENDBRANCH   3   4
ENDBRANCH   2   3
ENDBRANCH   1   2
BRANCH   1  24
ATOM     24  C   UNL A   1      42.075  20.674  26.513  1.00  0.00     0.188 C 
BRANCH  24  25
ATOM     25  O   UNL A   1      43.355  21.275  26.477  1.00  0.00    -0.376 OA
BRANCH  25  26
ATOM     26  C   UNL A   1      44.110  21.055  25.299  1.00  0.00     0.202 C 
BRANCH  26  27
ATOM     27  C   UNL A   1      44.032  22.182  24.258  1.00  0.00     0.261 C 
BRANCH  27  28
ATOM     28  O   UNL A   1      43.471  23.426  24.718  1.00  0.00    -0.460 OA
BRANCH  28  29
ATOM     29  C   UNL A   1      44.316  24.410  25.101  1.00  0.00     0.338 C 
ATOM     30  O   UNL A   1      45.406  24.664  24.617  1.00  0.00    -0.246 OA
BRANCH  29  31
ATOM     31  C   UNL A   1      43.576  25.298  26.036  1.00  0.00     0.060 A 
ATOM     32  C   UNL A   1      43.734  26.689  25.928  1.00  0.00     0.016 A 
ATOM     33  C   UNL A   1      42.684  24.768  26.971  1.00  0.00     0.016 A 
ATOM     34  C   UNL A   1      43.024  27.548  26.775  1.00  0.00     0.010 A 
ATOM     35  C   UNL A   1      41.992  25.626  27.833  1.00  0.00     0.010 A 
ATOM     36  C   UNL A   1      42.182  27.019  27.763  1.00  0.00    -0.014 A 
BRANCH  36  37
ATOM     37  C   UNL A   1      41.695  27.876  28.874  1.00  0.00     0.031 A 
ATOM     38  C   UNL A   1      42.431  27.802  30.186  1.00  0.00     0.074 A 
ATOM     39  C   UNL A   1      40.629  28.687  28.751  1.00  0.00     0.049 A 
ATOM     40  N   UNL A   1      42.151  28.361  31.335  1.00  0.00    -0.248 NA
ATOM     41  C   UNL A   1      43.650  26.976  30.198  1.00  0.00     0.031 C 
ATOM     42  C   UNL A   1      39.852  28.895  27.533  1.00  0.00     0.029 A 
ATOM     43  N   UNL A   1      40.009  29.482  29.687  1.00  0.00    -0.354 N 
ATOM     44  C   UNL A   1      43.152  27.949  32.205  1.00  0.00     0.074 A 
ATOM     45  C   UNL A   1      44.030  27.072  31.462  1.00  0.00     0.031 C 
ATOM     46  C   UNL A   1      38.844  29.747  27.800  1.00  0.00     0.029 A 
ATOM     47  C   UNL A   1      38.885  30.117  29.215  1.00  0.00     0.049 A 
ATOM     48  H   UNL A   1      40.339  29.586  30.608  1.00  0.00     0.167 HD
ATOM     49  C   UNL A   1      43.332  28.274  33.507  1.00  0.00     0.037 A 
ATOM     50  C   UNL A   1      37.983  30.884  29.860  1.00  0.00     0.037 A 
ATOM     51  C   UNL A   1      42.458  29.134  34.257  1.00  0.00     0.049 A 
ATOM     52  C   UNL A   1      38.152  31.160  31.334  1.00  0.00     0.074 A 
ATOM     53  C   UNL A   1      42.558  29.521  35.582  1.00  0.00     0.029 A 
ATOM     54  N   UNL A   1      41.317  29.734  33.749  1.00  0.00    -0.354 N 
ATOM     55  N   UNL A   1      39.109  30.778  32.145  1.00  0.00    -0.248 NA
ATOM     56  C   UNL A   1      37.110  31.972  31.983  1.00  0.00     0.031 C 
ATOM     57  C   UNL A   1      41.452  30.321  35.887  1.00  0.00     0.029 A 
ATOM     58  C   UNL A   1      40.692  30.471  34.739  1.00  0.00     0.049 A 
ATOM     59  H   UNL A   1      40.999  29.648  32.820  1.00  0.00     0.167 HD
ATOM     60  C   UNL A   1      38.804  31.330  33.386  1.00  0.00     0.074 A 
ATOM     61  C   UNL A   1      37.576  32.080  33.220  1.00  0.00     0.031 C 
ATOM     62  C   UNL A   1      39.480  31.228  34.556  1.00  0.00     0.037 A 
BRANCH  49  63
ATOM     63  C   UNL A   1      44.511  27.667  34.207  1.00  0.00     0.057 A 
ATOM     64  C   UNL A   1      45.726  28.354  34.337  1.00  0.00     0.134 A 
ATOM     65  C   UNL A   1      44.428  26.387  34.767  1.00  0.00     0.134 A 
ATOM     66  F   UNL A   1      45.877  29.576  33.804  1.00  0.00    -0.206 F 
ATOM     67  C   UNL A   1      46.822  27.778  34.981  1.00  0.00     0.040 A 
ATOM     68  C   UNL A   1      45.508  25.812  35.435  1.00  0.00     0.040 A 
ATOM     69  F   UNL A   1      43.293  25.676  34.676  1.00  0.00    -0.206 F 
ATOM     70  C   UNL A   1      46.713  26.506  35.538  1.00  0.00     0.006 A 
ENDBRANCH  49  63
BRANCH  50  71
ATOM     71  C   UNL A   1      36.812  31.438  29.132  1.00  0.00     0.057 A 
ATOM     72  C   UNL A   1      35.726  30.627  28.778  1.00  0.00     0.134 A 
ATOM     73  C   UNL A   1      36.772  32.779  28.726  1.00  0.00     0.134 A 
ATOM     74  F   UNL A   1      35.720  29.328  29.109  1.00  0.00    -0.206 F 
ATOM     75  C   UNL A   1      34.654  31.122  28.033  1.00  0.00     0.040 A 
ATOM     76  C   UNL A   1      35.694  33.292  28.002  1.00  0.00     0.040 A 
ATOM     77  F   UNL A   1      37.783  33.607  29.023  1.00  0.00    -0.206 F 
ATOM     78  C   UNL A   1      34.635  32.459  27.646  1.00  0.00     0.006 A 
ENDBRANCH  50  71
BRANCH  62  79
ATOM     79  C   UNL A   1      38.942  31.980  35.739  1.00  0.00     0.057 A 
ATOM     80  C   UNL A   1      38.144  31.365  36.711  1.00  0.00     0.134 A 
ATOM     81  C   UNL A   1      39.276  33.327  35.935  1.00  0.00     0.134 A 
ATOM     82  F   UNL A   1      37.781  30.080  36.579  1.00  0.00    -0.206 F 
ATOM     83  C   UNL A   1      37.680  32.068  37.825  1.00  0.00     0.040 A 
ATOM     84  C   UNL A   1      38.839  34.033  37.057  1.00  0.00     0.040 A 
ATOM     85  F   UNL A   1      40.046  33.974  35.048  1.00  0.00    -0.206 F 
ATOM     86  C   UNL A   1      38.033  33.405  38.004  1.00  0.00     0.006 A 
ENDBRANCH  62  79
ENDBRANCH  36  37
ENDBRANCH  29  31
ENDBRANCH  28  29
ENDBRANCH  27  28
ENDBRANCH  26  27
ENDBRANCH  25  26
ENDBRANCH  24  25
ENDBRANCH   1  24
TORSDOF 21
ENDMDL
MODEL 3
REMARK VINA RESULT:      -9.5      3.227      8.315
REMARK SMILES CC(C)(C)[NH+]1CCN(C(=O)CCCC(=O)OCCOCCOCCOC(=O)c2ccc(-c3c4nc(c(-c5c(F)cccc5F)c5ccc([nH]5)c(-c5c(F)cccc5F)c5nc(c(-c6c(F)cccc6F)c6ccc3[nH]6)C=C5)C=C4)cc2)CC1
REMARK SMILES IDX 20 1 19 2 18 3 17 4 16 5 14 6 15 7 13 8 12 9 11 10 9 11 5 12
REMARK SMILES IDX 6 13 83 14 7 16 82 17 8 18 10 19 2 20 1 21 3 22 4 23 21 24
REMARK SMILES IDX 22 25 23 26 24 27 25 28 26 29 27 30 28 31 29 32 81 33 30 34
REMARK SMILES IDX 80 35 31 36 32 37 33 38 74 39 34 40 79 41 73 42 75 43 35 44
REMARK SMILES IDX 78 45 72 46 71 47 36 49 62 50 45 51 61 52 46 53 49 54 60 55
REMARK SMILES IDX 76 56 47 57 48 58 59 60 77 61 50 62 37 63 38 64 43 65 39 66
REMARK SMILES IDX 40 67 42 68 44 69 41 70 63 71 64 72 69 73 65 74 66 75 68 76
REMARK SMILES IDX 70 77 67 78 51 79 52 80 57 81 53 82 54 83 56 84 58 85 55 86
REMARK H PARENT 5 15 75 48 49 59
REMARK Flexibility Score: inf
ROOT
ATOM      1  C   UNL A   1      33.703  28.704  26.608  1.00  0.00     0.188 C 
ENDROOT
BRANCH   1   2
ATOM      2  O   UNL A   1      33.693  27.794  25.511  1.00  0.00    -0.376 OA
BRANCH   2   3
ATOM      3  C   UNL A   1      33.948  28.306  24.208  1.00  0.00     0.202 C 
BRANCH   3   4
ATOM      4  C   UNL A   1      32.818  28.138  23.193  1.00  0.00     0.261 C 
BRANCH   4   5
ATOM      5  O   UNL A   1      31.504  28.153  23.804  1.00  0.00    -0.463 OA
BRANCH   5   6
ATOM      6  C   UNL A   1      30.656  27.143  23.498  1.00  0.00     0.305 C 
ATOM      7  O   UNL A   1      29.543  27.019  23.996  1.00  0.00    -0.252 OA
BRANCH   6   8
ATOM      8  C   UNL A   1      31.195  26.108  22.511  1.00  0.00     0.123 C 
BRANCH   8   9
ATOM      9  C   UNL A   1      31.520  24.631  22.801  1.00  0.00     0.022 C 
BRANCH   9  10
ATOM     10  C   UNL A   1      31.046  23.901  24.062  1.00  0.00     0.101 C 
BRANCH  10  11
ATOM     11  C   UNL A   1      31.926  24.058  25.306  1.00  0.00     0.222 C 
ATOM     12  N   UNL A   1      35.426  21.575  25.643  1.00  0.00    -0.328 N 
ATOM     13  C   UNL A   1      34.872  22.199  26.856  1.00  0.00     0.284 C 
ATOM     14  C   UNL A   1      34.313  21.087  24.842  1.00  0.00     0.284 C 
ATOM     15  H   UNL A   1      35.994  20.784  25.950  1.00  0.00     0.348 HD
ATOM     16  C   UNL A   1      33.881  23.357  26.614  1.00  0.00     0.181 C 
ATOM     17  C   UNL A   1      33.316  22.184  24.496  1.00  0.00     0.181 C 
ATOM     18  N   UNL A   1      32.931  23.123  25.525  1.00  0.00    -0.331 N 
ATOM     19  O   UNL A   1      31.730  24.998  26.080  1.00  0.00    -0.275 OA
BRANCH  12  20
ATOM     20  C   UNL A   1      36.584  22.188  24.948  1.00  0.00     0.089 C 
ATOM     21  C   UNL A   1      37.593  21.026  24.829  1.00  0.00     0.078 C 
ATOM     22  C   UNL A   1      37.272  23.339  25.713  1.00  0.00     0.078 C 
ATOM     23  C   UNL A   1      36.359  22.717  23.505  1.00  0.00     0.078 C 
ENDBRANCH  12  20
ENDBRANCH  10  11
ENDBRANCH   9  10
ENDBRANCH   8   9
ENDBRANCH   6   8
ENDBRANCH   5   6
ENDBRANCH   4   5
ENDBRANCH   3   4
ENDBRANCH   2   3
ENDBRANCH   1   2
BRANCH   1  24
ATOM     24  C   UNL A   1      32.428  29.523  26.883  1.00  0.00     0.188 C 
BRANCH  24  25
ATOM     25  O   UNL A   1      32.260  30.612  25.996  1.00  0.00    -0.376 OA
BRANCH  25  26
ATOM     26  C   UNL A   1      31.145  31.449  26.248  1.00  0.00     0.202 C 
BRANCH  26  27
ATOM     27  C   UNL A   1      31.485  32.820  26.851  1.00  0.00     0.261 C 
BRANCH  27  28
ATOM     28  O   UNL A   1      32.887  33.136  26.946  1.00  0.00    -0.460 OA
BRANCH  28  29
ATOM     29  C   UNL A   1      33.315  33.847  28.013  1.00  0.00     0.338 C 
ATOM     30  O   UNL A   1      32.702  34.725  28.598  1.00  0.00    -0.246 OA
BRANCH  29  31
ATOM     31  C   UNL A   1      34.552  33.196  28.519  1.00  0.00     0.060 A 
ATOM     32  C   UNL A   1      34.505  31.850  28.914  1.00  0.00     0.016 A 
ATOM     33  C   UNL A   1      35.765  33.887  28.545  1.00  0.00     0.016 A 
ATOM     34  C   UNL A   1      35.662  31.204  29.363  1.00  0.00     0.010 A 
ATOM     35  C   UNL A   1      36.918  33.248  29.016  1.00  0.00     0.010 A 
ATOM     36  C   UNL A   1      36.867  31.914  29.459  1.00  0.00    -0.014 A 
BRANCH  36  37
ATOM     37  C   UNL A   1      38.004  31.363  30.240  1.00  0.00     0.031 A 
ATOM     38  C   UNL A   1      38.881  30.338  29.570  1.00  0.00     0.074 A 
ATOM     39  C   UNL A   1      38.261  31.735  31.508  1.00  0.00     0.049 A 
ATOM     40  N   UNL A   1      39.865  29.631  30.060  1.00  0.00    -0.248 NA
ATOM     41  C   UNL A   1      38.596  30.075  28.149  1.00  0.00     0.031 C 
ATOM     42  C   UNL A   1      37.530  32.747  32.265  1.00  0.00     0.029 A 
ATOM     43  N   UNL A   1      39.215  31.279  32.388  1.00  0.00    -0.354 N 
ATOM     44  C   UNL A   1      40.312  28.836  29.012  1.00  0.00     0.074 A 
ATOM     45  C   UNL A   1      39.475  29.126  27.868  1.00  0.00     0.031 C 
ATOM     46  C   UNL A   1      38.048  32.822  33.504  1.00  0.00     0.029 A 
ATOM     47  C   UNL A   1      39.125  31.840  33.639  1.00  0.00     0.049 A 
ATOM     48  H   UNL A   1      39.897  30.613  32.144  1.00  0.00     0.167 HD
ATOM     49  C   UNL A   1      41.332  27.946  28.997  1.00  0.00     0.037 A 
ATOM     50  C   UNL A   1      39.815  31.571  34.766  1.00  0.00     0.037 A 
ATOM     51  C   UNL A   1      42.161  27.642  30.130  1.00  0.00     0.049 A 
ATOM     52  C   UNL A   1      40.888  30.509  34.750  1.00  0.00     0.074 A 
ATOM     53  C   UNL A   1      43.219  26.754  30.212  1.00  0.00     0.029 A 
ATOM     54  N   UNL A   1      42.019  28.213  31.385  1.00  0.00    -0.354 N 
ATOM     55  N   UNL A   1      41.313  29.773  33.752  1.00  0.00    -0.248 NA
ATOM     56  C   UNL A   1      41.575  30.239  36.025  1.00  0.00     0.031 C 
ATOM     57  C   UNL A   1      43.689  26.755  31.529  1.00  0.00     0.029 A 
ATOM     58  C   UNL A   1      42.956  27.680  32.253  1.00  0.00     0.049 A 
ATOM     59  H   UNL A   1      41.350  28.895  31.623  1.00  0.00     0.167 HD
ATOM     60  C   UNL A   1      42.336  28.982  34.267  1.00  0.00     0.074 A 
ATOM     61  C   UNL A   1      42.473  29.332  35.665  1.00  0.00     0.031 C 
ATOM     62  C   UNL A   1      43.094  28.050  33.638  1.00  0.00     0.037 A 
BRANCH  49  63
ATOM     63  C   UNL A   1      41.585  27.217  27.710  1.00  0.00     0.057 A 
ATOM     64  C   UNL A   1      41.003  25.972  27.440  1.00  0.00     0.134 A 
ATOM     65  C   UNL A   1      42.411  27.774  26.727  1.00  0.00     0.134 A 
ATOM     66  F   UNL A   1      40.219  25.376  28.351  1.00  0.00    -0.206 F 
ATOM     67  C   UNL A   1      41.251  25.296  26.244  1.00  0.00     0.040 A 
ATOM     68  C   UNL A   1      42.646  27.120  25.517  1.00  0.00     0.040 A 
ATOM     69  F   UNL A   1      43.000  28.964  26.924  1.00  0.00    -0.206 F 
ATOM     70  C   UNL A   1      42.070  25.874  25.276  1.00  0.00     0.006 A 
ENDBRANCH  49  63
BRANCH  50  71
ATOM     71  C   UNL A   1      39.509  32.296  36.026  1.00  0.00     0.057 A 
ATOM     72  C   UNL A   1      38.509  31.846  36.898  1.00  0.00     0.134 A 
ATOM     73  C   UNL A   1      40.168  33.485  36.364  1.00  0.00     0.134 A 
ATOM     74  F   UNL A   1      37.819  30.732  36.614  1.00  0.00    -0.206 F 
ATOM     75  C   UNL A   1      38.165  32.559  38.048  1.00  0.00     0.040 A 
ATOM     76  C   UNL A   1      39.851  34.195  37.523  1.00  0.00     0.040 A 
ATOM     77  F   UNL A   1      41.128  33.977  35.567  1.00  0.00    -0.206 F 
ATOM     78  C   UNL A   1      38.840  33.735  38.365  1.00  0.00     0.006 A 
ENDBRANCH  50  71
BRANCH  62  79
ATOM     79  C   UNL A   1      44.174  27.378  34.436  1.00  0.00     0.057 A 
ATOM     80  C   UNL A   1      43.963  26.161  35.096  1.00  0.00     0.134 A 
ATOM     81  C   UNL A   1      45.460  27.931  34.497  1.00  0.00     0.134 A 
ATOM     82  F   UNL A   1      42.752  25.583  35.084  1.00  0.00    -0.206 F 
ATOM     83  C   UNL A   1      44.986  25.529  35.805  1.00  0.00     0.040 A 
ATOM     84  C   UNL A   1      46.498  27.296  35.181  1.00  0.00     0.040 A 
ATOM     85  F   UNL A   1      45.734  29.089  33.878  1.00  0.00    -0.206 F 
ATOM     86  C   UNL A   1      46.261  26.093  35.843  1.00  0.00     0.006 A 
ENDBRANCH  62  79
ENDBRANCH  36  37
ENDBRANCH  29  31
ENDBRANCH  28  29
ENDBRANCH  27  28
ENDBRANCH  26  27
ENDBRANCH  25  26
ENDBRANCH  24  25
ENDBRANCH   1  24
TORSDOF 21
ENDMDL
