MODEL 1
REMARK VINA RESULT:     -12.1      0.000      0.000
REMARK SMILES CC1(C)[C@H](C(=O)Nc2ccc(C(=O)Nc3cccnc3)c(Cl)c2)[C@H]1C(=O)OCCOCCOCCOC(=O)c1ccc(-c2c3nc(c(-c4c(F)cccc4F)c4ccc([nH]4)c(-c4c(F)cccc4F)c4nc(c(-c5c(F)cccc5F)c5ccc2[nH]5)C=C4)C=C3)cc1
REMARK SMILES IDX 31 1 30 2 29 3 28 4 27 5 25 6 26 7 24 8 1 9 2 10 3 11 4 12
REMARK SMILES IDX 5 13 6 14 7 15 8 17 9 18 23 19 10 20 21 21 11 22 22 23 12 24
REMARK SMILES IDX 13 25 14 26 15 28 16 29 20 30 17 31 19 32 18 33 32 34 33 35
REMARK SMILES IDX 34 36 35 37 36 38 37 39 38 40 39 41 40 42 92 43 41 44 91 45
REMARK SMILES IDX 42 46 43 47 44 48 85 49 45 50 90 51 84 52 86 53 46 54 89 55
REMARK SMILES IDX 83 56 82 57 47 59 73 60 56 61 72 62 57 63 60 64 71 65 87 66
REMARK SMILES IDX 58 67 59 68 70 70 88 71 61 72 48 73 49 74 54 75 50 76 51 77
REMARK SMILES IDX 53 78 55 79 52 80 74 81 75 82 80 83 76 84 77 85 79 86 81 87
REMARK SMILES IDX 78 88 62 89 63 90 68 91 64 92 65 93 67 94 69 95 66 96
REMARK H PARENT 7 16 14 27 86 58 60 69
REMARK Flexibility Score: inf
ROOT
ATOM      1  C   UNL A   1      39.199  21.084  25.446  1.00  0.00     0.188 C 
ENDROOT
BRANCH   1   2
ATOM      2  O   UNL A   1      37.970  21.669  25.867  1.00  0.00    -0.376 OA
BRANCH   2   3
ATOM      3  C   UNL A   1      36.792  21.435  25.092  1.00  0.00     0.202 C 
BRANCH   3   4
ATOM      4  C   UNL A   1      35.997  22.659  24.610  1.00  0.00     0.261 C 
BRANCH   4   5
ATOM      5  O   UNL A   1      35.588  23.497  25.703  1.00  0.00    -0.463 OA
BRANCH   5   6
ATOM      6  C   UNL A   1      34.458  23.122  26.361  1.00  0.00     0.310 C 
ATOM      7  O   UNL A   1      34.400  22.619  27.461  1.00  0.00    -0.252 OA
BRANCH   6   8
ATOM      8  C   UNL A   1      33.222  23.555  25.649  1.00  0.00     0.118 C 
ATOM      9  C   UNL A   1      32.604  21.190  24.564  1.00  0.00     0.013 C 
ATOM     10  C   UNL A   1      32.338  22.669  24.757  1.00  0.00    -0.009 C 
ATOM     11  C   UNL A   1      31.858  23.286  23.467  1.00  0.00     0.013 C 
ATOM     12  C   UNL A   1      31.906  23.061  26.172  1.00  0.00     0.100 C 
BRANCH  12  13
ATOM     13  C   UNL A   1      30.810  23.931  26.699  1.00  0.00     0.228 C 
ATOM     14  O   UNL A   1      29.894  23.367  27.297  1.00  0.00    -0.274 OA
ATOM     15  N   UNL A   1      30.954  25.292  26.864  1.00  0.00    -0.326 N 
ATOM     16  H   UNL A   1      31.114  25.602  27.785  1.00  0.00     0.169 HD
BRANCH  15  17
ATOM     17  C   UNL A   1      30.901  26.290  25.879  1.00  0.00     0.042 A 
ATOM     18  C   UNL A   1      30.229  26.119  24.686  1.00  0.00     0.027 A 
ATOM     19  C   UNL A   1      31.434  27.549  26.136  1.00  0.00     0.047 A 
ATOM     20  C   UNL A   1      30.441  26.985  23.615  1.00  0.00     0.017 A 
ATOM     21  C   UNL A   1      31.451  28.518  25.122  1.00  0.00     0.055 A 
ATOM     22  C   UNL A   1      31.178  28.153  23.802  1.00  0.00     0.058 A 
ATOM     23  Cl  UNL A   1      31.603  30.164  25.627  1.00  0.00    -0.083 Cl
BRANCH  22  24
ATOM     24  C   UNL A   1      31.600  28.876  22.567  1.00  0.00     0.257 C 
ATOM     25  O   UNL A   1      32.722  28.656  22.110  1.00  0.00    -0.269 OA
ATOM     26  N   UNL A   1      30.803  29.821  21.950  1.00  0.00    -0.321 N 
ATOM     27  H   UNL A   1      31.154  30.196  21.110  1.00  0.00     0.170 HD
BRANCH  26  28
ATOM     28  C   UNL A   1      29.561  30.315  22.366  1.00  0.00     0.059 A 
ATOM     29  C   UNL A   1      29.401  31.533  23.029  1.00  0.00     0.029 A 
ATOM     30  C   UNL A   1      28.452  29.490  22.244  1.00  0.00     0.137 A 
ATOM     31  C   UNL A   1      28.183  31.827  23.638  1.00  0.00     0.022 A 
ATOM     32  N   UNL A   1      27.283  29.732  22.875  1.00  0.00    -0.263 NA
ATOM     33  C   UNL A   1      27.177  30.883  23.567  1.00  0.00     0.111 A 
ENDBRANCH  26  28
ENDBRANCH  22  24
ENDBRANCH  15  17
ENDBRANCH  12  13
ENDBRANCH   6   8
ENDBRANCH   5   6
ENDBRANCH   4   5
ENDBRANCH   3   4
ENDBRANCH   2   3
ENDBRANCH   1   2
BRANCH   1  34
ATOM     34  C   UNL A   1      40.423  21.178  26.376  1.00  0.00     0.188 C 
BRANCH  34  35
ATOM     35  O   UNL A   1      41.584  20.581  25.851  1.00  0.00    -0.376 OA
BRANCH  35  36
ATOM     36  C   UNL A   1      42.843  21.085  26.252  1.00  0.00     0.202 C 
BRANCH  36  37
ATOM     37  C   UNL A   1      43.727  21.878  25.269  1.00  0.00     0.261 C 
BRANCH  37  38
ATOM     38  O   UNL A   1      43.233  23.143  24.800  1.00  0.00    -0.460 OA
BRANCH  38  39
ATOM     39  C   UNL A   1      43.992  24.234  25.056  1.00  0.00     0.338 C 
ATOM     40  O   UNL A   1      45.053  24.529  24.537  1.00  0.00    -0.246 OA
BRANCH  39  41
ATOM     41  C   UNL A   1      43.233  25.125  25.962  1.00  0.00     0.060 A 
ATOM     42  C   UNL A   1      43.711  26.419  26.204  1.00  0.00     0.016 A 
ATOM     43  C   UNL A   1      42.085  24.665  26.611  1.00  0.00     0.016 A 
ATOM     44  C   UNL A   1      43.054  27.247  27.117  1.00  0.00     0.010 A 
ATOM     45  C   UNL A   1      41.439  25.491  27.542  1.00  0.00     0.010 A 
ATOM     46  C   UNL A   1      41.937  26.776  27.824  1.00  0.00    -0.014 A 
BRANCH  46  47
ATOM     47  C   UNL A   1      41.439  27.550  28.995  1.00  0.00     0.031 A 
ATOM     48  C   UNL A   1      42.247  27.512  30.263  1.00  0.00     0.074 A 
ATOM     49  C   UNL A   1      40.328  28.309  28.925  1.00  0.00     0.049 A 
ATOM     50  N   UNL A   1      42.045  28.136  31.396  1.00  0.00    -0.248 NA
ATOM     51  C   UNL A   1      43.436  26.643  30.258  1.00  0.00     0.031 C 
ATOM     52  C   UNL A   1      39.481  28.440  27.745  1.00  0.00     0.029 A 
ATOM     53  N   UNL A   1      39.741  29.141  29.853  1.00  0.00    -0.354 N 
ATOM     54  C   UNL A   1      43.041  27.685  32.255  1.00  0.00     0.074 A 
ATOM     55  C   UNL A   1      43.862  26.759  31.507  1.00  0.00     0.031 C 
ATOM     56  C   UNL A   1      38.524  29.351  27.995  1.00  0.00     0.029 A 
ATOM     57  C   UNL A   1      38.663  29.852  29.364  1.00  0.00     0.049 A 
ATOM     58  H   UNL A   1      40.061  29.223  30.781  1.00  0.00     0.167 HD
ATOM     59  C   UNL A   1      43.236  27.997  33.557  1.00  0.00     0.037 A 
ATOM     60  C   UNL A   1      37.911  30.816  29.946  1.00  0.00     0.037 A 
ATOM     61  C   UNL A   1      42.437  28.941  34.291  1.00  0.00     0.049 A 
ATOM     62  C   UNL A   1      38.218  31.194  31.378  1.00  0.00     0.074 A 
ATOM     63  C   UNL A   1      42.549  29.317  35.618  1.00  0.00     0.029 A 
ATOM     64  N   UNL A   1      41.383  29.663  33.756  1.00  0.00    -0.354 N 
ATOM     65  N   UNL A   1      39.207  30.810  32.151  1.00  0.00    -0.248 NA
ATOM     66  C   UNL A   1      37.295  32.142  32.024  1.00  0.00     0.031 C 
ATOM     67  C   UNL A   1      41.533  30.237  35.897  1.00  0.00     0.029 A 
ATOM     68  C   UNL A   1      40.824  30.471  34.731  1.00  0.00     0.049 A 
ATOM     69  H   UNL A   1      41.077  29.609  32.822  1.00  0.00     0.167 HD
ATOM     70  C   UNL A   1      39.031  31.484  33.356  1.00  0.00     0.074 A 
ATOM     71  C   UNL A   1      37.893  32.359  33.184  1.00  0.00     0.031 C 
ATOM     72  C   UNL A   1      39.716  31.364  34.520  1.00  0.00     0.037 A 
BRANCH  59  73
ATOM     73  C   UNL A   1      44.314  27.255  34.293  1.00  0.00     0.057 A 
ATOM     74  C   UNL A   1      44.097  26.007  34.886  1.00  0.00     0.134 A 
ATOM     75  C   UNL A   1      45.602  27.799  34.381  1.00  0.00     0.134 A 
ATOM     76  F   UNL A   1      42.880  25.441  34.855  1.00  0.00    -0.206 F 
ATOM     77  C   UNL A   1      45.119  25.334  35.560  1.00  0.00     0.040 A 
ATOM     78  C   UNL A   1      46.638  27.124  35.026  1.00  0.00     0.040 A 
ATOM     79  F   UNL A   1      45.877  28.993  33.832  1.00  0.00    -0.206 F 
ATOM     80  C   UNL A   1      46.396  25.889  35.624  1.00  0.00     0.006 A 
ENDBRANCH  59  73
BRANCH  60  81
ATOM     81  C   UNL A   1      36.860  31.570  29.185  1.00  0.00     0.057 A 
ATOM     82  C   UNL A   1      35.635  30.966  28.846  1.00  0.00     0.134 A 
ATOM     83  C   UNL A   1      37.027  32.895  28.766  1.00  0.00     0.134 A 
ATOM     84  F   UNL A   1      35.410  29.675  29.138  1.00  0.00    -0.206 F 
ATOM     85  C   UNL A   1      34.614  31.653  28.185  1.00  0.00     0.040 A 
ATOM     86  C   UNL A   1      36.008  33.603  28.120  1.00  0.00     0.040 A 
ATOM     87  F   UNL A   1      38.184  33.536  28.986  1.00  0.00    -0.206 F 
ATOM     88  C   UNL A   1      34.792  32.985  27.836  1.00  0.00     0.006 A 
ENDBRANCH  60  81
BRANCH  72  89
ATOM     89  C   UNL A   1      39.261  32.208  35.677  1.00  0.00     0.057 A 
ATOM     90  C   UNL A   1      39.698  33.531  35.840  1.00  0.00     0.134 A 
ATOM     91  C   UNL A   1      38.354  31.709  36.619  1.00  0.00     0.134 A 
ATOM     92  F   UNL A   1      40.571  34.070  34.976  1.00  0.00    -0.206 F 
ATOM     93  C   UNL A   1      39.280  34.311  36.919  1.00  0.00     0.040 A 
ATOM     94  C   UNL A   1      37.904  32.491  37.685  1.00  0.00     0.040 A 
ATOM     95  F   UNL A   1      37.882  30.457  36.516  1.00  0.00    -0.206 F 
ATOM     96  C   UNL A   1      38.375  33.792  37.842  1.00  0.00     0.006 A 
ENDBRANCH  72  89
ENDBRANCH  46  47
ENDBRANCH  39  41
ENDBRANCH  38  39
ENDBRANCH  37  38
ENDBRANCH  36  37
ENDBRANCH  35  36
ENDBRANCH  34  35
ENDBRANCH   1  34
TORSDOF 21
ENDMDL
MODEL 2
REMARK VINA RESULT:     -11.2      4.660     10.206
REMARK SMILES CC1(C)[C@H](C(=O)Nc2ccc(C(=O)Nc3cccnc3)c(Cl)c2)[C@H]1C(=O)OCCOCCOCCOC(=O)c1ccc(-c2c3nc(c(-c4c(F)cccc4F)c4ccc([nH]4)c(-c4c(F)cccc4F)c4nc(c(-c5c(F)cccc5F)c5ccc2[nH]5)C=C4)C=C3)cc1
REMARK SMILES IDX 31 1 30 2 29 3 28 4 27 5 25 6 26 7 24 8 1 9 2 10 3 11 4 12
REMARK SMILES IDX 5 13 6 14 7 15 8 17 9 18 23 19 10 20 21 21 11 22 22 23 12 24
REMARK SMILES IDX 13 25 14 26 15 28 16 29 20 30 17 31 19 32 18 33 32 34 33 35
REMARK SMILES IDX 34 36 35 37 36 38 37 39 38 40 39 41 40 42 92 43 41 44 91 45
REMARK SMILES IDX 42 46 43 47 44 48 85 49 45 50 90 51 84 52 86 53 46 54 89 55
REMARK SMILES IDX 83 56 82 57 47 59 73 60 56 61 72 62 57 63 60 64 71 65 87 66
REMARK SMILES IDX 58 67 59 68 70 70 88 71 61 72 48 73 49 74 54 75 50 76 51 77
REMARK SMILES IDX 53 78 55 79 52 80 74 81 75 82 80 83 76 84 77 85 79 86 81 87
REMARK SMILES IDX 78 88 62 89 63 90 68 91 64 92 65 93 67 94 69 95 66 96
REMARK H PARENT 7 16 14 27 86 58 60 69
REMARK Flexibility Score: inf
ROOT
ATOM      1  C   UNL A   1      33.911  30.780  27.198  1.00  0.00     0.188 C 
ENDROOT
BRANCH   1   2
ATOM      2  O   UNL A   1      34.477  29.486  27.390  1.00  0.00    -0.376 OA
BRANCH   2   3
ATOM      3  C   UNL A   1      34.052  28.413  26.547  1.00  0.00     0.202 C 
BRANCH   3   4
ATOM      4  C   UNL A   1      32.541  28.215  26.348  1.00  0.00     0.261 C 
BRANCH   4   5
ATOM      5  O   UNL A   1      32.040  28.986  25.244  1.00  0.00    -0.463 OA
BRANCH   5   6
ATOM      6  C   UNL A   1      32.399  28.564  24.001  1.00  0.00     0.310 C 
ATOM      7  O   UNL A   1      33.132  29.139  23.229  1.00  0.00    -0.252 OA
BRANCH   6   8
ATOM      8  C   UNL A   1      31.920  27.180  23.718  1.00  0.00     0.118 C 
ATOM      9  C   UNL A   1      29.326  27.764  23.434  1.00  0.00     0.013 C 
ATOM     10  C   UNL A   1      30.461  26.761  23.479  1.00  0.00    -0.009 C 
ATOM     11  C   UNL A   1      30.009  25.492  24.158  1.00  0.00     0.013 C 
ATOM     12  C   UNL A   1      31.458  26.873  22.324  1.00  0.00     0.100 C 
BRANCH  12  13
ATOM     13  C   UNL A   1      32.083  25.863  21.415  1.00  0.00     0.228 C 
ATOM     14  O   UNL A   1      31.780  25.927  20.224  1.00  0.00    -0.274 OA
ATOM     15  N   UNL A   1      33.204  25.141  21.763  1.00  0.00    -0.326 N 
ATOM     16  H   UNL A   1      34.054  25.446  21.370  1.00  0.00     0.169 HD
BRANCH  15  17
ATOM     17  C   UNL A   1      33.282  24.024  22.609  1.00  0.00     0.042 A 
ATOM     18  C   UNL A   1      32.231  23.144  22.774  1.00  0.00     0.027 A 
ATOM     19  C   UNL A   1      34.487  23.700  23.223  1.00  0.00     0.047 A 
ATOM     20  C   UNL A   1      32.219  22.235  23.830  1.00  0.00     0.017 A 
ATOM     21  C   UNL A   1      34.542  22.631  24.130  1.00  0.00     0.055 A 
ATOM     22  C   UNL A   1      33.360  22.062  24.610  1.00  0.00     0.058 A 
ATOM     23  Cl  UNL A   1      36.101  21.947  24.426  1.00  0.00    -0.083 Cl
BRANCH  22  24
ATOM     24  C   UNL A   1      33.186  21.295  25.878  1.00  0.00     0.257 C 
ATOM     25  O   UNL A   1      33.065  21.919  26.932  1.00  0.00    -0.269 OA
ATOM     26  N   UNL A   1      33.212  19.915  25.921  1.00  0.00    -0.321 N 
ATOM     27  H   UNL A   1      33.031  19.509  26.800  1.00  0.00     0.170 HD
BRANCH  26  28
ATOM     28  C   UNL A   1      33.464  19.018  24.876  1.00  0.00     0.059 A 
ATOM     29  C   UNL A   1      32.485  18.593  23.975  1.00  0.00     0.029 A 
ATOM     30  C   UNL A   1      34.710  18.410  24.820  1.00  0.00     0.137 A 
ATOM     31  C   UNL A   1      32.749  17.510  23.138  1.00  0.00     0.022 A 
ATOM     32  N   UNL A   1      34.963  17.325  24.057  1.00  0.00    -0.263 NA
ATOM     33  C   UNL A   1      33.979  16.891  23.245  1.00  0.00     0.111 A 
ENDBRANCH  26  28
ENDBRANCH  22  24
ENDBRANCH  15  17
ENDBRANCH  12  13
ENDBRANCH   6   8
ENDBRANCH   5   6
ENDBRANCH   4   5
ENDBRANCH   3   4
ENDBRANCH   2   3
ENDBRANCH   1   2
BRANCH   1  34
ATOM     34  C   UNL A   1      34.208  31.882  28.233  1.00  0.00     0.188 C 
BRANCH  34  35
ATOM     35  O   UNL A   1      34.936  32.968  27.713  1.00  0.00    -0.376 OA
BRANCH  35  36
ATOM     36  C   UNL A   1      35.652  33.793  28.612  1.00  0.00     0.202 C 
BRANCH  36  37
ATOM     37  C   UNL A   1      35.667  33.489  30.123  1.00  0.00     0.261 C 
BRANCH  37  38
ATOM     38  O   UNL A   1      36.784  32.752  30.644  1.00  0.00    -0.460 OA
BRANCH  38  39
ATOM     39  C   UNL A   1      36.576  31.448  30.942  1.00  0.00     0.338 C 
ATOM     40  O   UNL A   1      35.585  30.960  31.455  1.00  0.00    -0.246 OA
BRANCH  39  41
ATOM     41  C   UNL A   1      37.695  30.660  30.379  1.00  0.00     0.060 A 
ATOM     42  C   UNL A   1      38.563  29.990  31.250  1.00  0.00     0.016 A 
ATOM     43  C   UNL A   1      37.918  30.628  29.000  1.00  0.00     0.016 A 
ATOM     44  C   UNL A   1      39.672  29.308  30.743  1.00  0.00     0.010 A 
ATOM     45  C   UNL A   1      39.042  29.960  28.496  1.00  0.00     0.010 A 
ATOM     46  C   UNL A   1      39.943  29.321  29.367  1.00  0.00    -0.014 A 
BRANCH  46  47
ATOM     47  C   UNL A   1      41.272  28.853  28.884  1.00  0.00     0.031 A 
ATOM     48  C   UNL A   1      42.443  29.789  29.014  1.00  0.00     0.074 A 
ATOM     49  C   UNL A   1      41.452  27.612  28.390  1.00  0.00     0.049 A 
ATOM     50  N   UNL A   1      43.700  29.594  28.710  1.00  0.00    -0.248 NA
ATOM     51  C   UNL A   1      42.153  31.131  29.547  1.00  0.00     0.031 C 
ATOM     52  C   UNL A   1      40.400  26.615  28.239  1.00  0.00     0.029 A 
ATOM     53  N   UNL A   1      42.591  26.966  27.958  1.00  0.00    -0.354 N 
ATOM     54  C   UNL A   1      44.337  30.806  28.952  1.00  0.00     0.074 A 
ATOM     55  C   UNL A   1      43.336  31.720  29.454  1.00  0.00     0.031 C 
ATOM     56  C   UNL A   1      40.949  25.463  27.815  1.00  0.00     0.029 A 
ATOM     57  C   UNL A   1      42.390  25.641  27.631  1.00  0.00     0.049 A 
ATOM     58  H   UNL A   1      43.467  27.410  27.891  1.00  0.00     0.167 HD
ATOM     59  C   UNL A   1      45.634  31.133  28.749  1.00  0.00     0.037 A 
ATOM     60  C   UNL A   1      43.277  24.684  27.265  1.00  0.00     0.037 A 
ATOM     61  C   UNL A   1      46.636  30.213  28.278  1.00  0.00     0.049 A 
ATOM     62  C   UNL A   1      44.733  25.073  27.131  1.00  0.00     0.074 A 
ATOM     63  C   UNL A   1      47.976  30.451  28.030  1.00  0.00     0.029 A 
ATOM     64  N   UNL A   1      46.405  28.878  27.992  1.00  0.00    -0.354 N 
ATOM     65  N   UNL A   1      45.327  26.203  27.433  1.00  0.00    -0.248 NA
ATOM     66  C   UNL A   1      45.644  24.047  26.598  1.00  0.00     0.031 C 
ATOM     67  C   UNL A   1      48.547  29.268  27.551  1.00  0.00     0.029 A 
ATOM     68  C   UNL A   1      47.574  28.282  27.553  1.00  0.00     0.049 A 
ATOM     69  H   UNL A   1      45.538  28.421  28.086  1.00  0.00     0.167 HD
ATOM     70  C   UNL A   1      46.675  26.011  27.145  1.00  0.00     0.074 A 
ATOM     71  C   UNL A   1      46.822  24.636  26.724  1.00  0.00     0.031 C 
ATOM     72  C   UNL A   1      47.700  26.899  27.179  1.00  0.00     0.037 A 
BRANCH  59  73
ATOM     73  C   UNL A   1      46.031  32.563  28.967  1.00  0.00     0.057 A 
ATOM     74  C   UNL A   1      46.534  33.027  30.187  1.00  0.00     0.134 A 
ATOM     75  C   UNL A   1      45.927  33.486  27.917  1.00  0.00     0.134 A 
ATOM     76  F   UNL A   1      46.639  32.199  31.238  1.00  0.00    -0.206 F 
ATOM     77  C   UNL A   1      46.902  34.363  30.362  1.00  0.00     0.040 A 
ATOM     78  C   UNL A   1      46.318  34.816  28.071  1.00  0.00     0.040 A 
ATOM     79  F   UNL A   1      45.453  33.106  26.720  1.00  0.00    -0.206 F 
ATOM     80  C   UNL A   1      46.803  35.259  29.299  1.00  0.00     0.006 A 
ENDBRANCH  59  73
BRANCH  60  81
ATOM     81  C   UNL A   1      42.868  23.251  27.084  1.00  0.00     0.057 A 
ATOM     82  C   UNL A   1      42.605  22.426  28.193  1.00  0.00     0.134 A 
ATOM     83  C   UNL A   1      42.730  22.652  25.827  1.00  0.00     0.134 A 
ATOM     84  F   UNL A   1      42.783  22.887  29.441  1.00  0.00    -0.206 F 
ATOM     85  C   UNL A   1      42.173  21.104  28.062  1.00  0.00     0.040 A 
ATOM     86  C   UNL A   1      42.280  21.336  25.677  1.00  0.00     0.040 A 
ATOM     87  F   UNL A   1      43.020  23.338  24.711  1.00  0.00    -0.206 F 
ATOM     88  C   UNL A   1      41.990  20.560  26.797  1.00  0.00     0.006 A 
ENDBRANCH  60  81
BRANCH  72  89
ATOM     89  C   UNL A   1      49.057  26.400  26.769  1.00  0.00     0.057 A 
ATOM     90  C   UNL A   1      49.527  26.540  25.455  1.00  0.00     0.134 A 
ATOM     91  C   UNL A   1      49.917  25.805  27.700  1.00  0.00     0.134 A 
ATOM     92  F   UNL A   1      48.752  27.097  24.512  1.00  0.00    -0.206 F 
ATOM     93  C   UNL A   1      50.784  26.070  25.074  1.00  0.00     0.040 A 
ATOM     94  C   UNL A   1      51.189  25.359  27.338  1.00  0.00     0.040 A 
ATOM     95  F   UNL A   1      49.539  25.653  28.979  1.00  0.00    -0.206 F 
ATOM     96  C   UNL A   1      51.622  25.482  26.019  1.00  0.00     0.006 A 
ENDBRANCH  72  89
ENDBRANCH  46  47
ENDBRANCH  39  41
ENDBRANCH  38  39
ENDBRANCH  37  38
ENDBRANCH  36  37
ENDBRANCH  35  36
ENDBRANCH  34  35
ENDBRANCH   1  34
TORSDOF 21
ENDMDL
MODEL 3
REMARK VINA RESULT:     -11.1      4.733     10.201
REMARK SMILES CC1(C)[C@H](C(=O)Nc2ccc(C(=O)Nc3cccnc3)c(Cl)c2)[C@H]1C(=O)OCCOCCOCCOC(=O)c1ccc(-c2c3nc(c(-c4c(F)cccc4F)c4ccc([nH]4)c(-c4c(F)cccc4F)c4nc(c(-c5c(F)cccc5F)c5ccc2[nH]5)C=C4)C=C3)cc1
REMARK SMILES IDX 31 1 30 2 29 3 28 4 27 5 25 6 26 7 24 8 1 9 2 10 3 11 4 12
REMARK SMILES IDX 5 13 6 14 7 15 8 17 9 18 23 19 10 20 21 21 11 22 22 23 12 24
REMARK SMILES IDX 13 25 14 26 15 28 16 29 20 30 17 31 19 32 18 33 32 34 33 35
REMARK SMILES IDX 34 36 35 37 36 38 37 39 38 40 39 41 40 42 92 43 41 44 91 45
REMARK SMILES IDX 42 46 43 47 44 48 85 49 45 50 90 51 84 52 86 53 46 54 89 55
REMARK SMILES IDX 83 56 82 57 47 59 73 60 56 61 72 62 57 63 60 64 71 65 87 66
REMARK SMILES IDX 58 67 59 68 70 70 88 71 61 72 48 73 49 74 54 75 50 76 51 77
REMARK SMILES IDX 53 78 55 79 52 80 74 81 75 82 80 83 76 84 77 85 79 86 81 87
REMARK SMILES IDX 78 88 62 89 63 90 68 91 64 92 65 93 67 94 69 95 66 96
REMARK H PARENT 7 16 14 27 86 58 60 69
REMARK Flexibility Score: inf
ROOT
ATOM      1  C   UNL A   1      33.513  31.727  27.599  1.00  0.00     0.188 C 
ENDROOT
BRANCH   1   2
ATOM      2  O   UNL A   1      33.921  30.443  27.135  1.00  0.00    -0.376 OA
BRANCH   2   3
ATOM      3  C   UNL A   1      32.959  29.602  26.494  1.00  0.00     0.202 C 
BRANCH   3   4
ATOM      4  C   UNL A   1      31.936  28.879  27.384  1.00  0.00     0.261 C 
BRANCH   4   5
ATOM      5  O   UNL A   1      31.384  27.721  26.736  1.00  0.00    -0.463 OA
BRANCH   5   6
ATOM      6  C   UNL A   1      32.092  27.224  25.686  1.00  0.00     0.310 C 
ATOM      7  O   UNL A   1      33.272  26.954  25.677  1.00  0.00    -0.252 OA
BRANCH   6   8
ATOM      8  C   UNL A   1      31.214  26.863  24.536  1.00  0.00     0.118 C 
ATOM      9  C   UNL A   1      30.550  29.352  23.817  1.00  0.00     0.013 C 
ATOM     10  C   UNL A   1      30.437  27.850  23.650  1.00  0.00    -0.009 C 
ATOM     11  C   UNL A   1      29.020  27.468  23.305  1.00  0.00     0.013 C 
ATOM     12  C   UNL A   1      31.713  27.166  23.155  1.00  0.00     0.100 C 
BRANCH  12  13
ATOM     13  C   UNL A   1      31.977  26.144  22.094  1.00  0.00     0.228 C 
ATOM     14  O   UNL A   1      31.425  26.319  21.008  1.00  0.00    -0.274 OA
ATOM     15  N   UNL A   1      33.040  25.269  22.150  1.00  0.00    -0.326 N 
ATOM     16  H   UNL A   1      33.813  25.491  21.583  1.00  0.00     0.169 HD
BRANCH  15  17
ATOM     17  C   UNL A   1      33.155  24.101  22.920  1.00  0.00     0.042 A 
ATOM     18  C   UNL A   1      32.086  23.260  23.156  1.00  0.00     0.027 A 
ATOM     19  C   UNL A   1      34.403  23.688  23.373  1.00  0.00     0.047 A 
ATOM     20  C   UNL A   1      32.146  22.291  24.155  1.00  0.00     0.017 A 
ATOM     21  C   UNL A   1      34.505  22.565  24.207  1.00  0.00     0.055 A 
ATOM     22  C   UNL A   1      33.358  22.021  24.788  1.00  0.00     0.058 A 
ATOM     23  Cl  UNL A   1      36.050  21.795  24.284  1.00  0.00    -0.083 Cl
BRANCH  22  24
ATOM     24  C   UNL A   1      33.288  21.187  26.024  1.00  0.00     0.257 C 
ATOM     25  O   UNL A   1      33.268  21.754  27.117  1.00  0.00    -0.269 OA
ATOM     26  N   UNL A   1      33.302  19.806  25.991  1.00  0.00    -0.321 N 
ATOM     27  H   UNL A   1      33.195  19.355  26.859  1.00  0.00     0.170 HD
BRANCH  26  28
ATOM     28  C   UNL A   1      33.449  18.966  24.881  1.00  0.00     0.059 A 
ATOM     29  C   UNL A   1      32.423  18.707  23.971  1.00  0.00     0.029 A 
ATOM     30  C   UNL A   1      34.627  18.242  24.759  1.00  0.00     0.137 A 
ATOM     31  C   UNL A   1      32.566  17.666  23.056  1.00  0.00     0.022 A 
ATOM     32  N   UNL A   1      34.760  17.194  23.918  1.00  0.00    -0.263 NA
ATOM     33  C   UNL A   1      33.728  16.920  23.096  1.00  0.00     0.111 A 
ENDBRANCH  26  28
ENDBRANCH  22  24
ENDBRANCH  15  17
ENDBRANCH  12  13
ENDBRANCH   6   8
ENDBRANCH   5   6
ENDBRANCH   4   5
ENDBRANCH   3   4
ENDBRANCH   2   3
ENDBRANCH   1   2
BRANCH   1  34
ATOM     34  C   UNL A   1      34.508  32.571  28.418  1.00  0.00     0.188 C 
BRANCH  34  35
ATOM     35  O   UNL A   1      34.087  32.825  29.736  1.00  0.00    -0.376 OA
BRANCH  35  36
ATOM     36  C   UNL A   1      34.290  34.118  30.272  1.00  0.00     0.202 C 
BRANCH  36  37
ATOM     37  C   UNL A   1      35.033  34.313  31.609  1.00  0.00     0.261 C 
BRANCH  37  38
ATOM     38  O   UNL A   1      36.334  33.717  31.741  1.00  0.00    -0.460 OA
BRANCH  38  39
ATOM     39  C   UNL A   1      36.389  32.468  32.259  1.00  0.00     0.338 C 
ATOM     40  O   UNL A   1      35.621  31.971  33.062  1.00  0.00    -0.246 OA
BRANCH  39  41
ATOM     41  C   UNL A   1      37.454  31.722  31.554  1.00  0.00     0.060 A 
ATOM     42  C   UNL A   1      38.493  31.148  32.298  1.00  0.00     0.016 A 
ATOM     43  C   UNL A   1      37.456  31.635  30.159  1.00  0.00     0.016 A 
ATOM     44  C   UNL A   1      39.550  30.509  31.645  1.00  0.00     0.010 A 
ATOM     45  C   UNL A   1      38.528  31.010  29.506  1.00  0.00     0.010 A 
ATOM     46  C   UNL A   1      39.597  30.470  30.244  1.00  0.00    -0.014 A 
BRANCH  46  47
ATOM     47  C   UNL A   1      40.860  30.058  29.571  1.00  0.00     0.031 A 
ATOM     48  C   UNL A   1      40.930  28.677  28.979  1.00  0.00     0.074 A 
ATOM     49  C   UNL A   1      41.904  30.901  29.442  1.00  0.00     0.049 A 
ATOM     50  N   UNL A   1      41.899  28.109  28.307  1.00  0.00    -0.248 NA
ATOM     51  C   UNL A   1      39.753  27.816  29.183  1.00  0.00     0.031 C 
ATOM     52  C   UNL A   1      41.940  32.266  29.954  1.00  0.00     0.029 A 
ATOM     53  N   UNL A   1      43.118  30.748  28.808  1.00  0.00    -0.354 N 
ATOM     54  C   UNL A   1      41.475  26.806  28.067  1.00  0.00     0.074 A 
ATOM     55  C   UNL A   1      40.153  26.677  28.638  1.00  0.00     0.031 C 
ATOM     56  C   UNL A   1      43.086  32.849  29.557  1.00  0.00     0.029 A 
ATOM     57  C   UNL A   1      43.887  31.894  28.789  1.00  0.00     0.049 A 
ATOM     58  H   UNL A   1      43.410  29.898  28.406  1.00  0.00     0.167 HD
ATOM     59  C   UNL A   1      42.140  25.803  27.449  1.00  0.00     0.037 A 
ATOM     60  C   UNL A   1      45.074  32.143  28.187  1.00  0.00     0.037 A 
ATOM     61  C   UNL A   1      43.443  25.943  26.855  1.00  0.00     0.049 A 
ATOM     62  C   UNL A   1      45.744  31.016  27.434  1.00  0.00     0.074 A 
ATOM     63  C   UNL A   1      44.206  24.982  26.215  1.00  0.00     0.029 A 
ATOM     64  N   UNL A   1      44.172  27.120  26.824  1.00  0.00    -0.354 N 
ATOM     65  N   UNL A   1      45.296  29.814  27.156  1.00  0.00    -0.248 NA
ATOM     66  C   UNL A   1      47.095  31.280  26.911  1.00  0.00     0.031 C 
ATOM     67  C   UNL A   1      45.416  25.570  25.833  1.00  0.00     0.029 A 
ATOM     68  C   UNL A   1      45.383  26.908  26.190  1.00  0.00     0.049 A 
ATOM     69  H   UNL A   1      43.872  27.981  27.197  1.00  0.00     0.167 HD
ATOM     70  C   UNL A   1      46.300  29.197  26.414  1.00  0.00     0.074 A 
ATOM     71  C   UNL A   1      47.340  30.181  26.217  1.00  0.00     0.031 C 
ATOM     72  C   UNL A   1      46.383  27.918  25.971  1.00  0.00     0.037 A 
BRANCH  59  73
ATOM     73  C   UNL A   1      41.501  24.446  27.446  1.00  0.00     0.057 A 
ATOM     74  C   UNL A   1      40.497  24.090  26.539  1.00  0.00     0.134 A 
ATOM     75  C   UNL A   1      41.924  23.472  28.360  1.00  0.00     0.134 A 
ATOM     76  F   UNL A   1      40.033  24.983  25.652  1.00  0.00    -0.206 F 
ATOM     77  C   UNL A   1      39.922  22.817  26.553  1.00  0.00     0.040 A 
ATOM     78  C   UNL A   1      41.377  22.188  28.365  1.00  0.00     0.040 A 
ATOM     79  F   UNL A   1      42.883  23.749  29.256  1.00  0.00    -0.206 F 
ATOM     80  C   UNL A   1      40.368  21.859  27.463  1.00  0.00     0.006 A 
ENDBRANCH  59  73
BRANCH  60  81
ATOM     81  C   UNL A   1      45.683  33.515  28.171  1.00  0.00     0.057 A 
ATOM     82  C   UNL A   1      46.356  34.024  29.297  1.00  0.00     0.134 A 
ATOM     83  C   UNL A   1      45.617  34.364  27.060  1.00  0.00     0.134 A 
ATOM     84  F   UNL A   1      46.407  33.315  30.436  1.00  0.00    -0.206 F 
ATOM     85  C   UNL A   1      46.980  35.274  29.300  1.00  0.00     0.040 A 
ATOM     86  C   UNL A   1      46.252  35.611  27.040  1.00  0.00     0.040 A 
ATOM     87  F   UNL A   1      44.942  33.995  25.962  1.00  0.00    -0.206 F 
ATOM     88  C   UNL A   1      46.945  36.066  28.160  1.00  0.00     0.006 A 
ENDBRANCH  60  81
BRANCH  72  89
ATOM     89  C   UNL A   1      47.626  27.529  25.221  1.00  0.00     0.057 A 
ATOM     90  C   UNL A   1      48.749  27.005  25.878  1.00  0.00     0.134 A 
ATOM     91  C   UNL A   1      47.693  27.647  23.827  1.00  0.00     0.134 A 
ATOM     92  F   UNL A   1      48.754  26.870  27.213  1.00  0.00    -0.206 F 
ATOM     93  C   UNL A   1      49.905  26.651  25.182  1.00  0.00     0.040 A 
ATOM     94  C   UNL A   1      48.832  27.266  23.116  1.00  0.00     0.040 A 
ATOM     95  F   UNL A   1      46.649  28.125  23.132  1.00  0.00    -0.206 F 
ATOM     96  C   UNL A   1      49.946  26.776  23.794  1.00  0.00     0.006 A 
ENDBRANCH  72  89
ENDBRANCH  46  47
ENDBRANCH  39  41
ENDBRANCH  38  39
ENDBRANCH  37  38
ENDBRANCH  36  37
ENDBRANCH  35  36
ENDBRANCH  34  35
ENDBRANCH   1  34
TORSDOF 21
ENDMDL
