MODEL 1
REMARK VINA RESULT:     -11.3      0.000      0.000
REMARK SMILES CC(=O)NS(=O)(=O)c1ccc(-c2ccn(C(F)F)c(=O)c2)cc1C(=O)OCCOCCOCCOC(=O)c1ccc(-c2c3nc(c(-c4c(F)cccc4F)c4ccc([nH]4)c(-c4c(F)cccc4F)c4nc(c(-c5c(F)cccc5F)c5ccc2[nH]5)C=C4)C=C3)cc1
REMARK SMILES IDX 30 1 29 2 28 3 27 4 26 5 24 6 25 7 23 8 8 9 9 10 10 11 22 12
REMARK SMILES IDX 11 13 5 14 6 15 7 16 4 17 1 18 2 19 3 20 12 22 13 23 21 24
REMARK SMILES IDX 14 25 19 26 15 27 20 28 16 29 17 30 18 31 31 32 32 33 33 34
REMARK SMILES IDX 34 35 35 36 36 37 37 38 38 39 39 40 91 41 40 42 90 43 41 44
REMARK SMILES IDX 42 45 43 46 84 47 44 48 89 49 83 50 85 51 45 52 88 53 82 54
REMARK SMILES IDX 81 55 46 57 72 58 55 59 71 60 56 61 59 62 70 63 86 64 57 65
REMARK SMILES IDX 58 66 69 68 87 69 60 70 47 71 48 72 53 73 49 74 50 75 52 76
REMARK SMILES IDX 54 77 51 78 73 79 74 80 79 81 75 82 76 83 78 84 80 85 77 86
REMARK SMILES IDX 61 87 62 88 67 89 63 90 64 91 66 92 68 93 65 94
REMARK H PARENT 4 21 85 56 59 67
REMARK Flexibility Score: inf
ROOT
ATOM      1  C   UNL A   1      34.292  31.412  27.717  1.00  0.00     0.188 C 
ENDROOT
BRANCH   1   2
ATOM      2  O   UNL A   1      35.396  30.519  27.782  1.00  0.00    -0.376 OA
BRANCH   2   3
ATOM      3  C   UNL A   1      35.156  29.210  27.284  1.00  0.00     0.202 C 
BRANCH   3   4
ATOM      4  C   UNL A   1      33.668  28.885  27.231  1.00  0.00     0.261 C 
BRANCH   4   5
ATOM      5  O   UNL A   1      33.368  27.631  26.593  1.00  0.00    -0.460 OA
BRANCH   5   6
ATOM      6  C   UNL A   1      32.076  27.259  26.543  1.00  0.00     0.339 C 
ATOM      7  O   UNL A   1      31.222  27.444  27.395  1.00  0.00    -0.246 OA
BRANCH   6   8
ATOM      8  C   UNL A   1      31.790  26.626  25.242  1.00  0.00     0.081 A 
ATOM      9  C   UNL A   1      31.537  27.327  24.061  1.00  0.00     0.102 A 
ATOM     10  C   UNL A   1      31.266  26.620  22.876  1.00  0.00     0.024 A 
ATOM     11  C   UNL A   1      31.352  25.228  22.845  1.00  0.00     0.010 A 
ATOM     12  C   UNL A   1      31.888  25.223  25.201  1.00  0.00     0.025 A 
ATOM     13  C   UNL A   1      31.720  24.527  23.996  1.00  0.00    -0.017 A 
BRANCH   9  14
ATOM     14  S   UNL A   1      31.750  29.080  23.884  1.00  0.00     0.264 S 
ATOM     15  O   UNL A   1      33.157  29.312  23.698  1.00  0.00    -0.201 OA
ATOM     16  O   UNL A   1      31.027  29.696  24.983  1.00  0.00    -0.201 OA
BRANCH  14  17
ATOM     17  N   UNL A   1      30.992  29.559  22.503  1.00  0.00    -0.249 N 
ATOM     18  C   UNL A   1      28.593  29.189  23.121  1.00  0.00     0.115 C 
ATOM     19  C   UNL A   1      29.641  29.688  22.170  1.00  0.00     0.230 C 
ATOM     20  O   UNL A   1      29.359  30.126  21.064  1.00  0.00    -0.274 OA
ATOM     21  H   UNL A   1      31.608  29.799  21.773  1.00  0.00     0.183 HD
ENDBRANCH  14  17
ENDBRANCH   9  14
BRANCH  13  22
ATOM     22  C   UNL A   1      32.109  23.108  23.917  1.00  0.00    -0.011 A 
ATOM     23  C   UNL A   1      31.913  22.260  22.761  1.00  0.00     0.027 A 
ATOM     24  C   UNL A   1      32.587  22.568  25.053  1.00  0.00     0.080 A 
ATOM     25  C   UNL A   1      32.153  20.943  22.842  1.00  0.00     0.095 A 
ATOM     26  C   UNL A   1      32.884  21.116  25.151  1.00  0.00     0.255 A 
ATOM     27  N   UNL A   1      32.613  20.372  24.016  1.00  0.00    -0.258 N 
ATOM     28  O   UNL A   1      33.314  20.683  26.215  1.00  0.00    -0.269 OA
BRANCH  27  29
ATOM     29  C   UNL A   1      32.812  18.948  24.118  1.00  0.00     0.451 C 
ATOM     30  F   UNL A   1      32.356  18.313  23.011  1.00  0.00    -0.185 F 
ATOM     31  F   UNL A   1      34.130  18.659  24.253  1.00  0.00    -0.185 F 
ENDBRANCH  27  29
ENDBRANCH  13  22
ENDBRANCH   6   8
ENDBRANCH   5   6
ENDBRANCH   4   5
ENDBRANCH   3   4
ENDBRANCH   2   3
ENDBRANCH   1   2
BRANCH   1  32
ATOM     32  C   UNL A   1      34.579  32.823  28.268  1.00  0.00     0.188 C 
BRANCH  32  33
ATOM     33  O   UNL A   1      33.668  33.880  28.004  1.00  0.00    -0.376 OA
BRANCH  33  34
ATOM     34  C   UNL A   1      34.030  35.210  28.353  1.00  0.00     0.202 C 
BRANCH  34  35
ATOM     35  C   UNL A   1      33.038  35.980  29.229  1.00  0.00     0.261 C 
BRANCH  35  36
ATOM     36  O   UNL A   1      32.504  35.170  30.291  1.00  0.00    -0.460 OA
BRANCH  36  37
ATOM     37  C   UNL A   1      32.589  35.700  31.533  1.00  0.00     0.338 C 
ATOM     38  O   UNL A   1      31.828  36.497  32.055  1.00  0.00    -0.246 OA
BRANCH  37  39
ATOM     39  C   UNL A   1      33.657  35.013  32.290  1.00  0.00     0.060 A 
ATOM     40  C   UNL A   1      34.931  35.600  32.303  1.00  0.00     0.016 A 
ATOM     41  C   UNL A   1      33.431  33.800  32.943  1.00  0.00     0.016 A 
ATOM     42  C   UNL A   1      35.996  34.954  32.926  1.00  0.00     0.010 A 
ATOM     43  C   UNL A   1      34.506  33.137  33.541  1.00  0.00     0.010 A 
ATOM     44  C   UNL A   1      35.798  33.692  33.498  1.00  0.00    -0.014 A 
BRANCH  44  45
ATOM     45  C   UNL A   1      36.964  32.833  33.812  1.00  0.00     0.031 A 
ATOM     46  C   UNL A   1      37.709  33.106  35.089  1.00  0.00     0.074 A 
ATOM     47  C   UNL A   1      37.369  31.852  32.988  1.00  0.00     0.049 A 
ATOM     48  N   UNL A   1      38.842  32.610  35.514  1.00  0.00    -0.248 NA
ATOM     49  C   UNL A   1      37.088  34.071  36.013  1.00  0.00     0.031 C 
ATOM     50  C   UNL A   1      36.694  31.439  31.761  1.00  0.00     0.029 A 
ATOM     51  N   UNL A   1      38.475  31.041  33.058  1.00  0.00    -0.354 N 
ATOM     52  C   UNL A   1      39.078  33.216  36.740  1.00  0.00     0.074 A 
ATOM     53  C   UNL A   1      37.973  34.113  36.997  1.00  0.00     0.031 C 
ATOM     54  C   UNL A   1      37.423  30.474  31.170  1.00  0.00     0.029 A 
ATOM     55  C   UNL A   1      38.634  30.238  31.956  1.00  0.00     0.049 A 
ATOM     56  H   UNL A   1      39.094  31.037  33.824  1.00  0.00     0.167 HD
ATOM     57  C   UNL A   1      40.129  33.051  37.576  1.00  0.00     0.037 A 
ATOM     58  C   UNL A   1      39.664  29.442  31.604  1.00  0.00     0.037 A 
ATOM     59  C   UNL A   1      41.239  32.179  37.315  1.00  0.00     0.049 A 
ATOM     60  C   UNL A   1      40.873  29.350  32.499  1.00  0.00     0.074 A 
ATOM     61  C   UNL A   1      42.358  31.951  38.093  1.00  0.00     0.029 A 
ATOM     62  N   UNL A   1      41.372  31.402  36.176  1.00  0.00    -0.354 N 
ATOM     63  N   UNL A   1      41.093  29.928  33.657  1.00  0.00    -0.248 NA
ATOM     64  C   UNL A   1      41.983  28.504  32.035  1.00  0.00     0.031 C 
ATOM     65  C   UNL A   1      43.190  31.059  37.407  1.00  0.00     0.029 A 
ATOM     66  C   UNL A   1      42.565  30.703  36.222  1.00  0.00     0.049 A 
ATOM     67  H   UNL A   1      40.717  31.354  35.443  1.00  0.00     0.167 HD
ATOM     68  C   UNL A   1      42.347  29.493  34.069  1.00  0.00     0.074 A 
ATOM     69  C   UNL A   1      42.842  28.603  33.041  1.00  0.00     0.031 C 
ATOM     70  C   UNL A   1      43.028  29.801  35.200  1.00  0.00     0.037 A 
BRANCH  57  71
ATOM     71  C   UNL A   1      40.138  33.868  38.831  1.00  0.00     0.057 A 
ATOM     72  C   UNL A   1      39.461  33.457  39.985  1.00  0.00     0.134 A 
ATOM     73  C   UNL A   1      40.839  35.079  38.885  1.00  0.00     0.134 A 
ATOM     74  F   UNL A   1      38.751  32.317  39.987  1.00  0.00    -0.206 F 
ATOM     75  C   UNL A   1      39.465  34.231  41.146  1.00  0.00     0.040 A 
ATOM     76  C   UNL A   1      40.869  35.851  40.046  1.00  0.00     0.040 A 
ATOM     77  F   UNL A   1      41.504  35.529  37.810  1.00  0.00    -0.206 F 
ATOM     78  C   UNL A   1      40.177  35.430  41.180  1.00  0.00     0.006 A 
ENDBRANCH  57  71
BRANCH  58  79
ATOM     79  C   UNL A   1      39.628  28.699  30.320  1.00  0.00     0.057 A 
ATOM     80  C   UNL A   1      39.059  27.423  30.239  1.00  0.00     0.134 A 
ATOM     81  C   UNL A   1      40.193  29.230  29.154  1.00  0.00     0.134 A 
ATOM     82  F   UNL A   1      38.528  26.852  31.330  1.00  0.00    -0.206 F 
ATOM     83  C   UNL A   1      39.064  26.695  29.047  1.00  0.00     0.040 A 
ATOM     84  C   UNL A   1      40.186  28.522  27.952  1.00  0.00     0.040 A 
ATOM     85  F   UNL A   1      40.760  30.445  29.170  1.00  0.00    -0.206 F 
ATOM     86  C   UNL A   1      39.626  27.247  27.898  1.00  0.00     0.006 A 
ENDBRANCH  58  79
BRANCH  70  87
ATOM     87  C   UNL A   1      44.351  29.134  35.421  1.00  0.00     0.057 A 
ATOM     88  C   UNL A   1      44.456  27.891  36.056  1.00  0.00     0.134 A 
ATOM     89  C   UNL A   1      45.525  29.708  34.917  1.00  0.00     0.134 A 
ATOM     90  F   UNL A   1      43.369  27.295  36.568  1.00  0.00    -0.206 F 
ATOM     91  C   UNL A   1      45.686  27.244  36.186  1.00  0.00     0.040 A 
ATOM     92  C   UNL A   1      46.757  29.061  35.024  1.00  0.00     0.040 A 
ATOM     93  F   UNL A   1      45.488  30.893  34.289  1.00  0.00    -0.206 F 
ATOM     94  C   UNL A   1      46.839  27.825  35.661  1.00  0.00     0.006 A 
ENDBRANCH  70  87
ENDBRANCH  44  45
ENDBRANCH  37  39
ENDBRANCH  36  37
ENDBRANCH  35  36
ENDBRANCH  34  35
ENDBRANCH  33  34
ENDBRANCH  32  33
ENDBRANCH   1  32
TORSDOF 21
ENDMDL
MODEL 2
REMARK VINA RESULT:     -11.3      2.421      4.438
REMARK SMILES CC(=O)NS(=O)(=O)c1ccc(-c2ccn(C(F)F)c(=O)c2)cc1C(=O)OCCOCCOCCOC(=O)c1ccc(-c2c3nc(c(-c4c(F)cccc4F)c4ccc([nH]4)c(-c4c(F)cccc4F)c4nc(c(-c5c(F)cccc5F)c5ccc2[nH]5)C=C4)C=C3)cc1
REMARK SMILES IDX 30 1 29 2 28 3 27 4 26 5 24 6 25 7 23 8 8 9 9 10 10 11 22 12
REMARK SMILES IDX 11 13 5 14 6 15 7 16 4 17 1 18 2 19 3 20 12 22 13 23 21 24
REMARK SMILES IDX 14 25 19 26 15 27 20 28 16 29 17 30 18 31 31 32 32 33 33 34
REMARK SMILES IDX 34 35 35 36 36 37 37 38 38 39 39 40 91 41 40 42 90 43 41 44
REMARK SMILES IDX 42 45 43 46 84 47 44 48 89 49 83 50 85 51 45 52 88 53 82 54
REMARK SMILES IDX 81 55 46 57 72 58 55 59 71 60 56 61 59 62 70 63 86 64 57 65
REMARK SMILES IDX 58 66 69 68 87 69 60 70 47 71 48 72 53 73 49 74 50 75 52 76
REMARK SMILES IDX 54 77 51 78 73 79 74 80 79 81 75 82 76 83 78 84 80 85 77 86
REMARK SMILES IDX 61 87 62 88 67 89 63 90 64 91 66 92 68 93 65 94
REMARK H PARENT 4 21 85 56 59 67
REMARK Flexibility Score: inf
ROOT
ATOM      1  C   UNL A   1      33.907  31.285  27.689  1.00  0.00     0.188 C 
ENDROOT
BRANCH   1   2
ATOM      2  O   UNL A   1      34.894  30.356  27.260  1.00  0.00    -0.376 OA
BRANCH   2   3
ATOM      3  C   UNL A   1      34.593  28.989  27.498  1.00  0.00     0.202 C 
BRANCH   3   4
ATOM      4  C   UNL A   1      33.999  28.315  26.267  1.00  0.00     0.261 C 
BRANCH   4   5
ATOM      5  O   UNL A   1      33.258  27.116  26.560  1.00  0.00    -0.460 OA
BRANCH   5   6
ATOM      6  C   UNL A   1      33.458  26.056  25.755  1.00  0.00     0.339 C 
ATOM      7  O   UNL A   1      34.455  25.358  25.691  1.00  0.00    -0.246 OA
BRANCH   6   8
ATOM      8  C   UNL A   1      32.239  25.792  24.968  1.00  0.00     0.081 A 
ATOM      9  C   UNL A   1      31.502  24.608  25.026  1.00  0.00     0.102 A 
ATOM     10  C   UNL A   1      30.358  24.459  24.222  1.00  0.00     0.024 A 
ATOM     11  C   UNL A   1      29.892  25.522  23.448  1.00  0.00     0.010 A 
ATOM     12  C   UNL A   1      31.757  26.865  24.195  1.00  0.00     0.025 A 
ATOM     13  C   UNL A   1      30.559  26.749  23.476  1.00  0.00    -0.017 A 
BRANCH   9  14
ATOM     14  S   UNL A   1      31.777  23.327  26.223  1.00  0.00     0.264 S 
ATOM     15  O   UNL A   1      30.789  22.311  25.980  1.00  0.00    -0.201 OA
ATOM     16  O   UNL A   1      31.875  23.984  27.516  1.00  0.00    -0.201 OA
BRANCH  14  17
ATOM     17  N   UNL A   1      33.250  22.651  25.932  1.00  0.00    -0.249 N 
ATOM     18  C   UNL A   1      32.933  21.801  23.597  1.00  0.00     0.115 C 
ATOM     19  C   UNL A   1      33.802  22.057  24.794  1.00  0.00     0.230 C 
ATOM     20  O   UNL A   1      34.963  21.679  24.846  1.00  0.00    -0.274 OA
ATOM     21  H   UNL A   1      33.858  22.669  26.707  1.00  0.00     0.183 HD
ENDBRANCH  14  17
ENDBRANCH   9  14
BRANCH  13  22
ATOM     22  C   UNL A   1      29.928  27.957  22.917  1.00  0.00    -0.011 A 
ATOM     23  C   UNL A   1      30.620  28.977  22.157  1.00  0.00     0.027 A 
ATOM     24  C   UNL A   1      28.635  28.145  23.240  1.00  0.00     0.080 A 
ATOM     25  C   UNL A   1      29.994  30.116  21.830  1.00  0.00     0.095 A 
ATOM     26  C   UNL A   1      27.919  29.390  22.861  1.00  0.00     0.255 A 
ATOM     27  N   UNL A   1      28.674  30.334  22.187  1.00  0.00    -0.258 N 
ATOM     28  O   UNL A   1      26.743  29.504  23.188  1.00  0.00    -0.269 OA
BRANCH  27  29
ATOM     29  C   UNL A   1      28.023  31.584  21.887  1.00  0.00     0.451 C 
ATOM     30  F   UNL A   1      28.845  32.632  22.133  1.00  0.00    -0.185 F 
ATOM     31  F   UNL A   1      27.663  31.633  20.580  1.00  0.00    -0.185 F 
ENDBRANCH  27  29
ENDBRANCH  13  22
ENDBRANCH   6   8
ENDBRANCH   5   6
ENDBRANCH   4   5
ENDBRANCH   3   4
ENDBRANCH   2   3
ENDBRANCH   1   2
BRANCH   1  32
ATOM     32  C   UNL A   1      34.463  32.664  28.097  1.00  0.00     0.188 C 
BRANCH  32  33
ATOM     33  O   UNL A   1      33.598  33.792  28.122  1.00  0.00    -0.376 OA
BRANCH  33  34
ATOM     34  C   UNL A   1      34.064  35.009  28.689  1.00  0.00     0.202 C 
BRANCH  34  35
ATOM     35  C   UNL A   1      33.024  35.867  29.415  1.00  0.00     0.261 C 
BRANCH  35  36
ATOM     36  O   UNL A   1      32.476  35.201  30.567  1.00  0.00    -0.460 OA
BRANCH  36  37
ATOM     37  C   UNL A   1      32.700  35.807  31.757  1.00  0.00     0.338 C 
ATOM     38  O   UNL A   1      32.052  36.704  32.268  1.00  0.00    -0.246 OA
BRANCH  37  39
ATOM     39  C   UNL A   1      33.759  35.080  32.487  1.00  0.00     0.060 A 
ATOM     40  C   UNL A   1      35.027  35.676  32.566  1.00  0.00     0.016 A 
ATOM     41  C   UNL A   1      33.533  33.824  33.053  1.00  0.00     0.016 A 
ATOM     42  C   UNL A   1      36.087  34.998  33.165  1.00  0.00     0.010 A 
ATOM     43  C   UNL A   1      34.603  33.131  33.627  1.00  0.00     0.010 A 
ATOM     44  C   UNL A   1      35.890  33.699  33.648  1.00  0.00    -0.014 A 
BRANCH  44  45
ATOM     45  C   UNL A   1      37.058  32.831  33.926  1.00  0.00     0.031 A 
ATOM     46  C   UNL A   1      37.828  33.082  35.193  1.00  0.00     0.074 A 
ATOM     47  C   UNL A   1      37.443  31.861  33.081  1.00  0.00     0.049 A 
ATOM     48  N   UNL A   1      38.967  32.576  35.589  1.00  0.00    -0.248 NA
ATOM     49  C   UNL A   1      37.228  34.035  36.143  1.00  0.00     0.031 C 
ATOM     50  C   UNL A   1      36.744  31.468  31.861  1.00  0.00     0.029 A 
ATOM     51  N   UNL A   1      38.547  31.045  33.118  1.00  0.00    -0.354 N 
ATOM     52  C   UNL A   1      39.228  33.162  36.820  1.00  0.00     0.074 A 
ATOM     53  C   UNL A   1      38.131  34.059  37.111  1.00  0.00     0.031 C 
ATOM     54  C   UNL A   1      37.458  30.509  31.242  1.00  0.00     0.029 A 
ATOM     55  C   UNL A   1      38.682  30.257  32.001  1.00  0.00     0.049 A 
ATOM     56  H   UNL A   1      39.180  31.026  33.872  1.00  0.00     0.167 HD
ATOM     57  C   UNL A   1      40.293  32.981  37.634  1.00  0.00     0.037 A 
ATOM     58  C   UNL A   1      39.702  29.463  31.619  1.00  0.00     0.037 A 
ATOM     59  C   UNL A   1      41.394  32.109  37.339  1.00  0.00     0.049 A 
ATOM     60  C   UNL A   1      40.927  29.352  32.490  1.00  0.00     0.074 A 
ATOM     61  C   UNL A   1      42.528  31.865  38.092  1.00  0.00     0.029 A 
ATOM     62  N   UNL A   1      41.504  31.348  36.186  1.00  0.00    -0.354 N 
ATOM     63  N   UNL A   1      41.171  29.912  33.651  1.00  0.00    -0.248 NA
ATOM     64  C   UNL A   1      42.025  28.509  31.992  1.00  0.00     0.031 C 
ATOM     65  C   UNL A   1      43.342  30.980  37.378  1.00  0.00     0.029 A 
ATOM     66  C   UNL A   1      42.694  30.644  36.200  1.00  0.00     0.049 A 
ATOM     67  H   UNL A   1      40.835  31.314  35.465  1.00  0.00     0.167 HD
ATOM     68  C   UNL A   1      42.431  29.466  34.034  1.00  0.00     0.074 A 
ATOM     69  C   UNL A   1      42.903  28.590  32.983  1.00  0.00     0.031 C 
ATOM     70  C   UNL A   1      43.134  29.755  35.156  1.00  0.00     0.037 A 
BRANCH  57  71
ATOM     71  C   UNL A   1      40.330  33.779  38.900  1.00  0.00     0.057 A 
ATOM     72  C   UNL A   1      41.032  34.987  38.991  1.00  0.00     0.134 A 
ATOM     73  C   UNL A   1      39.648  33.335  40.040  1.00  0.00     0.134 A 
ATOM     74  F   UNL A   1      41.724  35.452  37.939  1.00  0.00    -0.206 F 
ATOM     75  C   UNL A   1      41.069  35.718  40.179  1.00  0.00     0.040 A 
ATOM     76  C   UNL A   1      39.661  34.068  41.226  1.00  0.00     0.040 A 
ATOM     77  F   UNL A   1      38.962  32.182  40.016  1.00  0.00    -0.206 F 
ATOM     78  C   UNL A   1      40.377  35.261  41.300  1.00  0.00     0.006 A 
ENDBRANCH  57  71
BRANCH  58  79
ATOM     79  C   UNL A   1      39.639  28.738  30.325  1.00  0.00     0.057 A 
ATOM     80  C   UNL A   1      39.077  27.460  30.239  1.00  0.00     0.134 A 
ATOM     81  C   UNL A   1      40.171  29.291  29.154  1.00  0.00     0.134 A 
ATOM     82  F   UNL A   1      38.577  26.869  31.333  1.00  0.00    -0.206 F 
ATOM     83  C   UNL A   1      39.056  26.750  29.036  1.00  0.00     0.040 A 
ATOM     84  C   UNL A   1      40.139  28.601  27.941  1.00  0.00     0.040 A 
ATOM     85  F   UNL A   1      40.730  30.510  29.173  1.00  0.00    -0.206 F 
ATOM     86  C   UNL A   1      39.587  27.324  27.882  1.00  0.00     0.006 A 
ENDBRANCH  58  79
BRANCH  70  87
ATOM     87  C   UNL A   1      44.458  29.080  35.343  1.00  0.00     0.057 A 
ATOM     88  C   UNL A   1      44.569  27.825  35.951  1.00  0.00     0.134 A 
ATOM     89  C   UNL A   1      45.626  29.660  34.830  1.00  0.00     0.134 A 
ATOM     90  F   UNL A   1      43.489  27.222  36.469  1.00  0.00    -0.206 F 
ATOM     91  C   UNL A   1      45.799  27.171  36.049  1.00  0.00     0.040 A 
ATOM     92  C   UNL A   1      46.857  29.007  34.904  1.00  0.00     0.040 A 
ATOM     93  F   UNL A   1      45.582  30.857  34.226  1.00  0.00    -0.206 F 
ATOM     94  C   UNL A   1      46.946  27.759  35.516  1.00  0.00     0.006 A 
ENDBRANCH  70  87
ENDBRANCH  44  45
ENDBRANCH  37  39
ENDBRANCH  36  37
ENDBRANCH  35  36
ENDBRANCH  34  35
ENDBRANCH  33  34
ENDBRANCH  32  33
ENDBRANCH   1  32
TORSDOF 21
ENDMDL
MODEL 3
REMARK VINA RESULT:     -10.7      5.305      8.297
REMARK SMILES CC(=O)NS(=O)(=O)c1ccc(-c2ccn(C(F)F)c(=O)c2)cc1C(=O)OCCOCCOCCOC(=O)c1ccc(-c2c3nc(c(-c4c(F)cccc4F)c4ccc([nH]4)c(-c4c(F)cccc4F)c4nc(c(-c5c(F)cccc5F)c5ccc2[nH]5)C=C4)C=C3)cc1
REMARK SMILES IDX 30 1 29 2 28 3 27 4 26 5 24 6 25 7 23 8 8 9 9 10 10 11 22 12
REMARK SMILES IDX 11 13 5 14 6 15 7 16 4 17 1 18 2 19 3 20 12 22 13 23 21 24
REMARK SMILES IDX 14 25 19 26 15 27 20 28 16 29 17 30 18 31 31 32 32 33 33 34
REMARK SMILES IDX 34 35 35 36 36 37 37 38 38 39 39 40 91 41 40 42 90 43 41 44
REMARK SMILES IDX 42 45 43 46 84 47 44 48 89 49 83 50 85 51 45 52 88 53 82 54
REMARK SMILES IDX 81 55 46 57 72 58 55 59 71 60 56 61 59 62 70 63 86 64 57 65
REMARK SMILES IDX 58 66 69 68 87 69 60 70 47 71 48 72 53 73 49 74 50 75 52 76
REMARK SMILES IDX 54 77 51 78 73 79 74 80 79 81 75 82 76 83 78 84 80 85 77 86
REMARK SMILES IDX 61 87 62 88 67 89 63 90 64 91 66 92 68 93 65 94
REMARK H PARENT 4 21 85 56 59 67
REMARK Flexibility Score: inf
ROOT
ATOM      1  C   UNL A   1      34.208  31.610  27.622  1.00  0.00     0.188 C 
ENDROOT
BRANCH   1   2
ATOM      2  O   UNL A   1      34.531  30.226  27.644  1.00  0.00    -0.376 OA
BRANCH   2   3
ATOM      3  C   UNL A   1      33.491  29.348  27.239  1.00  0.00     0.202 C 
BRANCH   3   4
ATOM      4  C   UNL A   1      34.017  28.197  26.389  1.00  0.00     0.261 C 
BRANCH   4   5
ATOM      5  O   UNL A   1      33.285  26.968  26.553  1.00  0.00    -0.460 OA
BRANCH   5   6
ATOM      6  C   UNL A   1      33.545  25.976  25.683  1.00  0.00     0.339 C 
ATOM      7  O   UNL A   1      34.586  25.352  25.565  1.00  0.00    -0.246 OA
BRANCH   6   8
ATOM      8  C   UNL A   1      32.335  25.678  24.893  1.00  0.00     0.081 A 
ATOM      9  C   UNL A   1      31.677  24.447  24.891  1.00  0.00     0.102 A 
ATOM     10  C   UNL A   1      30.534  24.269  24.090  1.00  0.00     0.024 A 
ATOM     11  C   UNL A   1      29.991  25.342  23.382  1.00  0.00     0.010 A 
ATOM     12  C   UNL A   1      31.775  26.759  24.188  1.00  0.00     0.025 A 
ATOM     13  C   UNL A   1      30.577  26.607  23.474  1.00  0.00    -0.017 A 
BRANCH   9  14
ATOM     14  S   UNL A   1      32.050  23.122  26.009  1.00  0.00     0.264 S 
ATOM     15  O   UNL A   1      31.103  22.072  25.742  1.00  0.00    -0.201 OA
ATOM     16  O   UNL A   1      32.158  23.714  27.331  1.00  0.00    -0.201 OA
BRANCH  14  17
ATOM     17  N   UNL A   1      33.542  22.533  25.640  1.00  0.00    -0.249 N 
ATOM     18  C   UNL A   1      33.323  22.191  23.168  1.00  0.00     0.115 C 
ATOM     19  C   UNL A   1      34.144  22.196  24.424  1.00  0.00     0.230 C 
ATOM     20  O   UNL A   1      35.308  21.825  24.440  1.00  0.00    -0.274 OA
ATOM     21  H   UNL A   1      34.122  22.392  26.424  1.00  0.00     0.183 HD
ENDBRANCH  14  17
ENDBRANCH   9  14
BRANCH  13  22
ATOM     22  C   UNL A   1      29.863  27.801  22.992  1.00  0.00    -0.011 A 
ATOM     23  C   UNL A   1      30.493  28.952  22.380  1.00  0.00     0.027 A 
ATOM     24  C   UNL A   1      28.541  27.834  23.243  1.00  0.00     0.080 A 
ATOM     25  C   UNL A   1      29.776  30.055  22.121  1.00  0.00     0.095 A 
ATOM     26  C   UNL A   1      27.728  29.039  22.938  1.00  0.00     0.255 A 
ATOM     27  N   UNL A   1      28.423  30.112  22.408  1.00  0.00    -0.258 N 
ATOM     28  O   UNL A   1      26.529  29.009  23.195  1.00  0.00    -0.269 OA
BRANCH  27  29
ATOM     29  C   UNL A   1      27.669  31.319  22.185  1.00  0.00     0.451 C 
ATOM     30  F   UNL A   1      27.404  31.950  23.355  1.00  0.00    -0.185 F 
ATOM     31  F   UNL A   1      28.362  32.177  21.396  1.00  0.00    -0.185 F 
ENDBRANCH  27  29
ENDBRANCH  13  22
ENDBRANCH   6   8
ENDBRANCH   5   6
ENDBRANCH   4   5
ENDBRANCH   3   4
ENDBRANCH   2   3
ENDBRANCH   1   2
BRANCH   1  32
ATOM     32  C   UNL A   1      35.106  32.490  28.514  1.00  0.00     0.188 C 
BRANCH  32  33
ATOM     33  O   UNL A   1      34.549  33.615  29.181  1.00  0.00    -0.376 OA
BRANCH  33  34
ATOM     34  C   UNL A   1      34.823  33.805  30.563  1.00  0.00     0.202 C 
BRANCH  34  35
ATOM     35  C   UNL A   1      34.445  32.654  31.499  1.00  0.00     0.261 C 
BRANCH  35  36
ATOM     36  O   UNL A   1      35.515  31.704  31.654  1.00  0.00    -0.460 OA
BRANCH  36  37
ATOM     37  C   UNL A   1      36.441  32.011  32.592  1.00  0.00     0.338 C 
ATOM     38  O   UNL A   1      36.247  32.313  33.758  1.00  0.00    -0.246 OA
BRANCH  37  39
ATOM     39  C   UNL A   1      37.791  31.731  32.061  1.00  0.00     0.060 A 
ATOM     40  C   UNL A   1      38.039  32.033  30.713  1.00  0.00     0.016 A 
ATOM     41  C   UNL A   1      38.785  31.151  32.850  1.00  0.00     0.016 A 
ATOM     42  C   UNL A   1      39.264  31.710  30.135  1.00  0.00     0.010 A 
ATOM     43  C   UNL A   1      40.003  30.798  32.262  1.00  0.00     0.010 A 
ATOM     44  C   UNL A   1      40.231  31.039  30.894  1.00  0.00    -0.014 A 
BRANCH  44  45
ATOM     45  C   UNL A   1      41.356  30.354  30.217  1.00  0.00     0.031 A 
ATOM     46  C   UNL A   1      42.601  31.154  29.950  1.00  0.00     0.074 A 
ATOM     47  C   UNL A   1      41.280  29.070  29.830  1.00  0.00     0.049 A 
ATOM     48  N   UNL A   1      43.655  30.841  29.241  1.00  0.00    -0.248 NA
ATOM     49  C   UNL A   1      42.665  32.488  30.570  1.00  0.00     0.031 C 
ATOM     50  C   UNL A   1      40.164  28.167  30.093  1.00  0.00     0.029 A 
ATOM     51  N   UNL A   1      42.166  28.313  29.103  1.00  0.00    -0.354 N 
ATOM     52  C   UNL A   1      44.494  31.945  29.314  1.00  0.00     0.074 A 
ATOM     53  C   UNL A   1      43.834  32.934  30.137  1.00  0.00     0.031 C 
ATOM     54  C   UNL A   1      40.413  26.985  29.500  1.00  0.00     0.029 A 
ATOM     55  C   UNL A   1      41.685  27.067  28.782  1.00  0.00     0.049 A 
ATOM     56  H   UNL A   1      43.059  28.633  28.837  1.00  0.00     0.167 HD
ATOM     57  C   UNL A   1      45.704  32.125  28.736  1.00  0.00     0.037 A 
ATOM     58  C   UNL A   1      42.195  26.126  27.963  1.00  0.00     0.037 A 
ATOM     59  C   UNL A   1      46.353  31.155  27.901  1.00  0.00     0.049 A 
ATOM     60  C   UNL A   1      43.495  26.387  27.246  1.00  0.00     0.074 A 
ATOM     61  C   UNL A   1      47.574  31.249  27.259  1.00  0.00     0.029 A 
ATOM     62  N   UNL A   1      45.821  29.917  27.581  1.00  0.00    -0.354 N 
ATOM     63  N   UNL A   1      44.283  27.434  27.315  1.00  0.00    -0.248 NA
ATOM     64  C   UNL A   1      43.973  25.342  26.328  1.00  0.00     0.031 C 
ATOM     65  C   UNL A   1      47.766  30.077  26.519  1.00  0.00     0.029 A 
ATOM     66  C   UNL A   1      46.682  29.240  26.737  1.00  0.00     0.049 A 
ATOM     67  H   UNL A   1      44.958  29.570  27.905  1.00  0.00     0.167 HD
ATOM     68  C   UNL A   1      45.358  27.160  26.477  1.00  0.00     0.074 A 
ATOM     69  C   UNL A   1      45.124  25.849  25.909  1.00  0.00     0.031 C 
ATOM     70  C   UNL A   1      46.443  27.924  26.203  1.00  0.00     0.037 A 
BRANCH  57  71
ATOM     71  C   UNL A   1      46.377  33.444  28.961  1.00  0.00     0.057 A 
ATOM     72  C   UNL A   1      47.247  33.655  30.037  1.00  0.00     0.134 A 
ATOM     73  C   UNL A   1      46.156  34.514  28.084  1.00  0.00     0.134 A 
ATOM     74  F   UNL A   1      47.480  32.676  30.925  1.00  0.00    -0.206 F 
ATOM     75  C   UNL A   1      47.861  34.891  30.245  1.00  0.00     0.040 A 
ATOM     76  C   UNL A   1      46.779  35.746  28.269  1.00  0.00     0.040 A 
ATOM     77  F   UNL A   1      45.329  34.374  27.037  1.00  0.00    -0.206 F 
ATOM     78  C   UNL A   1      47.631  35.940  29.355  1.00  0.00     0.006 A 
ENDBRANCH  57  71
BRANCH  58  79
ATOM     79  C   UNL A   1      41.457  24.860  27.731  1.00  0.00     0.057 A 
ATOM     80  C   UNL A   1      41.809  23.684  28.402  1.00  0.00     0.134 A 
ATOM     81  C   UNL A   1      40.407  24.787  26.807  1.00  0.00     0.134 A 
ATOM     82  F   UNL A   1      42.826  23.687  29.276  1.00  0.00    -0.206 F 
ATOM     83  C   UNL A   1      41.153  22.476  28.154  1.00  0.00     0.040 A 
ATOM     84  C   UNL A   1      39.729  23.591  26.565  1.00  0.00     0.040 A 
ATOM     85  F   UNL A   1      40.027  25.878  26.127  1.00  0.00    -0.206 F 
ATOM     86  C   UNL A   1      40.107  22.430  27.235  1.00  0.00     0.006 A 
ENDBRANCH  58  79
BRANCH  70  87
ATOM     87  C   UNL A   1      47.491  27.350  25.299  1.00  0.00     0.057 A 
ATOM     88  C   UNL A   1      47.465  27.553  23.915  1.00  0.00     0.134 A 
ATOM     89  C   UNL A   1      48.583  26.655  25.835  1.00  0.00     0.134 A 
ATOM     90  F   UNL A   1      46.441  28.202  23.342  1.00  0.00    -0.206 F 
ATOM     91  C   UNL A   1      48.489  27.079  23.092  1.00  0.00     0.040 A 
ATOM     92  C   UNL A   1      49.622  26.195  25.026  1.00  0.00     0.040 A 
ATOM     93  F   UNL A   1      48.670  26.439  27.156  1.00  0.00    -0.206 F 
ATOM     94  C   UNL A   1      49.576  26.406  23.650  1.00  0.00     0.006 A 
ENDBRANCH  70  87
ENDBRANCH  44  45
ENDBRANCH  37  39
ENDBRANCH  36  37
ENDBRANCH  35  36
ENDBRANCH  34  35
ENDBRANCH  33  34
ENDBRANCH  32  33
ENDBRANCH   1  32
TORSDOF 21
ENDMDL
