MODEL 1
REMARK VINA RESULT:     -10.3      0.000      0.000
REMARK SMILES Cc1nc([C@]2(C)CCCO2)nc(C)c1C(=O)OCCOCCOCCOC(=O)c1ccc(-c2c3nc(c(-c4c(F)cccc4F)c4ccc([nH]4)c(-c4c(F)cccc4F)c4nc(c(-c5c(F)cccc5F)c5ccc2[nH]5)C=C4)C=C3)cc1
REMARK SMILES IDX 22 1 21 2 20 3 19 4 18 5 17 6 15 7 16 8 14 9 1 10 2 11 3 12
REMARK SMILES IDX 4 13 12 14 11 15 13 16 5 17 7 18 10 19 6 20 8 21 9 22 23 23
REMARK SMILES IDX 24 24 25 25 26 26 27 27 28 28 29 29 30 30 82 31 31 32 81 33
REMARK SMILES IDX 32 34 33 35 34 36 75 37 35 38 80 39 74 40 76 41 36 42 79 43
REMARK SMILES IDX 73 44 72 45 37 47 63 48 46 49 62 50 47 51 50 52 61 53 77 54
REMARK SMILES IDX 48 55 49 56 60 58 78 59 51 60 38 61 39 62 44 63 40 64 41 65
REMARK SMILES IDX 43 66 45 67 42 68 64 69 65 70 70 71 66 72 67 73 69 74 71 75
REMARK SMILES IDX 68 76 52 77 53 78 58 79 54 80 55 81 57 82 59 83 56 84
REMARK H PARENT 76 46 50 57
REMARK Flexibility Score: inf
ROOT
ATOM      1  C   UNL A   1      33.656  36.907  32.229  1.00  0.00     0.188 C 
ENDROOT
BRANCH   1   2
ATOM      2  C   UNL A   1      32.489  35.938  31.938  1.00  0.00     0.188 C 
BRANCH   2   3
ATOM      3  O   UNL A   1      32.353  35.352  30.663  1.00  0.00    -0.376 OA
BRANCH   3   4
ATOM      4  C   UNL A   1      33.464  35.208  29.792  1.00  0.00     0.202 C 
BRANCH   4   5
ATOM      5  C   UNL A   1      34.435  34.020  29.833  1.00  0.00     0.261 C 
BRANCH   5   6
ATOM      6  O   UNL A   1      33.946  32.806  29.259  1.00  0.00    -0.460 OA
BRANCH   6   7
ATOM      7  C   UNL A   1      34.538  32.428  28.101  1.00  0.00     0.341 C 
ATOM      8  O   UNL A   1      35.521  32.940  27.589  1.00  0.00    -0.246 OA
BRANCH   7   9
ATOM      9  C   UNL A   1      33.898  31.223  27.554  1.00  0.00     0.102 A 
ATOM     10  C   UNL A   1      31.783  32.457  26.874  1.00  0.00     0.068 C 
ATOM     11  C   UNL A   1      32.666  31.244  26.916  1.00  0.00     0.056 A 
ATOM     12  N   UNL A   1      32.146  30.140  26.327  1.00  0.00    -0.234 NA
ATOM     13  C   UNL A   1      32.852  28.991  26.381  1.00  0.00     0.160 A 
ATOM     14  C   UNL A   1      34.537  29.989  27.621  1.00  0.00     0.056 A 
ATOM     15  N   UNL A   1      34.025  28.882  27.032  1.00  0.00    -0.234 NA
ATOM     16  C   UNL A   1      35.762  29.735  28.452  1.00  0.00     0.068 C 
BRANCH  13  17
ATOM     17  C   UNL A   1      32.322  27.771  25.609  1.00  0.00     0.125 C 
ATOM     18  C   UNL A   1      33.465  26.975  24.973  1.00  0.00     0.046 C 
ATOM     19  O   UNL A   1      31.494  28.195  24.500  1.00  0.00    -0.367 OA
ATOM     20  C   UNL A   1      31.463  26.867  26.500  1.00  0.00     0.051 C 
ATOM     21  C   UNL A   1      33.661  27.651  23.636  1.00  0.00     0.032 C 
ATOM     22  C   UNL A   1      32.281  28.179  23.300  1.00  0.00     0.161 C 
ENDBRANCH  13  17
ENDBRANCH   7   9
ENDBRANCH   6   7
ENDBRANCH   5   6
ENDBRANCH   4   5
ENDBRANCH   3   4
ENDBRANCH   2   3
ENDBRANCH   1   2
BRANCH   1  23
ATOM     23  O   UNL A   1      34.680  36.562  33.141  1.00  0.00    -0.376 OA
BRANCH  23  24
ATOM     24  C   UNL A   1      34.908  35.195  33.445  1.00  0.00     0.202 C 
BRANCH  24  25
ATOM     25  C   UNL A   1      36.149  34.462  32.920  1.00  0.00     0.261 C 
BRANCH  25  26
ATOM     26  O   UNL A   1      36.334  33.139  33.438  1.00  0.00    -0.460 OA
BRANCH  26  27
ATOM     27  C   UNL A   1      36.190  32.142  32.532  1.00  0.00     0.338 C 
ATOM     28  O   UNL A   1      35.153  31.626  32.154  1.00  0.00    -0.246 OA
BRANCH  27  29
ATOM     29  C   UNL A   1      37.493  31.853  31.906  1.00  0.00     0.060 A 
ATOM     30  C   UNL A   1      37.618  32.022  30.520  1.00  0.00     0.016 A 
ATOM     31  C   UNL A   1      38.558  31.361  32.661  1.00  0.00     0.016 A 
ATOM     32  C   UNL A   1      38.805  31.670  29.878  1.00  0.00     0.010 A 
ATOM     33  C   UNL A   1      39.738  30.984  32.013  1.00  0.00     0.010 A 
ATOM     34  C   UNL A   1      39.855  31.110  30.617  1.00  0.00    -0.014 A 
BRANCH  34  35
ATOM     35  C   UNL A   1      41.004  30.493  29.912  1.00  0.00     0.031 A 
ATOM     36  C   UNL A   1      42.210  31.341  29.618  1.00  0.00     0.074 A 
ATOM     37  C   UNL A   1      40.982  29.200  29.543  1.00  0.00     0.049 A 
ATOM     38  N   UNL A   1      43.300  31.038  28.961  1.00  0.00    -0.248 NA
ATOM     39  C   UNL A   1      42.181  32.720  30.135  1.00  0.00     0.031 C 
ATOM     40  C   UNL A   1      39.892  28.264  29.803  1.00  0.00     0.029 A 
ATOM     41  N   UNL A   1      41.909  28.459  28.854  1.00  0.00    -0.354 N 
ATOM     42  C   UNL A   1      44.086  32.183  28.985  1.00  0.00     0.074 A 
ATOM     43  C   UNL A   1      43.336  33.197  29.695  1.00  0.00     0.031 C 
ATOM     44  C   UNL A   1      40.203  27.074  29.259  1.00  0.00     0.029 A 
ATOM     45  C   UNL A   1      41.500  27.175  28.590  1.00  0.00     0.049 A 
ATOM     46  H   UNL A   1      42.784  28.814  28.575  1.00  0.00     0.167 HD
ATOM     47  C   UNL A   1      45.322  32.372  28.471  1.00  0.00     0.037 A 
ATOM     48  C   UNL A   1      42.095  26.205  27.869  1.00  0.00     0.037 A 
ATOM     49  C   UNL A   1      46.066  31.370  27.755  1.00  0.00     0.049 A 
ATOM     50  C   UNL A   1      43.437  26.465  27.236  1.00  0.00     0.074 A 
ATOM     51  C   UNL A   1      47.330  31.466  27.199  1.00  0.00     0.029 A 
ATOM     52  N   UNL A   1      45.608  30.089  27.489  1.00  0.00    -0.354 N 
ATOM     53  N   UNL A   1      44.181  27.543  27.284  1.00  0.00    -0.248 NA
ATOM     54  C   UNL A   1      44.023  25.370  26.449  1.00  0.00     0.031 C 
ATOM     55  C   UNL A   1      47.619  30.256  26.559  1.00  0.00     0.029 A 
ATOM     56  C   UNL A   1      46.555  29.391  26.758  1.00  0.00     0.049 A 
ATOM     57  H   UNL A   1      44.738  29.728  27.778  1.00  0.00     0.167 HD
ATOM     58  C   UNL A   1      45.332  27.246  26.563  1.00  0.00     0.074 A 
ATOM     59  C   UNL A   1      45.193  25.883  26.096  1.00  0.00     0.031 C 
ATOM     60  C   UNL A   1      46.408  28.031  26.311  1.00  0.00     0.037 A 
BRANCH  47  61
ATOM     61  C   UNL A   1      45.942  33.725  28.647  1.00  0.00     0.057 A 
ATOM     62  C   UNL A   1      46.751  34.027  29.751  1.00  0.00     0.134 A 
ATOM     63  C   UNL A   1      45.757  34.727  27.687  1.00  0.00     0.134 A 
ATOM     64  F   UNL A   1      46.955  33.115  30.712  1.00  0.00    -0.206 F 
ATOM     65  C   UNL A   1      47.338  35.284  29.902  1.00  0.00     0.040 A 
ATOM     66  C   UNL A   1      46.358  35.981  27.815  1.00  0.00     0.040 A 
ATOM     67  F   UNL A   1      44.996  34.502  26.605  1.00  0.00    -0.206 F 
ATOM     68  C   UNL A   1      47.147  36.263  28.928  1.00  0.00     0.006 A 
ENDBRANCH  47  61
BRANCH  48  69
ATOM     69  C   UNL A   1      41.420  24.896  27.682  1.00  0.00     0.057 A 
ATOM     70  C   UNL A   1      41.800  23.770  28.420  1.00  0.00     0.134 A 
ATOM     71  C   UNL A   1      40.408  24.730  26.728  1.00  0.00     0.134 A 
ATOM     72  F   UNL A   1      42.783  23.859  29.328  1.00  0.00    -0.206 F 
ATOM     73  C   UNL A   1      41.215  22.521  28.204  1.00  0.00     0.040 A 
ATOM     74  C   UNL A   1      39.796  23.493  26.518  1.00  0.00     0.040 A 
ATOM     75  F   UNL A   1      40.000  25.770  25.986  1.00  0.00    -0.206 F 
ATOM     76  C   UNL A   1      40.206  22.382  27.252  1.00  0.00     0.006 A 
ENDBRANCH  48  69
BRANCH  60  77
ATOM     77  C   UNL A   1      47.540  27.425  25.531  1.00  0.00     0.057 A 
ATOM     78  C   UNL A   1      47.597  27.494  24.133  1.00  0.00     0.134 A 
ATOM     79  C   UNL A   1      48.609  26.806  26.192  1.00  0.00     0.134 A 
ATOM     80  F   UNL A   1      46.599  28.064  23.439  1.00  0.00    -0.206 F 
ATOM     81  C   UNL A   1      48.667  26.952  23.420  1.00  0.00     0.040 A 
ATOM     82  C   UNL A   1      49.696  26.283  25.491  1.00  0.00     0.040 A 
ATOM     83  F   UNL A   1      48.621  26.714  27.530  1.00  0.00    -0.206 F 
ATOM     84  C   UNL A   1      49.725  26.350  24.099  1.00  0.00     0.006 A 
ENDBRANCH  60  77
ENDBRANCH  34  35
ENDBRANCH  27  29
ENDBRANCH  26  27
ENDBRANCH  25  26
ENDBRANCH  24  25
ENDBRANCH  23  24
ENDBRANCH   1  23
TORSDOF 18
ENDMDL
MODEL 2
REMARK VINA RESULT:     -10.0      5.530     11.227
REMARK SMILES Cc1nc([C@]2(C)CCCO2)nc(C)c1C(=O)OCCOCCOCCOC(=O)c1ccc(-c2c3nc(c(-c4c(F)cccc4F)c4ccc([nH]4)c(-c4c(F)cccc4F)c4nc(c(-c5c(F)cccc5F)c5ccc2[nH]5)C=C4)C=C3)cc1
REMARK SMILES IDX 22 1 21 2 20 3 19 4 18 5 17 6 15 7 16 8 14 9 1 10 2 11 3 12
REMARK SMILES IDX 4 13 12 14 11 15 13 16 5 17 7 18 10 19 6 20 8 21 9 22 23 23
REMARK SMILES IDX 24 24 25 25 26 26 27 27 28 28 29 29 30 30 82 31 31 32 81 33
REMARK SMILES IDX 32 34 33 35 34 36 75 37 35 38 80 39 74 40 76 41 36 42 79 43
REMARK SMILES IDX 73 44 72 45 37 47 63 48 46 49 62 50 47 51 50 52 61 53 77 54
REMARK SMILES IDX 48 55 49 56 60 58 78 59 51 60 38 61 39 62 44 63 40 64 41 65
REMARK SMILES IDX 43 66 45 67 42 68 64 69 65 70 70 71 66 72 67 73 69 74 71 75
REMARK SMILES IDX 68 76 52 77 53 78 58 79 54 80 55 81 57 82 59 83 56 84
REMARK H PARENT 76 46 50 57
REMARK Flexibility Score: inf
ROOT
ATOM      1  C   UNL A   1      44.636  19.082  24.346  1.00  0.00     0.188 C 
ENDROOT
BRANCH   1   2
ATOM      2  C   UNL A   1      43.567  18.568  25.336  1.00  0.00     0.188 C 
BRANCH   2   3
ATOM      3  O   UNL A   1      42.284  19.153  25.362  1.00  0.00    -0.376 OA
BRANCH   3   4
ATOM      4  C   UNL A   1      41.505  19.176  26.548  1.00  0.00     0.202 C 
BRANCH   4   5
ATOM      5  C   UNL A   1      41.504  20.341  27.549  1.00  0.00     0.261 C 
BRANCH   5   6
ATOM      6  O   UNL A   1      40.366  21.203  27.487  1.00  0.00    -0.460 OA
BRANCH   6   7
ATOM      7  C   UNL A   1      40.301  22.005  26.397  1.00  0.00     0.341 C 
ATOM      8  O   UNL A   1      41.236  22.340  25.688  1.00  0.00    -0.246 OA
BRANCH   7   9
ATOM      9  C   UNL A   1      38.908  22.364  26.093  1.00  0.00     0.102 A 
ATOM     10  C   UNL A   1      38.407  20.134  24.981  1.00  0.00     0.068 C 
ATOM     11  C   UNL A   1      38.009  21.479  25.515  1.00  0.00     0.056 A 
ATOM     12  N   UNL A   1      36.703  21.797  25.343  1.00  0.00    -0.234 NA
ATOM     13  C   UNL A   1      36.281  23.017  25.739  1.00  0.00     0.160 A 
ATOM     14  C   UNL A   1      38.412  23.622  26.419  1.00  0.00     0.056 A 
ATOM     15  N   UNL A   1      37.108  23.946  26.253  1.00  0.00    -0.234 NA
ATOM     16  C   UNL A   1      39.282  24.769  26.849  1.00  0.00     0.068 C 
BRANCH  13  17
ATOM     17  C   UNL A   1      34.779  23.333  25.657  1.00  0.00     0.125 C 
ATOM     18  C   UNL A   1      34.113  22.580  24.502  1.00  0.00     0.046 C 
ATOM     19  O   UNL A   1      34.572  24.735  25.362  1.00  0.00    -0.367 OA
ATOM     20  C   UNL A   1      34.065  23.035  26.980  1.00  0.00     0.051 C 
ATOM     21  C   UNL A   1      34.304  23.505  23.324  1.00  0.00     0.032 C 
ATOM     22  C   UNL A   1      34.328  24.883  23.956  1.00  0.00     0.161 C 
ENDBRANCH  13  17
ENDBRANCH   7   9
ENDBRANCH   6   7
ENDBRANCH   5   6
ENDBRANCH   4   5
ENDBRANCH   3   4
ENDBRANCH   2   3
ENDBRANCH   1   2
BRANCH   1  23
ATOM     23  O   UNL A   1      44.631  20.424  23.901  1.00  0.00    -0.376 OA
BRANCH  23  24
ATOM     24  C   UNL A   1      44.437  21.468  24.841  1.00  0.00     0.202 C 
BRANCH  24  25
ATOM     25  C   UNL A   1      44.908  22.898  24.547  1.00  0.00     0.261 C 
BRANCH  25  26
ATOM     26  O   UNL A   1      45.064  23.733  25.702  1.00  0.00    -0.460 OA
BRANCH  26  27
ATOM     27  C   UNL A   1      45.231  25.051  25.439  1.00  0.00     0.338 C 
ATOM     28  O   UNL A   1      45.881  25.553  24.538  1.00  0.00    -0.246 OA
BRANCH  27  29
ATOM     29  C   UNL A   1      44.357  25.844  26.322  1.00  0.00     0.060 A 
ATOM     30  C   UNL A   1      44.505  27.238  26.329  1.00  0.00     0.016 A 
ATOM     31  C   UNL A   1      43.447  25.221  27.178  1.00  0.00     0.016 A 
ATOM     32  C   UNL A   1      43.763  28.014  27.219  1.00  0.00     0.010 A 
ATOM     33  C   UNL A   1      42.723  25.998  28.086  1.00  0.00     0.010 A 
ATOM     34  C   UNL A   1      42.899  27.393  28.130  1.00  0.00    -0.014 A 
BRANCH  34  35
ATOM     35  C   UNL A   1      42.315  28.178  29.243  1.00  0.00     0.031 A 
ATOM     36  C   UNL A   1      43.015  28.172  30.574  1.00  0.00     0.074 A 
ATOM     37  C   UNL A   1      41.185  28.888  29.078  1.00  0.00     0.049 A 
ATOM     38  N   UNL A   1      42.658  28.728  31.704  1.00  0.00    -0.248 NA
ATOM     39  C   UNL A   1      44.290  27.438  30.638  1.00  0.00     0.031 C 
ATOM     40  C   UNL A   1      40.434  29.006  27.831  1.00  0.00     0.029 A 
ATOM     41  N   UNL A   1      40.468  29.635  29.979  1.00  0.00    -0.354 N 
ATOM     42  C   UNL A   1      43.662  28.413  32.611  1.00  0.00     0.074 A 
ATOM     43  C   UNL A   1      44.626  27.593  31.910  1.00  0.00     0.031 C 
ATOM     44  C   UNL A   1      39.345  29.765  28.051  1.00  0.00     0.029 A 
ATOM     45  C   UNL A   1      39.310  30.159  29.459  1.00  0.00     0.049 A 
ATOM     46  H   UNL A   1      40.755  29.780  30.909  1.00  0.00     0.167 HD
ATOM     47  C   UNL A   1      43.774  28.781  33.908  1.00  0.00     0.037 A 
ATOM     48  C   UNL A   1      38.325  30.855  30.060  1.00  0.00     0.037 A 
ATOM     49  C   UNL A   1      42.813  29.587  34.612  1.00  0.00     0.049 A 
ATOM     50  C   UNL A   1      38.434  31.183  31.527  1.00  0.00     0.074 A 
ATOM     51  C   UNL A   1      42.842  30.015  35.927  1.00  0.00     0.029 A 
ATOM     52  N   UNL A   1      41.642  30.080  34.056  1.00  0.00    -0.354 N 
ATOM     53  N   UNL A   1      39.397  30.900  32.370  1.00  0.00    -0.248 NA
ATOM     54  C   UNL A   1      37.317  31.930  32.124  1.00  0.00     0.031 C 
ATOM     55  C   UNL A   1      41.668  30.732  36.180  1.00  0.00     0.029 A 
ATOM     56  C   UNL A   1      40.931  30.790  35.009  1.00  0.00     0.049 A 
ATOM     57  H   UNL A   1      41.359  29.946  33.122  1.00  0.00     0.167 HD
ATOM     58  C   UNL A   1      39.016  31.459  33.585  1.00  0.00     0.074 A 
ATOM     59  C   UNL A   1      37.741  32.106  33.367  1.00  0.00     0.031 C 
ATOM     60  C   UNL A   1      39.667  31.440  34.774  1.00  0.00     0.037 A 
BRANCH  47  61
ATOM     61  C   UNL A   1      44.976  28.294  34.660  1.00  0.00     0.057 A 
ATOM     62  C   UNL A   1      46.183  29.006  34.660  1.00  0.00     0.134 A 
ATOM     63  C   UNL A   1      44.918  27.118  35.417  1.00  0.00     0.134 A 
ATOM     64  F   UNL A   1      46.308  30.131  33.943  1.00  0.00    -0.206 F 
ATOM     65  C   UNL A   1      47.295  28.555  35.374  1.00  0.00     0.040 A 
ATOM     66  C   UNL A   1      46.016  26.669  36.154  1.00  0.00     0.040 A 
ATOM     67  F   UNL A   1      43.791  26.390  35.461  1.00  0.00    -0.206 F 
ATOM     68  C   UNL A   1      47.210  27.386  36.130  1.00  0.00     0.006 A 
ENDBRANCH  47  61
BRANCH  48  69
ATOM     69  C   UNL A   1      37.130  31.275  29.286  1.00  0.00     0.057 A 
ATOM     70  C   UNL A   1      36.083  30.384  29.025  1.00  0.00     0.134 A 
ATOM     71  C   UNL A   1      37.027  32.565  28.751  1.00  0.00     0.134 A 
ATOM     72  F   UNL A   1      36.138  29.125  29.486  1.00  0.00    -0.206 F 
ATOM     73  C   UNL A   1      34.986  30.752  28.244  1.00  0.00     0.040 A 
ATOM     74  C   UNL A   1      35.924  32.955  27.990  1.00  0.00     0.040 A 
ATOM     75  F   UNL A   1      37.998  33.465  28.963  1.00  0.00    -0.206 F 
ATOM     76  C   UNL A   1      34.903  32.043  27.727  1.00  0.00     0.006 A 
ENDBRANCH  48  69
BRANCH  60  77
ATOM     77  C   UNL A   1      39.035  32.173  35.922  1.00  0.00     0.057 A 
ATOM     78  C   UNL A   1      38.178  31.534  36.827  1.00  0.00     0.134 A 
ATOM     79  C   UNL A   1      39.325  33.525  36.150  1.00  0.00     0.134 A 
ATOM     80  F   UNL A   1      37.851  30.244  36.659  1.00  0.00    -0.206 F 
ATOM     81  C   UNL A   1      37.616  32.219  37.906  1.00  0.00     0.040 A 
ATOM     82  C   UNL A   1      38.790  34.212  37.239  1.00  0.00     0.040 A 
ATOM     83  F   UNL A   1      40.145  34.193  35.326  1.00  0.00    -0.206 F 
ATOM     84  C   UNL A   1      37.928  33.560  38.119  1.00  0.00     0.006 A 
ENDBRANCH  60  77
ENDBRANCH  34  35
ENDBRANCH  27  29
ENDBRANCH  26  27
ENDBRANCH  25  26
ENDBRANCH  24  25
ENDBRANCH  23  24
ENDBRANCH   1  23
TORSDOF 18
ENDMDL
MODEL 3
REMARK VINA RESULT:     -10.0      5.155     10.806
REMARK SMILES Cc1nc([C@]2(C)CCCO2)nc(C)c1C(=O)OCCOCCOCCOC(=O)c1ccc(-c2c3nc(c(-c4c(F)cccc4F)c4ccc([nH]4)c(-c4c(F)cccc4F)c4nc(c(-c5c(F)cccc5F)c5ccc2[nH]5)C=C4)C=C3)cc1
REMARK SMILES IDX 22 1 21 2 20 3 19 4 18 5 17 6 15 7 16 8 14 9 1 10 2 11 3 12
REMARK SMILES IDX 4 13 12 14 11 15 13 16 5 17 7 18 10 19 6 20 8 21 9 22 23 23
REMARK SMILES IDX 24 24 25 25 26 26 27 27 28 28 29 29 30 30 82 31 31 32 81 33
REMARK SMILES IDX 32 34 33 35 34 36 75 37 35 38 80 39 74 40 76 41 36 42 79 43
REMARK SMILES IDX 73 44 72 45 37 47 63 48 46 49 62 50 47 51 50 52 61 53 77 54
REMARK SMILES IDX 48 55 49 56 60 58 78 59 51 60 38 61 39 62 44 63 40 64 41 65
REMARK SMILES IDX 43 66 45 67 42 68 64 69 65 70 70 71 66 72 67 73 69 74 71 75
REMARK SMILES IDX 68 76 52 77 53 78 58 79 54 80 55 81 57 82 59 83 56 84
REMARK H PARENT 76 46 50 57
REMARK Flexibility Score: inf
ROOT
ATOM      1  C   UNL A   1      41.253  20.145  27.320  1.00  0.00     0.188 C 
ENDROOT
BRANCH   1   2
ATOM      2  C   UNL A   1      40.255  20.462  26.184  1.00  0.00     0.188 C 
BRANCH   2   3
ATOM      3  O   UNL A   1      39.409  19.452  25.680  1.00  0.00    -0.376 OA
BRANCH   3   4
ATOM      4  C   UNL A   1      38.201  19.767  25.007  1.00  0.00     0.202 C 
BRANCH   4   5
ATOM      5  C   UNL A   1      37.602  21.179  24.938  1.00  0.00     0.261 C 
BRANCH   5   6
ATOM      6  O   UNL A   1      36.529  21.436  25.848  1.00  0.00    -0.460 OA
BRANCH   6   7
ATOM      7  C   UNL A   1      35.287  21.404  25.309  1.00  0.00     0.341 C 
ATOM      8  O   UNL A   1      34.677  20.408  24.955  1.00  0.00    -0.246 OA
BRANCH   7   9
ATOM      9  C   UNL A   1      34.691  22.748  25.288  1.00  0.00     0.102 A 
ATOM     10  C   UNL A   1      35.683  23.328  23.021  1.00  0.00     0.068 C 
ATOM     11  C   UNL A   1      34.802  23.607  24.204  1.00  0.00     0.056 A 
ATOM     12  N   UNL A   1      34.155  24.796  24.164  1.00  0.00    -0.234 NA
ATOM     13  C   UNL A   1      33.394  25.149  25.222  1.00  0.00     0.160 A 
ATOM     14  C   UNL A   1      33.939  23.207  26.364  1.00  0.00     0.056 A 
ATOM     15  N   UNL A   1      33.287  24.393  26.332  1.00  0.00    -0.234 NA
ATOM     16  C   UNL A   1      33.888  22.513  27.695  1.00  0.00     0.068 C 
BRANCH  13  17
ATOM     17  C   UNL A   1      32.563  26.439  25.128  1.00  0.00     0.125 C 
ATOM     18  C   UNL A   1      33.410  27.610  24.623  1.00  0.00     0.046 C 
ATOM     19  O   UNL A   1      32.105  26.843  26.440  1.00  0.00    -0.367 OA
ATOM     20  C   UNL A   1      31.321  26.250  24.249  1.00  0.00     0.051 C 
ATOM     21  C   UNL A   1      34.017  28.174  25.886  1.00  0.00     0.032 C 
ATOM     22  C   UNL A   1      32.985  27.856  26.949  1.00  0.00     0.161 C 
ENDBRANCH  13  17
ENDBRANCH   7   9
ENDBRANCH   6   7
ENDBRANCH   5   6
ENDBRANCH   4   5
ENDBRANCH   3   4
ENDBRANCH   2   3
ENDBRANCH   1   2
BRANCH   1  23
ATOM     23  O   UNL A   1      42.635  19.998  27.056  1.00  0.00    -0.376 OA
BRANCH  23  24
ATOM     24  C   UNL A   1      43.107  20.136  25.725  1.00  0.00     0.202 C 
BRANCH  24  25
ATOM     25  C   UNL A   1      43.962  21.339  25.308  1.00  0.00     0.261 C 
BRANCH  25  26
ATOM     26  O   UNL A   1      43.897  22.464  26.194  1.00  0.00    -0.460 OA
BRANCH  26  27
ATOM     27  C   UNL A   1      43.963  23.675  25.589  1.00  0.00     0.338 C 
ATOM     28  O   UNL A   1      44.394  23.928  24.478  1.00  0.00    -0.246 OA
BRANCH  27  29
ATOM     29  C   UNL A   1      43.267  24.677  26.416  1.00  0.00     0.060 A 
ATOM     30  C   UNL A   1      43.795  25.974  26.477  1.00  0.00     0.016 A 
ATOM     31  C   UNL A   1      42.148  24.329  27.175  1.00  0.00     0.016 A 
ATOM     32  C   UNL A   1      43.220  26.923  27.321  1.00  0.00     0.010 A 
ATOM     33  C   UNL A   1      41.589  25.274  28.039  1.00  0.00     0.010 A 
ATOM     34  C   UNL A   1      42.140  26.564  28.137  1.00  0.00    -0.014 A 
BRANCH  34  35
ATOM     35  C   UNL A   1      41.699  27.476  29.220  1.00  0.00     0.031 A 
ATOM     36  C   UNL A   1      42.407  27.419  30.545  1.00  0.00     0.074 A 
ATOM     37  C   UNL A   1      40.691  28.346  29.031  1.00  0.00     0.049 A 
ATOM     38  N   UNL A   1      42.155  28.070  31.651  1.00  0.00    -0.248 NA
ATOM     39  C   UNL A   1      43.554  26.499  30.633  1.00  0.00     0.031 C 
ATOM     40  C   UNL A   1      39.950  28.526  27.784  1.00  0.00     0.029 A 
ATOM     41  N   UNL A   1      40.109  29.232  29.902  1.00  0.00    -0.354 N 
ATOM     42  C   UNL A   1      43.110  27.643  32.565  1.00  0.00     0.074 A 
ATOM     43  C   UNL A   1      43.926  26.654  31.895  1.00  0.00     0.031 C 
ATOM     44  C   UNL A   1      38.994  29.452  27.978  1.00  0.00     0.029 A 
ATOM     45  C   UNL A   1      39.039  29.906  29.367  1.00  0.00     0.049 A 
ATOM     46  H   UNL A   1      40.427  29.370  30.823  1.00  0.00     0.167 HD
ATOM     47  C   UNL A   1      43.295  28.043  33.844  1.00  0.00     0.037 A 
ATOM     48  C   UNL A   1      38.182  30.771  29.944  1.00  0.00     0.037 A 
ATOM     49  C   UNL A   1      42.479  29.017  34.517  1.00  0.00     0.049 A 
ATOM     50  C   UNL A   1      38.359  31.140  31.394  1.00  0.00     0.074 A 
ATOM     51  C   UNL A   1      42.592  29.491  35.813  1.00  0.00     0.029 A 
ATOM     52  N   UNL A   1      41.391  29.662  33.948  1.00  0.00    -0.354 N 
ATOM     53  N   UNL A   1      39.278  30.747  32.243  1.00  0.00    -0.248 NA
ATOM     54  C   UNL A   1      37.378  32.076  31.965  1.00  0.00     0.031 C 
ATOM     55  C   UNL A   1      41.545  30.391  36.042  1.00  0.00     0.029 A 
ATOM     56  C   UNL A   1      40.811  30.513  34.874  1.00  0.00     0.049 A 
ATOM     57  H   UNL A   1      41.079  29.534  33.023  1.00  0.00     0.167 HD
ATOM     58  C   UNL A   1      39.004  31.410  33.434  1.00  0.00     0.074 A 
ATOM     59  C   UNL A   1      37.841  32.237  33.197  1.00  0.00     0.031 C 
ATOM     60  C   UNL A   1      39.660  31.340  34.619  1.00  0.00     0.037 A 
BRANCH  47  61
ATOM     61  C   UNL A   1      44.417  27.408  34.608  1.00  0.00     0.057 A 
ATOM     62  C   UNL A   1      44.236  26.222  35.333  1.00  0.00     0.134 A 
ATOM     63  C   UNL A   1      45.700  27.969  34.594  1.00  0.00     0.134 A 
ATOM     64  F   UNL A   1      43.029  25.643  35.398  1.00  0.00    -0.206 F 
ATOM     65  C   UNL A   1      45.288  25.627  36.031  1.00  0.00     0.040 A 
ATOM     66  C   UNL A   1      46.766  27.370  35.269  1.00  0.00     0.040 A 
ATOM     67  F   UNL A   1      45.941  29.102  33.918  1.00  0.00    -0.206 F 
ATOM     68  C   UNL A   1      46.560  26.198  35.994  1.00  0.00     0.006 A 
ENDBRANCH  47  61
BRANCH  48  69
ATOM     69  C   UNL A   1      37.056  31.338  29.160  1.00  0.00     0.057 A 
ATOM     70  C   UNL A   1      37.087  32.656  28.691  1.00  0.00     0.134 A 
ATOM     71  C   UNL A   1      35.902  30.588  28.898  1.00  0.00     0.134 A 
ATOM     72  F   UNL A   1      38.153  33.433  28.935  1.00  0.00    -0.206 F 
ATOM     73  C   UNL A   1      36.006  33.216  28.009  1.00  0.00     0.040 A 
ATOM     74  C   UNL A   1      34.823  31.127  28.195  1.00  0.00     0.040 A 
ATOM     75  F   UNL A   1      35.808  29.319  29.322  1.00  0.00    -0.206 F 
ATOM     76  C   UNL A   1      34.870  32.448  27.756  1.00  0.00     0.006 A 
ENDBRANCH  48  69
BRANCH  60  77
ATOM     77  C   UNL A   1      39.163  32.211  35.738  1.00  0.00     0.057 A 
ATOM     78  C   UNL A   1      39.577  33.541  35.880  1.00  0.00     0.134 A 
ATOM     79  C   UNL A   1      38.224  31.723  36.656  1.00  0.00     0.134 A 
ATOM     80  F   UNL A   1      40.483  34.066  35.041  1.00  0.00    -0.206 F 
ATOM     81  C   UNL A   1      39.088  34.349  36.908  1.00  0.00     0.040 A 
ATOM     82  C   UNL A   1      37.710  32.529  37.672  1.00  0.00     0.040 A 
ATOM     83  F   UNL A   1      37.780  30.460  36.570  1.00  0.00    -0.206 F 
ATOM     84  C   UNL A   1      38.146  33.846  37.803  1.00  0.00     0.006 A 
ENDBRANCH  60  77
ENDBRANCH  34  35
ENDBRANCH  27  29
ENDBRANCH  26  27
ENDBRANCH  25  26
ENDBRANCH  24  25
ENDBRANCH  23  24
ENDBRANCH   1  23
TORSDOF 18
ENDMDL
