MODEL 1
REMARK VINA RESULT:     -10.6      0.000      0.000
REMARK SMILES Cc1c(N[C@@H]2CC[C@@H]([NH3+])C2)cccc1C(=O)OCCOCCOCCOC(=O)c1ccc(-c2c3nc(c(-c4c(F)cccc4F)c4ccc([nH]4)c(-c4c(F)cccc4F)c4nc(c(-c5c(F)cccc5F)c5ccc2[nH]5)C=C4)C=C3)cc1
REMARK SMILES IDX 21 1 20 2 19 3 18 4 17 5 15 6 16 7 14 8 1 9 2 10 3 11 11 12
REMARK SMILES IDX 13 13 12 14 4 15 5 17 6 18 10 19 7 20 8 21 9 22 22 26 23 27
REMARK SMILES IDX 24 28 25 29 26 30 27 31 28 32 29 33 30 34 82 35 31 36 81 37
REMARK SMILES IDX 32 38 33 39 34 40 75 41 35 42 80 43 74 44 76 45 36 46 79 47
REMARK SMILES IDX 73 48 72 49 37 51 63 52 46 53 62 54 47 55 50 56 61 57 77 58
REMARK SMILES IDX 48 59 49 60 60 62 78 63 51 64 38 65 39 66 44 67 40 68 41 69
REMARK SMILES IDX 43 70 45 71 42 72 64 73 65 74 70 75 66 76 67 77 69 78 71 79
REMARK SMILES IDX 68 80 52 81 53 82 58 83 54 84 55 85 57 86 59 87 56 88
REMARK H PARENT 4 16 9 23 9 24 9 25 76 50 50 61
REMARK Flexibility Score: inf
ROOT
ATOM      1  C   UNL A   1      34.189  32.922  28.215  1.00  0.00     0.188 C 
ENDROOT
BRANCH   1   2
ATOM      2  O   UNL A   1      33.751  31.603  27.803  1.00  0.00    -0.376 OA
BRANCH   2   3
ATOM      3  C   UNL A   1      34.627  30.543  27.345  1.00  0.00     0.202 C 
BRANCH   3   4
ATOM      4  C   UNL A   1      34.081  28.975  27.212  1.00  0.00     0.261 C 
BRANCH   4   5
ATOM      5  O   UNL A   1      33.718  28.166  25.835  1.00  0.00    -0.460 OA
BRANCH   5   6
ATOM      6  C   UNL A   1      33.549  26.797  25.523  1.00  0.00     0.338 C 
ATOM      7  O   UNL A   1      34.013  25.815  26.098  1.00  0.00    -0.246 OA
BRANCH   6   8
ATOM      8  C   UNL A   1      32.757  26.202  24.435  1.00  0.00     0.065 A 
ATOM      9  C   UNL A   1      30.731  26.869  25.698  1.00  0.00     0.047 C 
ATOM     10  C   UNL A   1      31.417  26.566  24.398  1.00  0.00    -0.013 A 
ATOM     11  C   UNL A   1      30.819  26.831  23.144  1.00  0.00     0.038 A 
ATOM     12  C   UNL A   1      31.518  26.532  21.956  1.00  0.00     0.026 A 
ATOM     13  C   UNL A   1      33.454  26.000  23.200  1.00  0.00     0.016 A 
ATOM     14  C   UNL A   1      32.836  26.125  21.970  1.00  0.00     0.003 A 
BRANCH  11  15
ATOM     15  N   UNL A   1      29.559  27.397  23.131  1.00  0.00    -0.382 N 
ATOM     16  H   UNL A   1      28.807  26.763  23.124  1.00  0.00     0.160 HD
BRANCH  15  17
ATOM     17  C   UNL A   1      29.201  28.794  23.125  1.00  0.00     0.085 C 
ATOM     18  C   UNL A   1      27.739  29.060  22.755  1.00  0.00     0.031 C 
ATOM     19  C   UNL A   1      30.069  29.670  22.221  1.00  0.00     0.089 C 
ATOM     20  C   UNL A   1      27.783  30.202  21.741  1.00  0.00     0.067 C 
ATOM     21  C   UNL A   1      29.158  30.855  21.908  1.00  0.00     0.182 C 
BRANCH  21  22
ATOM     22  N   UNL A   1      29.144  31.823  23.006  1.00  0.00    -0.355 N 
ATOM     23  H   UNL A   1      29.538  32.706  22.684  1.00  0.00     0.344 HD
ATOM     24  H   UNL A   1      29.701  31.464  23.781  1.00  0.00     0.344 HD
ATOM     25  H   UNL A   1      28.184  31.970  23.317  1.00  0.00     0.344 HD
ENDBRANCH  21  22
ENDBRANCH  15  17
ENDBRANCH  11  15
ENDBRANCH   6   8
ENDBRANCH   5   6
ENDBRANCH   4   5
ENDBRANCH   3   4
ENDBRANCH   2   3
ENDBRANCH   1   2
BRANCH   1  26
ATOM     26  C   UNL A   1      33.255  34.140  28.338  1.00  0.00     0.188 C 
BRANCH  26  27
ATOM     27  O   UNL A   1      33.819  35.135  29.174  1.00  0.00    -0.376 OA
BRANCH  27  28
ATOM     28  C   UNL A   1      32.900  35.986  29.848  1.00  0.00     0.202 C 
BRANCH  28  29
ATOM     29  C   UNL A   1      33.275  36.261  31.324  1.00  0.00     0.261 C 
BRANCH  29  30
ATOM     30  O   UNL A   1      33.473  35.025  32.058  1.00  0.00    -0.460 OA
BRANCH  30  31
ATOM     31  C   UNL A   1      34.671  34.860  32.707  1.00  0.00     0.338 C 
ATOM     32  O   UNL A   1      35.194  35.701  33.427  1.00  0.00    -0.246 OA
BRANCH  31  33
ATOM     33  C   UNL A   1      35.358  33.616  32.227  1.00  0.00     0.060 A 
ATOM     34  C   UNL A   1      35.688  32.473  32.972  1.00  0.00     0.016 A 
ATOM     35  C   UNL A   1      36.017  33.740  31.056  1.00  0.00     0.016 A 
ATOM     36  C   UNL A   1      36.767  31.565  32.567  1.00  0.00     0.010 A 
ATOM     37  C   UNL A   1      37.190  33.004  30.920  1.00  0.00     0.010 A 
ATOM     38  C   UNL A   1      37.630  31.831  31.502  1.00  0.00    -0.014 A 
BRANCH  38  39
ATOM     39  C   UNL A   1      39.027  31.173  31.093  1.00  0.00     0.031 A 
ATOM     40  C   UNL A   1      39.490  29.805  30.264  1.00  0.00     0.074 A 
ATOM     41  C   UNL A   1      40.071  31.885  31.573  1.00  0.00     0.049 A 
ATOM     42  N   UNL A   1      40.606  29.139  30.520  1.00  0.00    -0.248 NA
ATOM     43  C   UNL A   1      38.812  29.021  29.169  1.00  0.00     0.031 C 
ATOM     44  C   UNL A   1      41.496  31.687  31.343  1.00  0.00     0.029 A 
ATOM     45  N   UNL A   1      40.025  32.824  32.617  1.00  0.00    -0.354 N 
ATOM     46  C   UNL A   1      40.735  28.101  29.588  1.00  0.00     0.074 A 
ATOM     47  C   UNL A   1      39.469  27.887  29.036  1.00  0.00     0.031 C 
ATOM     48  C   UNL A   1      42.155  32.145  32.419  1.00  0.00     0.029 A 
ATOM     49  C   UNL A   1      41.162  32.566  33.393  1.00  0.00     0.049 A 
ATOM     50  H   UNL A   1      39.339  33.514  32.770  1.00  0.00     0.167 HD
ATOM     51  C   UNL A   1      41.899  27.536  29.175  1.00  0.00     0.037 A 
ATOM     52  C   UNL A   1      41.039  32.132  34.678  1.00  0.00     0.037 A 
ATOM     53  C   UNL A   1      42.906  27.791  30.166  1.00  0.00     0.049 A 
ATOM     54  C   UNL A   1      41.735  30.811  34.924  1.00  0.00     0.074 A 
ATOM     55  C   UNL A   1      43.914  28.722  30.285  1.00  0.00     0.029 A 
ATOM     56  N   UNL A   1      42.667  27.281  31.434  1.00  0.00    -0.354 N 
ATOM     57  N   UNL A   1      42.210  30.034  33.987  1.00  0.00    -0.248 NA
ATOM     58  C   UNL A   1      41.933  30.252  36.258  1.00  0.00     0.031 C 
ATOM     59  C   UNL A   1      44.130  28.912  31.683  1.00  0.00     0.029 A 
ATOM     60  C   UNL A   1      43.313  28.039  32.388  1.00  0.00     0.049 A 
ATOM     61  H   UNL A   1      42.114  26.490  31.626  1.00  0.00     0.167 HD
ATOM     62  C   UNL A   1      42.654  28.863  34.544  1.00  0.00     0.074 A 
ATOM     63  C   UNL A   1      42.514  29.076  35.971  1.00  0.00     0.031 C 
ATOM     64  C   UNL A   1      43.046  27.787  33.799  1.00  0.00     0.037 A 
BRANCH  51  65
ATOM     65  C   UNL A   1      42.067  26.789  27.845  1.00  0.00     0.057 A 
ATOM     66  C   UNL A   1      42.256  25.399  27.814  1.00  0.00     0.134 A 
ATOM     67  C   UNL A   1      42.148  27.391  26.557  1.00  0.00     0.134 A 
ATOM     68  F   UNL A   1      42.301  24.687  28.948  1.00  0.00    -0.206 F 
ATOM     69  C   UNL A   1      42.439  24.673  26.616  1.00  0.00     0.040 A 
ATOM     70  C   UNL A   1      42.243  26.672  25.353  1.00  0.00     0.040 A 
ATOM     71  F   UNL A   1      42.216  28.718  26.380  1.00  0.00    -0.206 F 
ATOM     72  C   UNL A   1      42.399  25.302  25.378  1.00  0.00     0.006 A 
ENDBRANCH  51  65
BRANCH  52  73
ATOM     73  C   UNL A   1      39.843  32.668  35.408  1.00  0.00     0.057 A 
ATOM     74  C   UNL A   1      38.759  31.795  35.650  1.00  0.00     0.134 A 
ATOM     75  C   UNL A   1      39.818  33.883  36.100  1.00  0.00     0.134 A 
ATOM     76  F   UNL A   1      38.693  30.610  35.018  1.00  0.00    -0.206 F 
ATOM     77  C   UNL A   1      37.770  32.059  36.605  1.00  0.00     0.040 A 
ATOM     78  C   UNL A   1      38.815  34.171  37.048  1.00  0.00     0.040 A 
ATOM     79  F   UNL A   1      40.825  34.759  35.986  1.00  0.00    -0.206 F 
ATOM     80  C   UNL A   1      37.807  33.246  37.323  1.00  0.00     0.006 A 
ENDBRANCH  52  73
BRANCH  64  81
ATOM     81  C   UNL A   1      43.191  26.384  34.350  1.00  0.00     0.057 A 
ATOM     82  C   UNL A   1      44.421  25.725  34.509  1.00  0.00     0.134 A 
ATOM     83  C   UNL A   1      42.079  25.708  34.899  1.00  0.00     0.134 A 
ATOM     84  F   UNL A   1      45.580  26.299  34.158  1.00  0.00    -0.206 F 
ATOM     85  C   UNL A   1      44.529  24.456  35.096  1.00  0.00     0.040 A 
ATOM     86  C   UNL A   1      42.185  24.474  35.548  1.00  0.00     0.040 A 
ATOM     87  F   UNL A   1      40.847  26.237  34.857  1.00  0.00    -0.206 F 
ATOM     88  C   UNL A   1      43.411  23.832  35.629  1.00  0.00     0.006 A 
ENDBRANCH  64  81
ENDBRANCH  38  39
ENDBRANCH  31  33
ENDBRANCH  30  31
ENDBRANCH  29  30
ENDBRANCH  28  29
ENDBRANCH  27  28
ENDBRANCH  26  27
ENDBRANCH   1  26
TORSDOF 20
ENDMDL
MODEL 2
REMARK VINA RESULT:     -10.5      1.858      3.379
REMARK SMILES Cc1c(N[C@@H]2CC[C@@H]([NH3+])C2)cccc1C(=O)OCCOCCOCCOC(=O)c1ccc(-c2c3nc(c(-c4c(F)cccc4F)c4ccc([nH]4)c(-c4c(F)cccc4F)c4nc(c(-c5c(F)cccc5F)c5ccc2[nH]5)C=C4)C=C3)cc1
REMARK SMILES IDX 21 1 20 2 19 3 18 4 17 5 15 6 16 7 14 8 1 9 2 10 3 11 11 12
REMARK SMILES IDX 13 13 12 14 4 15 5 17 6 18 10 19 7 20 8 21 9 22 22 26 23 27
REMARK SMILES IDX 24 28 25 29 26 30 27 31 28 32 29 33 30 34 82 35 31 36 81 37
REMARK SMILES IDX 32 38 33 39 34 40 75 41 35 42 80 43 74 44 76 45 36 46 79 47
REMARK SMILES IDX 73 48 72 49 37 51 63 52 46 53 62 54 47 55 50 56 61 57 77 58
REMARK SMILES IDX 48 59 49 60 60 62 78 63 51 64 38 65 39 66 44 67 40 68 41 69
REMARK SMILES IDX 43 70 45 71 42 72 64 73 65 74 70 75 66 76 67 77 69 78 71 79
REMARK SMILES IDX 68 80 52 81 53 82 58 83 54 84 55 85 57 86 59 87 56 88
REMARK H PARENT 4 16 9 23 9 24 9 25 76 50 50 61
REMARK Flexibility Score: inf
ROOT
ATOM      1  C   UNL A   1      33.538  33.372  28.135  1.00  0.00     0.188 C 
ENDROOT
BRANCH   1   2
ATOM      2  O   UNL A   1      34.038  32.015  28.229  1.00  0.00    -0.376 OA
BRANCH   2   3
ATOM      3  C   UNL A   1      33.776  30.965  27.264  1.00  0.00     0.202 C 
BRANCH   3   4
ATOM      4  C   UNL A   1      32.218  30.545  26.853  1.00  0.00     0.261 C 
BRANCH   4   5
ATOM      5  O   UNL A   1      31.664  30.120  25.372  1.00  0.00    -0.460 OA
BRANCH   5   6
ATOM      6  C   UNL A   1      31.616  28.899  24.661  1.00  0.00     0.338 C 
ATOM      7  O   UNL A   1      30.640  28.330  24.176  1.00  0.00    -0.246 OA
BRANCH   6   8
ATOM      8  C   UNL A   1      32.731  28.007  24.306  1.00  0.00     0.065 A 
ATOM      9  C   UNL A   1      32.332  26.840  26.456  1.00  0.00     0.047 C 
ATOM     10  C   UNL A   1      32.812  26.827  25.034  1.00  0.00    -0.013 A 
ATOM     11  C   UNL A   1      33.148  25.632  24.356  1.00  0.00     0.038 A 
ATOM     12  C   UNL A   1      33.584  25.685  23.016  1.00  0.00     0.026 A 
ATOM     13  C   UNL A   1      33.096  27.993  22.921  1.00  0.00     0.016 A 
ATOM     14  C   UNL A   1      33.556  26.854  22.286  1.00  0.00     0.003 A 
BRANCH  11  15
ATOM     15  N   UNL A   1      33.015  24.438  25.038  1.00  0.00    -0.382 N 
ATOM     16  H   UNL A   1      32.106  24.226  25.352  1.00  0.00     0.160 HD
BRANCH  15  17
ATOM     17  C   UNL A   1      34.031  23.464  25.353  1.00  0.00     0.085 C 
ATOM     18  C   UNL A   1      35.406  24.071  25.644  1.00  0.00     0.031 C 
ATOM     19  C   UNL A   1      34.223  22.380  24.293  1.00  0.00     0.089 C 
ATOM     20  C   UNL A   1      36.396  23.219  24.851  1.00  0.00     0.067 C 
ATOM     21  C   UNL A   1      35.660  21.917  24.528  1.00  0.00     0.182 C 
BRANCH  21  22
ATOM     22  N   UNL A   1      35.742  20.980  25.649  1.00  0.00    -0.355 N 
ATOM     23  H   UNL A   1      36.717  20.865  25.924  1.00  0.00     0.344 HD
ATOM     24  H   UNL A   1      35.359  20.078  25.366  1.00  0.00     0.344 HD
ATOM     25  H   UNL A   1      35.206  21.344  26.436  1.00  0.00     0.344 HD
ENDBRANCH  21  22
ENDBRANCH  15  17
ENDBRANCH  11  15
ENDBRANCH   6   8
ENDBRANCH   5   6
ENDBRANCH   4   5
ENDBRANCH   3   4
ENDBRANCH   2   3
ENDBRANCH   1   2
BRANCH   1  26
ATOM     26  C   UNL A   1      34.437  34.613  27.992  1.00  0.00     0.188 C 
BRANCH  26  27
ATOM     27  O   UNL A   1      33.973  35.679  28.802  1.00  0.00    -0.376 OA
BRANCH  27  28
ATOM     28  C   UNL A   1      32.927  35.368  29.713  1.00  0.00     0.202 C 
BRANCH  28  29
ATOM     29  C   UNL A   1      33.302  35.610  31.195  1.00  0.00     0.261 C 
BRANCH  29  30
ATOM     30  O   UNL A   1      34.610  35.066  31.504  1.00  0.00    -0.460 OA
BRANCH  30  31
ATOM     31  C   UNL A   1      34.659  33.958  32.312  1.00  0.00     0.338 C 
ATOM     32  O   UNL A   1      34.322  33.939  33.490  1.00  0.00    -0.246 OA
BRANCH  31  33
ATOM     33  C   UNL A   1      35.398  32.845  31.629  1.00  0.00     0.060 A 
ATOM     34  C   UNL A   1      35.565  31.523  32.071  1.00  0.00     0.016 A 
ATOM     35  C   UNL A   1      36.262  33.236  30.668  1.00  0.00     0.016 A 
ATOM     36  C   UNL A   1      36.682  30.688  31.618  1.00  0.00     0.010 A 
ATOM     37  C   UNL A   1      37.426  32.485  30.534  1.00  0.00     0.010 A 
ATOM     38  C   UNL A   1      37.730  31.171  30.832  1.00  0.00    -0.014 A 
BRANCH  38  39
ATOM     39  C   UNL A   1      39.165  30.554  30.500  1.00  0.00     0.031 A 
ATOM     40  C   UNL A   1      39.712  29.140  29.809  1.00  0.00     0.074 A 
ATOM     41  C   UNL A   1      40.164  31.364  30.917  1.00  0.00     0.049 A 
ATOM     42  N   UNL A   1      40.857  28.563  30.137  1.00  0.00    -0.248 NA
ATOM     43  C   UNL A   1      39.090  28.219  28.790  1.00  0.00     0.031 C 
ATOM     44  C   UNL A   1      41.600  31.222  30.719  1.00  0.00     0.029 A 
ATOM     45  N   UNL A   1      40.054  32.394  31.866  1.00  0.00    -0.354 N 
ATOM     46  C   UNL A   1      41.054  27.449  29.311  1.00  0.00     0.074 A 
ATOM     47  C   UNL A   1      39.809  27.115  28.771  1.00  0.00     0.031 C 
ATOM     48  C   UNL A   1      42.220  31.816  31.751  1.00  0.00     0.029 A 
ATOM     49  C   UNL A   1      41.193  32.274  32.673  1.00  0.00     0.049 A 
ATOM     50  H   UNL A   1      39.331  33.058  31.947  1.00  0.00     0.167 HD
ATOM     51  C   UNL A   1      42.252  26.911  28.963  1.00  0.00     0.037 A 
ATOM     52  C   UNL A   1      41.076  31.958  33.992  1.00  0.00     0.037 A 
ATOM     53  C   UNL A   1      43.231  27.314  29.933  1.00  0.00     0.049 A 
ATOM     54  C   UNL A   1      41.838  30.707  34.369  1.00  0.00     0.074 A 
ATOM     55  C   UNL A   1      44.186  28.304  29.970  1.00  0.00     0.029 A 
ATOM     56  N   UNL A   1      43.002  26.915  31.243  1.00  0.00    -0.354 N 
ATOM     57  N   UNL A   1      42.366  29.871  33.515  1.00  0.00    -0.248 NA
ATOM     58  C   UNL A   1      42.048  30.289  35.752  1.00  0.00     0.031 C 
ATOM     59  C   UNL A   1      44.373  28.639  31.346  1.00  0.00     0.029 A 
ATOM     60  C   UNL A   1      43.594  27.794  32.125  1.00  0.00     0.049 A 
ATOM     61  H   UNL A   1      42.489  26.117  31.506  1.00  0.00     0.167 HD
ATOM     62  C   UNL A   1      42.864  28.784  34.186  1.00  0.00     0.074 A 
ATOM     63  C   UNL A   1      42.694  29.124  35.585  1.00  0.00     0.031 C 
ATOM     64  C   UNL A   1      43.322  27.664  33.551  1.00  0.00     0.037 A 
BRANCH  51  65
ATOM     65  C   UNL A   1      42.477  26.051  27.713  1.00  0.00     0.057 A 
ATOM     66  C   UNL A   1      42.874  26.631  26.497  1.00  0.00     0.134 A 
ATOM     67  C   UNL A   1      42.230  24.652  27.608  1.00  0.00     0.134 A 
ATOM     68  F   UNL A   1      43.061  27.954  26.397  1.00  0.00    -0.206 F 
ATOM     69  C   UNL A   1      43.071  25.883  25.316  1.00  0.00     0.040 A 
ATOM     70  C   UNL A   1      42.503  23.885  26.463  1.00  0.00     0.040 A 
ATOM     71  F   UNL A   1      41.636  23.947  28.580  1.00  0.00    -0.206 F 
ATOM     72  C   UNL A   1      42.919  24.502  25.302  1.00  0.00     0.006 A 
ENDBRANCH  51  65
BRANCH  52  73
ATOM     73  C   UNL A   1      39.844  32.496  34.658  1.00  0.00     0.057 A 
ATOM     74  C   UNL A   1      39.826  33.857  35.034  1.00  0.00     0.134 A 
ATOM     75  C   UNL A   1      38.614  31.833  34.700  1.00  0.00     0.134 A 
ATOM     76  F   UNL A   1      40.965  34.572  35.037  1.00  0.00    -0.206 F 
ATOM     77  C   UNL A   1      38.644  34.550  35.323  1.00  0.00     0.040 A 
ATOM     78  C   UNL A   1      37.419  32.512  35.012  1.00  0.00     0.040 A 
ATOM     79  F   UNL A   1      38.509  30.556  34.309  1.00  0.00    -0.206 F 
ATOM     80  C   UNL A   1      37.429  33.879  35.294  1.00  0.00     0.006 A 
ENDBRANCH  52  73
BRANCH  64  81
ATOM     81  C   UNL A   1      43.534  26.331  34.236  1.00  0.00     0.057 A 
ATOM     82  C   UNL A   1      44.795  25.751  34.457  1.00  0.00     0.134 A 
ATOM     83  C   UNL A   1      42.455  25.657  34.849  1.00  0.00     0.134 A 
ATOM     84  F   UNL A   1      45.925  26.345  34.050  1.00  0.00    -0.206 F 
ATOM     85  C   UNL A   1      44.963  24.553  35.164  1.00  0.00     0.040 A 
ATOM     86  C   UNL A   1      42.619  24.498  35.615  1.00  0.00     0.040 A 
ATOM     87  F   UNL A   1      41.198  26.118  34.757  1.00  0.00    -0.206 F 
ATOM     88  C   UNL A   1      43.875  23.928  35.756  1.00  0.00     0.006 A 
ENDBRANCH  64  81
ENDBRANCH  38  39
ENDBRANCH  31  33
ENDBRANCH  30  31
ENDBRANCH  29  30
ENDBRANCH  28  29
ENDBRANCH  27  28
ENDBRANCH  26  27
ENDBRANCH   1  26
TORSDOF 20
ENDMDL
MODEL 3
REMARK VINA RESULT:     -10.5      1.480      2.126
REMARK SMILES Cc1c(N[C@@H]2CC[C@@H]([NH3+])C2)cccc1C(=O)OCCOCCOCCOC(=O)c1ccc(-c2c3nc(c(-c4c(F)cccc4F)c4ccc([nH]4)c(-c4c(F)cccc4F)c4nc(c(-c5c(F)cccc5F)c5ccc2[nH]5)C=C4)C=C3)cc1
REMARK SMILES IDX 21 1 20 2 19 3 18 4 17 5 15 6 16 7 14 8 1 9 2 10 3 11 11 12
REMARK SMILES IDX 13 13 12 14 4 15 5 17 6 18 10 19 7 20 8 21 9 22 22 26 23 27
REMARK SMILES IDX 24 28 25 29 26 30 27 31 28 32 29 33 30 34 82 35 31 36 81 37
REMARK SMILES IDX 32 38 33 39 34 40 75 41 35 42 80 43 74 44 76 45 36 46 79 47
REMARK SMILES IDX 73 48 72 49 37 51 63 52 46 53 62 54 47 55 50 56 61 57 77 58
REMARK SMILES IDX 48 59 49 60 60 62 78 63 51 64 38 65 39 66 44 67 40 68 41 69
REMARK SMILES IDX 43 70 45 71 42 72 64 73 65 74 70 75 66 76 67 77 69 78 71 79
REMARK SMILES IDX 68 80 52 81 53 82 58 83 54 84 55 85 57 86 59 87 56 88
REMARK H PARENT 4 16 9 23 9 24 9 25 76 50 50 61
REMARK Flexibility Score: inf
ROOT
ATOM      1  C   UNL A   1      34.085  32.327  27.881  1.00  0.00     0.188 C 
ENDROOT
BRANCH   1   2
ATOM      2  O   UNL A   1      33.479  31.037  27.620  1.00  0.00    -0.376 OA
BRANCH   2   3
ATOM      3  C   UNL A   1      34.190  29.865  27.148  1.00  0.00     0.202 C 
BRANCH   3   4
ATOM      4  C   UNL A   1      33.405  28.412  26.935  1.00  0.00     0.261 C 
BRANCH   4   5
ATOM      5  O   UNL A   1      33.923  27.124  26.066  1.00  0.00    -0.460 OA
BRANCH   5   6
ATOM      6  C   UNL A   1      33.321  25.907  25.669  1.00  0.00     0.338 C 
ATOM      7  O   UNL A   1      33.244  24.850  26.291  1.00  0.00    -0.246 OA
BRANCH   6   8
ATOM      8  C   UNL A   1      32.615  25.607  24.413  1.00  0.00     0.065 A 
ATOM      9  C   UNL A   1      30.574  26.534  25.472  1.00  0.00     0.047 C 
ATOM     10  C   UNL A   1      31.390  26.239  24.247  1.00  0.00    -0.013 A 
ATOM     11  C   UNL A   1      31.058  26.754  22.971  1.00  0.00     0.038 A 
ATOM     12  C   UNL A   1      31.870  26.448  21.860  1.00  0.00     0.026 A 
ATOM     13  C   UNL A   1      33.450  25.401  23.268  1.00  0.00     0.016 A 
ATOM     14  C   UNL A   1      33.069  25.781  21.995  1.00  0.00     0.003 A 
BRANCH  11  15
ATOM     15  N   UNL A   1      29.945  27.564  22.867  1.00  0.00    -0.382 N 
ATOM     16  H   UNL A   1      29.077  27.111  22.975  1.00  0.00     0.160 HD
BRANCH  15  17
ATOM     17  C   UNL A   1      29.884  28.983  22.619  1.00  0.00     0.085 C 
ATOM     18  C   UNL A   1      30.433  29.839  23.764  1.00  0.00     0.031 C 
ATOM     19  C   UNL A   1      28.491  29.511  22.279  1.00  0.00     0.089 C 
ATOM     20  C   UNL A   1      29.401  30.947  23.967  1.00  0.00     0.067 C 
ATOM     21  C   UNL A   1      28.570  30.983  22.682  1.00  0.00     0.182 C 
BRANCH  21  22
ATOM     22  N   UNL A   1      29.236  31.782  21.653  1.00  0.00    -0.355 N 
ATOM     23  H   UNL A   1      28.541  32.142  21.000  1.00  0.00     0.344 HD
ATOM     24  H   UNL A   1      29.905  31.200  21.151  1.00  0.00     0.344 HD
ATOM     25  H   UNL A   1      29.727  32.561  22.092  1.00  0.00     0.344 HD
ENDBRANCH  21  22
ENDBRANCH  15  17
ENDBRANCH  11  15
ENDBRANCH   6   8
ENDBRANCH   5   6
ENDBRANCH   4   5
ENDBRANCH   3   4
ENDBRANCH   2   3
ENDBRANCH   1   2
BRANCH   1  26
ATOM     26  C   UNL A   1      33.294  33.641  28.005  1.00  0.00     0.188 C 
BRANCH  26  27
ATOM     27  O   UNL A   1      34.017  34.607  28.749  1.00  0.00    -0.376 OA
BRANCH  27  28
ATOM     28  C   UNL A   1      33.384  35.101  29.923  1.00  0.00     0.202 C 
BRANCH  28  29
ATOM     29  C   UNL A   1      34.035  34.603  31.235  1.00  0.00     0.261 C 
BRANCH  29  30
ATOM     30  O   UNL A   1      34.364  33.193  31.160  1.00  0.00    -0.460 OA
BRANCH  30  31
ATOM     31  C   UNL A   1      35.432  32.752  31.902  1.00  0.00     0.338 C 
ATOM     32  O   UNL A   1      35.850  33.302  32.914  1.00  0.00    -0.246 OA
BRANCH  31  33
ATOM     33  C   UNL A   1      36.154  31.655  31.178  1.00  0.00     0.060 A 
ATOM     34  C   UNL A   1      36.271  30.307  31.552  1.00  0.00     0.016 A 
ATOM     35  C   UNL A   1      37.053  32.069  30.260  1.00  0.00     0.016 A 
ATOM     36  C   UNL A   1      37.373  29.462  31.082  1.00  0.00     0.010 A 
ATOM     37  C   UNL A   1      38.197  31.291  30.114  1.00  0.00     0.010 A 
ATOM     38  C   UNL A   1      38.455  29.953  30.348  1.00  0.00    -0.014 A 
BRANCH  38  39
ATOM     39  C   UNL A   1      39.878  29.311  30.018  1.00  0.00     0.031 A 
ATOM     40  C   UNL A   1      40.401  27.872  29.361  1.00  0.00     0.074 A 
ATOM     41  C   UNL A   1      40.892  30.120  30.400  1.00  0.00     0.049 A 
ATOM     42  N   UNL A   1      41.543  27.290  29.692  1.00  0.00    -0.248 NA
ATOM     43  C   UNL A   1      39.757  26.930  28.374  1.00  0.00     0.031 C 
ATOM     44  C   UNL A   1      42.323  29.955  30.191  1.00  0.00     0.029 A 
ATOM     45  N   UNL A   1      40.804  31.177  31.321  1.00  0.00    -0.354 N 
ATOM     46  C   UNL A   1      41.718  26.151  28.895  1.00  0.00     0.074 A 
ATOM     47  C   UNL A   1      40.463  25.817  28.379  1.00  0.00     0.031 C 
ATOM     48  C   UNL A   1      42.962  30.571  31.199  1.00  0.00     0.029 A 
ATOM     49  C   UNL A   1      41.950  31.066  32.118  1.00  0.00     0.049 A 
ATOM     50  H   UNL A   1      40.089  31.851  31.391  1.00  0.00     0.167 HD
ATOM     51  C   UNL A   1      42.905  25.589  28.550  1.00  0.00     0.037 A 
ATOM     52  C   UNL A   1      41.846  30.789  33.448  1.00  0.00     0.037 A 
ATOM     53  C   UNL A   1      43.900  26.007  29.497  1.00  0.00     0.049 A 
ATOM     54  C   UNL A   1      42.597  29.540  33.851  1.00  0.00     0.074 A 
ATOM     55  C   UNL A   1      44.867  26.987  29.496  1.00  0.00     0.029 A 
ATOM     56  N   UNL A   1      43.681  25.648  30.820  1.00  0.00    -0.354 N 
ATOM     57  N   UNL A   1      43.105  28.674  33.015  1.00  0.00    -0.248 NA
ATOM     58  C   UNL A   1      42.818  29.158  35.243  1.00  0.00     0.031 C 
ATOM     59  C   UNL A   1      45.073  27.358  30.859  1.00  0.00     0.029 A 
ATOM     60  C   UNL A   1      44.294  26.545  31.670  1.00  0.00     0.049 A 
ATOM     61  H   UNL A   1      43.162  24.864  31.111  1.00  0.00     0.167 HD
ATOM     62  C   UNL A   1      43.598  27.600  33.710  1.00  0.00     0.074 A 
ATOM     63  C   UNL A   1      43.449  27.981  35.101  1.00  0.00     0.031 C 
ATOM     64  C   UNL A   1      44.037  26.458  33.103  1.00  0.00     0.037 A 
BRANCH  51  65
ATOM     65  C   UNL A   1      43.106  24.692  27.321  1.00  0.00     0.057 A 
ATOM     66  C   UNL A   1      43.066  23.293  27.432  1.00  0.00     0.134 A 
ATOM     67  C   UNL A   1      43.437  25.138  26.010  1.00  0.00     0.134 A 
ATOM     68  F   UNL A   1      42.857  22.705  28.617  1.00  0.00    -0.206 F 
ATOM     69  C   UNL A   1      43.268  22.428  26.334  1.00  0.00     0.040 A 
ATOM     70  C   UNL A   1      43.557  24.292  24.894  1.00  0.00     0.040 A 
ATOM     71  F   UNL A   1      43.743  26.413  25.734  1.00  0.00    -0.206 F 
ATOM     72  C   UNL A   1      43.481  22.924  25.054  1.00  0.00     0.006 A 
ENDBRANCH  51  65
BRANCH  52  73
ATOM     73  C   UNL A   1      40.627  31.360  34.111  1.00  0.00     0.057 A 
ATOM     74  C   UNL A   1      39.495  30.529  34.262  1.00  0.00     0.134 A 
ATOM     75  C   UNL A   1      40.606  32.560  34.829  1.00  0.00     0.134 A 
ATOM     76  F   UNL A   1      39.422  29.362  33.599  1.00  0.00    -0.206 F 
ATOM     77  C   UNL A   1      38.457  30.815  35.157  1.00  0.00     0.040 A 
ATOM     78  C   UNL A   1      39.556  32.871  35.716  1.00  0.00     0.040 A 
ATOM     79  F   UNL A   1      41.654  33.395  34.800  1.00  0.00    -0.206 F 
ATOM     80  C   UNL A   1      38.495  31.984  35.904  1.00  0.00     0.006 A 
ENDBRANCH  52  73
BRANCH  64  81
ATOM     81  C   UNL A   1      44.241  25.141  33.822  1.00  0.00     0.057 A 
ATOM     82  C   UNL A   1      43.247  24.492  34.572  1.00  0.00     0.134 A 
ATOM     83  C   UNL A   1      45.427  24.397  33.636  1.00  0.00     0.134 A 
ATOM     84  F   UNL A   1      42.023  25.015  34.722  1.00  0.00    -0.206 F 
ATOM     85  C   UNL A   1      43.443  23.234  35.159  1.00  0.00     0.040 A 
ATOM     86  C   UNL A   1      45.608  23.113  34.160  1.00  0.00     0.040 A 
ATOM     87  F   UNL A   1      46.447  24.875  32.907  1.00  0.00    -0.206 F 
ATOM     88  C   UNL A   1      44.622  22.535  34.945  1.00  0.00     0.006 A 
ENDBRANCH  64  81
ENDBRANCH  38  39
ENDBRANCH  31  33
ENDBRANCH  30  31
ENDBRANCH  29  30
ENDBRANCH  28  29
ENDBRANCH  27  28
ENDBRANCH  26  27
ENDBRANCH   1  26
TORSDOF 20
ENDMDL
