MODEL 1
REMARK VINA RESULT:      -8.6      0.000      0.000
REMARK SMILES CCN(CC(=O)NC(C)C)C(=O)N[C@H]1C=C[C@H](C(=O)OCCOCCOCCOC(=O)c2ccc(-c3c4nc(c(-c5c(F)cccc5F)c5ccc([nH]5)c(-c5c(F)cccc5F)c5nc(c(-c6c(F)cccc6F)c6ccc3[nH]6)C=C5)C=C4)cc2)C1
REMARK SMILES IDX 23 1 22 2 21 3 20 4 18 5 19 6 17 7 14 8 15 9 86 10 16 11
REMARK SMILES IDX 13 12 11 13 12 14 3 16 2 17 1 18 4 19 5 20 6 21 7 22 8 24
REMARK SMILES IDX 9 25 10 26 24 27 25 28 26 29 27 30 28 31 29 32 30 33 31 34
REMARK SMILES IDX 32 35 33 36 85 37 34 38 84 39 35 40 36 41 37 42 78 43 38 44
REMARK SMILES IDX 83 45 77 46 79 47 39 48 82 49 76 50 75 51 40 53 66 54 49 55
REMARK SMILES IDX 65 56 50 57 53 58 64 59 80 60 51 61 52 62 63 64 81 65 54 66
REMARK SMILES IDX 41 67 42 68 47 69 43 70 44 71 46 72 48 73 45 74 67 75 68 76
REMARK SMILES IDX 73 77 69 78 70 79 72 80 74 81 71 82 55 83 56 84 61 85 57 86
REMARK SMILES IDX 58 87 60 88 62 89 59 90
REMARK H PARENT 13 15 7 23 79 52 53 63
REMARK Flexibility Score: inf
ROOT
ATOM      1  O   UNL A   1      32.387  36.156  29.715  1.00  0.00    -0.376 OA
ENDROOT
BRANCH   1   2
ATOM      2  C   UNL A   1      33.114  36.767  30.759  1.00  0.00     0.202 C 
BRANCH   2   3
ATOM      3  C   UNL A   1      32.827  36.305  32.186  1.00  0.00     0.261 C 
BRANCH   3   4
ATOM      4  O   UNL A   1      32.695  34.889  32.366  1.00  0.00    -0.463 OA
BRANCH   4   5
ATOM      5  C   UNL A   1      33.874  34.199  32.478  1.00  0.00     0.312 C 
ATOM      6  O   UNL A   1      34.038  33.043  32.126  1.00  0.00    -0.252 OA
BRANCH   5   7
ATOM      7  C   UNL A   1      34.906  35.023  33.259  1.00  0.00     0.124 C 
ATOM      8  C   UNL A   1      37.199  34.114  33.576  1.00  0.00     0.107 C 
ATOM      9  C   UNL A   1      36.344  33.995  34.809  1.00  0.00    -0.006 C 
ATOM     10  C   UNL A   1      36.322  34.989  32.680  1.00  0.00     0.048 C 
ATOM     11  C   UNL A   1      35.116  34.496  34.641  1.00  0.00    -0.014 C 
BRANCH   8  12
ATOM     12  N   UNL A   1      38.475  34.663  34.000  1.00  0.00    -0.332 N 
ATOM     13  C   UNL A   1      39.792  34.499  33.848  1.00  0.00     0.318 C 
ATOM     14  O   UNL A   1      40.470  35.245  34.569  1.00  0.00    -0.249 OA
ATOM     15  H   UNL A   1      38.313  35.418  34.612  1.00  0.00     0.165 HD
BRANCH  13  16
ATOM     16  N   UNL A   1      40.397  33.643  32.973  1.00  0.00    -0.316 N 
BRANCH  16  17
ATOM     17  C   UNL A   1      40.765  34.186  31.659  1.00  0.00     0.118 C 
ATOM     18  C   UNL A   1      39.571  34.390  30.731  1.00  0.00     0.027 C 
ENDBRANCH  16  17
BRANCH  16  19
ATOM     19  C   UNL A   1      40.973  32.342  33.283  1.00  0.00     0.221 C 
BRANCH  19  20
ATOM     20  C   UNL A   1      39.987  31.204  33.038  1.00  0.00     0.239 C 
ATOM     21  O   UNL A   1      38.773  31.387  33.109  1.00  0.00    -0.273 OA
ATOM     22  N   UNL A   1      40.434  29.979  32.641  1.00  0.00    -0.352 N 
ATOM     23  H   UNL A   1      39.856  29.486  32.015  1.00  0.00     0.163 HD
BRANCH  22  24
ATOM     24  C   UNL A   1      41.668  29.319  33.038  1.00  0.00     0.075 C 
ATOM     25  C   UNL A   1      41.568  28.983  34.525  1.00  0.00     0.030 C 
ATOM     26  C   UNL A   1      41.900  28.069  32.200  1.00  0.00     0.030 C 
ENDBRANCH  22  24
ENDBRANCH  19  20
ENDBRANCH  16  19
ENDBRANCH  13  16
ENDBRANCH   8  12
ENDBRANCH   5   7
ENDBRANCH   4   5
ENDBRANCH   3   4
ENDBRANCH   2   3
ENDBRANCH   1   2
BRANCH   1  27
ATOM     27  C   UNL A   1      33.010  35.172  28.901  1.00  0.00     0.188 C 
BRANCH  27  28
ATOM     28  C   UNL A   1      34.410  35.386  28.288  1.00  0.00     0.188 C 
BRANCH  28  29
ATOM     29  O   UNL A   1      35.529  34.845  28.947  1.00  0.00    -0.376 OA
BRANCH  29  30
ATOM     30  C   UNL A   1      35.941  33.503  28.809  1.00  0.00     0.202 C 
BRANCH  30  31
ATOM     31  C   UNL A   1      36.554  32.628  29.912  1.00  0.00     0.261 C 
BRANCH  31  32
ATOM     32  O   UNL A   1      35.908  31.386  30.196  1.00  0.00    -0.460 OA
BRANCH  32  33
ATOM     33  C   UNL A   1      35.726  30.589  29.118  1.00  0.00     0.338 C 
ATOM     34  O   UNL A   1      34.756  30.553  28.370  1.00  0.00    -0.246 OA
BRANCH  33  35
ATOM     35  C   UNL A   1      36.929  29.798  28.839  1.00  0.00     0.060 A 
ATOM     36  C   UNL A   1      37.481  29.081  29.895  1.00  0.00     0.016 A 
ATOM     37  C   UNL A   1      37.619  29.923  27.637  1.00  0.00     0.016 A 
ATOM     38  C   UNL A   1      38.767  28.563  29.806  1.00  0.00     0.010 A 
ATOM     39  C   UNL A   1      38.890  29.346  27.521  1.00  0.00     0.010 A 
ATOM     40  C   UNL A   1      39.491  28.699  28.619  1.00  0.00    -0.014 A 
BRANCH  40  41
ATOM     41  C   UNL A   1      40.906  28.250  28.555  1.00  0.00     0.031 A 
ATOM     42  C   UNL A   1      42.010  29.240  28.810  1.00  0.00     0.074 A 
ATOM     43  C   UNL A   1      41.210  26.966  28.295  1.00  0.00     0.049 A 
ATOM     44  N   UNL A   1      43.298  29.120  28.609  1.00  0.00    -0.248 NA
ATOM     45  C   UNL A   1      41.606  30.544  29.360  1.00  0.00     0.031 C 
ATOM     46  C   UNL A   1      40.243  25.881  28.125  1.00  0.00     0.029 A 
ATOM     47  N   UNL A   1      42.429  26.356  28.124  1.00  0.00    -0.354 N 
ATOM     48  C   UNL A   1      43.851  30.343  28.964  1.00  0.00     0.074 A 
ATOM     49  C   UNL A   1      42.760  31.194  29.391  1.00  0.00     0.031 C 
ATOM     50  C   UNL A   1      40.904  24.741  27.871  1.00  0.00     0.029 A 
ATOM     51  C   UNL A   1      42.333  25.028  27.786  1.00  0.00     0.049 A 
ATOM     52  H   UNL A   1      43.287  26.825  28.231  1.00  0.00     0.167 HD
ATOM     53  C   UNL A   1      45.152  30.722  28.931  1.00  0.00     0.037 A 
ATOM     54  C   UNL A   1      43.283  24.155  27.399  1.00  0.00     0.037 A 
ATOM     55  C   UNL A   1      46.236  29.857  28.546  1.00  0.00     0.049 A 
ATOM     56  C   UNL A   1      44.709  24.621  27.290  1.00  0.00     0.074 A 
ATOM     57  C   UNL A   1      47.589  30.144  28.480  1.00  0.00     0.029 A 
ATOM     58  N   UNL A   1      46.091  28.530  28.172  1.00  0.00    -0.354 N 
ATOM     59  N   UNL A   1      45.221  25.796  27.568  1.00  0.00    -0.248 NA
ATOM     60  C   UNL A   1      45.689  23.643  26.795  1.00  0.00     0.031 C 
ATOM     61  C   UNL A   1      48.258  29.003  28.024  1.00  0.00     0.029 A 
ATOM     62  C   UNL A   1      47.327  27.992  27.853  1.00  0.00     0.049 A 
ATOM     63  H   UNL A   1      45.237  28.042  28.139  1.00  0.00     0.167 HD
ATOM     64  C   UNL A   1      46.581  25.691  27.306  1.00  0.00     0.074 A 
ATOM     65  C   UNL A   1      46.818  24.334  26.859  1.00  0.00     0.031 C 
ATOM     66  C   UNL A   1      47.547  26.634  27.423  1.00  0.00     0.037 A 
BRANCH  53  67
ATOM     67  C   UNL A   1      45.468  32.148  29.272  1.00  0.00     0.057 A 
ATOM     68  C   UNL A   1      45.437  33.172  28.318  1.00  0.00     0.134 A 
ATOM     69  C   UNL A   1      45.782  32.503  30.591  1.00  0.00     0.134 A 
ATOM     70  F   UNL A   1      45.159  32.899  27.035  1.00  0.00    -0.206 F 
ATOM     71  C   UNL A   1      45.729  34.495  28.659  1.00  0.00     0.040 A 
ATOM     72  C   UNL A   1      46.051  33.824  30.949  1.00  0.00     0.040 A 
ATOM     73  F   UNL A   1      45.824  31.571  31.556  1.00  0.00    -0.206 F 
ATOM     74  C   UNL A   1      46.030  34.825  29.980  1.00  0.00     0.006 A 
ENDBRANCH  53  67
BRANCH  54  75
ATOM     75  C   UNL A   1      42.912  22.766  27.027  1.00  0.00     0.057 A 
ATOM     76  C   UNL A   1      42.797  22.380  25.687  1.00  0.00     0.134 A 
ATOM     77  C   UNL A   1      42.635  21.800  28.002  1.00  0.00     0.134 A 
ATOM     78  F   UNL A   1      43.020  23.269  24.707  1.00  0.00    -0.206 F 
ATOM     79  C   UNL A   1      42.406  21.089  25.330  1.00  0.00     0.040 A 
ATOM     80  C   UNL A   1      42.273  20.497  27.660  1.00  0.00     0.040 A 
ATOM     81  F   UNL A   1      42.723  22.107  29.305  1.00  0.00    -0.206 F 
ATOM     82  C   UNL A   1      42.148  20.141  26.319  1.00  0.00     0.006 A 
ENDBRANCH  54  75
BRANCH  66  83
ATOM     83  C   UNL A   1      48.952  26.219  27.103  1.00  0.00     0.057 A 
ATOM     84  C   UNL A   1      49.515  26.424  25.838  1.00  0.00     0.134 A 
ATOM     85  C   UNL A   1      49.765  25.642  28.088  1.00  0.00     0.134 A 
ATOM     86  F   UNL A   1      48.786  26.960  24.848  1.00  0.00    -0.206 F 
ATOM     87  C   UNL A   1      50.831  26.051  25.557  1.00  0.00     0.040 A 
ATOM     88  C   UNL A   1      51.088  25.287  27.826  1.00  0.00     0.040 A 
ATOM     89  F   UNL A   1      49.289  25.426  29.323  1.00  0.00    -0.206 F 
ATOM     90  C   UNL A   1      51.624  25.487  26.556  1.00  0.00     0.006 A 
ENDBRANCH  66  83
ENDBRANCH  40  41
ENDBRANCH  33  35
ENDBRANCH  32  33
ENDBRANCH  31  32
ENDBRANCH  30  31
ENDBRANCH  29  30
ENDBRANCH  28  29
ENDBRANCH  27  28
ENDBRANCH   1  27
TORSDOF 23
ENDMDL
MODEL 2
REMARK VINA RESULT:      -8.1      4.415      9.415
REMARK SMILES CCN(CC(=O)NC(C)C)C(=O)N[C@H]1C=C[C@H](C(=O)OCCOCCOCCOC(=O)c2ccc(-c3c4nc(c(-c5c(F)cccc5F)c5ccc([nH]5)c(-c5c(F)cccc5F)c5nc(c(-c6c(F)cccc6F)c6ccc3[nH]6)C=C5)C=C4)cc2)C1
REMARK SMILES IDX 23 1 22 2 21 3 20 4 18 5 19 6 17 7 14 8 15 9 86 10 16 11
REMARK SMILES IDX 13 12 11 13 12 14 3 16 2 17 1 18 4 19 5 20 6 21 7 22 8 24
REMARK SMILES IDX 9 25 10 26 24 27 25 28 26 29 27 30 28 31 29 32 30 33 31 34
REMARK SMILES IDX 32 35 33 36 85 37 34 38 84 39 35 40 36 41 37 42 78 43 38 44
REMARK SMILES IDX 83 45 77 46 79 47 39 48 82 49 76 50 75 51 40 53 66 54 49 55
REMARK SMILES IDX 65 56 50 57 53 58 64 59 80 60 51 61 52 62 63 64 81 65 54 66
REMARK SMILES IDX 41 67 42 68 47 69 43 70 44 71 46 72 48 73 45 74 67 75 68 76
REMARK SMILES IDX 73 77 69 78 70 79 72 80 74 81 71 82 55 83 56 84 61 85 57 86
REMARK SMILES IDX 58 87 60 88 62 89 59 90
REMARK H PARENT 13 15 7 23 79 52 53 63
REMARK Flexibility Score: inf
ROOT
ATOM      1  O   UNL A   1      36.420  30.966  28.026  1.00  0.00    -0.376 OA
ENDROOT
BRANCH   1   2
ATOM      2  C   UNL A   1      35.670  29.807  27.736  1.00  0.00     0.202 C 
BRANCH   2   3
ATOM      3  C   UNL A   1      34.239  29.997  27.234  1.00  0.00     0.261 C 
BRANCH   3   4
ATOM      4  O   UNL A   1      33.724  28.942  26.412  1.00  0.00    -0.463 OA
BRANCH   4   5
ATOM      5  C   UNL A   1      32.595  29.252  25.698  1.00  0.00     0.312 C 
ATOM      6  O   UNL A   1      32.482  30.219  24.963  1.00  0.00    -0.252 OA
BRANCH   5   7
ATOM      7  C   UNL A   1      31.443  28.314  26.082  1.00  0.00     0.124 C 
ATOM      8  C   UNL A   1      31.885  25.876  26.303  1.00  0.00     0.107 C 
ATOM      9  C   UNL A   1      31.181  26.232  25.021  1.00  0.00    -0.006 C 
ATOM     10  C   UNL A   1      31.825  27.202  27.062  1.00  0.00     0.048 C 
ATOM     11  C   UNL A   1      30.934  27.541  24.910  1.00  0.00    -0.014 C 
BRANCH   8  12
ATOM     12  N   UNL A   1      31.170  24.748  26.875  1.00  0.00    -0.332 N 
ATOM     13  C   UNL A   1      31.083  23.417  26.808  1.00  0.00     0.318 C 
ATOM     14  O   UNL A   1      30.174  22.944  27.504  1.00  0.00    -0.249 OA
ATOM     15  H   UNL A   1      30.527  25.080  27.543  1.00  0.00     0.165 HD
BRANCH  13  16
ATOM     16  N   UNL A   1      31.909  22.594  26.096  1.00  0.00    -0.316 N 
BRANCH  16  17
ATOM     17  C   UNL A   1      33.348  22.707  26.359  1.00  0.00     0.118 C 
ATOM     18  C   UNL A   1      33.769  22.114  27.701  1.00  0.00     0.027 C 
ENDBRANCH  16  17
BRANCH  16  19
ATOM     19  C   UNL A   1      31.517  21.429  25.315  1.00  0.00     0.221 C 
BRANCH  19  20
ATOM     20  C   UNL A   1      32.186  21.403  23.945  1.00  0.00     0.239 C 
ATOM     21  O   UNL A   1      32.086  22.354  23.170  1.00  0.00    -0.273 OA
ATOM     22  N   UNL A   1      32.989  20.361  23.589  1.00  0.00    -0.352 N 
ATOM     23  H   UNL A   1      33.767  20.581  23.028  1.00  0.00     0.163 HD
BRANCH  22  24
ATOM     24  C   UNL A   1      32.825  18.960  23.946  1.00  0.00     0.075 C 
ATOM     25  C   UNL A   1      32.386  18.200  22.695  1.00  0.00     0.030 C 
ATOM     26  C   UNL A   1      34.121  18.397  24.512  1.00  0.00     0.030 C 
ENDBRANCH  22  24
ENDBRANCH  19  20
ENDBRANCH  16  19
ENDBRANCH  13  16
ENDBRANCH   8  12
ENDBRANCH   5   7
ENDBRANCH   4   5
ENDBRANCH   3   4
ENDBRANCH   2   3
ENDBRANCH   1   2
BRANCH   1  27
ATOM     27  C   UNL A   1      35.789  32.239  28.013  1.00  0.00     0.188 C 
BRANCH  27  28
ATOM     28  C   UNL A   1      36.289  33.409  28.885  1.00  0.00     0.188 C 
BRANCH  28  29
ATOM     29  O   UNL A   1      35.499  33.833  29.969  1.00  0.00    -0.376 OA
BRANCH  29  30
ATOM     30  C   UNL A   1      34.761  32.951  30.788  1.00  0.00     0.202 C 
BRANCH  30  31
ATOM     31  C   UNL A   1      35.346  31.883  31.722  1.00  0.00     0.261 C 
BRANCH  31  32
ATOM     32  O   UNL A   1      36.769  31.763  31.769  1.00  0.00    -0.460 OA
BRANCH  32  33
ATOM     33  C   UNL A   1      37.224  30.489  31.761  1.00  0.00     0.338 C 
ATOM     34  O   UNL A   1      36.591  29.468  31.999  1.00  0.00    -0.246 OA
BRANCH  33  35
ATOM     35  C   UNL A   1      38.614  30.429  31.299  1.00  0.00     0.060 A 
ATOM     36  C   UNL A   1      38.881  30.896  30.015  1.00  0.00     0.016 A 
ATOM     37  C   UNL A   1      39.590  29.742  32.014  1.00  0.00     0.016 A 
ATOM     38  C   UNL A   1      40.085  30.600  29.388  1.00  0.00     0.010 A 
ATOM     39  C   UNL A   1      40.830  29.497  31.408  1.00  0.00     0.010 A 
ATOM     40  C   UNL A   1      41.071  29.887  30.076  1.00  0.00    -0.014 A 
BRANCH  40  41
ATOM     41  C   UNL A   1      42.311  29.467  29.374  1.00  0.00     0.031 A 
ATOM     42  C   UNL A   1      42.417  28.071  28.826  1.00  0.00     0.074 A 
ATOM     43  C   UNL A   1      43.330  30.329  29.202  1.00  0.00     0.049 A 
ATOM     44  N   UNL A   1      43.464  27.434  28.365  1.00  0.00    -0.248 NA
ATOM     45  C   UNL A   1      41.174  27.282  28.798  1.00  0.00     0.031 C 
ATOM     46  C   UNL A   1      43.326  31.739  29.594  1.00  0.00     0.029 A 
ATOM     47  N   UNL A   1      44.575  30.138  28.655  1.00  0.00    -0.354 N 
ATOM     48  C   UNL A   1      43.019  26.161  28.038  1.00  0.00     0.074 A 
ATOM     49  C   UNL A   1      41.607  26.112  28.352  1.00  0.00     0.031 C 
ATOM     50  C   UNL A   1      44.511  32.285  29.277  1.00  0.00     0.029 A 
ATOM     51  C   UNL A   1      45.381  31.248  28.731  1.00  0.00     0.049 A 
ATOM     52  H   UNL A   1      44.862  29.290  28.248  1.00  0.00     0.167 HD
ATOM     53  C   UNL A   1      43.727  25.125  27.525  1.00  0.00     0.037 A 
ATOM     54  C   UNL A   1      46.689  31.398  28.444  1.00  0.00     0.037 A 
ATOM     55  C   UNL A   1      45.122  25.195  27.174  1.00  0.00     0.049 A 
ATOM     56  C   UNL A   1      47.475  30.213  27.954  1.00  0.00     0.074 A 
ATOM     57  C   UNL A   1      45.930  24.202  26.647  1.00  0.00     0.029 A 
ATOM     58  N   UNL A   1      45.912  26.326  27.305  1.00  0.00    -0.354 N 
ATOM     59  N   UNL A   1      47.065  28.993  27.703  1.00  0.00    -0.248 NA
ATOM     60  C   UNL A   1      48.912  30.420  27.725  1.00  0.00     0.031 C 
ATOM     61  C   UNL A   1      47.221  24.721  26.500  1.00  0.00     0.029 A 
ATOM     62  C   UNL A   1      47.205  26.050  26.890  1.00  0.00     0.049 A 
ATOM     63  H   UNL A   1      45.601  27.197  27.642  1.00  0.00     0.167 HD
ATOM     64  C   UNL A   1      48.184  28.297  27.264  1.00  0.00     0.074 A 
ATOM     65  C   UNL A   1      49.289  29.234  27.271  1.00  0.00     0.031 C 
ATOM     66  C   UNL A   1      48.289  26.998  26.891  1.00  0.00     0.037 A 
BRANCH  53  67
ATOM     67  C   UNL A   1      43.018  23.814  27.361  1.00  0.00     0.057 A 
ATOM     68  C   UNL A   1      42.800  22.939  28.432  1.00  0.00     0.134 A 
ATOM     69  C   UNL A   1      42.520  23.436  26.106  1.00  0.00     0.134 A 
ATOM     70  F   UNL A   1      43.264  23.233  29.656  1.00  0.00    -0.206 F 
ATOM     71  C   UNL A   1      42.132  21.725  28.257  1.00  0.00     0.040 A 
ATOM     72  C   UNL A   1      41.829  22.238  25.924  1.00  0.00     0.040 A 
ATOM     73  F   UNL A   1      42.691  24.229  25.038  1.00  0.00    -0.206 F 
ATOM     74  C   UNL A   1      41.638  21.375  27.001  1.00  0.00     0.006 A 
ENDBRANCH  53  67
BRANCH  54  75
ATOM     75  C   UNL A   1      47.356  32.706  28.668  1.00  0.00     0.057 A 
ATOM     76  C   UNL A   1      47.447  33.658  27.646  1.00  0.00     0.134 A 
ATOM     77  C   UNL A   1      47.942  33.024  29.900  1.00  0.00     0.134 A 
ATOM     78  F   UNL A   1      46.931  33.399  26.435  1.00  0.00    -0.206 F 
ATOM     79  C   UNL A   1      48.110  34.871  27.835  1.00  0.00     0.040 A 
ATOM     80  C   UNL A   1      48.582  34.245  30.112  1.00  0.00     0.040 A 
ATOM     81  F   UNL A   1      47.893  32.153  30.919  1.00  0.00    -0.206 F 
ATOM     82  C   UNL A   1      48.675  35.170  29.075  1.00  0.00     0.006 A 
ENDBRANCH  54  75
BRANCH  66  83
ATOM     83  C   UNL A   1      49.633  26.527  26.420  1.00  0.00     0.057 A 
ATOM     84  C   UNL A   1      50.510  25.832  27.261  1.00  0.00     0.134 A 
ATOM     85  C   UNL A   1      50.036  26.737  25.094  1.00  0.00     0.134 A 
ATOM     86  F   UNL A   1      50.190  25.610  28.544  1.00  0.00    -0.206 F 
ATOM     87  C   UNL A   1      51.751  25.382  26.806  1.00  0.00     0.040 A 
ATOM     88  C   UNL A   1      51.262  26.271  24.622  1.00  0.00     0.040 A 
ATOM     89  F   UNL A   1      49.238  27.389  24.235  1.00  0.00    -0.206 F 
ATOM     90  C   UNL A   1      52.127  25.595  25.481  1.00  0.00     0.006 A 
ENDBRANCH  66  83
ENDBRANCH  40  41
ENDBRANCH  33  35
ENDBRANCH  32  33
ENDBRANCH  31  32
ENDBRANCH  30  31
ENDBRANCH  29  30
ENDBRANCH  28  29
ENDBRANCH  27  28
ENDBRANCH   1  27
TORSDOF 23
ENDMDL
MODEL 3
REMARK VINA RESULT:      -7.9      2.093      3.423
REMARK SMILES CCN(CC(=O)NC(C)C)C(=O)N[C@H]1C=C[C@H](C(=O)OCCOCCOCCOC(=O)c2ccc(-c3c4nc(c(-c5c(F)cccc5F)c5ccc([nH]5)c(-c5c(F)cccc5F)c5nc(c(-c6c(F)cccc6F)c6ccc3[nH]6)C=C5)C=C4)cc2)C1
REMARK SMILES IDX 23 1 22 2 21 3 20 4 18 5 19 6 17 7 14 8 15 9 86 10 16 11
REMARK SMILES IDX 13 12 11 13 12 14 3 16 2 17 1 18 4 19 5 20 6 21 7 22 8 24
REMARK SMILES IDX 9 25 10 26 24 27 25 28 26 29 27 30 28 31 29 32 30 33 31 34
REMARK SMILES IDX 32 35 33 36 85 37 34 38 84 39 35 40 36 41 37 42 78 43 38 44
REMARK SMILES IDX 83 45 77 46 79 47 39 48 82 49 76 50 75 51 40 53 66 54 49 55
REMARK SMILES IDX 65 56 50 57 53 58 64 59 80 60 51 61 52 62 63 64 81 65 54 66
REMARK SMILES IDX 41 67 42 68 47 69 43 70 44 71 46 72 48 73 45 74 67 75 68 76
REMARK SMILES IDX 73 77 69 78 70 79 72 80 74 81 71 82 55 83 56 84 61 85 57 86
REMARK SMILES IDX 58 87 60 88 62 89 59 90
REMARK H PARENT 13 15 7 23 79 52 53 63
REMARK Flexibility Score: inf
ROOT
ATOM      1  O   UNL A   1      34.701  35.887  34.012  1.00  0.00    -0.376 OA
ENDROOT
BRANCH   1   2
ATOM      2  C   UNL A   1      35.661  35.089  33.353  1.00  0.00     0.202 C 
BRANCH   2   3
ATOM      3  C   UNL A   1      36.345  33.990  34.165  1.00  0.00     0.261 C 
BRANCH   3   4
ATOM      4  O   UNL A   1      37.657  33.616  33.723  1.00  0.00    -0.463 OA
BRANCH   4   5
ATOM      5  C   UNL A   1      38.083  32.379  34.130  1.00  0.00     0.312 C 
ATOM      6  O   UNL A   1      37.394  31.569  34.726  1.00  0.00    -0.252 OA
BRANCH   5   7
ATOM      7  C   UNL A   1      39.590  32.223  33.884  1.00  0.00     0.124 C 
ATOM      8  C   UNL A   1      41.076  31.621  35.786  1.00  0.00     0.107 C 
ATOM      9  C   UNL A   1      41.155  33.078  35.416  1.00  0.00    -0.006 C 
ATOM     10  C   UNL A   1      40.242  31.059  34.633  1.00  0.00     0.048 C 
ATOM     11  C   UNL A   1      40.366  33.397  34.385  1.00  0.00    -0.014 C 
BRANCH   8  12
ATOM     12  N   UNL A   1      42.442  31.145  35.914  1.00  0.00    -0.332 N 
ATOM     13  C   UNL A   1      43.267  30.191  35.474  1.00  0.00     0.318 C 
ATOM     14  O   UNL A   1      44.378  30.205  36.023  1.00  0.00    -0.249 OA
ATOM     15  H   UNL A   1      42.928  31.726  36.543  1.00  0.00     0.165 HD
BRANCH  13  16
ATOM     16  N   UNL A   1      42.992  29.284  34.490  1.00  0.00    -0.316 N 
BRANCH  16  17
ATOM     17  C   UNL A   1      44.093  28.932  33.585  1.00  0.00     0.118 C 
ATOM     18  C   UNL A   1      43.876  29.407  32.151  1.00  0.00     0.027 C 
ENDBRANCH  16  17
BRANCH  16  19
ATOM     19  C   UNL A   1      41.825  28.419  34.403  1.00  0.00     0.221 C 
BRANCH  19  20
ATOM     20  C   UNL A   1      41.577  27.655  35.699  1.00  0.00     0.239 C 
ATOM     21  O   UNL A   1      41.113  28.217  36.691  1.00  0.00    -0.273 OA
ATOM     22  N   UNL A   1      41.779  26.308  35.755  1.00  0.00    -0.352 N 
ATOM     23  H   UNL A   1      41.161  25.798  36.327  1.00  0.00     0.163 HD
BRANCH  22  24
ATOM     24  C   UNL A   1      42.803  25.541  35.065  1.00  0.00     0.075 C 
ATOM     25  C   UNL A   1      44.159  25.914  35.663  1.00  0.00     0.030 C 
ATOM     26  C   UNL A   1      42.532  24.048  35.193  1.00  0.00     0.030 C 
ENDBRANCH  22  24
ENDBRANCH  19  20
ENDBRANCH  16  19
ENDBRANCH  13  16
ENDBRANCH   8  12
ENDBRANCH   5   7
ENDBRANCH   4   5
ENDBRANCH   3   4
ENDBRANCH   2   3
ENDBRANCH   1   2
BRANCH   1  27
ATOM     27  C   UNL A   1      33.973  36.863  33.282  1.00  0.00     0.188 C 
BRANCH  27  28
ATOM     28  C   UNL A   1      33.800  36.779  31.750  1.00  0.00     0.188 C 
BRANCH  28  29
ATOM     29  O   UNL A   1      33.004  35.751  31.212  1.00  0.00    -0.376 OA
BRANCH  29  30
ATOM     30  C   UNL A   1      33.277  35.118  29.981  1.00  0.00     0.202 C 
BRANCH  30  31
ATOM     31  C   UNL A   1      34.511  34.263  29.659  1.00  0.00     0.261 C 
BRANCH  31  32
ATOM     32  O   UNL A   1      34.344  32.844  29.667  1.00  0.00    -0.460 OA
BRANCH  32  33
ATOM     33  C   UNL A   1      34.870  32.225  30.749  1.00  0.00     0.338 C 
ATOM     34  O   UNL A   1      34.467  32.269  31.905  1.00  0.00    -0.246 OA
BRANCH  33  35
ATOM     35  C   UNL A   1      35.976  31.342  30.364  1.00  0.00     0.060 A 
ATOM     36  C   UNL A   1      36.724  30.771  31.390  1.00  0.00     0.016 A 
ATOM     37  C   UNL A   1      36.404  31.246  29.044  1.00  0.00     0.016 A 
ATOM     38  C   UNL A   1      37.954  30.183  31.127  1.00  0.00     0.010 A 
ATOM     39  C   UNL A   1      37.615  30.596  28.769  1.00  0.00     0.010 A 
ATOM     40  C   UNL A   1      38.419  30.098  29.812  1.00  0.00    -0.014 A 
BRANCH  40  41
ATOM     41  C   UNL A   1      39.783  29.577  29.537  1.00  0.00     0.031 A 
ATOM     42  C   UNL A   1      40.964  30.504  29.627  1.00  0.00     0.074 A 
ATOM     43  C   UNL A   1      39.976  28.280  29.233  1.00  0.00     0.049 A 
ATOM     44  N   UNL A   1      42.200  30.318  29.237  1.00  0.00    -0.248 NA
ATOM     45  C   UNL A   1      40.716  31.821  30.235  1.00  0.00     0.031 C 
ATOM     46  C   UNL A   1      38.938  27.250  29.206  1.00  0.00     0.029 A 
ATOM     47  N   UNL A   1      41.122  27.609  28.880  1.00  0.00    -0.354 N 
ATOM     48  C   UNL A   1      42.864  31.507  29.508  1.00  0.00     0.074 A 
ATOM     49  C   UNL A   1      41.896  32.409  30.095  1.00  0.00     0.031 C 
ATOM     50  C   UNL A   1      39.492  26.079  28.853  1.00  0.00     0.029 A 
ATOM     51  C   UNL A   1      40.905  26.292  28.557  1.00  0.00     0.049 A 
ATOM     52  H   UNL A   1      42.010  28.031  28.859  1.00  0.00     0.167 HD
ATOM     53  C   UNL A   1      44.164  31.817  29.282  1.00  0.00     0.037 A 
ATOM     54  C   UNL A   1      41.739  25.374  28.031  1.00  0.00     0.037 A 
ATOM     55  C   UNL A   1      45.131  30.900  28.739  1.00  0.00     0.049 A 
ATOM     56  C   UNL A   1      43.156  25.765  27.712  1.00  0.00     0.074 A 
ATOM     57  C   UNL A   1      46.472  31.117  28.472  1.00  0.00     0.029 A 
ATOM     58  N   UNL A   1      44.861  29.587  28.387  1.00  0.00    -0.354 N 
ATOM     59  N   UNL A   1      43.766  26.909  27.913  1.00  0.00    -0.248 NA
ATOM     60  C   UNL A   1      43.997  24.742  27.075  1.00  0.00     0.031 C 
ATOM     61  C   UNL A   1      47.004  29.947  27.920  1.00  0.00     0.029 A 
ATOM     62  C   UNL A   1      46.006  28.987  27.886  1.00  0.00     0.049 A 
ATOM     63  H   UNL A   1      43.986  29.145  28.481  1.00  0.00     0.167 HD
ATOM     64  C   UNL A   1      45.064  26.735  27.451  1.00  0.00     0.074 A 
ATOM     65  C   UNL A   1      45.159  25.372  26.971  1.00  0.00     0.031 C 
ATOM     66  C   UNL A   1      46.086  27.625  27.425  1.00  0.00     0.037 A 
BRANCH  53  67
ATOM     67  C   UNL A   1      44.603  33.221  29.576  1.00  0.00     0.057 A 
ATOM     68  C   UNL A   1      44.430  34.268  28.663  1.00  0.00     0.134 A 
ATOM     69  C   UNL A   1      45.186  33.532  30.812  1.00  0.00     0.134 A 
ATOM     70  F   UNL A   1      43.893  34.036  27.456  1.00  0.00    -0.206 F 
ATOM     71  C   UNL A   1      44.841  35.569  28.960  1.00  0.00     0.040 A 
ATOM     72  C   UNL A   1      45.577  34.832  31.130  1.00  0.00     0.040 A 
ATOM     73  F   UNL A   1      45.376  32.577  31.735  1.00  0.00    -0.206 F 
ATOM     74  C   UNL A   1      45.411  35.856  30.200  1.00  0.00     0.006 A 
ENDBRANCH  53  67
BRANCH  54  75
ATOM     75  C   UNL A   1      41.243  24.010  27.715  1.00  0.00     0.057 A 
ATOM     76  C   UNL A   1      41.648  22.900  28.465  1.00  0.00     0.134 A 
ATOM     77  C   UNL A   1      40.375  23.781  26.641  1.00  0.00     0.134 A 
ATOM     78  F   UNL A   1      42.502  23.051  29.488  1.00  0.00    -0.206 F 
ATOM     79  C   UNL A   1      41.221  21.610  28.148  1.00  0.00     0.040 A 
ATOM     80  C   UNL A   1      39.916  22.500  26.331  1.00  0.00     0.040 A 
ATOM     81  F   UNL A   1      39.952  24.802  25.881  1.00  0.00    -0.206 F 
ATOM     82  C   UNL A   1      40.346  21.408  27.081  1.00  0.00     0.006 A 
ENDBRANCH  54  75
BRANCH  66  83
ATOM     83  C   UNL A   1      47.404  27.139  26.899  1.00  0.00     0.057 A 
ATOM     84  C   UNL A   1      47.754  27.266  25.550  1.00  0.00     0.134 A 
ATOM     85  C   UNL A   1      48.350  26.574  27.764  1.00  0.00     0.134 A 
ATOM     86  F   UNL A   1      46.887  27.786  24.668  1.00  0.00    -0.206 F 
ATOM     87  C   UNL A   1      48.991  26.827  25.074  1.00  0.00     0.040 A 
ATOM     88  C   UNL A   1      49.599  26.155  27.305  1.00  0.00     0.040 A 
ATOM     89  F   UNL A   1      48.081  26.432  29.070  1.00  0.00    -0.206 F 
ATOM     90  C   UNL A   1      49.921  26.277  25.955  1.00  0.00     0.006 A 
ENDBRANCH  66  83
ENDBRANCH  40  41
ENDBRANCH  33  35
ENDBRANCH  32  33
ENDBRANCH  31  32
ENDBRANCH  30  31
ENDBRANCH  29  30
ENDBRANCH  28  29
ENDBRANCH  27  28
ENDBRANCH   1  27
TORSDOF 23
ENDMDL
