MODEL 1
REMARK VINA RESULT:     -10.8      0.000      0.000
REMARK SMILES Cc1cc(NC(=O)Nc2sc(C)c(C)c2C(=O)OCCOCCOCCOC(=O)c2ccc(-c3c4nc(c(-c5c(F)cccc5F)c5ccc([nH]5)c(-c5c(F)cccc5F)c5nc(c(-c6c(F)cccc6F)c6ccc3[nH]6)C=C5)C=C4)cc2)ccn1
REMARK SMILES IDX 22 1 21 2 20 3 19 4 18 5 16 6 17 7 15 8 9 9 10 10 11 11
REMARK SMILES IDX 13 12 12 13 14 14 8 15 5 16 6 17 7 19 4 21 1 22 2 23 3 24
REMARK SMILES IDX 86 25 85 26 84 27 23 28 24 29 25 30 26 31 27 32 28 33 29 34
REMARK SMILES IDX 30 35 31 36 83 37 32 38 82 39 33 40 34 41 35 42 76 43 36 44
REMARK SMILES IDX 81 45 75 46 77 47 37 48 80 49 74 50 73 51 38 53 64 54 47 55
REMARK SMILES IDX 63 56 48 57 51 58 62 59 78 60 49 61 50 62 61 64 79 65 52 66
REMARK SMILES IDX 39 67 40 68 45 69 41 70 42 71 44 72 46 73 43 74 65 75 66 76
REMARK SMILES IDX 71 77 67 78 68 79 70 80 72 81 69 82 53 83 54 84 59 85 55 86
REMARK SMILES IDX 56 87 58 88 60 89 57 90
REMARK H PARENT 5 18 8 20 77 52 51 63
REMARK Flexibility Score: inf
ROOT
ATOM      1  C   UNL A   1      41.711  20.941  27.493  1.00  0.00     0.188 C 
ENDROOT
BRANCH   1   2
ATOM      2  O   UNL A   1      40.608  21.840  27.580  1.00  0.00    -0.376 OA
BRANCH   2   3
ATOM      3  C   UNL A   1      39.986  22.329  26.402  1.00  0.00     0.202 C 
BRANCH   3   4
ATOM      4  C   UNL A   1      38.696  21.588  26.038  1.00  0.00     0.261 C 
BRANCH   4   5
ATOM      5  O   UNL A   1      37.814  22.348  25.190  1.00  0.00    -0.460 OA
BRANCH   5   6
ATOM      6  C   UNL A   1      36.511  21.931  25.205  1.00  0.00     0.341 C 
ATOM      7  O   UNL A   1      36.174  20.762  25.364  1.00  0.00    -0.246 OA
BRANCH   6   8
ATOM      8  C   UNL A   1      35.527  23.003  25.013  1.00  0.00     0.098 A 
ATOM      9  C   UNL A   1      34.567  23.434  25.919  1.00  0.00     0.112 A 
ATOM     10  S   UNL A   1      34.016  24.995  25.508  1.00  0.00    -0.122 S 
ATOM     11  C   UNL A   1      34.448  24.762  23.878  1.00  0.00     0.007 A 
ATOM     12  C   UNL A   1      35.306  23.683  23.737  1.00  0.00    -0.021 A 
ATOM     13  C   UNL A   1      33.907  25.679  22.831  1.00  0.00     0.057 C 
ATOM     14  C   UNL A   1      35.885  23.227  22.431  1.00  0.00     0.046 C 
BRANCH   9  15
ATOM     15  N   UNL A   1      34.135  22.845  27.094  1.00  0.00    -0.298 N 
ATOM     16  N   UNL A   1      32.057  21.776  26.534  1.00  0.00    -0.308 N 
ATOM     17  C   UNL A   1      32.926  22.325  27.423  1.00  0.00     0.324 C 
ATOM     18  H   UNL A   1      31.121  21.805  26.838  1.00  0.00     0.171 HD
ATOM     19  O   UNL A   1      32.599  22.321  28.616  1.00  0.00    -0.248 OA
ATOM     20  H   UNL A   1      34.814  22.796  27.804  1.00  0.00     0.172 HD
BRANCH  16  21
ATOM     21  C   UNL A   1      32.210  21.174  25.265  1.00  0.00     0.046 A 
ATOM     22  C   UNL A   1      32.903  17.707  23.895  1.00  0.00     0.067 C 
ATOM     23  C   UNL A   1      32.605  19.172  23.984  1.00  0.00     0.039 A 
ATOM     24  C   UNL A   1      32.537  19.815  25.220  1.00  0.00     0.049 A 
ATOM     25  N   UNL A   1      32.350  19.809  22.820  1.00  0.00    -0.261 NA
ATOM     26  C   UNL A   1      32.078  21.124  22.890  1.00  0.00     0.113 A 
ATOM     27  C   UNL A   1      32.048  21.851  24.067  1.00  0.00     0.046 A 
ENDBRANCH  16  21
ENDBRANCH   9  15
ENDBRANCH   6   8
ENDBRANCH   5   6
ENDBRANCH   4   5
ENDBRANCH   3   4
ENDBRANCH   2   3
ENDBRANCH   1   2
BRANCH   1  28
ATOM     28  C   UNL A   1      41.820  19.901  26.368  1.00  0.00     0.188 C 
BRANCH  28  29
ATOM     29  O   UNL A   1      42.850  20.194  25.430  1.00  0.00    -0.376 OA
BRANCH  29  30
ATOM     30  C   UNL A   1      43.603  21.373  25.695  1.00  0.00     0.202 C 
BRANCH  30  31
ATOM     31  C   UNL A   1      43.829  22.186  24.417  1.00  0.00     0.261 C 
BRANCH  31  32
ATOM     32  O   UNL A   1      43.379  23.547  24.514  1.00  0.00    -0.460 OA
BRANCH  32  33
ATOM     33  C   UNL A   1      44.261  24.423  25.046  1.00  0.00     0.338 C 
ATOM     34  O   UNL A   1      45.417  24.600  24.706  1.00  0.00    -0.246 OA
BRANCH  33  35
ATOM     35  C   UNL A   1      43.543  25.280  26.008  1.00  0.00     0.060 A 
ATOM     36  C   UNL A   1      43.826  26.649  26.005  1.00  0.00     0.016 A 
ATOM     37  C   UNL A   1      42.630  24.747  26.919  1.00  0.00     0.016 A 
ATOM     38  C   UNL A   1      43.204  27.495  26.924  1.00  0.00     0.010 A 
ATOM     39  C   UNL A   1      42.027  25.588  27.858  1.00  0.00     0.010 A 
ATOM     40  C   UNL A   1      42.328  26.960  27.878  1.00  0.00    -0.014 A 
BRANCH  40  41
ATOM     41  C   UNL A   1      41.854  27.800  29.003  1.00  0.00     0.031 A 
ATOM     42  C   UNL A   1      42.589  27.731  30.313  1.00  0.00     0.074 A 
ATOM     43  C   UNL A   1      40.787  28.605  28.869  1.00  0.00     0.049 A 
ATOM     44  N   UNL A   1      42.327  28.336  31.443  1.00  0.00    -0.248 NA
ATOM     45  C   UNL A   1      43.776  26.863  30.350  1.00  0.00     0.031 C 
ATOM     46  C   UNL A   1      40.009  28.786  27.647  1.00  0.00     0.029 A 
ATOM     47  N   UNL A   1      40.170  29.415  29.789  1.00  0.00    -0.354 N 
ATOM     48  C   UNL A   1      43.320  27.929  32.324  1.00  0.00     0.074 A 
ATOM     49  C   UNL A   1      44.172  27.004  31.606  1.00  0.00     0.031 C 
ATOM     50  C   UNL A   1      39.004  29.646  27.896  1.00  0.00     0.029 A 
ATOM     51  C   UNL A   1      39.057  30.053  29.300  1.00  0.00     0.049 A 
ATOM     52  H   UNL A   1      40.494  29.528  30.712  1.00  0.00     0.167 HD
ATOM     53  C   UNL A   1      43.511  28.295  33.613  1.00  0.00     0.037 A 
ATOM     54  C   UNL A   1      38.174  30.856  29.924  1.00  0.00     0.037 A 
ATOM     55  C   UNL A   1      42.659  29.196  34.339  1.00  0.00     0.049 A 
ATOM     56  C   UNL A   1      38.354  31.176  31.384  1.00  0.00     0.074 A 
ATOM     57  C   UNL A   1      42.777  29.632  35.647  1.00  0.00     0.029 A 
ATOM     58  N   UNL A   1      41.519  29.789  33.820  1.00  0.00    -0.354 N 
ATOM     59  N   UNL A   1      39.311  30.807  32.201  1.00  0.00    -0.248 NA
ATOM     60  C   UNL A   1      37.325  32.021  32.009  1.00  0.00     0.031 C 
ATOM     61  C   UNL A   1      41.685  30.461  35.932  1.00  0.00     0.029 A 
ATOM     62  C   UNL A   1      40.909  30.569  34.789  1.00  0.00     0.049 A 
ATOM     63  H   UNL A   1      41.190  29.673  32.900  1.00  0.00     0.167 HD
ATOM     64  C   UNL A   1      39.014  31.395  33.425  1.00  0.00     0.074 A 
ATOM     65  C   UNL A   1      37.793  32.149  33.244  1.00  0.00     0.031 C 
ATOM     66  C   UNL A   1      39.696  31.319  34.594  1.00  0.00     0.037 A 
BRANCH  53  67
ATOM     67  C   UNL A   1      44.685  27.695  34.322  1.00  0.00     0.057 A 
ATOM     68  C   UNL A   1      44.582  26.482  35.016  1.00  0.00     0.134 A 
ATOM     69  C   UNL A   1      45.932  28.330  34.306  1.00  0.00     0.134 A 
ATOM     70  F   UNL A   1      43.408  25.835  35.082  1.00  0.00    -0.206 F 
ATOM     71  C   UNL A   1      45.675  25.932  35.685  1.00  0.00     0.040 A 
ATOM     72  C   UNL A   1      47.037  27.780  34.956  1.00  0.00     0.040 A 
ATOM     73  F   UNL A   1      46.095  29.494  33.660  1.00  0.00    -0.206 F 
ATOM     74  C   UNL A   1      46.908  26.579  35.653  1.00  0.00     0.006 A 
ENDBRANCH  53  67
BRANCH  54  75
ATOM     75  C   UNL A   1      37.020  31.412  29.176  1.00  0.00     0.057 A 
ATOM     76  C   UNL A   1      37.033  32.731  28.708  1.00  0.00     0.134 A 
ATOM     77  C   UNL A   1      35.870  30.652  28.940  1.00  0.00     0.134 A 
ATOM     78  F   UNL A   1      38.099  33.515  28.930  1.00  0.00    -0.206 F 
ATOM     79  C   UNL A   1      35.936  33.279  28.042  1.00  0.00     0.040 A 
ATOM     80  C   UNL A   1      34.773  31.181  28.258  1.00  0.00     0.040 A 
ATOM     81  F   UNL A   1      35.797  29.384  29.369  1.00  0.00    -0.206 F 
ATOM     82  C   UNL A   1      34.803  32.501  27.812  1.00  0.00     0.006 A 
ENDBRANCH  54  75
BRANCH  66  83
ATOM     83  C   UNL A   1      39.157  32.093  35.759  1.00  0.00     0.057 A 
ATOM     84  C   UNL A   1      39.496  33.435  35.971  1.00  0.00     0.134 A 
ATOM     85  C   UNL A   1      38.255  31.502  36.652  1.00  0.00     0.134 A 
ATOM     86  F   UNL A   1      40.364  34.054  35.159  1.00  0.00    -0.206 F 
ATOM     87  C   UNL A   1      38.965  34.159  37.042  1.00  0.00     0.040 A 
ATOM     88  C   UNL A   1      37.703  32.221  37.713  1.00  0.00     0.040 A 
ATOM     89  F   UNL A   1      37.886  30.222  36.499  1.00  0.00    -0.206 F 
ATOM     90  C   UNL A   1      38.060  33.552  37.912  1.00  0.00     0.006 A 
ENDBRANCH  66  83
ENDBRANCH  40  41
ENDBRANCH  33  35
ENDBRANCH  32  33
ENDBRANCH  31  32
ENDBRANCH  30  31
ENDBRANCH  29  30
ENDBRANCH  28  29
ENDBRANCH   1  28
TORSDOF 19
ENDMDL
MODEL 2
REMARK VINA RESULT:     -10.8      4.641      9.596
REMARK SMILES Cc1cc(NC(=O)Nc2sc(C)c(C)c2C(=O)OCCOCCOCCOC(=O)c2ccc(-c3c4nc(c(-c5c(F)cccc5F)c5ccc([nH]5)c(-c5c(F)cccc5F)c5nc(c(-c6c(F)cccc6F)c6ccc3[nH]6)C=C5)C=C4)cc2)ccn1
REMARK SMILES IDX 22 1 21 2 20 3 19 4 18 5 16 6 17 7 15 8 9 9 10 10 11 11
REMARK SMILES IDX 13 12 12 13 14 14 8 15 5 16 6 17 7 19 4 21 1 22 2 23 3 24
REMARK SMILES IDX 86 25 85 26 84 27 23 28 24 29 25 30 26 31 27 32 28 33 29 34
REMARK SMILES IDX 30 35 31 36 83 37 32 38 82 39 33 40 34 41 35 42 76 43 36 44
REMARK SMILES IDX 81 45 75 46 77 47 37 48 80 49 74 50 73 51 38 53 64 54 47 55
REMARK SMILES IDX 63 56 48 57 51 58 62 59 78 60 49 61 50 62 61 64 79 65 52 66
REMARK SMILES IDX 39 67 40 68 45 69 41 70 42 71 44 72 46 73 43 74 65 75 66 76
REMARK SMILES IDX 71 77 67 78 68 79 70 80 72 81 69 82 53 83 54 84 59 85 55 86
REMARK SMILES IDX 56 87 58 88 60 89 57 90
REMARK H PARENT 5 18 8 20 77 52 51 63
REMARK Flexibility Score: inf
ROOT
ATOM      1  C   UNL A   1      34.372  32.084  28.305  1.00  0.00     0.188 C 
ENDROOT
BRANCH   1   2
ATOM      2  O   UNL A   1      34.349  31.150  27.226  1.00  0.00    -0.376 OA
BRANCH   2   3
ATOM      3  C   UNL A   1      33.178  30.399  26.952  1.00  0.00     0.202 C 
BRANCH   3   4
ATOM      4  C   UNL A   1      33.329  28.902  27.239  1.00  0.00     0.261 C 
BRANCH   4   5
ATOM      5  O   UNL A   1      34.208  28.224  26.322  1.00  0.00    -0.460 OA
BRANCH   5   6
ATOM      6  C   UNL A   1      33.775  26.987  25.928  1.00  0.00     0.341 C 
ATOM      7  O   UNL A   1      34.408  25.954  26.119  1.00  0.00    -0.246 OA
BRANCH   6   8
ATOM      8  C   UNL A   1      32.475  26.986  25.247  1.00  0.00     0.098 A 
ATOM      9  C   UNL A   1      31.334  26.286  25.616  1.00  0.00     0.112 A 
ATOM     10  S   UNL A   1      29.952  26.967  24.884  1.00  0.00    -0.122 S 
ATOM     11  C   UNL A   1      30.891  27.617  23.621  1.00  0.00     0.007 A 
ATOM     12  C   UNL A   1      32.237  27.619  23.949  1.00  0.00    -0.021 A 
ATOM     13  C   UNL A   1      30.224  28.094  22.374  1.00  0.00     0.057 C 
ATOM     14  C   UNL A   1      33.324  28.143  23.059  1.00  0.00     0.046 C 
BRANCH   9  15
ATOM     15  N   UNL A   1      31.186  25.263  26.535  1.00  0.00    -0.298 N 
ATOM     16  N   UNL A   1      31.291  23.238  25.243  1.00  0.00    -0.308 N 
ATOM     17  C   UNL A   1      30.928  23.943  26.347  1.00  0.00     0.324 C 
ATOM     18  H   UNL A   1      30.725  22.449  25.084  1.00  0.00     0.171 HD
ATOM     19  O   UNL A   1      30.348  23.329  27.251  1.00  0.00    -0.248 OA
ATOM     20  H   UNL A   1      31.282  25.536  27.475  1.00  0.00     0.172 HD
BRANCH  16  21
ATOM     21  C   UNL A   1      32.309  23.397  24.277  1.00  0.00     0.046 A 
ATOM     22  C   UNL A   1      35.976  22.499  23.920  1.00  0.00     0.067 C 
ATOM     23  C   UNL A   1      34.598  23.012  23.631  1.00  0.00     0.039 A 
ATOM     24  C   UNL A   1      33.595  22.953  24.599  1.00  0.00     0.049 A 
ATOM     25  N   UNL A   1      34.373  23.470  22.381  1.00  0.00    -0.261 NA
ATOM     26  C   UNL A   1      33.138  23.929  22.111  1.00  0.00     0.113 A 
ATOM     27  C   UNL A   1      32.102  23.960  23.027  1.00  0.00     0.046 A 
ENDBRANCH  16  21
ENDBRANCH   9  15
ENDBRANCH   6   8
ENDBRANCH   5   6
ENDBRANCH   4   5
ENDBRANCH   3   4
ENDBRANCH   2   3
ENDBRANCH   1   2
BRANCH   1  28
ATOM     28  C   UNL A   1      34.772  33.552  28.094  1.00  0.00     0.188 C 
BRANCH  28  29
ATOM     29  O   UNL A   1      35.004  34.250  29.313  1.00  0.00    -0.376 OA
BRANCH  29  30
ATOM     30  C   UNL A   1      33.939  34.208  30.256  1.00  0.00     0.202 C 
BRANCH  30  31
ATOM     31  C   UNL A   1      34.471  34.136  31.690  1.00  0.00     0.261 C 
BRANCH  31  32
ATOM     32  O   UNL A   1      35.863  33.785  31.771  1.00  0.00    -0.460 OA
BRANCH  32  33
ATOM     33  C   UNL A   1      36.154  32.698  32.521  1.00  0.00     0.338 C 
ATOM     34  O   UNL A   1      35.583  32.329  33.531  1.00  0.00    -0.246 OA
BRANCH  33  35
ATOM     35  C   UNL A   1      37.180  31.907  31.817  1.00  0.00     0.060 A 
ATOM     36  C   UNL A   1      38.172  31.289  32.583  1.00  0.00     0.016 A 
ATOM     37  C   UNL A   1      37.188  31.798  30.425  1.00  0.00     0.016 A 
ATOM     38  C   UNL A   1      39.188  30.564  31.960  1.00  0.00     0.010 A 
ATOM     39  C   UNL A   1      38.220  31.095  29.798  1.00  0.00     0.010 A 
ATOM     40  C   UNL A   1      39.236  30.495  30.561  1.00  0.00    -0.014 A 
BRANCH  40  41
ATOM     41  C   UNL A   1      40.432  29.941  29.886  1.00  0.00     0.031 A 
ATOM     42  C   UNL A   1      41.607  30.847  29.643  1.00  0.00     0.074 A 
ATOM     43  C   UNL A   1      40.476  28.659  29.488  1.00  0.00     0.049 A 
ATOM     44  N   UNL A   1      42.736  30.596  29.031  1.00  0.00    -0.248 NA
ATOM     45  C   UNL A   1      41.490  32.220  30.161  1.00  0.00     0.031 C 
ATOM     46  C   UNL A   1      39.419  27.671  29.691  1.00  0.00     0.029 A 
ATOM     47  N   UNL A   1      41.457  27.975  28.814  1.00  0.00    -0.354 N 
ATOM     48  C   UNL A   1      43.467  31.775  29.096  1.00  0.00     0.074 A 
ATOM     49  C   UNL A   1      42.643  32.749  29.781  1.00  0.00     0.031 C 
ATOM     50  C   UNL A   1      39.804  26.505  29.139  1.00  0.00     0.029 A 
ATOM     51  C   UNL A   1      41.120  26.676  28.524  1.00  0.00     0.049 A 
ATOM     52  H   UNL A   1      42.319  28.377  28.563  1.00  0.00     0.167 HD
ATOM     53  C   UNL A   1      44.714  32.024  28.632  1.00  0.00     0.037 A 
ATOM     54  C   UNL A   1      41.793  25.742  27.825  1.00  0.00     0.037 A 
ATOM     55  C   UNL A   1      45.529  31.070  27.933  1.00  0.00     0.049 A 
ATOM     56  C   UNL A   1      43.139  26.071  27.238  1.00  0.00     0.074 A 
ATOM     57  C   UNL A   1      46.809  31.230  27.432  1.00  0.00     0.029 A 
ATOM     58  N   UNL A   1      45.136  29.778  27.623  1.00  0.00    -0.354 N 
ATOM     59  N   UNL A   1      43.833  27.180  27.327  1.00  0.00    -0.248 NA
ATOM     60  C   UNL A   1      43.794  25.017  26.448  1.00  0.00     0.031 C 
ATOM     61  C   UNL A   1      47.177  30.044  26.785  1.00  0.00     0.029 A 
ATOM     62  C   UNL A   1      46.140  29.135  26.916  1.00  0.00     0.049 A 
ATOM     63  H   UNL A   1      44.272  29.375  27.869  1.00  0.00     0.167 HD
ATOM     64  C   UNL A   1      45.013  26.949  26.630  1.00  0.00     0.074 A 
ATOM     65  C   UNL A   1      44.945  25.593  26.127  1.00  0.00     0.031 C 
ATOM     66  C   UNL A   1      46.061  27.784  26.427  1.00  0.00     0.037 A 
BRANCH  53  67
ATOM     67  C   UNL A   1      45.257  33.402  28.855  1.00  0.00     0.057 A 
ATOM     68  C   UNL A   1      46.009  33.718  29.994  1.00  0.00     0.134 A 
ATOM     69  C   UNL A   1      45.034  34.419  27.920  1.00  0.00     0.134 A 
ATOM     70  F   UNL A   1      46.241  32.789  30.934  1.00  0.00    -0.206 F 
ATOM     71  C   UNL A   1      46.503  35.005  30.204  1.00  0.00     0.040 A 
ATOM     72  C   UNL A   1      45.540  35.705  28.110  1.00  0.00     0.040 A 
ATOM     73  F   UNL A   1      44.321  34.179  26.810  1.00  0.00    -0.206 F 
ATOM     74  C   UNL A   1      46.273  36.002  29.259  1.00  0.00     0.006 A 
ENDBRANCH  53  67
BRANCH  54  75
ATOM     75  C   UNL A   1      41.201  24.397  27.623  1.00  0.00     0.057 A 
ATOM     76  C   UNL A   1      41.680  23.286  28.324  1.00  0.00     0.134 A 
ATOM     77  C   UNL A   1      40.166  24.187  26.705  1.00  0.00     0.134 A 
ATOM     78  F   UNL A   1      42.689  23.423  29.197  1.00  0.00    -0.206 F 
ATOM     79  C   UNL A   1      41.161  22.008  28.110  1.00  0.00     0.040 A 
ATOM     80  C   UNL A   1      39.624  22.918  26.495  1.00  0.00     0.040 A 
ATOM     81  F   UNL A   1      39.669  25.213  25.999  1.00  0.00    -0.206 F 
ATOM     82  C   UNL A   1      40.127  21.823  27.196  1.00  0.00     0.006 A 
ENDBRANCH  54  75
BRANCH  66  83
ATOM     83  C   UNL A   1      47.231  27.250  25.656  1.00  0.00     0.057 A 
ATOM     84  C   UNL A   1      47.362  27.460  24.278  1.00  0.00     0.134 A 
ATOM     85  C   UNL A   1      48.258  26.557  26.308  1.00  0.00     0.134 A 
ATOM     86  F   UNL A   1      46.406  28.105  23.594  1.00  0.00    -0.206 F 
ATOM     87  C   UNL A   1      48.470  26.986  23.572  1.00  0.00     0.040 A 
ATOM     88  C   UNL A   1      49.379  26.097  25.617  1.00  0.00     0.040 A 
ATOM     89  F   UNL A   1      48.195  26.329  27.628  1.00  0.00    -0.206 F 
ATOM     90  C   UNL A   1      49.486  26.308  24.244  1.00  0.00     0.006 A 
ENDBRANCH  66  83
ENDBRANCH  40  41
ENDBRANCH  33  35
ENDBRANCH  32  33
ENDBRANCH  31  32
ENDBRANCH  30  31
ENDBRANCH  29  30
ENDBRANCH  28  29
ENDBRANCH   1  28
TORSDOF 19
ENDMDL
MODEL 3
REMARK VINA RESULT:     -10.6      1.402      2.488
REMARK SMILES Cc1cc(NC(=O)Nc2sc(C)c(C)c2C(=O)OCCOCCOCCOC(=O)c2ccc(-c3c4nc(c(-c5c(F)cccc5F)c5ccc([nH]5)c(-c5c(F)cccc5F)c5nc(c(-c6c(F)cccc6F)c6ccc3[nH]6)C=C5)C=C4)cc2)ccn1
REMARK SMILES IDX 22 1 21 2 20 3 19 4 18 5 16 6 17 7 15 8 9 9 10 10 11 11
REMARK SMILES IDX 13 12 12 13 14 14 8 15 5 16 6 17 7 19 4 21 1 22 2 23 3 24
REMARK SMILES IDX 86 25 85 26 84 27 23 28 24 29 25 30 26 31 27 32 28 33 29 34
REMARK SMILES IDX 30 35 31 36 83 37 32 38 82 39 33 40 34 41 35 42 76 43 36 44
REMARK SMILES IDX 81 45 75 46 77 47 37 48 80 49 74 50 73 51 38 53 64 54 47 55
REMARK SMILES IDX 63 56 48 57 51 58 62 59 78 60 49 61 50 62 61 64 79 65 52 66
REMARK SMILES IDX 39 67 40 68 45 69 41 70 42 71 44 72 46 73 43 74 65 75 66 76
REMARK SMILES IDX 71 77 67 78 68 79 70 80 72 81 69 82 53 83 54 84 59 85 55 86
REMARK SMILES IDX 56 87 58 88 60 89 57 90
REMARK H PARENT 5 18 8 20 77 52 51 63
REMARK Flexibility Score: inf
ROOT
ATOM      1  C   UNL A   1      39.362  22.087  26.421  1.00  0.00     0.188 C 
ENDROOT
BRANCH   1   2
ATOM      2  O   UNL A   1      38.561  21.473  25.413  1.00  0.00    -0.376 OA
BRANCH   2   3
ATOM      3  C   UNL A   1      37.183  21.787  25.302  1.00  0.00     0.202 C 
BRANCH   3   4
ATOM      4  C   UNL A   1      36.842  22.620  24.063  1.00  0.00     0.261 C 
BRANCH   4   5
ATOM      5  O   UNL A   1      35.610  23.356  24.183  1.00  0.00    -0.460 OA
BRANCH   5   6
ATOM      6  C   UNL A   1      35.490  24.081  25.337  1.00  0.00     0.341 C 
ATOM      7  O   UNL A   1      36.449  24.473  25.996  1.00  0.00    -0.246 OA
BRANCH   6   8
ATOM      8  C   UNL A   1      34.106  24.360  25.739  1.00  0.00     0.098 A 
ATOM      9  C   UNL A   1      33.108  23.435  26.012  1.00  0.00     0.112 A 
ATOM     10  S   UNL A   1      31.860  24.155  26.926  1.00  0.00    -0.122 S 
ATOM     11  C   UNL A   1      32.261  25.699  26.331  1.00  0.00     0.007 A 
ATOM     12  C   UNL A   1      33.519  25.701  25.751  1.00  0.00    -0.021 A 
ATOM     13  C   UNL A   1      31.294  26.825  26.486  1.00  0.00     0.057 C 
ATOM     14  C   UNL A   1      34.173  26.909  25.151  1.00  0.00     0.046 C 
BRANCH   9  15
ATOM     15  N   UNL A   1      33.073  22.075  25.761  1.00  0.00    -0.298 N 
ATOM     16  N   UNL A   1      31.762  21.840  23.760  1.00  0.00    -0.308 N 
ATOM     17  C   UNL A   1      32.289  21.358  24.916  1.00  0.00     0.324 C 
ATOM     18  H   UNL A   1      30.947  21.366  23.478  1.00  0.00     0.171 HD
ATOM     19  O   UNL A   1      32.059  20.176  25.198  1.00  0.00    -0.248 OA
ATOM     20  H   UNL A   1      33.719  21.543  26.278  1.00  0.00     0.172 HD
BRANCH  16  21
ATOM     21  C   UNL A   1      32.135  22.878  22.877  1.00  0.00     0.046 A 
ATOM     22  C   UNL A   1      31.308  26.545  22.381  1.00  0.00     0.067 C 
ATOM     23  C   UNL A   1      31.920  25.187  22.223  1.00  0.00     0.039 A 
ATOM     24  C   UNL A   1      31.507  24.118  23.020  1.00  0.00     0.049 A 
ATOM     25  N   UNL A   1      32.921  25.075  21.323  1.00  0.00    -0.261 NA
ATOM     26  C   UNL A   1      33.480  23.861  21.177  1.00  0.00     0.113 A 
ATOM     27  C   UNL A   1      33.092  22.736  21.884  1.00  0.00     0.046 A 
ENDBRANCH  16  21
ENDBRANCH   9  15
ENDBRANCH   6   8
ENDBRANCH   5   6
ENDBRANCH   4   5
ENDBRANCH   3   4
ENDBRANCH   2   3
ENDBRANCH   1   2
BRANCH   1  28
ATOM     28  C   UNL A   1      40.678  21.457  26.903  1.00  0.00     0.188 C 
BRANCH  28  29
ATOM     29  O   UNL A   1      41.544  21.082  25.838  1.00  0.00    -0.376 OA
BRANCH  29  30
ATOM     30  C   UNL A   1      42.924  20.989  26.174  1.00  0.00     0.202 C 
BRANCH  30  31
ATOM     31  C   UNL A   1      43.782  21.837  25.230  1.00  0.00     0.261 C 
BRANCH  31  32
ATOM     32  O   UNL A   1      43.198  23.110  24.907  1.00  0.00    -0.460 OA
BRANCH  32  33
ATOM     33  C   UNL A   1      43.986  24.189  25.110  1.00  0.00     0.338 C 
ATOM     34  O   UNL A   1      45.015  24.468  24.522  1.00  0.00    -0.246 OA
BRANCH  33  35
ATOM     35  C   UNL A   1      43.303  25.094  26.053  1.00  0.00     0.060 A 
ATOM     36  C   UNL A   1      43.760  26.412  26.144  1.00  0.00     0.016 A 
ATOM     37  C   UNL A   1      42.250  24.651  26.856  1.00  0.00     0.016 A 
ATOM     38  C   UNL A   1      43.174  27.295  27.051  1.00  0.00     0.010 A 
ATOM     39  C   UNL A   1      41.681  25.527  27.784  1.00  0.00     0.010 A 
ATOM     40  C   UNL A   1      42.154  26.845  27.901  1.00  0.00    -0.014 A 
BRANCH  40  41
ATOM     41  C   UNL A   1      41.695  27.693  29.024  1.00  0.00     0.031 A 
ATOM     42  C   UNL A   1      42.410  27.592  30.343  1.00  0.00     0.074 A 
ATOM     43  C   UNL A   1      40.658  28.536  28.882  1.00  0.00     0.049 A 
ATOM     44  N   UNL A   1      42.155  28.199  31.474  1.00  0.00    -0.248 NA
ATOM     45  C   UNL A   1      43.567  26.683  30.390  1.00  0.00     0.031 C 
ATOM     46  C   UNL A   1      39.902  28.751  27.651  1.00  0.00     0.029 A 
ATOM     47  N   UNL A   1      40.057  29.361  29.799  1.00  0.00    -0.354 N 
ATOM     48  C   UNL A   1      43.122  27.753  32.364  1.00  0.00     0.074 A 
ATOM     49  C   UNL A   1      43.950  26.803  31.652  1.00  0.00     0.031 C 
ATOM     50  C   UNL A   1      38.925  29.644  27.893  1.00  0.00     0.029 A 
ATOM     51  C   UNL A   1      38.973  30.040  29.300  1.00  0.00     0.049 A 
ATOM     52  H   UNL A   1      40.373  29.457  30.727  1.00  0.00     0.167 HD
ATOM     53  C   UNL A   1      43.308  28.105  33.658  1.00  0.00     0.037 A 
ATOM     54  C   UNL A   1      38.111  30.869  29.917  1.00  0.00     0.037 A 
ATOM     55  C   UNL A   1      42.478  29.030  34.379  1.00  0.00     0.049 A 
ATOM     56  C   UNL A   1      38.283  31.175  31.381  1.00  0.00     0.074 A 
ATOM     57  C   UNL A   1      42.595  29.454  35.691  1.00  0.00     0.029 A 
ATOM     58  N   UNL A   1      41.366  29.665  33.849  1.00  0.00    -0.354 N 
ATOM     59  N   UNL A   1      39.216  30.768  32.208  1.00  0.00    -0.248 NA
ATOM     60  C   UNL A   1      37.276  32.052  31.999  1.00  0.00     0.031 C 
ATOM     61  C   UNL A   1      41.529  30.319  35.967  1.00  0.00     0.029 A 
ATOM     62  C   UNL A   1      40.772  30.460  34.815  1.00  0.00     0.049 A 
ATOM     63  H   UNL A   1      41.045  29.566  32.924  1.00  0.00     0.167 HD
ATOM     64  C   UNL A   1      38.924  31.359  33.432  1.00  0.00     0.074 A 
ATOM     65  C   UNL A   1      37.731  32.156  33.240  1.00  0.00     0.031 C 
ATOM     66  C   UNL A   1      39.588  31.253  34.609  1.00  0.00     0.037 A 
BRANCH  53  67
ATOM     67  C   UNL A   1      44.452  27.460  34.378  1.00  0.00     0.057 A 
ATOM     68  C   UNL A   1      45.763  27.939  34.250  1.00  0.00     0.134 A 
ATOM     69  C   UNL A   1      44.242  26.356  35.213  1.00  0.00     0.134 A 
ATOM     70  F   UNL A   1      46.030  28.983  33.451  1.00  0.00    -0.206 F 
ATOM     71  C   UNL A   1      46.827  27.329  34.913  1.00  0.00     0.040 A 
ATOM     72  C   UNL A   1      45.297  25.750  35.896  1.00  0.00     0.040 A 
ATOM     73  F   UNL A   1      43.010  25.851  35.375  1.00  0.00    -0.206 F 
ATOM     74  C   UNL A   1      46.595  26.233  35.742  1.00  0.00     0.006 A 
ENDBRANCH  53  67
BRANCH  54  75
ATOM     75  C   UNL A   1      36.987  31.469  29.159  1.00  0.00     0.057 A 
ATOM     76  C   UNL A   1      37.021  32.810  28.759  1.00  0.00     0.134 A 
ATOM     77  C   UNL A   1      35.843  30.728  28.843  1.00  0.00     0.134 A 
ATOM     78  F   UNL A   1      38.081  33.576  29.059  1.00  0.00    -0.206 F 
ATOM     79  C   UNL A   1      35.950  33.398  28.083  1.00  0.00     0.040 A 
ATOM     80  C   UNL A   1      34.773  31.298  28.150  1.00  0.00     0.040 A 
ATOM     81  F   UNL A   1      35.750  29.441  29.204  1.00  0.00    -0.206 F 
ATOM     82  C   UNL A   1      34.824  32.639  27.774  1.00  0.00     0.006 A 
ENDBRANCH  54  75
BRANCH  66  83
ATOM     83  C   UNL A   1      39.061  32.038  35.772  1.00  0.00     0.057 A 
ATOM     84  C   UNL A   1      38.203  31.465  36.720  1.00  0.00     0.134 A 
ATOM     85  C   UNL A   1      39.451  33.368  35.971  1.00  0.00     0.134 A 
ATOM     86  F   UNL A   1      37.783  30.200  36.579  1.00  0.00    -0.206 F 
ATOM     87  C   UNL A   1      37.741  32.194  37.817  1.00  0.00     0.040 A 
ATOM     88  C   UNL A   1      39.012  34.100  37.074  1.00  0.00     0.040 A 
ATOM     89  F   UNL A   1      40.275  33.973  35.102  1.00  0.00    -0.206 F 
ATOM     90  C   UNL A   1      38.151  33.514  38.000  1.00  0.00     0.006 A 
ENDBRANCH  66  83
ENDBRANCH  40  41
ENDBRANCH  33  35
ENDBRANCH  32  33
ENDBRANCH  31  32
ENDBRANCH  30  31
ENDBRANCH  29  30
ENDBRANCH  28  29
ENDBRANCH   1  28
TORSDOF 19
ENDMDL
