MODEL 1
REMARK VINA RESULT:     -10.3      0.000      0.000
REMARK SMILES CS(=O)(=O)c1ccc(/C=C(/C(=O)OCCOCCOCCOC(=O)c2ccc(-c3c4nc(c(-c5c(F)cccc5F)c5ccc([nH]5)c(-c5c(F)cccc5F)c5nc(c(-c6c(F)cccc6F)c6ccc3[nH]6)C=C5)C=C4)cc2)c2ccc(F)cc2)cc1
REMARK SMILES IDX 17 1 16 2 15 3 14 4 13 5 11 6 12 7 10 8 9 9 8 10 5 11 6 12
REMARK SMILES IDX 87 13 7 14 86 15 2 16 1 17 3 18 4 19 79 20 80 21 85 22 81 23
REMARK SMILES IDX 84 24 82 25 83 26 18 27 19 28 20 29 21 30 22 31 23 32 24 33
REMARK SMILES IDX 25 34 26 35 78 36 27 37 77 38 28 39 29 40 30 41 71 42 31 43
REMARK SMILES IDX 76 44 70 45 72 46 32 47 75 48 69 49 68 50 33 52 59 53 42 54
REMARK SMILES IDX 58 55 43 56 46 57 57 58 73 59 44 60 45 61 56 63 74 64 47 65
REMARK SMILES IDX 34 66 35 67 40 68 36 69 37 70 39 71 41 72 38 73 60 74 61 75
REMARK SMILES IDX 66 76 62 77 63 78 65 79 67 80 64 81 48 82 49 83 54 84 50 85
REMARK SMILES IDX 51 86 53 87 55 88 52 89
REMARK H PARENT 72 51 46 62
REMARK Flexibility Score: inf
ROOT
ATOM      1  C   UNL A   1      34.752  33.645  29.420  1.00  0.00     0.188 C 
ENDROOT
BRANCH   1   2
ATOM      2  O   UNL A   1      34.047  32.832  28.515  1.00  0.00    -0.376 OA
BRANCH   2   3
ATOM      3  C   UNL A   1      34.743  31.873  27.740  1.00  0.00     0.202 C 
BRANCH   3   4
ATOM      4  C   UNL A   1      34.530  30.351  27.859  1.00  0.00     0.261 C 
BRANCH   4   5
ATOM      5  O   UNL A   1      34.115  29.639  26.687  1.00  0.00    -0.460 OA
BRANCH   5   6
ATOM      6  C   UNL A   1      32.824  29.227  26.640  1.00  0.00     0.338 C 
ATOM      7  O   UNL A   1      31.856  29.893  26.971  1.00  0.00    -0.246 OA
BRANCH   6   8
ATOM      8  C   UNL A   1      32.717  27.871  26.003  1.00  0.00     0.067 C 
ATOM      9  C   UNL A   1      33.782  27.032  26.014  1.00  0.00     0.024 C 
BRANCH   9  10
ATOM     10  C   UNL A   1      33.822  25.608  25.599  1.00  0.00    -0.025 A 
ATOM     11  C   UNL A   1      33.459  22.916  24.888  1.00  0.00     0.067 A 
ATOM     12  C   UNL A   1      33.816  23.845  23.913  1.00  0.00     0.021 A 
ATOM     13  C   UNL A   1      33.404  23.288  26.230  1.00  0.00     0.021 A 
ATOM     14  C   UNL A   1      34.026  25.177  24.280  1.00  0.00     0.009 A 
ATOM     15  C   UNL A   1      33.585  24.631  26.580  1.00  0.00     0.009 A 
BRANCH  11  16
ATOM     16  S   UNL A   1      33.025  21.266  24.396  1.00  0.00     0.175 S 
ATOM     17  C   UNL A   1      32.308  21.486  22.783  1.00  0.00     0.163 C 
ATOM     18  O   UNL A   1      31.978  20.801  25.278  1.00  0.00    -0.224 OA
ATOM     19  O   UNL A   1      34.267  20.526  24.248  1.00  0.00    -0.224 OA
ENDBRANCH  11  16
ENDBRANCH   9  10
BRANCH   8  20
ATOM     20  C   UNL A   1      31.413  27.494  25.423  1.00  0.00    -0.011 A 
ATOM     21  C   UNL A   1      31.020  28.049  24.191  1.00  0.00     0.012 A 
ATOM     22  C   UNL A   1      30.616  26.511  26.022  1.00  0.00     0.012 A 
ATOM     23  C   UNL A   1      29.870  27.594  23.548  1.00  0.00     0.040 A 
ATOM     24  C   UNL A   1      29.466  26.056  25.374  1.00  0.00     0.040 A 
ATOM     25  C   UNL A   1      29.111  26.593  24.141  1.00  0.00     0.123 A 
ATOM     26  F   UNL A   1      28.032  26.122  23.504  1.00  0.00    -0.207 F 
ENDBRANCH   8  20
ENDBRANCH   6   8
ENDBRANCH   5   6
ENDBRANCH   4   5
ENDBRANCH   3   4
ENDBRANCH   2   3
ENDBRANCH   1   2
BRANCH   1  27
ATOM     27  C   UNL A   1      33.847  34.593  30.238  1.00  0.00     0.188 C 
BRANCH  27  28
ATOM     28  O   UNL A   1      33.737  34.423  31.644  1.00  0.00    -0.376 OA
BRANCH  28  29
ATOM     29  C   UNL A   1      34.033  33.152  32.213  1.00  0.00     0.202 C 
BRANCH  29  30
ATOM     30  C   UNL A   1      35.058  33.059  33.352  1.00  0.00     0.261 C 
BRANCH  30  31
ATOM     31  O   UNL A   1      35.894  31.889  33.316  1.00  0.00    -0.460 OA
BRANCH  31  32
ATOM     32  C   UNL A   1      37.191  32.090  33.644  1.00  0.00     0.338 C 
ATOM     33  O   UNL A   1      37.635  32.591  34.668  1.00  0.00    -0.246 OA
BRANCH  32  34
ATOM     34  C   UNL A   1      38.060  31.457  32.639  1.00  0.00     0.060 A 
ATOM     35  C   UNL A   1      39.141  30.680  33.080  1.00  0.00     0.016 A 
ATOM     36  C   UNL A   1      37.863  31.695  31.280  1.00  0.00     0.016 A 
ATOM     37  C   UNL A   1      40.042  30.146  32.159  1.00  0.00     0.010 A 
ATOM     38  C   UNL A   1      38.783  31.184  30.360  1.00  0.00     0.010 A 
ATOM     39  C   UNL A   1      39.887  30.430  30.798  1.00  0.00    -0.014 A 
BRANCH  39  40
ATOM     40  C   UNL A   1      40.974  30.116  29.843  1.00  0.00     0.031 A 
ATOM     41  C   UNL A   1      41.022  28.736  29.249  1.00  0.00     0.074 A 
ATOM     42  C   UNL A   1      41.910  31.025  29.523  1.00  0.00     0.049 A 
ATOM     43  N   UNL A   1      41.959  28.172  28.533  1.00  0.00    -0.248 NA
ATOM     44  C   UNL A   1      39.851  27.881  29.500  1.00  0.00     0.031 C 
ATOM     45  C   UNL A   1      41.928  32.417  29.969  1.00  0.00     0.029 A 
ATOM     46  N   UNL A   1      43.043  30.898  28.760  1.00  0.00    -0.354 N 
ATOM     47  C   UNL A   1      41.500  26.888  28.264  1.00  0.00     0.074 A 
ATOM     48  C   UNL A   1      40.206  26.756  28.897  1.00  0.00     0.031 C 
ATOM     49  C   UNL A   1      43.038  33.009  29.495  1.00  0.00     0.029 A 
ATOM     50  C   UNL A   1      43.829  32.025  28.756  1.00  0.00     0.049 A 
ATOM     51  H   UNL A   1      43.272  30.079  28.264  1.00  0.00     0.167 HD
ATOM     52  C   UNL A   1      42.109  25.906  27.560  1.00  0.00     0.037 A 
ATOM     53  C   UNL A   1      45.063  32.219  28.253  1.00  0.00     0.037 A 
ATOM     54  C   UNL A   1      43.402  26.039  26.947  1.00  0.00     0.049 A 
ATOM     55  C   UNL A   1      45.768  31.079  27.561  1.00  0.00     0.074 A 
ATOM     56  C   UNL A   1      44.119  25.095  26.231  1.00  0.00     0.029 A 
ATOM     57  N   UNL A   1      44.176  27.188  26.983  1.00  0.00    -0.354 N 
ATOM     58  N   UNL A   1      45.341  29.862  27.327  1.00  0.00    -0.248 NA
ATOM     59  C   UNL A   1      47.131  31.339  27.070  1.00  0.00     0.031 C 
ATOM     60  C   UNL A   1      45.346  25.662  25.872  1.00  0.00     0.029 A 
ATOM     61  C   UNL A   1      45.371  26.974  26.318  1.00  0.00     0.049 A 
ATOM     62  H   UNL A   1      43.915  28.031  27.419  1.00  0.00     0.167 HD
ATOM     63  C   UNL A   1      46.363  29.225  26.631  1.00  0.00     0.074 A 
ATOM     64  C   UNL A   1      47.432  30.190  26.481  1.00  0.00     0.031 C 
ATOM     65  C   UNL A   1      46.411  27.957  26.154  1.00  0.00     0.037 A 
BRANCH  52  66
ATOM     66  C   UNL A   1      41.399  24.589  27.464  1.00  0.00     0.057 A 
ATOM     67  C   UNL A   1      41.756  23.495  28.263  1.00  0.00     0.134 A 
ATOM     68  C   UNL A   1      40.339  24.418  26.566  1.00  0.00     0.134 A 
ATOM     69  F   UNL A   1      42.777  23.588  29.129  1.00  0.00    -0.206 F 
ATOM     70  C   UNL A   1      41.096  22.269  28.155  1.00  0.00     0.040 A 
ATOM     71  C   UNL A   1      39.655  23.205  26.467  1.00  0.00     0.040 A 
ATOM     72  F   UNL A   1      39.948  25.426  25.773  1.00  0.00    -0.206 F 
ATOM     73  C   UNL A   1      40.038  22.124  27.258  1.00  0.00     0.006 A 
ENDBRANCH  52  66
BRANCH  53  74
ATOM     74  C   UNL A   1      45.741  33.531  28.417  1.00  0.00     0.057 A 
ATOM     75  C   UNL A   1      45.569  34.558  27.483  1.00  0.00     0.134 A 
ATOM     76  C   UNL A   1      46.606  33.776  29.492  1.00  0.00     0.134 A 
ATOM     77  F   UNL A   1      44.776  34.374  26.417  1.00  0.00    -0.206 F 
ATOM     78  C   UNL A   1      46.244  35.774  27.599  1.00  0.00     0.040 A 
ATOM     79  C   UNL A   1      47.268  34.997  29.634  1.00  0.00     0.040 A 
ATOM     80  F   UNL A   1      46.817  32.832  30.420  1.00  0.00    -0.206 F 
ATOM     81  C   UNL A   1      47.094  35.998  28.681  1.00  0.00     0.006 A 
ENDBRANCH  53  74
BRANCH  65  82
ATOM     82  C   UNL A   1      47.622  27.552  25.367  1.00  0.00     0.057 A 
ATOM     83  C   UNL A   1      48.749  26.985  25.972  1.00  0.00     0.134 A 
ATOM     84  C   UNL A   1      47.626  27.669  23.970  1.00  0.00     0.134 A 
ATOM     85  F   UNL A   1      48.813  26.855  27.305  1.00  0.00    -0.206 F 
ATOM     86  C   UNL A   1      49.842  26.556  25.217  1.00  0.00     0.040 A 
ATOM     87  C   UNL A   1      48.702  27.222  23.203  1.00  0.00     0.040 A 
ATOM     88  F   UNL A   1      46.573  28.196  23.327  1.00  0.00    -0.206 F 
ATOM     89  C   UNL A   1      49.816  26.665  23.827  1.00  0.00     0.006 A 
ENDBRANCH  65  82
ENDBRANCH  39  40
ENDBRANCH  32  34
ENDBRANCH  31  32
ENDBRANCH  30  31
ENDBRANCH  29  30
ENDBRANCH  28  29
ENDBRANCH  27  28
ENDBRANCH   1  27
TORSDOF 20
ENDMDL
MODEL 2
REMARK VINA RESULT:     -10.0      1.223      6.113
REMARK SMILES CS(=O)(=O)c1ccc(/C=C(/C(=O)OCCOCCOCCOC(=O)c2ccc(-c3c4nc(c(-c5c(F)cccc5F)c5ccc([nH]5)c(-c5c(F)cccc5F)c5nc(c(-c6c(F)cccc6F)c6ccc3[nH]6)C=C5)C=C4)cc2)c2ccc(F)cc2)cc1
REMARK SMILES IDX 17 1 16 2 15 3 14 4 13 5 11 6 12 7 10 8 9 9 8 10 5 11 6 12
REMARK SMILES IDX 87 13 7 14 86 15 2 16 1 17 3 18 4 19 79 20 80 21 85 22 81 23
REMARK SMILES IDX 84 24 82 25 83 26 18 27 19 28 20 29 21 30 22 31 23 32 24 33
REMARK SMILES IDX 25 34 26 35 78 36 27 37 77 38 28 39 29 40 30 41 71 42 31 43
REMARK SMILES IDX 76 44 70 45 72 46 32 47 75 48 69 49 68 50 33 52 59 53 42 54
REMARK SMILES IDX 58 55 43 56 46 57 57 58 73 59 44 60 45 61 56 63 74 64 47 65
REMARK SMILES IDX 34 66 35 67 40 68 36 69 37 70 39 71 41 72 38 73 60 74 61 75
REMARK SMILES IDX 66 76 62 77 63 78 65 79 67 80 64 81 48 82 49 83 54 84 50 85
REMARK SMILES IDX 51 86 53 87 55 88 52 89
REMARK H PARENT 72 51 46 62
REMARK Flexibility Score: inf
ROOT
ATOM      1  C   UNL A   1      34.477  33.668  28.593  1.00  0.00     0.188 C 
ENDROOT
BRANCH   1   2
ATOM      2  O   UNL A   1      34.374  32.276  28.774  1.00  0.00    -0.376 OA
BRANCH   2   3
ATOM      3  C   UNL A   1      34.438  31.415  27.653  1.00  0.00     0.202 C 
BRANCH   3   4
ATOM      4  C   UNL A   1      33.288  30.485  27.216  1.00  0.00     0.261 C 
BRANCH   4   5
ATOM      5  O   UNL A   1      33.371  29.883  25.919  1.00  0.00    -0.460 OA
BRANCH   5   6
ATOM      6  C   UNL A   1      32.309  29.143  25.513  1.00  0.00     0.338 C 
ATOM      7  O   UNL A   1      31.178  29.566  25.334  1.00  0.00    -0.246 OA
BRANCH   6   8
ATOM      8  C   UNL A   1      32.728  27.738  25.184  1.00  0.00     0.067 C 
ATOM      9  C   UNL A   1      33.207  26.929  26.162  1.00  0.00     0.024 C 
BRANCH   9  10
ATOM     10  C   UNL A   1      33.504  25.478  26.075  1.00  0.00    -0.025 A 
ATOM     11  C   UNL A   1      33.741  22.718  25.611  1.00  0.00     0.067 A 
ATOM     12  C   UNL A   1      34.765  23.575  25.215  1.00  0.00     0.021 A 
ATOM     13  C   UNL A   1      32.660  23.204  26.346  1.00  0.00     0.021 A 
ATOM     14  C   UNL A   1      34.655  24.944  25.477  1.00  0.00     0.009 A 
ATOM     15  C   UNL A   1      32.547  24.580  26.575  1.00  0.00     0.009 A 
BRANCH  11  16
ATOM     16  S   UNL A   1      33.800  21.012  25.125  1.00  0.00     0.175 S 
ATOM     17  C   UNL A   1      35.542  20.656  25.060  1.00  0.00     0.163 C 
ATOM     18  O   UNL A   1      33.285  20.916  23.777  1.00  0.00    -0.224 OA
ATOM     19  O   UNL A   1      33.216  20.240  26.210  1.00  0.00    -0.224 OA
ENDBRANCH  11  16
ENDBRANCH   9  10
BRANCH   8  20
ATOM     20  C   UNL A   1      32.551  27.285  23.792  1.00  0.00    -0.011 A 
ATOM     21  C   UNL A   1      33.614  27.424  22.880  1.00  0.00     0.012 A 
ATOM     22  C   UNL A   1      31.386  26.617  23.394  1.00  0.00     0.012 A 
ATOM     23  C   UNL A   1      33.529  26.865  21.606  1.00  0.00     0.040 A 
ATOM     24  C   UNL A   1      31.305  26.057  22.118  1.00  0.00     0.040 A 
ATOM     25  C   UNL A   1      32.379  26.176  21.242  1.00  0.00     0.123 A 
ATOM     26  F   UNL A   1      32.313  25.599  20.036  1.00  0.00    -0.207 F 
ENDBRANCH   8  20
ENDBRANCH   6   8
ENDBRANCH   5   6
ENDBRANCH   4   5
ENDBRANCH   3   4
ENDBRANCH   2   3
ENDBRANCH   1   2
BRANCH   1  27
ATOM     27  C   UNL A   1      33.550  34.484  29.521  1.00  0.00     0.188 C 
BRANCH  27  28
ATOM     28  O   UNL A   1      34.083  35.102  30.684  1.00  0.00    -0.376 OA
BRANCH  28  29
ATOM     29  C   UNL A   1      34.149  34.358  31.895  1.00  0.00     0.202 C 
BRANCH  29  30
ATOM     30  C   UNL A   1      34.702  32.926  31.867  1.00  0.00     0.261 C 
BRANCH  30  31
ATOM     31  O   UNL A   1      35.697  32.645  32.867  1.00  0.00    -0.460 OA
BRANCH  31  32
ATOM     32  C   UNL A   1      36.889  33.261  32.691  1.00  0.00     0.338 C 
ATOM     33  O   UNL A   1      37.247  34.341  33.141  1.00  0.00    -0.246 OA
BRANCH  32  34
ATOM     34  C   UNL A   1      37.814  32.357  31.988  1.00  0.00     0.060 A 
ATOM     35  C   UNL A   1      38.611  31.488  32.747  1.00  0.00     0.016 A 
ATOM     36  C   UNL A   1      37.956  32.425  30.603  1.00  0.00     0.016 A 
ATOM     37  C   UNL A   1      39.567  30.689  32.122  1.00  0.00     0.010 A 
ATOM     38  C   UNL A   1      38.935  31.646  29.981  1.00  0.00     0.010 A 
ATOM     39  C   UNL A   1      39.759  30.795  30.740  1.00  0.00    -0.014 A 
BRANCH  39  40
ATOM     40  C   UNL A   1      40.944  30.175  30.102  1.00  0.00     0.031 A 
ATOM     41  C   UNL A   1      42.158  31.030  29.877  1.00  0.00     0.074 A 
ATOM     42  C   UNL A   1      40.936  28.890  29.714  1.00  0.00     0.049 A 
ATOM     43  N   UNL A   1      43.242  30.770  29.193  1.00  0.00    -0.248 NA
ATOM     44  C   UNL A   1      42.145  32.358  30.512  1.00  0.00     0.031 C 
ATOM     45  C   UNL A   1      39.852  27.939  29.947  1.00  0.00     0.029 A 
ATOM     46  N   UNL A   1      41.874  28.171  29.016  1.00  0.00    -0.354 N 
ATOM     47  C   UNL A   1      44.031  31.909  29.298  1.00  0.00     0.074 A 
ATOM     48  C   UNL A   1      43.301  32.861  30.107  1.00  0.00     0.031 C 
ATOM     49  C   UNL A   1      40.173  26.765  29.374  1.00  0.00     0.029 A 
ATOM     50  C   UNL A   1      41.461  26.901  28.694  1.00  0.00     0.049 A 
ATOM     51  H   UNL A   1      42.757  28.530  28.769  1.00  0.00     0.167 HD
ATOM     52  C   UNL A   1      45.251  32.141  28.760  1.00  0.00     0.037 A 
ATOM     53  C   UNL A   1      42.039  25.976  27.902  1.00  0.00     0.037 A 
ATOM     54  C   UNL A   1      45.964  31.197  27.944  1.00  0.00     0.049 A 
ATOM     55  C   UNL A   1      43.350  26.294  27.228  1.00  0.00     0.074 A 
ATOM     56  C   UNL A   1      47.196  31.343  27.331  1.00  0.00     0.029 A 
ATOM     57  N   UNL A   1      45.503  29.930  27.622  1.00  0.00    -0.354 N 
ATOM     58  N   UNL A   1      44.083  27.378  27.313  1.00  0.00    -0.248 NA
ATOM     59  C   UNL A   1      43.910  25.262  26.342  1.00  0.00     0.031 C 
ATOM     60  C   UNL A   1      47.460  30.179  26.602  1.00  0.00     0.029 A 
ATOM     61  C   UNL A   1      46.417  29.288  26.805  1.00  0.00     0.049 A 
ATOM     62  H   UNL A   1      44.651  29.544  27.930  1.00  0.00     0.167 HD
ATOM     63  C   UNL A   1      45.204  27.144  26.525  1.00  0.00     0.074 A 
ATOM     64  C   UNL A   1      45.055  25.815  25.969  1.00  0.00     0.031 C 
ATOM     65  C   UNL A   1      46.265  27.954  26.285  1.00  0.00     0.037 A 
BRANCH  52  66
ATOM     66  C   UNL A   1      45.861  33.490  28.999  1.00  0.00     0.057 A 
ATOM     67  C   UNL A   1      46.729  33.731  30.072  1.00  0.00     0.134 A 
ATOM     68  C   UNL A   1      45.583  34.557  28.137  1.00  0.00     0.134 A 
ATOM     69  F   UNL A   1      47.020  32.754  30.945  1.00  0.00    -0.206 F 
ATOM     70  C   UNL A   1      47.280  34.995  30.292  1.00  0.00     0.040 A 
ATOM     71  C   UNL A   1      46.148  35.819  28.332  1.00  0.00     0.040 A 
ATOM     72  F   UNL A   1      44.759  34.392  27.091  1.00  0.00    -0.206 F 
ATOM     73  C   UNL A   1      46.994  36.042  29.416  1.00  0.00     0.006 A 
ENDBRANCH  52  66
BRANCH  53  74
ATOM     74  C   UNL A   1      41.367  24.673  27.661  1.00  0.00     0.057 A 
ATOM     75  C   UNL A   1      40.310  24.559  26.753  1.00  0.00     0.134 A 
ATOM     76  C   UNL A   1      41.743  23.519  28.360  1.00  0.00     0.134 A 
ATOM     77  F   UNL A   1      39.885  25.635  26.074  1.00  0.00    -0.206 F 
ATOM     78  C   UNL A   1      39.637  23.351  26.560  1.00  0.00     0.040 A 
ATOM     79  C   UNL A   1      41.095  22.298  28.159  1.00  0.00     0.040 A 
ATOM     80  F   UNL A   1      42.746  23.560  29.248  1.00  0.00    -0.206 F 
ATOM     81  C   UNL A   1      40.033  22.215  27.262  1.00  0.00     0.006 A 
ENDBRANCH  53  74
BRANCH  65  82
ATOM     82  C   UNL A   1      47.383  27.410  25.445  1.00  0.00     0.057 A 
ATOM     83  C   UNL A   1      47.468  27.657  24.070  1.00  0.00     0.134 A 
ATOM     84  C   UNL A   1      48.426  26.690  26.040  1.00  0.00     0.134 A 
ATOM     85  F   UNL A   1      46.496  28.331  23.437  1.00  0.00    -0.206 F 
ATOM     86  C   UNL A   1      48.548  27.197  23.314  1.00  0.00     0.040 A 
ATOM     87  C   UNL A   1      49.522  26.246  25.300  1.00  0.00     0.040 A 
ATOM     88  F   UNL A   1      48.410  26.428  27.356  1.00  0.00    -0.206 F 
ATOM     89  C   UNL A   1      49.585  26.497  23.932  1.00  0.00     0.006 A 
ENDBRANCH  65  82
ENDBRANCH  39  40
ENDBRANCH  32  34
ENDBRANCH  31  32
ENDBRANCH  30  31
ENDBRANCH  29  30
ENDBRANCH  28  29
ENDBRANCH  27  28
ENDBRANCH   1  27
TORSDOF 20
ENDMDL
MODEL 3
REMARK VINA RESULT:      -9.8      4.689      9.205
REMARK SMILES CS(=O)(=O)c1ccc(/C=C(/C(=O)OCCOCCOCCOC(=O)c2ccc(-c3c4nc(c(-c5c(F)cccc5F)c5ccc([nH]5)c(-c5c(F)cccc5F)c5nc(c(-c6c(F)cccc6F)c6ccc3[nH]6)C=C5)C=C4)cc2)c2ccc(F)cc2)cc1
REMARK SMILES IDX 17 1 16 2 15 3 14 4 13 5 11 6 12 7 10 8 9 9 8 10 5 11 6 12
REMARK SMILES IDX 87 13 7 14 86 15 2 16 1 17 3 18 4 19 79 20 80 21 85 22 81 23
REMARK SMILES IDX 84 24 82 25 83 26 18 27 19 28 20 29 21 30 22 31 23 32 24 33
REMARK SMILES IDX 25 34 26 35 78 36 27 37 77 38 28 39 29 40 30 41 71 42 31 43
REMARK SMILES IDX 76 44 70 45 72 46 32 47 75 48 69 49 68 50 33 52 59 53 42 54
REMARK SMILES IDX 58 55 43 56 46 57 57 58 73 59 44 60 45 61 56 63 74 64 47 65
REMARK SMILES IDX 34 66 35 67 40 68 36 69 37 70 39 71 41 72 38 73 60 74 61 75
REMARK SMILES IDX 66 76 62 77 63 78 65 79 67 80 64 81 48 82 49 83 54 84 50 85
REMARK SMILES IDX 51 86 53 87 55 88 52 89
REMARK H PARENT 72 51 46 62
REMARK Flexibility Score: inf
ROOT
ATOM      1  C   UNL A   1      33.426  35.835  31.002  1.00  0.00     0.188 C 
ENDROOT
BRANCH   1   2
ATOM      2  O   UNL A   1      33.374  34.654  31.764  1.00  0.00    -0.376 OA
BRANCH   2   3
ATOM      3  C   UNL A   1      34.563  34.119  32.316  1.00  0.00     0.202 C 
BRANCH   3   4
ATOM      4  C   UNL A   1      35.151  34.552  33.674  1.00  0.00     0.261 C 
BRANCH   4   5
ATOM      5  O   UNL A   1      36.572  34.485  33.840  1.00  0.00    -0.460 OA
BRANCH   5   6
ATOM      6  C   UNL A   1      37.040  33.719  34.856  1.00  0.00     0.338 C 
ATOM      7  O   UNL A   1      36.522  33.610  35.956  1.00  0.00    -0.246 OA
BRANCH   6   8
ATOM      8  C   UNL A   1      38.226  32.910  34.417  1.00  0.00     0.067 C 
ATOM      9  C   UNL A   1      38.642  31.857  35.164  1.00  0.00     0.024 C 
BRANCH   9  10
ATOM     10  C   UNL A   1      39.669  30.844  34.815  1.00  0.00    -0.025 A 
ATOM     11  C   UNL A   1      41.516  28.745  34.551  1.00  0.00     0.067 A 
ATOM     12  C   UNL A   1      40.396  28.787  33.724  1.00  0.00     0.021 A 
ATOM     13  C   UNL A   1      41.791  29.801  35.419  1.00  0.00     0.021 A 
ATOM     14  C   UNL A   1      39.497  29.851  33.839  1.00  0.00     0.009 A 
ATOM     15  C   UNL A   1      40.867  30.845  35.548  1.00  0.00     0.009 A 
BRANCH  11  16
ATOM     16  S   UNL A   1      42.561  27.311  34.524  1.00  0.00     0.175 S 
ATOM     17  C   UNL A   1      43.713  27.608  35.846  1.00  0.00     0.163 C 
ATOM     18  O   UNL A   1      43.306  27.328  33.285  1.00  0.00    -0.224 OA
ATOM     19  O   UNL A   1      41.731  26.173  34.887  1.00  0.00    -0.224 OA
ENDBRANCH  11  16
ENDBRANCH   9  10
BRANCH   8  20
ATOM     20  C   UNL A   1      38.866  33.281  33.140  1.00  0.00    -0.011 A 
ATOM     21  C   UNL A   1      38.281  32.866  31.929  1.00  0.00     0.012 A 
ATOM     22  C   UNL A   1      39.979  34.131  33.112  1.00  0.00     0.012 A 
ATOM     23  C   UNL A   1      38.776  33.332  30.712  1.00  0.00     0.040 A 
ATOM     24  C   UNL A   1      40.470  34.596  31.891  1.00  0.00     0.040 A 
ATOM     25  C   UNL A   1      39.858  34.202  30.706  1.00  0.00     0.123 A 
ATOM     26  F   UNL A   1      40.305  34.687  29.541  1.00  0.00    -0.207 F 
ENDBRANCH   8  20
ENDBRANCH   6   8
ENDBRANCH   5   6
ENDBRANCH   4   5
ENDBRANCH   3   4
ENDBRANCH   2   3
ENDBRANCH   1   2
BRANCH   1  27
ATOM     27  C   UNL A   1      33.051  35.633  29.517  1.00  0.00     0.188 C 
BRANCH  27  28
ATOM     28  O   UNL A   1      34.025  35.146  28.604  1.00  0.00    -0.376 OA
BRANCH  28  29
ATOM     29  C   UNL A   1      34.123  33.744  28.379  1.00  0.00     0.202 C 
BRANCH  29  30
ATOM     30  C   UNL A   1      35.510  33.104  28.229  1.00  0.00     0.261 C 
BRANCH  30  31
ATOM     31  O   UNL A   1      35.523  31.668  28.318  1.00  0.00    -0.460 OA
BRANCH  31  32
ATOM     32  C   UNL A   1      35.932  31.163  29.505  1.00  0.00     0.338 C 
ATOM     33  O   UNL A   1      35.360  31.231  30.585  1.00  0.00    -0.246 OA
BRANCH  32  34
ATOM     34  C   UNL A   1      37.135  30.338  29.304  1.00  0.00     0.060 A 
ATOM     35  C   UNL A   1      37.760  29.776  30.427  1.00  0.00     0.016 A 
ATOM     36  C   UNL A   1      37.689  30.191  28.034  1.00  0.00     0.016 A 
ATOM     37  C   UNL A   1      38.954  29.072  30.284  1.00  0.00     0.010 A 
ATOM     38  C   UNL A   1      38.902  29.511  27.896  1.00  0.00     0.010 A 
ATOM     39  C   UNL A   1      39.550  28.971  29.022  1.00  0.00    -0.014 A 
BRANCH  39  40
ATOM     40  C   UNL A   1      40.941  28.480  28.892  1.00  0.00     0.031 A 
ATOM     41  C   UNL A   1      42.061  29.469  29.049  1.00  0.00     0.074 A 
ATOM     42  C   UNL A   1      41.205  27.192  28.621  1.00  0.00     0.049 A 
ATOM     43  N   UNL A   1      43.338  29.321  28.812  1.00  0.00    -0.248 NA
ATOM     44  C   UNL A   1      41.685  30.804  29.539  1.00  0.00     0.031 C 
ATOM     45  C   UNL A   1      40.213  26.123  28.525  1.00  0.00     0.029 A 
ATOM     46  N   UNL A   1      42.400  26.570  28.354  1.00  0.00    -0.354 N 
ATOM     47  C   UNL A   1      43.916  30.551  29.106  1.00  0.00     0.074 A 
ATOM     48  C   UNL A   1      42.851  31.432  29.532  1.00  0.00     0.031 C 
ATOM     49  C   UNL A   1      40.837  24.980  28.190  1.00  0.00     0.029 A 
ATOM     50  C   UNL A   1      42.263  25.250  28.002  1.00  0.00     0.049 A 
ATOM     51  H   UNL A   1      43.271  27.026  28.410  1.00  0.00     0.167 HD
ATOM     52  C   UNL A   1      45.218  30.912  29.018  1.00  0.00     0.037 A 
ATOM     53  C   UNL A   1      43.178  24.378  27.535  1.00  0.00     0.037 A 
ATOM     54  C   UNL A   1      46.269  30.036  28.579  1.00  0.00     0.049 A 
ATOM     55  C   UNL A   1      44.604  24.831  27.347  1.00  0.00     0.074 A 
ATOM     56  C   UNL A   1      47.617  30.312  28.432  1.00  0.00     0.029 A 
ATOM     57  N   UNL A   1      46.087  28.713  28.209  1.00  0.00    -0.354 N 
ATOM     58  N   UNL A   1      45.142  25.999  27.605  1.00  0.00    -0.248 NA
ATOM     59  C   UNL A   1      45.547  23.847  26.794  1.00  0.00     0.031 C 
ATOM     60  C   UNL A   1      48.243  29.166  27.931  1.00  0.00     0.029 A 
ATOM     61  C   UNL A   1      47.294  28.162  27.817  1.00  0.00     0.049 A 
ATOM     62  H   UNL A   1      45.226  28.236  28.222  1.00  0.00     0.167 HD
ATOM     63  C   UNL A   1      46.490  25.878  27.284  1.00  0.00     0.074 A 
ATOM     64  C   UNL A   1      46.687  24.524  26.811  1.00  0.00     0.031 C 
ATOM     65  C   UNL A   1      47.476  26.803  27.376  1.00  0.00     0.037 A 
BRANCH  52  66
ATOM     66  C   UNL A   1      45.560  32.332  29.358  1.00  0.00     0.057 A 
ATOM     67  C   UNL A   1      45.983  32.706  30.640  1.00  0.00     0.134 A 
ATOM     68  C   UNL A   1      45.473  33.335  28.385  1.00  0.00     0.134 A 
ATOM     69  F   UNL A   1      46.068  31.795  31.622  1.00  0.00    -0.206 F 
ATOM     70  C   UNL A   1      46.285  34.034  30.948  1.00  0.00     0.040 A 
ATOM     71  C   UNL A   1      45.797  34.661  28.674  1.00  0.00     0.040 A 
ATOM     72  F   UNL A   1      45.074  33.043  27.139  1.00  0.00    -0.206 F 
ATOM     73  C   UNL A   1      46.198  35.015  29.961  1.00  0.00     0.006 A 
ENDBRANCH  52  66
BRANCH  53  74
ATOM     74  C   UNL A   1      42.775  22.995  27.168  1.00  0.00     0.057 A 
ATOM     75  C   UNL A   1      42.582  22.626  25.833  1.00  0.00     0.134 A 
ATOM     76  C   UNL A   1      42.538  22.021  28.146  1.00  0.00     0.134 A 
ATOM     77  F   UNL A   1      42.766  23.522  24.852  1.00  0.00    -0.206 F 
ATOM     78  C   UNL A   1      42.151  21.346  25.482  1.00  0.00     0.040 A 
ATOM     79  C   UNL A   1      42.130  20.729  27.808  1.00  0.00     0.040 A 
ATOM     80  F   UNL A   1      42.700  22.311  29.445  1.00  0.00    -0.206 F 
ATOM     81  C   UNL A   1      41.928  20.391  26.472  1.00  0.00     0.006 A 
ENDBRANCH  53  74
BRANCH  65  82
ATOM     82  C   UNL A   1      48.871  26.373  27.027  1.00  0.00     0.057 A 
ATOM     83  C   UNL A   1      49.679  25.666  27.925  1.00  0.00     0.134 A 
ATOM     84  C   UNL A   1      49.382  26.611  25.744  1.00  0.00     0.134 A 
ATOM     85  F   UNL A   1      49.254  25.416  29.172  1.00  0.00    -0.206 F 
ATOM     86  C   UNL A   1      50.951  25.220  27.562  1.00  0.00     0.040 A 
ATOM     87  C   UNL A   1      50.641  26.149  25.362  1.00  0.00     0.040 A 
ATOM     88  F   UNL A   1      48.654  27.275  24.833  1.00  0.00    -0.206 F 
ATOM     89  C   UNL A   1      51.431  25.452  26.273  1.00  0.00     0.006 A 
ENDBRANCH  65  82
ENDBRANCH  39  40
ENDBRANCH  32  34
ENDBRANCH  31  32
ENDBRANCH  30  31
ENDBRANCH  29  30
ENDBRANCH  28  29
ENDBRANCH  27  28
ENDBRANCH   1  27
TORSDOF 20
ENDMDL
