MODEL 1
REMARK VINA RESULT:     -11.0      0.000      0.000
REMARK SMILES O=C(OCCOCCOCCOC(=O)c1nnn(-c2ccc(C(F)(F)F)cc2)c1-c1cccc(Cl)c1)c1ccc(-c2c3nc(c(-c4c(F)cccc4F)c4ccc([nH]4)c(-c4c(F)cccc4F)c4nc(c(-c5c(F)cccc5F)c5ccc2[nH]5)C=C4)C=C3)cc1
REMARK SMILES IDX 7 1 6 2 5 3 4 4 3 5 2 6 1 7 37 8 38 9 90 10 39 11 89 12
REMARK SMILES IDX 40 13 41 14 42 15 83 16 43 17 88 18 82 19 84 20 44 21 87 22
REMARK SMILES IDX 81 23 80 24 45 26 71 27 54 28 70 29 55 30 58 31 69 32 85 33
REMARK SMILES IDX 56 34 57 35 68 37 86 38 59 39 46 40 47 41 52 42 48 43 49 44
REMARK SMILES IDX 51 45 53 46 50 47 72 48 73 49 78 50 74 51 75 52 77 53 79 54
REMARK SMILES IDX 76 55 60 56 61 57 66 58 62 59 63 60 65 61 67 62 64 63 8 64
REMARK SMILES IDX 9 65 10 66 11 67 12 68 13 69 14 70 15 71 16 72 29 73 17 74
REMARK SMILES IDX 18 75 30 76 31 77 36 78 32 79 34 80 33 81 35 82 19 83 20 84
REMARK SMILES IDX 28 85 21 86 27 87 22 88 23 89 24 90 25 91 26 92
REMARK H PARENT 84 25 58 36
REMARK Flexibility Score: inf
ROOT
ATOM      1  C   UNL A   1      32.422  29.505  25.252  1.00  0.00     0.188 C 
ENDROOT
BRANCH   1   2
ATOM      2  O   UNL A   1      32.188  30.527  26.208  1.00  0.00    -0.376 OA
BRANCH   2   3
ATOM      3  C   UNL A   1      32.938  30.423  27.407  1.00  0.00     0.202 C 
BRANCH   3   4
ATOM      4  C   UNL A   1      34.340  29.839  27.229  1.00  0.00     0.261 C 
BRANCH   4   5
ATOM      5  O   UNL A   1      35.408  30.536  27.899  1.00  0.00    -0.460 OA
BRANCH   5   6
ATOM      6  C   UNL A   1      36.258  30.182  28.879  1.00  0.00     0.338 C 
ATOM      7  O   UNL A   1      36.078  30.615  30.015  1.00  0.00    -0.246 OA
BRANCH   6   8
ATOM      8  C   UNL A   1      37.504  29.413  28.636  1.00  0.00     0.060 A 
ATOM      9  C   UNL A   1      38.031  28.453  29.497  1.00  0.00     0.016 A 
ATOM     10  C   UNL A   1      38.235  29.779  27.487  1.00  0.00     0.016 A 
ATOM     11  C   UNL A   1      39.294  27.923  29.261  1.00  0.00     0.010 A 
ATOM     12  C   UNL A   1      39.506  29.266  27.257  1.00  0.00     0.010 A 
ATOM     13  C   UNL A   1      40.053  28.384  28.183  1.00  0.00    -0.014 A 
BRANCH  13  14
ATOM     14  C   UNL A   1      41.458  27.995  28.139  1.00  0.00     0.031 A 
ATOM     15  C   UNL A   1      41.797  26.695  27.506  1.00  0.00     0.074 A 
ATOM     16  C   UNL A   1      42.426  28.806  28.608  1.00  0.00     0.049 A 
ATOM     17  N   UNL A   1      42.403  25.681  28.036  1.00  0.00    -0.248 NA
ATOM     18  C   UNL A   1      41.386  26.489  26.111  1.00  0.00     0.031 C 
ATOM     19  C   UNL A   1      42.303  30.213  29.001  1.00  0.00     0.029 A 
ATOM     20  N   UNL A   1      43.763  28.561  28.737  1.00  0.00    -0.354 N 
ATOM     21  C   UNL A   1      42.616  24.775  26.998  1.00  0.00     0.074 A 
ATOM     22  C   UNL A   1      41.881  25.276  25.863  1.00  0.00     0.031 C 
ATOM     23  C   UNL A   1      43.537  30.748  29.116  1.00  0.00     0.029 A 
ATOM     24  C   UNL A   1      44.526  29.700  28.931  1.00  0.00     0.049 A 
ATOM     25  H   UNL A   1      44.149  27.656  28.696  1.00  0.00     0.167 HD
ATOM     26  C   UNL A   1      43.542  23.780  27.082  1.00  0.00     0.037 A 
ATOM     27  C   UNL A   1      45.875  29.796  28.873  1.00  0.00     0.037 A 
ATOM     28  C   UNL A   1      43.894  23.477  28.442  1.00  0.00     0.049 A 
ATOM     29  C   UNL A   1      46.445  28.441  29.047  1.00  0.00     0.074 A 
ATOM     30  C   UNL A   1      43.200  23.072  29.566  1.00  0.00     0.029 A 
ATOM     31  N   UNL A   1      45.136  23.844  28.896  1.00  0.00    -0.354 N 
ATOM     32  N   UNL A   1      46.448  27.776  30.167  1.00  0.00    -0.248 NA
ATOM     33  C   UNL A   1      46.701  27.648  27.853  1.00  0.00     0.031 C 
ATOM     34  C   UNL A   1      43.879  23.675  30.664  1.00  0.00     0.029 A 
ATOM     35  C   UNL A   1      44.952  24.395  30.137  1.00  0.00     0.049 A 
ATOM     36  H   UNL A   1      45.991  23.733  28.423  1.00  0.00     0.167 HD
ATOM     37  C   UNL A   1      46.287  26.451  29.793  1.00  0.00     0.074 A 
ATOM     38  C   UNL A   1      46.572  26.422  28.364  1.00  0.00     0.031 C 
ATOM     39  C   UNL A   1      45.664  25.555  30.614  1.00  0.00     0.037 A 
BRANCH  26  40
ATOM     40  C   UNL A   1      44.371  23.301  25.916  1.00  0.00     0.057 A 
ATOM     41  C   UNL A   1      44.426  21.928  25.614  1.00  0.00     0.134 A 
ATOM     42  C   UNL A   1      45.342  24.096  25.273  1.00  0.00     0.134 A 
ATOM     43  F   UNL A   1      43.572  21.063  26.182  1.00  0.00    -0.206 F 
ATOM     44  C   UNL A   1      45.414  21.380  24.787  1.00  0.00     0.040 A 
ATOM     45  C   UNL A   1      46.300  23.566  24.404  1.00  0.00     0.040 A 
ATOM     46  F   UNL A   1      45.475  25.403  25.528  1.00  0.00    -0.206 F 
ATOM     47  C   UNL A   1      46.359  22.199  24.183  1.00  0.00     0.006 A 
ENDBRANCH  26  40
BRANCH  27  48
ATOM     48  C   UNL A   1      46.689  30.952  28.437  1.00  0.00     0.057 A 
ATOM     49  C   UNL A   1      46.841  31.267  27.082  1.00  0.00     0.134 A 
ATOM     50  C   UNL A   1      47.139  31.923  29.351  1.00  0.00     0.134 A 
ATOM     51  F   UNL A   1      46.399  30.430  26.133  1.00  0.00    -0.206 F 
ATOM     52  C   UNL A   1      47.399  32.481  26.659  1.00  0.00     0.040 A 
ATOM     53  C   UNL A   1      47.710  33.130  28.944  1.00  0.00     0.040 A 
ATOM     54  F   UNL A   1      46.960  31.769  30.672  1.00  0.00    -0.206 F 
ATOM     55  C   UNL A   1      47.831  33.419  27.592  1.00  0.00     0.006 A 
ENDBRANCH  27  48
BRANCH  39  56
ATOM     56  C   UNL A   1      45.439  25.950  32.045  1.00  0.00     0.057 A 
ATOM     57  C   UNL A   1      44.242  26.506  32.518  1.00  0.00     0.134 A 
ATOM     58  C   UNL A   1      46.408  25.621  32.999  1.00  0.00     0.134 A 
ATOM     59  F   UNL A   1      43.215  26.748  31.692  1.00  0.00    -0.206 F 
ATOM     60  C   UNL A   1      44.043  26.775  33.874  1.00  0.00     0.040 A 
ATOM     61  C   UNL A   1      46.209  25.854  34.362  1.00  0.00     0.040 A 
ATOM     62  F   UNL A   1      47.553  25.026  32.626  1.00  0.00    -0.206 F 
ATOM     63  C   UNL A   1      45.027  26.445  34.803  1.00  0.00     0.006 A 
ENDBRANCH  39  56
ENDBRANCH  13  14
ENDBRANCH   6   8
ENDBRANCH   5   6
ENDBRANCH   4   5
ENDBRANCH   3   4
ENDBRANCH   2   3
ENDBRANCH   1   2
BRANCH   1  64
ATOM     64  C   UNL A   1      31.657  29.654  23.918  1.00  0.00     0.188 C 
BRANCH  64  65
ATOM     65  O   UNL A   1      31.900  28.808  22.802  1.00  0.00    -0.376 OA
BRANCH  65  66
ATOM     66  C   UNL A   1      31.142  27.633  22.582  1.00  0.00     0.202 C 
BRANCH  66  67
ATOM     67  C   UNL A   1      31.762  26.311  23.033  1.00  0.00     0.261 C 
BRANCH  67  68
ATOM     68  O   UNL A   1      32.670  26.431  24.132  1.00  0.00    -0.458 OA
BRANCH  68  69
ATOM     69  C   UNL A   1      32.432  25.619  25.204  1.00  0.00     0.361 C 
ATOM     70  O   UNL A   1      32.513  25.954  26.376  1.00  0.00    -0.244 OA
BRANCH  69  71
ATOM     71  C   UNL A   1      32.101  24.271  24.789  1.00  0.00     0.198 A 
ATOM     72  N   UNL A   1      30.819  23.792  24.646  1.00  0.00    -0.122 NA
ATOM     73  C   UNL A   1      33.000  23.273  24.465  1.00  0.00     0.109 A 
ATOM     74  N   UNL A   1      30.894  22.518  24.272  1.00  0.00    -0.061 NA
ATOM     75  N   UNL A   1      32.189  22.154  24.369  1.00  0.00    -0.212 N 
BRANCH  73  76
ATOM     76  C   UNL A   1      34.454  23.272  24.332  1.00  0.00     0.004 A 
ATOM     77  C   UNL A   1      35.054  22.895  23.119  1.00  0.00     0.010 A 
ATOM     78  C   UNL A   1      35.267  23.650  25.405  1.00  0.00     0.031 A 
ATOM     79  C   UNL A   1      36.443  22.887  22.987  1.00  0.00     0.002 A 
ATOM     80  C   UNL A   1      36.653  23.653  25.263  1.00  0.00     0.041 A 
ATOM     81  C   UNL A   1      37.244  23.269  24.062  1.00  0.00     0.020 A 
ATOM     82  Cl  UNL A   1      37.638  24.135  26.588  1.00  0.00    -0.084 Cl
ENDBRANCH  73  76
BRANCH  75  83
ATOM     83  C   UNL A   1      32.595  20.818  24.555  1.00  0.00     0.067 A 
ATOM     84  C   UNL A   1      32.918  20.338  25.821  1.00  0.00     0.029 A 
ATOM     85  C   UNL A   1      32.536  19.960  23.447  1.00  0.00     0.029 A 
ATOM     86  C   UNL A   1      33.054  18.955  25.992  1.00  0.00     0.015 A 
ATOM     87  C   UNL A   1      32.706  18.595  23.619  1.00  0.00     0.015 A 
ATOM     88  C   UNL A   1      32.917  18.073  24.901  1.00  0.00     0.056 A 
BRANCH  88  89
ATOM     89  C   UNL A   1      32.940  16.578  25.108  1.00  0.00     0.416 C 
ATOM     90  F   UNL A   1      33.835  16.189  26.054  1.00  0.00    -0.166 F 
ATOM     91  F   UNL A   1      31.729  16.100  25.509  1.00  0.00    -0.166 F 
ATOM     92  F   UNL A   1      33.256  15.880  23.980  1.00  0.00    -0.166 F 
ENDBRANCH  88  89
ENDBRANCH  75  83
ENDBRANCH  69  71
ENDBRANCH  68  69
ENDBRANCH  67  68
ENDBRANCH  66  67
ENDBRANCH  65  66
ENDBRANCH  64  65
ENDBRANCH   1  64
TORSDOF 20
ENDMDL
MODEL 2
REMARK VINA RESULT:     -10.8      2.309      3.150
REMARK SMILES O=C(OCCOCCOCCOC(=O)c1nnn(-c2ccc(C(F)(F)F)cc2)c1-c1cccc(Cl)c1)c1ccc(-c2c3nc(c(-c4c(F)cccc4F)c4ccc([nH]4)c(-c4c(F)cccc4F)c4nc(c(-c5c(F)cccc5F)c5ccc2[nH]5)C=C4)C=C3)cc1
REMARK SMILES IDX 7 1 6 2 5 3 4 4 3 5 2 6 1 7 37 8 38 9 90 10 39 11 89 12
REMARK SMILES IDX 40 13 41 14 42 15 83 16 43 17 88 18 82 19 84 20 44 21 87 22
REMARK SMILES IDX 81 23 80 24 45 26 71 27 54 28 70 29 55 30 58 31 69 32 85 33
REMARK SMILES IDX 56 34 57 35 68 37 86 38 59 39 46 40 47 41 52 42 48 43 49 44
REMARK SMILES IDX 51 45 53 46 50 47 72 48 73 49 78 50 74 51 75 52 77 53 79 54
REMARK SMILES IDX 76 55 60 56 61 57 66 58 62 59 63 60 65 61 67 62 64 63 8 64
REMARK SMILES IDX 9 65 10 66 11 67 12 68 13 69 14 70 15 71 16 72 29 73 17 74
REMARK SMILES IDX 18 75 30 76 31 77 36 78 32 79 34 80 33 81 35 82 19 83 20 84
REMARK SMILES IDX 28 85 21 86 27 87 22 88 23 89 24 90 25 91 26 92
REMARK H PARENT 84 25 58 36
REMARK Flexibility Score: inf
ROOT
ATOM      1  C   UNL A   1      31.908  29.905  25.372  1.00  0.00     0.188 C 
ENDROOT
BRANCH   1   2
ATOM      2  O   UNL A   1      32.326  31.086  26.037  1.00  0.00    -0.376 OA
BRANCH   2   3
ATOM      3  C   UNL A   1      32.786  30.906  27.366  1.00  0.00     0.202 C 
BRANCH   3   4
ATOM      4  C   UNL A   1      34.253  31.277  27.586  1.00  0.00     0.261 C 
BRANCH   4   5
ATOM      5  O   UNL A   1      35.105  30.230  28.087  1.00  0.00    -0.460 OA
BRANCH   5   6
ATOM      6  C   UNL A   1      36.118  30.218  28.971  1.00  0.00     0.338 C 
ATOM      7  O   UNL A   1      36.083  30.984  29.932  1.00  0.00    -0.246 OA
BRANCH   6   8
ATOM      8  C   UNL A   1      37.361  29.434  28.772  1.00  0.00     0.060 A 
ATOM      9  C   UNL A   1      37.926  28.579  29.716  1.00  0.00     0.016 A 
ATOM     10  C   UNL A   1      38.051  29.675  27.565  1.00  0.00     0.016 A 
ATOM     11  C   UNL A   1      39.186  28.033  29.496  1.00  0.00     0.010 A 
ATOM     12  C   UNL A   1      39.318  29.148  27.350  1.00  0.00     0.010 A 
ATOM     13  C   UNL A   1      39.904  28.377  28.349  1.00  0.00    -0.014 A 
BRANCH  13  14
ATOM     14  C   UNL A   1      41.311  27.994  28.300  1.00  0.00     0.031 A 
ATOM     15  C   UNL A   1      41.658  26.722  27.617  1.00  0.00     0.074 A 
ATOM     16  C   UNL A   1      42.273  28.787  28.811  1.00  0.00     0.049 A 
ATOM     17  N   UNL A   1      42.264  25.689  28.109  1.00  0.00    -0.248 NA
ATOM     18  C   UNL A   1      41.260  26.573  26.211  1.00  0.00     0.031 C 
ATOM     19  C   UNL A   1      42.142  30.177  29.260  1.00  0.00     0.029 A 
ATOM     20  N   UNL A   1      43.609  28.541  28.939  1.00  0.00    -0.354 N 
ATOM     21  C   UNL A   1      42.488  24.827  27.036  1.00  0.00     0.074 A 
ATOM     22  C   UNL A   1      41.760  25.373  25.917  1.00  0.00     0.031 C 
ATOM     23  C   UNL A   1      43.373  30.710  29.407  1.00  0.00     0.029 A 
ATOM     24  C   UNL A   1      44.367  29.674  29.187  1.00  0.00     0.049 A 
ATOM     25  H   UNL A   1      43.998  27.640  28.864  1.00  0.00     0.167 HD
ATOM     26  C   UNL A   1      43.416  23.832  27.086  1.00  0.00     0.037 A 
ATOM     27  C   UNL A   1      45.716  29.776  29.143  1.00  0.00     0.037 A 
ATOM     28  C   UNL A   1      43.759  23.474  28.435  1.00  0.00     0.049 A 
ATOM     29  C   UNL A   1      46.289  28.416  29.266  1.00  0.00     0.074 A 
ATOM     30  C   UNL A   1      43.057  23.021  29.536  1.00  0.00     0.029 A 
ATOM     31  N   UNL A   1      44.995  23.826  28.915  1.00  0.00    -0.354 N 
ATOM     32  N   UNL A   1      46.285  27.706  30.358  1.00  0.00    -0.248 NA
ATOM     33  C   UNL A   1      46.556  27.674  28.043  1.00  0.00     0.031 C 
ATOM     34  C   UNL A   1      43.725  23.580  30.664  1.00  0.00     0.029 A 
ATOM     35  C   UNL A   1      44.800  24.324  30.176  1.00  0.00     0.049 A 
ATOM     36  H   UNL A   1      45.855  23.737  28.444  1.00  0.00     0.167 HD
ATOM     37  C   UNL A   1      46.131  26.397  29.928  1.00  0.00     0.074 A 
ATOM     38  C   UNL A   1      46.428  26.427  28.500  1.00  0.00     0.031 C 
ATOM     39  C   UNL A   1      45.505  25.466  30.706  1.00  0.00     0.037 A 
BRANCH  26  40
ATOM     40  C   UNL A   1      44.256  23.404  25.908  1.00  0.00     0.057 A 
ATOM     41  C   UNL A   1      44.280  22.052  25.521  1.00  0.00     0.134 A 
ATOM     42  C   UNL A   1      45.260  24.211  25.335  1.00  0.00     0.134 A 
ATOM     43  F   UNL A   1      43.393  21.177  26.018  1.00  0.00    -0.206 F 
ATOM     44  C   UNL A   1      45.271  21.529  24.680  1.00  0.00     0.040 A 
ATOM     45  C   UNL A   1      46.222  23.710  24.453  1.00  0.00     0.040 A 
ATOM     46  F   UNL A   1      45.423  25.495  25.675  1.00  0.00    -0.206 F 
ATOM     47  C   UNL A   1      46.249  22.358  24.147  1.00  0.00     0.006 A 
ENDBRANCH  26  40
BRANCH  27  48
ATOM     48  C   UNL A   1      46.530  30.951  28.763  1.00  0.00     0.057 A 
ATOM     49  C   UNL A   1      47.628  31.358  29.531  1.00  0.00     0.134 A 
ATOM     50  C   UNL A   1      46.400  31.559  27.501  1.00  0.00     0.134 A 
ATOM     51  F   UNL A   1      47.867  30.801  30.727  1.00  0.00    -0.206 F 
ATOM     52  C   UNL A   1      48.548  32.307  29.068  1.00  0.00     0.040 A 
ATOM     53  C   UNL A   1      47.302  32.518  27.033  1.00  0.00     0.040 A 
ATOM     54  F   UNL A   1      45.441  31.182  26.643  1.00  0.00    -0.206 F 
ATOM     55  C   UNL A   1      48.389  32.887  27.813  1.00  0.00     0.006 A 
ENDBRANCH  27  48
BRANCH  39  56
ATOM     56  C   UNL A   1      45.267  25.800  32.150  1.00  0.00     0.057 A 
ATOM     57  C   UNL A   1      46.191  25.535  33.171  1.00  0.00     0.134 A 
ATOM     58  C   UNL A   1      44.133  26.544  32.496  1.00  0.00     0.134 A 
ATOM     59  F   UNL A   1      47.357  24.928  32.910  1.00  0.00    -0.206 F 
ATOM     60  C   UNL A   1      45.967  25.943  34.488  1.00  0.00     0.040 A 
ATOM     61  C   UNL A   1      43.914  26.987  33.802  1.00  0.00     0.040 A 
ATOM     62  F   UNL A   1      43.238  26.891  31.557  1.00  0.00    -0.206 F 
ATOM     63  C   UNL A   1      44.828  26.676  34.807  1.00  0.00     0.006 A 
ENDBRANCH  39  56
ENDBRANCH  13  14
ENDBRANCH   6   8
ENDBRANCH   5   6
ENDBRANCH   4   5
ENDBRANCH   3   4
ENDBRANCH   2   3
ENDBRANCH   1   2
BRANCH   1  64
ATOM     64  C   UNL A   1      32.716  28.631  25.706  1.00  0.00     0.188 C 
BRANCH  64  65
ATOM     65  O   UNL A   1      32.251  27.326  25.385  1.00  0.00    -0.376 OA
BRANCH  65  66
ATOM     66  C   UNL A   1      30.886  27.073  25.106  1.00  0.00     0.202 C 
BRANCH  66  67
ATOM     67  C   UNL A   1      30.217  25.940  25.883  1.00  0.00     0.261 C 
BRANCH  67  68
ATOM     68  O   UNL A   1      31.116  25.157  26.674  1.00  0.00    -0.458 OA
BRANCH  68  69
ATOM     69  C   UNL A   1      30.885  23.811  26.697  1.00  0.00     0.361 C 
ATOM     70  O   UNL A   1      29.786  23.282  26.626  1.00  0.00    -0.244 OA
BRANCH  69  71
ATOM     71  C   UNL A   1      32.113  23.060  26.859  1.00  0.00     0.198 A 
ATOM     72  N   UNL A   1      32.489  22.420  28.018  1.00  0.00    -0.122 NA
ATOM     73  C   UNL A   1      33.079  22.857  25.892  1.00  0.00     0.109 A 
ATOM     74  N   UNL A   1      33.673  21.852  27.811  1.00  0.00    -0.061 NA
ATOM     75  N   UNL A   1      34.116  22.290  26.614  1.00  0.00    -0.212 N 
BRANCH  73  76
ATOM     76  C   UNL A   1      33.132  23.204  24.474  1.00  0.00     0.004 A 
ATOM     77  C   UNL A   1      32.944  22.214  23.496  1.00  0.00     0.010 A 
ATOM     78  C   UNL A   1      33.364  24.523  24.073  1.00  0.00     0.031 A 
ATOM     79  C   UNL A   1      32.999  22.537  22.140  1.00  0.00     0.002 A 
ATOM     80  C   UNL A   1      33.404  24.842  22.717  1.00  0.00     0.041 A 
ATOM     81  C   UNL A   1      33.227  23.856  21.750  1.00  0.00     0.020 A 
ATOM     82  Cl  UNL A   1      33.675  26.472  22.240  1.00  0.00    -0.084 Cl
ENDBRANCH  73  76
BRANCH  75  83
ATOM     83  C   UNL A   1      35.483  22.336  26.276  1.00  0.00     0.067 A 
ATOM     84  C   UNL A   1      36.241  23.480  26.513  1.00  0.00     0.029 A 
ATOM     85  C   UNL A   1      36.079  21.153  25.817  1.00  0.00     0.029 A 
ATOM     86  C   UNL A   1      37.634  23.385  26.410  1.00  0.00     0.015 A 
ATOM     87  C   UNL A   1      37.457  21.078  25.685  1.00  0.00     0.015 A 
ATOM     88  C   UNL A   1      38.253  22.178  26.028  1.00  0.00     0.056 A 
BRANCH  88  89
ATOM     89  C   UNL A   1      39.757  22.043  26.038  1.00  0.00     0.416 C 
ATOM     90  F   UNL A   1      40.379  23.011  25.315  1.00  0.00    -0.166 F 
ATOM     91  F   UNL A   1      40.268  22.121  27.298  1.00  0.00    -0.166 F 
ATOM     92  F   UNL A   1      40.197  20.854  25.535  1.00  0.00    -0.166 F 
ENDBRANCH  88  89
ENDBRANCH  75  83
ENDBRANCH  69  71
ENDBRANCH  68  69
ENDBRANCH  67  68
ENDBRANCH  66  67
ENDBRANCH  65  66
ENDBRANCH  64  65
ENDBRANCH   1  64
TORSDOF 20
ENDMDL
MODEL 3
REMARK VINA RESULT:     -10.8      2.160      3.331
REMARK SMILES O=C(OCCOCCOCCOC(=O)c1nnn(-c2ccc(C(F)(F)F)cc2)c1-c1cccc(Cl)c1)c1ccc(-c2c3nc(c(-c4c(F)cccc4F)c4ccc([nH]4)c(-c4c(F)cccc4F)c4nc(c(-c5c(F)cccc5F)c5ccc2[nH]5)C=C4)C=C3)cc1
REMARK SMILES IDX 7 1 6 2 5 3 4 4 3 5 2 6 1 7 37 8 38 9 90 10 39 11 89 12
REMARK SMILES IDX 40 13 41 14 42 15 83 16 43 17 88 18 82 19 84 20 44 21 87 22
REMARK SMILES IDX 81 23 80 24 45 26 71 27 54 28 70 29 55 30 58 31 69 32 85 33
REMARK SMILES IDX 56 34 57 35 68 37 86 38 59 39 46 40 47 41 52 42 48 43 49 44
REMARK SMILES IDX 51 45 53 46 50 47 72 48 73 49 78 50 74 51 75 52 77 53 79 54
REMARK SMILES IDX 76 55 60 56 61 57 66 58 62 59 63 60 65 61 67 62 64 63 8 64
REMARK SMILES IDX 9 65 10 66 11 67 12 68 13 69 14 70 15 71 16 72 29 73 17 74
REMARK SMILES IDX 18 75 30 76 31 77 36 78 32 79 34 80 33 81 35 82 19 83 20 84
REMARK SMILES IDX 28 85 21 86 27 87 22 88 23 89 24 90 25 91 26 92
REMARK H PARENT 84 25 58 36
REMARK Flexibility Score: inf
ROOT
ATOM      1  C   UNL A   1      31.588  29.016  25.005  1.00  0.00     0.188 C 
ENDROOT
BRANCH   1   2
ATOM      2  O   UNL A   1      32.322  28.824  26.204  1.00  0.00    -0.376 OA
BRANCH   2   3
ATOM      3  C   UNL A   1      33.163  29.902  26.582  1.00  0.00     0.202 C 
BRANCH   3   4
ATOM      4  C   UNL A   1      34.586  29.491  26.964  1.00  0.00     0.261 C 
BRANCH   4   5
ATOM      5  O   UNL A   1      34.984  29.767  28.321  1.00  0.00    -0.460 OA
BRANCH   5   6
ATOM      6  C   UNL A   1      36.153  30.133  28.875  1.00  0.00     0.338 C 
ATOM      7  O   UNL A   1      36.229  31.215  29.454  1.00  0.00    -0.246 OA
BRANCH   6   8
ATOM      8  C   UNL A   1      37.412  29.369  28.697  1.00  0.00     0.060 A 
ATOM      9  C   UNL A   1      38.010  28.575  29.673  1.00  0.00     0.016 A 
ATOM     10  C   UNL A   1      38.078  29.565  27.469  1.00  0.00     0.016 A 
ATOM     11  C   UNL A   1      39.279  28.049  29.462  1.00  0.00     0.010 A 
ATOM     12  C   UNL A   1      39.354  29.057  27.261  1.00  0.00     0.010 A 
ATOM     13  C   UNL A   1      39.973  28.350  28.288  1.00  0.00    -0.014 A 
BRANCH  13  14
ATOM     14  C   UNL A   1      41.387  27.998  28.238  1.00  0.00     0.031 A 
ATOM     15  C   UNL A   1      41.757  26.709  27.600  1.00  0.00     0.074 A 
ATOM     16  C   UNL A   1      42.336  28.833  28.706  1.00  0.00     0.049 A 
ATOM     17  N   UNL A   1      42.391  25.710  28.123  1.00  0.00    -0.248 NA
ATOM     18  C   UNL A   1      41.346  26.497  26.205  1.00  0.00     0.031 C 
ATOM     19  C   UNL A   1      42.178  30.235  29.103  1.00  0.00     0.029 A 
ATOM     20  N   UNL A   1      43.679  28.622  28.828  1.00  0.00    -0.354 N 
ATOM     21  C   UNL A   1      42.624  24.813  27.082  1.00  0.00     0.074 A 
ATOM     22  C   UNL A   1      41.871  25.298  25.952  1.00  0.00     0.031 C 
ATOM     23  C   UNL A   1      43.398  30.802  29.214  1.00  0.00     0.029 A 
ATOM     24  C   UNL A   1      44.413  29.780  29.022  1.00  0.00     0.049 A 
ATOM     25  H   UNL A   1      44.088  27.728  28.783  1.00  0.00     0.167 HD
ATOM     26  C   UNL A   1      43.575  23.842  27.159  1.00  0.00     0.037 A 
ATOM     27  C   UNL A   1      45.759  29.911  28.959  1.00  0.00     0.037 A 
ATOM     28  C   UNL A   1      43.941  23.544  28.517  1.00  0.00     0.049 A 
ATOM     29  C   UNL A   1      46.365  28.570  29.127  1.00  0.00     0.074 A 
ATOM     30  C   UNL A   1      43.262  23.118  29.643  1.00  0.00     0.029 A 
ATOM     31  N   UNL A   1      45.174  23.942  28.968  1.00  0.00    -0.354 N 
ATOM     32  N   UNL A   1      46.389  27.903  30.245  1.00  0.00    -0.248 NA
ATOM     33  C   UNL A   1      46.636  27.788  27.930  1.00  0.00     0.031 C 
ATOM     34  C   UNL A   1      43.930  23.735  30.740  1.00  0.00     0.029 A 
ATOM     35  C   UNL A   1      44.981  24.484  30.211  1.00  0.00     0.049 A 
ATOM     36  H   UNL A   1      46.030  23.854  28.491  1.00  0.00     0.167 HD
ATOM     37  C   UNL A   1      46.261  26.576  29.868  1.00  0.00     0.074 A 
ATOM     38  C   UNL A   1      46.541  26.557  28.437  1.00  0.00     0.031 C 
ATOM     39  C   UNL A   1      45.665  25.661  30.688  1.00  0.00     0.037 A 
BRANCH  26  40
ATOM     40  C   UNL A   1      44.411  23.388  25.988  1.00  0.00     0.057 A 
ATOM     41  C   UNL A   1      44.541  22.014  25.712  1.00  0.00     0.134 A 
ATOM     42  C   UNL A   1      45.324  24.224  25.314  1.00  0.00     0.134 A 
ATOM     43  F   UNL A   1      43.749  21.114  26.312  1.00  0.00    -0.206 F 
ATOM     44  C   UNL A   1      45.546  21.508  24.879  1.00  0.00     0.040 A 
ATOM     45  C   UNL A   1      46.297  23.733  24.439  1.00  0.00     0.040 A 
ATOM     46  F   UNL A   1      45.385  25.542  25.541  1.00  0.00    -0.206 F 
ATOM     47  C   UNL A   1      46.432  22.368  24.243  1.00  0.00     0.006 A 
ENDBRANCH  26  40
BRANCH  27  48
ATOM     48  C   UNL A   1      46.541  31.089  28.524  1.00  0.00     0.057 A 
ATOM     49  C   UNL A   1      47.511  31.667  29.352  1.00  0.00     0.134 A 
ATOM     50  C   UNL A   1      46.529  31.529  27.188  1.00  0.00     0.134 A 
ATOM     51  F   UNL A   1      47.637  31.278  30.629  1.00  0.00    -0.206 F 
ATOM     52  C   UNL A   1      48.423  32.619  28.877  1.00  0.00     0.040 A 
ATOM     53  C   UNL A   1      47.421  32.488  26.704  1.00  0.00     0.040 A 
ATOM     54  F   UNL A   1      45.705  30.979  26.283  1.00  0.00    -0.206 F 
ATOM     55  C   UNL A   1      48.382  33.029  27.547  1.00  0.00     0.006 A 
ENDBRANCH  27  48
BRANCH  39  56
ATOM     56  C   UNL A   1      45.436  26.045  32.121  1.00  0.00     0.057 A 
ATOM     57  C   UNL A   1      44.271  26.678  32.579  1.00  0.00     0.134 A 
ATOM     58  C   UNL A   1      46.357  25.631  33.090  1.00  0.00     0.134 A 
ATOM     59  F   UNL A   1      43.284  27.008  31.735  1.00  0.00    -0.206 F 
ATOM     60  C   UNL A   1      44.061  26.937  33.935  1.00  0.00     0.040 A 
ATOM     61  C   UNL A   1      46.143  25.853  34.452  1.00  0.00     0.040 A 
ATOM     62  F   UNL A   1      47.464  24.961  32.730  1.00  0.00    -0.206 F 
ATOM     63  C   UNL A   1      44.996  26.520  34.878  1.00  0.00     0.006 A 
ENDBRANCH  39  56
ENDBRANCH  13  14
ENDBRANCH   6   8
ENDBRANCH   5   6
ENDBRANCH   4   5
ENDBRANCH   3   4
ENDBRANCH   2   3
ENDBRANCH   1   2
BRANCH   1  64
ATOM     64  C   UNL A   1      31.319  27.739  24.179  1.00  0.00     0.188 C 
BRANCH  64  65
ATOM     65  O   UNL A   1      30.077  27.046  24.230  1.00  0.00    -0.376 OA
BRANCH  65  66
ATOM     66  C   UNL A   1      29.960  25.701  23.805  1.00  0.00     0.202 C 
BRANCH  66  67
ATOM     67  C   UNL A   1      30.863  24.676  24.487  1.00  0.00     0.261 C 
BRANCH  67  68
ATOM     68  O   UNL A   1      31.254  23.585  23.648  1.00  0.00    -0.458 OA
BRANCH  68  69
ATOM     69  C   UNL A   1      32.422  23.743  22.957  1.00  0.00     0.361 C 
ATOM     70  O   UNL A   1      32.536  23.692  21.742  1.00  0.00    -0.244 OA
BRANCH  69  71
ATOM     71  C   UNL A   1      33.547  23.944  23.847  1.00  0.00     0.198 A 
ATOM     72  N   UNL A   1      34.218  25.137  23.997  1.00  0.00    -0.122 NA
ATOM     73  C   UNL A   1      34.107  22.997  24.682  1.00  0.00     0.109 A 
ATOM     74  N   UNL A   1      35.198  24.950  24.877  1.00  0.00    -0.061 NA
ATOM     75  N   UNL A   1      35.259  23.626  25.124  1.00  0.00    -0.212 N 
BRANCH  73  76
ATOM     76  C   UNL A   1      33.720  21.626  25.005  1.00  0.00     0.004 A 
ATOM     77  C   UNL A   1      33.342  21.288  26.315  1.00  0.00     0.010 A 
ATOM     78  C   UNL A   1      33.714  20.637  24.017  1.00  0.00     0.031 A 
ATOM     79  C   UNL A   1      32.975  19.979  26.631  1.00  0.00     0.002 A 
ATOM     80  C   UNL A   1      33.334  19.335  24.336  1.00  0.00     0.041 A 
ATOM     81  C   UNL A   1      32.970  19.001  25.638  1.00  0.00     0.020 A 
ATOM     82  Cl  UNL A   1      33.318  18.133  23.106  1.00  0.00    -0.084 Cl
ENDBRANCH  73  76
BRANCH  75  83
ATOM     83  C   UNL A   1      36.431  22.986  25.574  1.00  0.00     0.067 A 
ATOM     84  C   UNL A   1      36.738  21.689  25.171  1.00  0.00     0.029 A 
ATOM     85  C   UNL A   1      37.337  23.744  26.329  1.00  0.00     0.029 A 
ATOM     86  C   UNL A   1      38.026  21.203  25.425  1.00  0.00     0.015 A 
ATOM     87  C   UNL A   1      38.599  23.242  26.606  1.00  0.00     0.015 A 
ATOM     88  C   UNL A   1      38.975  21.986  26.114  1.00  0.00     0.056 A 
BRANCH  88  89
ATOM     89  C   UNL A   1      40.398  21.510  26.277  1.00  0.00     0.416 C 
ATOM     90  F   UNL A   1      40.858  21.642  27.548  1.00  0.00    -0.166 F 
ATOM     91  F   UNL A   1      40.536  20.193  25.956  1.00  0.00    -0.166 F 
ATOM     92  F   UNL A   1      41.285  22.177  25.484  1.00  0.00    -0.166 F 
ENDBRANCH  88  89
ENDBRANCH  75  83
ENDBRANCH  69  71
ENDBRANCH  68  69
ENDBRANCH  67  68
ENDBRANCH  66  67
ENDBRANCH  65  66
ENDBRANCH  64  65
ENDBRANCH   1  64
TORSDOF 20
ENDMDL
