MODEL 1
REMARK VINA RESULT:     -11.1      0.000      0.000
REMARK SMILES O=C(OCCOCCOCCOC(=O)c1ccc(-c2c3nc(c(-c4c(F)cccc4F)c4ccc([nH]4)c(-c4c(F)cccc4F)c4nc(c(-c5c(F)cccc5F)c5ccc2[nH]5)C=C4)C=C3)cc1)c1ccc(-c2ccc(=O)[nH]c2)cc1
REMARK SMILES IDX 8 1 7 2 6 3 5 4 4 5 3 6 2 7 1 8 69 9 70 10 81 11 71 12 80 13
REMARK SMILES IDX 72 14 73 15 74 16 79 17 75 18 78 19 76 20 77 22 9 23 10 24
REMARK SMILES IDX 11 25 12 26 13 27 14 28 15 29 16 30 68 31 17 32 67 33 18 34
REMARK SMILES IDX 19 35 20 36 61 37 21 38 66 39 60 40 62 41 22 42 65 43 59 44
REMARK SMILES IDX 58 45 23 47 49 48 32 49 48 50 33 51 36 52 47 53 63 54 34 55
REMARK SMILES IDX 35 56 46 58 64 59 37 60 24 61 25 62 30 63 26 64 27 65 29 66
REMARK SMILES IDX 31 67 28 68 50 69 51 70 56 71 52 72 53 73 55 74 57 75 54 76
REMARK SMILES IDX 38 77 39 78 44 79 40 80 41 81 43 82 45 83 42 84
REMARK H PARENT 78 21 62 46 36 57
REMARK Flexibility Score: inf
ROOT
ATOM      1  C   UNL A   1      45.851  19.382  24.648  1.00  0.00     0.188 C 
ENDROOT
BRANCH   1   2
ATOM      2  C   UNL A   1      45.037  18.440  25.539  1.00  0.00     0.188 C 
BRANCH   2   3
ATOM      3  O   UNL A   1      43.715  18.298  25.006  1.00  0.00    -0.376 OA
BRANCH   3   4
ATOM      4  C   UNL A   1      42.676  18.740  25.878  1.00  0.00     0.202 C 
BRANCH   4   5
ATOM      5  C   UNL A   1      42.584  20.258  26.069  1.00  0.00     0.261 C 
BRANCH   5   6
ATOM      6  O   UNL A   1      41.298  20.794  25.721  1.00  0.00    -0.460 OA
BRANCH   6   7
ATOM      7  C   UNL A   1      40.330  21.180  26.589  1.00  0.00     0.338 C 
ATOM      8  O   UNL A   1      40.495  21.040  27.797  1.00  0.00    -0.246 OA
BRANCH   7   9
ATOM      9  C   UNL A   1      39.072  21.819  26.122  1.00  0.00     0.060 A 
ATOM     10  C   UNL A   1      38.789  23.170  26.318  1.00  0.00     0.016 A 
ATOM     11  C   UNL A   1      38.196  21.057  25.338  1.00  0.00     0.016 A 
ATOM     12  C   UNL A   1      37.617  23.735  25.817  1.00  0.00     0.009 A 
ATOM     13  C   UNL A   1      37.034  21.633  24.802  1.00  0.00     0.009 A 
ATOM     14  C   UNL A   1      36.728  22.978  25.046  1.00  0.00    -0.017 A 
BRANCH  14  15
ATOM     15  C   UNL A   1      35.501  23.606  24.516  1.00  0.00    -0.002 A 
ATOM     16  C   UNL A   1      34.972  23.326  23.189  1.00  0.00     0.016 A 
ATOM     17  C   UNL A   1      34.807  24.453  25.301  1.00  0.00     0.094 A 
ATOM     18  C   UNL A   1      33.813  23.855  22.771  1.00  0.00     0.072 A 
ATOM     19  N   UNL A   1      33.629  25.017  24.881  1.00  0.00    -0.328 N 
ATOM     20  C   UNL A   1      33.048  24.760  23.665  1.00  0.00     0.247 A 
ATOM     21  H   UNL A   1      33.174  25.645  25.488  1.00  0.00     0.169 HD
ATOM     22  O   UNL A   1      31.969  25.226  23.322  1.00  0.00    -0.270 OA
ENDBRANCH  14  15
ENDBRANCH   7   9
ENDBRANCH   6   7
ENDBRANCH   5   6
ENDBRANCH   4   5
ENDBRANCH   3   4
ENDBRANCH   2   3
ENDBRANCH   1   2
BRANCH   1  23
ATOM     23  O   UNL A   1      46.412  20.511  25.322  1.00  0.00    -0.376 OA
BRANCH  23  24
ATOM     24  C   UNL A   1      45.915  21.796  24.959  1.00  0.00     0.202 C 
BRANCH  24  25
ATOM     25  C   UNL A   1      45.657  22.775  26.109  1.00  0.00     0.261 C 
BRANCH  25  26
ATOM     26  O   UNL A   1      44.280  22.900  26.510  1.00  0.00    -0.460 OA
BRANCH  26  27
ATOM     27  C   UNL A   1      43.507  23.603  25.647  1.00  0.00     0.338 C 
ATOM     28  O   UNL A   1      43.382  23.431  24.447  1.00  0.00    -0.246 OA
BRANCH  27  29
ATOM     29  C   UNL A   1      42.834  24.718  26.332  1.00  0.00     0.060 A 
ATOM     30  C   UNL A   1      43.264  26.032  26.119  1.00  0.00     0.016 A 
ATOM     31  C   UNL A   1      41.949  24.421  27.369  1.00  0.00     0.016 A 
ATOM     32  C   UNL A   1      42.846  27.051  26.986  1.00  0.00     0.010 A 
ATOM     33  C   UNL A   1      41.526  25.441  28.225  1.00  0.00     0.010 A 
ATOM     34  C   UNL A   1      42.006  26.755  28.070  1.00  0.00    -0.014 A 
BRANCH  34  35
ATOM     35  C   UNL A   1      41.701  27.748  29.134  1.00  0.00     0.031 A 
ATOM     36  C   UNL A   1      42.401  27.643  30.463  1.00  0.00     0.074 A 
ATOM     37  C   UNL A   1      40.745  28.679  28.969  1.00  0.00     0.049 A 
ATOM     38  N   UNL A   1      42.115  28.221  31.602  1.00  0.00    -0.248 NA
ATOM     39  C   UNL A   1      43.576  26.761  30.510  1.00  0.00     0.031 C 
ATOM     40  C   UNL A   1      40.029  28.946  27.726  1.00  0.00     0.029 A 
ATOM     41  N   UNL A   1      40.169  29.529  29.882  1.00  0.00    -0.354 N 
ATOM     42  C   UNL A   1      43.067  27.765  32.505  1.00  0.00     0.074 A 
ATOM     43  C   UNL A   1      43.919  26.839  31.788  1.00  0.00     0.031 C 
ATOM     44  C   UNL A   1      39.044  29.827  27.973  1.00  0.00     0.029 A 
ATOM     45  C   UNL A   1      39.058  30.172  29.392  1.00  0.00     0.049 A 
ATOM     46  H   UNL A   1      40.516  29.664  30.792  1.00  0.00     0.167 HD
ATOM     47  C   UNL A   1      43.224  28.095  33.811  1.00  0.00     0.037 A 
ATOM     48  C   UNL A   1      38.125  30.911  30.023  1.00  0.00     0.037 A 
ATOM     49  C   UNL A   1      42.387  29.024  34.525  1.00  0.00     0.049 A 
ATOM     50  C   UNL A   1      38.243  31.180  31.495  1.00  0.00     0.074 A 
ATOM     51  C   UNL A   1      42.505  29.462  35.833  1.00  0.00     0.029 A 
ATOM     52  N   UNL A   1      41.271  29.650  33.993  1.00  0.00    -0.354 N 
ATOM     53  N   UNL A   1      39.155  30.764  32.339  1.00  0.00    -0.248 NA
ATOM     54  C   UNL A   1      37.208  32.032  32.100  1.00  0.00     0.031 C 
ATOM     55  C   UNL A   1      41.430  30.316  36.108  1.00  0.00     0.029 A 
ATOM     56  C   UNL A   1      40.672  30.446  34.956  1.00  0.00     0.049 A 
ATOM     57  H   UNL A   1      40.951  29.544  33.068  1.00  0.00     0.167 HD
ATOM     58  C   UNL A   1      38.828  31.333  33.563  1.00  0.00     0.074 A 
ATOM     59  C   UNL A   1      37.625  32.114  33.356  1.00  0.00     0.031 C 
ATOM     60  C   UNL A   1      39.480  31.229  34.746  1.00  0.00     0.037 A 
BRANCH  47  61
ATOM     61  C   UNL A   1      44.335  27.421  34.560  1.00  0.00     0.057 A 
ATOM     62  C   UNL A   1      45.617  27.981  34.650  1.00  0.00     0.134 A 
ATOM     63  C   UNL A   1      44.114  26.205  35.219  1.00  0.00     0.134 A 
ATOM     64  F   UNL A   1      45.897  29.140  34.034  1.00  0.00    -0.206 F 
ATOM     65  C   UNL A   1      46.647  27.339  35.340  1.00  0.00     0.040 A 
ATOM     66  C   UNL A   1      45.129  25.566  35.933  1.00  0.00     0.040 A 
ATOM     67  F   UNL A   1      42.909  25.619  35.182  1.00  0.00    -0.206 F 
ATOM     68  C   UNL A   1      46.403  26.129  35.988  1.00  0.00     0.006 A 
ENDBRANCH  47  61
BRANCH  48  69
ATOM     69  C   UNL A   1      36.959  31.408  29.258  1.00  0.00     0.057 A 
ATOM     70  C   UNL A   1      36.921  32.704  28.739  1.00  0.00     0.134 A 
ATOM     71  C   UNL A   1      35.857  30.579  29.018  1.00  0.00     0.134 A 
ATOM     72  F   UNL A   1      37.936  33.550  28.963  1.00  0.00    -0.206 F 
ATOM     73  C   UNL A   1      35.826  33.160  28.002  1.00  0.00     0.040 A 
ATOM     74  C   UNL A   1      34.764  31.014  28.270  1.00  0.00     0.040 A 
ATOM     75  F   UNL A   1      35.838  29.333  29.507  1.00  0.00    -0.206 F 
ATOM     76  C   UNL A   1      34.747  32.310  27.759  1.00  0.00     0.006 A 
ENDBRANCH  48  69
BRANCH  60  77
ATOM     77  C   UNL A   1      38.949  32.022  35.904  1.00  0.00     0.057 A 
ATOM     78  C   UNL A   1      38.127  31.451  36.882  1.00  0.00     0.134 A 
ATOM     79  C   UNL A   1      39.312  33.366  36.066  1.00  0.00     0.134 A 
ATOM     80  F   UNL A   1      37.732  30.173  36.777  1.00  0.00    -0.206 F 
ATOM     81  C   UNL A   1      37.676  32.192  37.977  1.00  0.00     0.040 A 
ATOM     82  C   UNL A   1      38.885  34.110  37.167  1.00  0.00     0.040 A 
ATOM     83  F   UNL A   1      40.102  33.971  35.167  1.00  0.00    -0.206 F 
ATOM     84  C   UNL A   1      38.062  33.523  38.125  1.00  0.00     0.006 A 
ENDBRANCH  60  77
ENDBRANCH  34  35
ENDBRANCH  27  29
ENDBRANCH  26  27
ENDBRANCH  25  26
ENDBRANCH  24  25
ENDBRANCH  23  24
ENDBRANCH   1  23
TORSDOF 18
ENDMDL
MODEL 2
REMARK VINA RESULT:     -10.9      4.439      9.260
REMARK SMILES O=C(OCCOCCOCCOC(=O)c1ccc(-c2c3nc(c(-c4c(F)cccc4F)c4ccc([nH]4)c(-c4c(F)cccc4F)c4nc(c(-c5c(F)cccc5F)c5ccc2[nH]5)C=C4)C=C3)cc1)c1ccc(-c2ccc(=O)[nH]c2)cc1
REMARK SMILES IDX 8 1 7 2 6 3 5 4 4 5 3 6 2 7 1 8 69 9 70 10 81 11 71 12 80 13
REMARK SMILES IDX 72 14 73 15 74 16 79 17 75 18 78 19 76 20 77 22 9 23 10 24
REMARK SMILES IDX 11 25 12 26 13 27 14 28 15 29 16 30 68 31 17 32 67 33 18 34
REMARK SMILES IDX 19 35 20 36 61 37 21 38 66 39 60 40 62 41 22 42 65 43 59 44
REMARK SMILES IDX 58 45 23 47 49 48 32 49 48 50 33 51 36 52 47 53 63 54 34 55
REMARK SMILES IDX 35 56 46 58 64 59 37 60 24 61 25 62 30 63 26 64 27 65 29 66
REMARK SMILES IDX 31 67 28 68 50 69 51 70 56 71 52 72 53 73 55 74 57 75 54 76
REMARK SMILES IDX 38 77 39 78 44 79 40 80 41 81 43 82 45 83 42 84
REMARK H PARENT 78 21 62 46 36 57
REMARK Flexibility Score: inf
ROOT
ATOM      1  C   UNL A   1      36.756  23.588  25.218  1.00  0.00     0.188 C 
ENDROOT
BRANCH   1   2
ATOM      2  C   UNL A   1      35.412  23.176  24.611  1.00  0.00     0.188 C 
BRANCH   2   3
ATOM      3  O   UNL A   1      34.838  24.289  23.914  1.00  0.00    -0.376 OA
BRANCH   3   4
ATOM      4  C   UNL A   1      34.361  25.333  24.760  1.00  0.00     0.202 C 
BRANCH   4   5
ATOM      5  C   UNL A   1      32.838  25.384  24.940  1.00  0.00     0.261 C 
BRANCH   5   6
ATOM      6  O   UNL A   1      32.117  25.100  23.730  1.00  0.00    -0.460 OA
BRANCH   6   7
ATOM      7  C   UNL A   1      31.221  24.099  23.549  1.00  0.00     0.338 C 
ATOM      8  O   UNL A   1      30.079  24.354  23.177  1.00  0.00    -0.246 OA
BRANCH   7   9
ATOM      9  C   UNL A   1      31.593  22.673  23.743  1.00  0.00     0.060 A 
ATOM     10  C   UNL A   1      32.009  21.848  22.699  1.00  0.00     0.016 A 
ATOM     11  C   UNL A   1      31.654  22.180  25.053  1.00  0.00     0.016 A 
ATOM     12  C   UNL A   1      32.396  20.530  22.939  1.00  0.00     0.009 A 
ATOM     13  C   UNL A   1      32.078  20.866  25.301  1.00  0.00     0.009 A 
ATOM     14  C   UNL A   1      32.444  20.024  24.243  1.00  0.00    -0.017 A 
BRANCH  14  15
ATOM     15  C   UNL A   1      32.872  18.628  24.470  1.00  0.00    -0.002 A 
ATOM     16  C   UNL A   1      33.341  17.755  23.404  1.00  0.00     0.016 A 
ATOM     17  C   UNL A   1      32.868  18.139  25.726  1.00  0.00     0.094 A 
ATOM     18  C   UNL A   1      33.796  16.520  23.660  1.00  0.00     0.072 A 
ATOM     19  N   UNL A   1      33.312  16.870  26.001  1.00  0.00    -0.328 N 
ATOM     20  C   UNL A   1      33.812  16.013  25.055  1.00  0.00     0.247 A 
ATOM     21  H   UNL A   1      33.267  16.557  26.934  1.00  0.00     0.169 HD
ATOM     22  O   UNL A   1      34.258  14.903  25.320  1.00  0.00    -0.270 OA
ENDBRANCH  14  15
ENDBRANCH   7   9
ENDBRANCH   6   7
ENDBRANCH   5   6
ENDBRANCH   4   5
ENDBRANCH   3   4
ENDBRANCH   2   3
ENDBRANCH   1   2
BRANCH   1  23
ATOM     23  O   UNL A   1      37.785  22.602  25.122  1.00  0.00    -0.376 OA
BRANCH  23  24
ATOM     24  C   UNL A   1      37.410  21.318  24.630  1.00  0.00     0.202 C 
BRANCH  24  25
ATOM     25  C   UNL A   1      38.302  20.143  25.046  1.00  0.00     0.261 C 
BRANCH  25  26
ATOM     26  O   UNL A   1      39.165  20.397  26.169  1.00  0.00    -0.460 OA
BRANCH  26  27
ATOM     27  C   UNL A   1      40.429  19.929  26.022  1.00  0.00     0.338 C 
ATOM     28  O   UNL A   1      40.776  18.825  25.639  1.00  0.00    -0.246 OA
BRANCH  27  29
ATOM     29  C   UNL A   1      41.414  20.928  26.464  1.00  0.00     0.060 A 
ATOM     30  C   UNL A   1      41.756  21.024  27.817  1.00  0.00     0.016 A 
ATOM     31  C   UNL A   1      41.800  21.922  25.564  1.00  0.00     0.016 A 
ATOM     32  C   UNL A   1      42.441  22.153  28.285  1.00  0.00     0.010 A 
ATOM     33  C   UNL A   1      42.493  23.041  26.031  1.00  0.00     0.010 A 
ATOM     34  C   UNL A   1      42.779  23.189  27.401  1.00  0.00    -0.014 A 
BRANCH  34  35
ATOM     35  C   UNL A   1      43.319  24.493  27.872  1.00  0.00     0.031 A 
ATOM     36  C   UNL A   1      42.362  25.593  28.248  1.00  0.00     0.074 A 
ATOM     37  C   UNL A   1      44.640  24.743  27.879  1.00  0.00     0.049 A 
ATOM     38  N   UNL A   1      42.591  26.868  28.434  1.00  0.00    -0.248 NA
ATOM     39  C   UNL A   1      40.958  25.199  28.432  1.00  0.00     0.031 C 
ATOM     40  C   UNL A   1      45.688  23.765  27.605  1.00  0.00     0.029 A 
ATOM     41  N   UNL A   1      45.317  25.924  28.063  1.00  0.00    -0.354 N 
ATOM     42  C   UNL A   1      41.360  27.432  28.746  1.00  0.00     0.074 A 
ATOM     43  C   UNL A   1      40.384  26.364  28.693  1.00  0.00     0.031 C 
ATOM     44  C   UNL A   1      46.870  24.401  27.545  1.00  0.00     0.029 A 
ATOM     45  C   UNL A   1      46.655  25.829  27.765  1.00  0.00     0.049 A 
ATOM     46  H   UNL A   1      44.889  26.752  28.378  1.00  0.00     0.167 HD
ATOM     47  C   UNL A   1      41.071  28.719  29.056  1.00  0.00     0.037 A 
ATOM     48  C   UNL A   1      47.591  26.788  27.628  1.00  0.00     0.037 A 
ATOM     49  C   UNL A   1      42.041  29.781  29.122  1.00  0.00     0.049 A 
ATOM     50  C   UNL A   1      47.238  28.227  27.865  1.00  0.00     0.074 A 
ATOM     51  C   UNL A   1      41.849  31.105  29.482  1.00  0.00     0.029 A 
ATOM     52  N   UNL A   1      43.384  29.644  28.808  1.00  0.00    -0.354 N 
ATOM     53  N   UNL A   1      46.079  28.752  28.178  1.00  0.00    -0.248 NA
ATOM     54  C   UNL A   1      48.327  29.208  27.739  1.00  0.00     0.031 C 
ATOM     55  C   UNL A   1      43.068  31.779  29.340  1.00  0.00     0.029 A 
ATOM     56  C   UNL A   1      44.027  30.865  28.936  1.00  0.00     0.049 A 
ATOM     57  H   UNL A   1      43.817  28.804  28.534  1.00  0.00     0.167 HD
ATOM     58  C   UNL A   1      46.305  30.114  28.326  1.00  0.00     0.074 A 
ATOM     59  C   UNL A   1      47.710  30.339  28.055  1.00  0.00     0.031 C 
ATOM     60  C   UNL A   1      45.426  31.085  28.674  1.00  0.00     0.037 A 
BRANCH  47  61
ATOM     61  C   UNL A   1      39.634  29.054  29.326  1.00  0.00     0.057 A 
ATOM     62  C   UNL A   1      38.758  29.445  28.304  1.00  0.00     0.134 A 
ATOM     63  C   UNL A   1      39.113  28.963  30.623  1.00  0.00     0.134 A 
ATOM     64  F   UNL A   1      39.196  29.560  27.041  1.00  0.00    -0.206 F 
ATOM     65  C   UNL A   1      37.426  29.766  28.569  1.00  0.00     0.040 A 
ATOM     66  C   UNL A   1      37.776  29.256  30.896  1.00  0.00     0.040 A 
ATOM     67  F   UNL A   1      39.894  28.585  31.646  1.00  0.00    -0.206 F 
ATOM     68  C   UNL A   1      36.930  29.668  29.868  1.00  0.00     0.006 A 
ENDBRANCH  47  61
BRANCH  48  69
ATOM     69  C   UNL A   1      48.955  26.408  27.194  1.00  0.00     0.057 A 
ATOM     70  C   UNL A   1      49.326  26.426  25.847  1.00  0.00     0.134 A 
ATOM     71  C   UNL A   1      49.923  26.032  28.130  1.00  0.00     0.134 A 
ATOM     72  F   UNL A   1      48.430  26.751  24.904  1.00  0.00    -0.206 F 
ATOM     73  C   UNL A   1      50.619  26.085  25.446  1.00  0.00     0.040 A 
ATOM     74  C   UNL A   1      51.223  25.705  27.747  1.00  0.00     0.040 A 
ATOM     75  F   UNL A   1      49.613  25.984  29.432  1.00  0.00    -0.206 F 
ATOM     76  C   UNL A   1      51.575  25.732  26.399  1.00  0.00     0.006 A 
ENDBRANCH  48  69
BRANCH  60  77
ATOM     77  C   UNL A   1      45.961  32.478  28.842  1.00  0.00     0.057 A 
ATOM     78  C   UNL A   1      45.939  33.413  27.802  1.00  0.00     0.134 A 
ATOM     79  C   UNL A   1      46.457  32.899  30.083  1.00  0.00     0.134 A 
ATOM     80  F   UNL A   1      45.489  33.068  26.586  1.00  0.00    -0.206 F 
ATOM     81  C   UNL A   1      46.401  34.718  27.988  1.00  0.00     0.040 A 
ATOM     82  C   UNL A   1      46.901  34.206  30.286  1.00  0.00     0.040 A 
ATOM     83  F   UNL A   1      46.501  32.052  31.123  1.00  0.00    -0.206 F 
ATOM     84  C   UNL A   1      46.876  35.119  29.235  1.00  0.00     0.006 A 
ENDBRANCH  60  77
ENDBRANCH  34  35
ENDBRANCH  27  29
ENDBRANCH  26  27
ENDBRANCH  25  26
ENDBRANCH  24  25
ENDBRANCH  23  24
ENDBRANCH   1  23
TORSDOF 18
ENDMDL
MODEL 3
REMARK VINA RESULT:     -10.8      2.314      4.377
REMARK SMILES O=C(OCCOCCOCCOC(=O)c1ccc(-c2c3nc(c(-c4c(F)cccc4F)c4ccc([nH]4)c(-c4c(F)cccc4F)c4nc(c(-c5c(F)cccc5F)c5ccc2[nH]5)C=C4)C=C3)cc1)c1ccc(-c2ccc(=O)[nH]c2)cc1
REMARK SMILES IDX 8 1 7 2 6 3 5 4 4 5 3 6 2 7 1 8 69 9 70 10 81 11 71 12 80 13
REMARK SMILES IDX 72 14 73 15 74 16 79 17 75 18 78 19 76 20 77 22 9 23 10 24
REMARK SMILES IDX 11 25 12 26 13 27 14 28 15 29 16 30 68 31 17 32 67 33 18 34
REMARK SMILES IDX 19 35 20 36 61 37 21 38 66 39 60 40 62 41 22 42 65 43 59 44
REMARK SMILES IDX 58 45 23 47 49 48 32 49 48 50 33 51 36 52 47 53 63 54 34 55
REMARK SMILES IDX 35 56 46 58 64 59 37 60 24 61 25 62 30 63 26 64 27 65 29 66
REMARK SMILES IDX 31 67 28 68 50 69 51 70 56 71 52 72 53 73 55 74 57 75 54 76
REMARK SMILES IDX 38 77 39 78 44 79 40 80 41 81 43 82 45 83 42 84
REMARK H PARENT 78 21 62 46 36 57
REMARK Flexibility Score: inf
ROOT
ATOM      1  C   UNL A   1      38.215  22.223  26.199  1.00  0.00     0.188 C 
ENDROOT
BRANCH   1   2
ATOM      2  C   UNL A   1      37.083  21.971  25.198  1.00  0.00     0.188 C 
BRANCH   2   3
ATOM      3  O   UNL A   1      35.834  22.369  25.776  1.00  0.00    -0.376 OA
BRANCH   3   4
ATOM      4  C   UNL A   1      34.839  21.347  25.795  1.00  0.00     0.202 C 
BRANCH   4   5
ATOM      5  C   UNL A   1      33.419  21.823  26.125  1.00  0.00     0.261 C 
BRANCH   5   6
ATOM      6  O   UNL A   1      33.265  23.249  26.028  1.00  0.00    -0.460 OA
BRANCH   6   7
ATOM      7  C   UNL A   1      32.175  23.963  26.402  1.00  0.00     0.338 C 
ATOM      8  O   UNL A   1      31.600  23.704  27.455  1.00  0.00    -0.246 OA
BRANCH   7   9
ATOM      9  C   UNL A   1      31.669  25.099  25.588  1.00  0.00     0.060 A 
ATOM     10  C   UNL A   1      32.447  25.756  24.635  1.00  0.00     0.016 A 
ATOM     11  C   UNL A   1      30.313  25.434  25.693  1.00  0.00     0.016 A 
ATOM     12  C   UNL A   1      31.911  26.784  23.860  1.00  0.00     0.009 A 
ATOM     13  C   UNL A   1      29.763  26.443  24.890  1.00  0.00     0.009 A 
ATOM     14  C   UNL A   1      30.562  27.136  23.971  1.00  0.00    -0.017 A 
BRANCH  14  15
ATOM     15  C   UNL A   1      30.017  28.220  23.128  1.00  0.00    -0.002 A 
ATOM     16  C   UNL A   1      28.594  28.509  23.023  1.00  0.00     0.016 A 
ATOM     17  C   UNL A   1      30.869  29.010  22.446  1.00  0.00     0.094 A 
ATOM     18  C   UNL A   1      28.142  29.550  22.308  1.00  0.00     0.072 A 
ATOM     19  N   UNL A   1      30.421  30.067  21.695  1.00  0.00    -0.328 N 
ATOM     20  C   UNL A   1      29.102  30.427  21.591  1.00  0.00     0.247 A 
ATOM     21  H   UNL A   1      31.087  30.600  21.202  1.00  0.00     0.169 HD
ATOM     22  O   UNL A   1      28.718  31.406  20.964  1.00  0.00    -0.270 OA
ENDBRANCH  14  15
ENDBRANCH   7   9
ENDBRANCH   6   7
ENDBRANCH   5   6
ENDBRANCH   4   5
ENDBRANCH   3   4
ENDBRANCH   2   3
ENDBRANCH   1   2
BRANCH   1  23
ATOM     23  O   UNL A   1      39.532  22.063  25.668  1.00  0.00    -0.376 OA
BRANCH  23  24
ATOM     24  C   UNL A   1      40.330  21.018  26.217  1.00  0.00     0.202 C 
BRANCH  24  25
ATOM     25  C   UNL A   1      41.845  21.145  26.022  1.00  0.00     0.261 C 
BRANCH  25  26
ATOM     26  O   UNL A   1      42.278  22.345  25.355  1.00  0.00    -0.460 OA
BRANCH  26  27
ATOM     27  C   UNL A   1      43.236  23.040  26.018  1.00  0.00     0.338 C 
ATOM     28  O   UNL A   1      44.399  22.721  26.197  1.00  0.00    -0.246 OA
BRANCH  27  29
ATOM     29  C   UNL A   1      42.683  24.271  26.602  1.00  0.00     0.060 A 
ATOM     30  C   UNL A   1      43.355  25.487  26.439  1.00  0.00     0.016 A 
ATOM     31  C   UNL A   1      41.635  24.159  27.516  1.00  0.00     0.016 A 
ATOM     32  C   UNL A   1      43.012  26.586  27.238  1.00  0.00     0.010 A 
ATOM     33  C   UNL A   1      41.288  25.258  28.304  1.00  0.00     0.010 A 
ATOM     34  C   UNL A   1      42.002  26.467  28.205  1.00  0.00    -0.014 A 
BRANCH  34  35
ATOM     35  C   UNL A   1      41.738  27.527  29.214  1.00  0.00     0.031 A 
ATOM     36  C   UNL A   1      42.464  27.486  30.533  1.00  0.00     0.074 A 
ATOM     37  C   UNL A   1      40.797  28.466  29.013  1.00  0.00     0.049 A 
ATOM     38  N   UNL A   1      42.215  28.136  31.641  1.00  0.00    -0.248 NA
ATOM     39  C   UNL A   1      43.623  26.585  30.609  1.00  0.00     0.031 C 
ATOM     40  C   UNL A   1      40.060  28.674  27.772  1.00  0.00     0.029 A 
ATOM     41  N   UNL A   1      40.257  29.380  29.886  1.00  0.00    -0.354 N 
ATOM     42  C   UNL A   1      43.177  27.716  32.550  1.00  0.00     0.074 A 
ATOM     43  C   UNL A   1      43.995  26.732  31.872  1.00  0.00     0.031 C 
ATOM     44  C   UNL A   1      39.097  29.587  27.985  1.00  0.00     0.029 A 
ATOM     45  C   UNL A   1      39.148  30.015  29.381  1.00  0.00     0.049 A 
ATOM     46  H   UNL A   1      40.626  29.561  30.780  1.00  0.00     0.167 HD
ATOM     47  C   UNL A   1      43.368  28.118  33.830  1.00  0.00     0.037 A 
ATOM     48  C   UNL A   1      38.243  30.809  29.986  1.00  0.00     0.037 A 
ATOM     49  C   UNL A   1      42.565  29.105  34.505  1.00  0.00     0.049 A 
ATOM     50  C   UNL A   1      38.398  31.162  31.437  1.00  0.00     0.074 A 
ATOM     51  C   UNL A   1      42.718  29.617  35.782  1.00  0.00     0.029 A 
ATOM     52  N   UNL A   1      41.449  29.721  33.959  1.00  0.00    -0.354 N 
ATOM     53  N   UNL A   1      39.319  30.778  32.285  1.00  0.00    -0.248 NA
ATOM     54  C   UNL A   1      37.392  32.069  32.011  1.00  0.00     0.031 C 
ATOM     55  C   UNL A   1      41.666  30.507  36.027  1.00  0.00     0.029 A 
ATOM     56  C   UNL A   1      40.886  30.585  34.885  1.00  0.00     0.049 A 
ATOM     57  H   UNL A   1      41.108  29.567  33.049  1.00  0.00     0.167 HD
ATOM     58  C   UNL A   1      39.030  31.425  33.480  1.00  0.00     0.074 A 
ATOM     59  C   UNL A   1      37.838  32.216  33.251  1.00  0.00     0.031 C 
ATOM     60  C   UNL A   1      39.705  31.377  34.654  1.00  0.00     0.037 A 
BRANCH  47  61
ATOM     61  C   UNL A   1      44.482  27.467  34.596  1.00  0.00     0.057 A 
ATOM     62  C   UNL A   1      44.285  26.297  35.341  1.00  0.00     0.134 A 
ATOM     63  C   UNL A   1      45.774  28.007  34.570  1.00  0.00     0.134 A 
ATOM     64  F   UNL A   1      43.070  25.734  35.415  1.00  0.00    -0.206 F 
ATOM     65  C   UNL A   1      45.327  25.706  36.059  1.00  0.00     0.040 A 
ATOM     66  C   UNL A   1      46.829  27.412  35.263  1.00  0.00     0.040 A 
ATOM     67  F   UNL A   1      46.033  29.120  33.868  1.00  0.00    -0.206 F 
ATOM     68  C   UNL A   1      46.604  26.262  36.019  1.00  0.00     0.006 A 
ENDBRANCH  47  61
BRANCH  48  69
ATOM     69  C   UNL A   1      37.071  31.283  29.216  1.00  0.00     0.057 A 
ATOM     70  C   UNL A   1      37.019  32.572  28.679  1.00  0.00     0.134 A 
ATOM     71  C   UNL A   1      35.977  30.441  28.991  1.00  0.00     0.134 A 
ATOM     72  F   UNL A   1      38.027  33.431  28.888  1.00  0.00    -0.206 F 
ATOM     73  C   UNL A   1      35.918  33.006  27.939  1.00  0.00     0.040 A 
ATOM     74  C   UNL A   1      34.878  30.854  28.240  1.00  0.00     0.040 A 
ATOM     75  F   UNL A   1      35.970  29.202  29.498  1.00  0.00    -0.206 F 
ATOM     76  C   UNL A   1      34.847  32.142  27.710  1.00  0.00     0.006 A 
ENDBRANCH  48  69
BRANCH  60  77
ATOM     77  C   UNL A   1      39.214  32.248  35.773  1.00  0.00     0.057 A 
ATOM     78  C   UNL A   1      38.325  31.778  36.745  1.00  0.00     0.134 A 
ATOM     79  C   UNL A   1      39.683  33.562  35.904  1.00  0.00     0.134 A 
ATOM     80  F   UNL A   1      37.828  30.534  36.669  1.00  0.00    -0.206 F 
ATOM     81  C   UNL A   1      37.911  32.588  37.806  1.00  0.00     0.040 A 
ATOM     82  C   UNL A   1      39.293  34.373  36.971  1.00  0.00     0.040 A 
ATOM     83  F   UNL A   1      40.542  34.072  35.008  1.00  0.00    -0.206 F 
ATOM     84  C   UNL A   1      38.402  33.887  37.924  1.00  0.00     0.006 A 
ENDBRANCH  60  77
ENDBRANCH  34  35
ENDBRANCH  27  29
ENDBRANCH  26  27
ENDBRANCH  25  26
ENDBRANCH  24  25
ENDBRANCH  23  24
ENDBRANCH   1  23
TORSDOF 18
ENDMDL
