MODEL 1
REMARK VINA RESULT:     -11.4      0.000      0.000
REMARK SMILES COc1ccc(N2C(=O)/C(=C/c3c(C(=O)OCCOCCOCCOC(=O)c4ccc(-c5c6nc(c(-c7c(F)cccc7F)c7ccc([nH]7)c(-c7c(F)cccc7F)c7nc(c(-c8c(F)cccc8F)c8ccc5[nH]8)C=C7)C=C6)cc4)[nH]c4cc(OC)ccc34)SC2=S)cc1
REMARK SMILES IDX 20 1 19 2 18 3 17 4 16 5 14 6 15 7 13 8 12 9 90 10 82 11
REMARK SMILES IDX 83 12 89 13 84 15 88 16 85 17 11 18 7 19 8 20 92 21 9 22
REMARK SMILES IDX 10 23 91 24 93 25 6 26 3 27 4 28 95 29 5 30 94 31 2 32 1 33
REMARK SMILES IDX 86 34 87 35 21 36 22 37 23 38 24 39 25 40 26 41 27 42 28 43
REMARK SMILES IDX 29 44 81 45 30 46 80 47 31 48 32 49 33 50 74 51 34 52 79 53
REMARK SMILES IDX 73 54 75 55 35 56 78 57 72 58 71 59 36 61 62 62 45 63 61 64
REMARK SMILES IDX 46 65 49 66 60 67 76 68 47 69 48 70 59 72 77 73 50 74 37 75
REMARK SMILES IDX 38 76 43 77 39 78 40 79 42 80 44 81 41 82 63 83 64 84 69 85
REMARK SMILES IDX 65 86 66 87 68 88 70 89 67 90 51 91 52 92 57 93 53 94 54 95
REMARK SMILES IDX 56 96 58 97 55 98
REMARK H PARENT 82 14 75 60 49 71
REMARK Flexibility Score: inf
ROOT
ATOM      1  C   UNL A   1      42.574  21.543  27.175  1.00  0.00     0.188 C 
ENDROOT
BRANCH   1   2
ATOM      2  O   UNL A   1      41.301  22.137  27.393  1.00  0.00    -0.376 OA
BRANCH   2   3
ATOM      3  C   UNL A   1      40.247  21.669  26.532  1.00  0.00     0.202 C 
BRANCH   3   4
ATOM      4  C   UNL A   1      39.009  22.581  26.446  1.00  0.00     0.261 C 
BRANCH   4   5
ATOM      5  O   UNL A   1      37.883  21.837  25.937  1.00  0.00    -0.459 OA
BRANCH   5   6
ATOM      6  C   UNL A   1      36.743  22.554  25.798  1.00  0.00     0.355 C 
ATOM      7  O   UNL A   1      36.710  23.767  25.613  1.00  0.00    -0.244 OA
BRANCH   6   8
ATOM      8  C   UNL A   1      35.633  21.676  25.513  1.00  0.00     0.133 A 
ATOM      9  C   UNL A   1      34.237  21.745  25.557  1.00  0.00     0.016 A 
ATOM     10  C   UNL A   1      33.743  20.478  25.046  1.00  0.00     0.008 A 
ATOM     11  N   UNL A   1      35.957  20.395  25.126  1.00  0.00    -0.348 N 
ATOM     12  C   UNL A   1      34.849  19.643  24.878  1.00  0.00     0.050 A 
ATOM     13  C   UNL A   1      32.481  19.925  24.720  1.00  0.00     0.015 A 
ATOM     14  H   UNL A   1      36.880  20.063  25.039  1.00  0.00     0.167 HD
ATOM     15  C   UNL A   1      34.775  18.298  24.498  1.00  0.00     0.073 A 
ATOM     16  C   UNL A   1      32.388  18.587  24.268  1.00  0.00     0.047 A 
ATOM     17  C   UNL A   1      33.524  17.788  24.174  1.00  0.00     0.120 A 
BRANCH   9  18
ATOM     18  C   UNL A   1      33.448  22.907  25.930  1.00  0.00     0.032 C 
ATOM     19  N   UNL A   1      31.985  25.880  24.351  1.00  0.00    -0.261 N 
ATOM     20  C   UNL A   1      32.228  25.125  25.504  1.00  0.00     0.270 C 
ATOM     21  C   UNL A   1      32.606  25.448  23.191  1.00  0.00     0.152 C 
ATOM     22  O   UNL A   1      31.768  25.304  26.623  1.00  0.00    -0.268 OA
ATOM     23  C   UNL A   1      33.171  23.991  25.177  1.00  0.00     0.081 C 
ATOM     24  S   UNL A   1      33.828  24.298  23.629  1.00  0.00    -0.054 SA
ATOM     25  S   UNL A   1      32.255  25.832  21.597  1.00  0.00    -0.051 S 
BRANCH  19  26
ATOM     26  C   UNL A   1      31.115  27.002  24.300  1.00  0.00     0.051 A 
ATOM     27  C   UNL A   1      29.673  29.216  23.334  1.00  0.00     0.119 A 
ATOM     28  C   UNL A   1      30.967  29.380  23.829  1.00  0.00     0.048 A 
ATOM     29  C   UNL A   1      29.076  27.953  23.391  1.00  0.00     0.048 A 
ATOM     30  C   UNL A   1      31.684  28.286  24.310  1.00  0.00     0.030 A 
ATOM     31  C   UNL A   1      29.790  26.846  23.886  1.00  0.00     0.030 A 
BRANCH  27  32
ATOM     32  O   UNL A   1      29.134  30.351  22.798  1.00  0.00    -0.497 OA
ATOM     33  C   UNL A   1      28.749  31.380  23.698  1.00  0.00     0.278 C 
ENDBRANCH  27  32
ENDBRANCH  19  26
ENDBRANCH   9  18
BRANCH  17  34
ATOM     34  O   UNL A   1      33.479  16.458  23.856  1.00  0.00    -0.497 OA
ATOM     35  C   UNL A   1      33.309  15.620  24.997  1.00  0.00     0.278 C 
ENDBRANCH  17  34
ENDBRANCH   6   8
ENDBRANCH   5   6
ENDBRANCH   4   5
ENDBRANCH   3   4
ENDBRANCH   2   3
ENDBRANCH   1   2
BRANCH   1  36
ATOM     36  C   UNL A   1      43.008  21.216  25.737  1.00  0.00     0.188 C 
BRANCH  36  37
ATOM     37  O   UNL A   1      42.943  22.231  24.747  1.00  0.00    -0.376 OA
BRANCH  37  38
ATOM     38  C   UNL A   1      44.148  22.907  24.398  1.00  0.00     0.202 C 
BRANCH  38  39
ATOM     39  C   UNL A   1      44.241  24.370  24.834  1.00  0.00     0.261 C 
BRANCH  39  40
ATOM     40  O   UNL A   1      43.365  24.607  25.951  1.00  0.00    -0.460 OA
BRANCH  40  41
ATOM     41  C   UNL A   1      42.503  25.640  25.810  1.00  0.00     0.338 C 
ATOM     42  O   UNL A   1      41.690  25.814  24.919  1.00  0.00    -0.246 OA
BRANCH  41  43
ATOM     43  C   UNL A   1      42.502  26.424  27.062  1.00  0.00     0.060 A 
ATOM     44  C   UNL A   1      41.661  26.001  28.102  1.00  0.00     0.016 A 
ATOM     45  C   UNL A   1      43.292  27.565  27.201  1.00  0.00     0.016 A 
ATOM     46  C   UNL A   1      41.567  26.753  29.270  1.00  0.00     0.010 A 
ATOM     47  C   UNL A   1      43.171  28.338  28.356  1.00  0.00     0.010 A 
ATOM     48  C   UNL A   1      42.277  27.955  29.372  1.00  0.00    -0.014 A 
BRANCH  48  49
ATOM     49  C   UNL A   1      41.901  28.920  30.426  1.00  0.00     0.031 A 
ATOM     50  C   UNL A   1      42.772  29.000  31.649  1.00  0.00     0.074 A 
ATOM     51  C   UNL A   1      40.829  29.716  30.293  1.00  0.00     0.049 A 
ATOM     52  N   UNL A   1      42.652  29.759  32.706  1.00  0.00    -0.248 NA
ATOM     53  C   UNL A   1      43.938  28.100  31.681  1.00  0.00     0.031 C 
ATOM     54  C   UNL A   1      39.931  29.745  29.142  1.00  0.00     0.029 A 
ATOM     55  N   UNL A   1      40.313  30.652  31.152  1.00  0.00    -0.354 N 
ATOM     56  C   UNL A   1      43.730  29.438  33.520  1.00  0.00     0.074 A 
ATOM     57  C   UNL A   1      44.479  28.398  32.852  1.00  0.00     0.031 C 
ATOM     58  C   UNL A   1      38.959  30.647  29.373  1.00  0.00     0.029 A 
ATOM     59  C   UNL A   1      39.163  31.240  30.693  1.00  0.00     0.049 A 
ATOM     60  H   UNL A   1      40.729  30.879  32.014  1.00  0.00     0.167 HD
ATOM     61  C   UNL A   1      44.070  29.967  34.718  1.00  0.00     0.037 A 
ATOM     62  C   UNL A   1      38.361  32.145  31.288  1.00  0.00     0.037 A 
ATOM     63  C   UNL A   1      43.311  30.980  35.398  1.00  0.00     0.049 A 
ATOM     64  C   UNL A   1      38.719  32.665  32.654  1.00  0.00     0.074 A 
ATOM     65  C   UNL A   1      43.566  31.581  36.616  1.00  0.00     0.029 A 
ATOM     66  N   UNL A   1      42.134  31.531  34.915  1.00  0.00    -0.354 N 
ATOM     67  N   UNL A   1      39.756  32.379  33.404  1.00  0.00    -0.248 NA
ATOM     68  C   UNL A   1      37.796  33.639  33.255  1.00  0.00     0.031 C 
ATOM     69  C   UNL A   1      42.522  32.474  36.889  1.00  0.00     0.029 A 
ATOM     70  C   UNL A   1      41.638  32.453  35.822  1.00  0.00     0.049 A 
ATOM     71  H   UNL A   1      41.713  31.302  34.055  1.00  0.00     0.167 HD
ATOM     72  C   UNL A   1      39.622  33.149  34.552  1.00  0.00     0.074 A 
ATOM     73  C   UNL A   1      38.409  33.926  34.394  1.00  0.00     0.031 C 
ATOM     74  C   UNL A   1      40.428  33.212  35.641  1.00  0.00     0.037 A 
BRANCH  61  75
ATOM     75  C   UNL A   1      45.307  29.432  35.372  1.00  0.00     0.057 A 
ATOM     76  C   UNL A   1      45.259  28.340  36.248  1.00  0.00     0.134 A 
ATOM     77  C   UNL A   1      46.555  30.013  35.124  1.00  0.00     0.134 A 
ATOM     78  F   UNL A   1      44.088  27.754  36.542  1.00  0.00    -0.206 F 
ATOM     79  C   UNL A   1      46.411  27.857  36.871  1.00  0.00     0.040 A 
ATOM     80  C   UNL A   1      47.717  29.526  35.726  1.00  0.00     0.040 A 
ATOM     81  F   UNL A   1      46.666  31.065  34.299  1.00  0.00    -0.206 F 
ATOM     82  C   UNL A   1      47.645  28.448  36.606  1.00  0.00     0.006 A 
ENDBRANCH  61  75
BRANCH  62  83
ATOM     83  C   UNL A   1      37.133  32.613  30.602  1.00  0.00     0.057 A 
ATOM     84  C   UNL A   1      37.180  33.642  29.654  1.00  0.00     0.134 A 
ATOM     85  C   UNL A   1      35.882  32.059  30.894  1.00  0.00     0.134 A 
ATOM     86  F   UNL A   1      38.349  34.225  29.352  1.00  0.00    -0.206 F 
ATOM     87  C   UNL A   1      36.025  34.114  29.032  1.00  0.00     0.040 A 
ATOM     88  C   UNL A   1      34.719  32.508  30.265  1.00  0.00     0.040 A 
ATOM     89  F   UNL A   1      35.771  31.072  31.795  1.00  0.00    -0.206 F 
ATOM     90  C   UNL A   1      34.789  33.543  29.334  1.00  0.00     0.006 A 
ENDBRANCH  62  83
BRANCH  74  91
ATOM     91  C   UNL A   1      40.034  34.166  36.727  1.00  0.00     0.057 A 
ATOM     92  C   UNL A   1      40.445  35.504  36.716  1.00  0.00     0.134 A 
ATOM     93  C   UNL A   1      39.207  33.748  37.777  1.00  0.00     0.134 A 
ATOM     94  F   UNL A   1      41.247  35.961  35.743  1.00  0.00    -0.206 F 
ATOM     95  C   UNL A   1      40.065  36.389  37.726  1.00  0.00     0.040 A 
ATOM     96  C   UNL A   1      38.803  34.629  38.781  1.00  0.00     0.040 A 
ATOM     97  F   UNL A   1      38.772  32.480  37.839  1.00  0.00    -0.206 F 
ATOM     98  C   UNL A   1      39.237  35.953  38.759  1.00  0.00     0.006 A 
ENDBRANCH  74  91
ENDBRANCH  48  49
ENDBRANCH  41  43
ENDBRANCH  40  41
ENDBRANCH  39  40
ENDBRANCH  38  39
ENDBRANCH  37  38
ENDBRANCH  36  37
ENDBRANCH   1  36
TORSDOF 21
ENDMDL
MODEL 2
REMARK VINA RESULT:     -11.3      1.279      5.951
REMARK SMILES COc1ccc(N2C(=O)/C(=C/c3c(C(=O)OCCOCCOCCOC(=O)c4ccc(-c5c6nc(c(-c7c(F)cccc7F)c7ccc([nH]7)c(-c7c(F)cccc7F)c7nc(c(-c8c(F)cccc8F)c8ccc5[nH]8)C=C7)C=C6)cc4)[nH]c4cc(OC)ccc34)SC2=S)cc1
REMARK SMILES IDX 20 1 19 2 18 3 17 4 16 5 14 6 15 7 13 8 12 9 90 10 82 11
REMARK SMILES IDX 83 12 89 13 84 15 88 16 85 17 11 18 7 19 8 20 92 21 9 22
REMARK SMILES IDX 10 23 91 24 93 25 6 26 3 27 4 28 95 29 5 30 94 31 2 32 1 33
REMARK SMILES IDX 86 34 87 35 21 36 22 37 23 38 24 39 25 40 26 41 27 42 28 43
REMARK SMILES IDX 29 44 81 45 30 46 80 47 31 48 32 49 33 50 74 51 34 52 79 53
REMARK SMILES IDX 73 54 75 55 35 56 78 57 72 58 71 59 36 61 62 62 45 63 61 64
REMARK SMILES IDX 46 65 49 66 60 67 76 68 47 69 48 70 59 72 77 73 50 74 37 75
REMARK SMILES IDX 38 76 43 77 39 78 40 79 42 80 44 81 41 82 63 83 64 84 69 85
REMARK SMILES IDX 65 86 66 87 68 88 70 89 67 90 51 91 52 92 57 93 53 94 54 95
REMARK SMILES IDX 56 96 58 97 55 98
REMARK H PARENT 82 14 75 60 49 71
REMARK Flexibility Score: inf
ROOT
ATOM      1  C   UNL A   1      40.883  21.106  27.407  1.00  0.00     0.188 C 
ENDROOT
BRANCH   1   2
ATOM      2  O   UNL A   1      40.028  22.191  27.068  1.00  0.00    -0.376 OA
BRANCH   2   3
ATOM      3  C   UNL A   1      38.982  21.881  26.130  1.00  0.00     0.202 C 
BRANCH   3   4
ATOM      4  C   UNL A   1      37.978  23.016  25.859  1.00  0.00     0.261 C 
BRANCH   4   5
ATOM      5  O   UNL A   1      37.050  22.620  24.829  1.00  0.00    -0.459 OA
BRANCH   5   6
ATOM      6  C   UNL A   1      35.787  23.080  24.993  1.00  0.00     0.355 C 
ATOM      7  O   UNL A   1      35.496  24.266  25.112  1.00  0.00    -0.244 OA
BRANCH   6   8
ATOM      8  C   UNL A   1      34.833  22.060  24.626  1.00  0.00     0.133 A 
ATOM      9  C   UNL A   1      33.651  21.984  23.883  1.00  0.00     0.016 A 
ATOM     10  C   UNL A   1      33.255  20.586  23.874  1.00  0.00     0.008 A 
ATOM     11  N   UNL A   1      35.059  20.804  25.147  1.00  0.00    -0.348 N 
ATOM     12  C   UNL A   1      34.111  19.912  24.747  1.00  0.00     0.050 A 
ATOM     13  C   UNL A   1      32.257  19.806  23.243  1.00  0.00     0.015 A 
ATOM     14  H   UNL A   1      35.815  20.580  25.736  1.00  0.00     0.167 HD
ATOM     15  C   UNL A   1      33.987  18.560  25.090  1.00  0.00     0.073 A 
ATOM     16  C   UNL A   1      32.155  18.423  23.522  1.00  0.00     0.047 A 
ATOM     17  C   UNL A   1      33.005  17.820  24.444  1.00  0.00     0.120 A 
BRANCH   9  18
ATOM     18  C   UNL A   1      33.019  23.078  23.165  1.00  0.00     0.032 C 
ATOM     19  N   UNL A   1      31.148  26.150  23.895  1.00  0.00    -0.261 N 
ATOM     20  C   UNL A   1      31.680  25.258  22.956  1.00  0.00     0.270 C 
ATOM     21  C   UNL A   1      31.230  25.768  25.223  1.00  0.00     0.152 C 
ATOM     22  O   UNL A   1      31.740  25.400  21.743  1.00  0.00    -0.268 OA
ATOM     23  C   UNL A   1      32.213  24.036  23.667  1.00  0.00     0.081 C 
ATOM     24  S   UNL A   1      31.635  24.082  25.275  1.00  0.00    -0.054 SA
ATOM     25  S   UNL A   1      31.078  26.705  26.606  1.00  0.00    -0.051 S 
BRANCH  19  26
ATOM     26  C   UNL A   1      30.592  27.416  23.566  1.00  0.00     0.051 A 
ATOM     27  C   UNL A   1      29.495  29.543  22.089  1.00  0.00     0.119 A 
ATOM     28  C   UNL A   1      30.878  29.424  22.230  1.00  0.00     0.048 A 
ATOM     29  C   UNL A   1      28.661  28.636  22.749  1.00  0.00     0.048 A 
ATOM     30  C   UNL A   1      31.425  28.372  22.964  1.00  0.00     0.030 A 
ATOM     31  C   UNL A   1      29.206  27.578  23.499  1.00  0.00     0.030 A 
BRANCH  27  32
ATOM     32  O   UNL A   1      29.106  30.555  21.257  1.00  0.00    -0.497 OA
ATOM     33  C   UNL A   1      28.059  31.404  21.705  1.00  0.00     0.278 C 
ENDBRANCH  27  32
ENDBRANCH  19  26
ENDBRANCH   9  18
BRANCH  17  34
ATOM     34  O   UNL A   1      32.875  16.516  24.840  1.00  0.00    -0.497 OA
ATOM     35  C   UNL A   1      34.128  15.848  24.970  1.00  0.00     0.278 C 
ENDBRANCH  17  34
ENDBRANCH   6   8
ENDBRANCH   5   6
ENDBRANCH   4   5
ENDBRANCH   3   4
ENDBRANCH   2   3
ENDBRANCH   1   2
BRANCH   1  36
ATOM     36  C   UNL A   1      41.713  20.436  26.301  1.00  0.00     0.188 C 
BRANCH  36  37
ATOM     37  O   UNL A   1      42.474  21.246  25.419  1.00  0.00    -0.376 OA
BRANCH  37  38
ATOM     38  C   UNL A   1      43.450  22.118  25.983  1.00  0.00     0.202 C 
BRANCH  38  39
ATOM     39  C   UNL A   1      43.495  23.533  25.403  1.00  0.00     0.261 C 
BRANCH  39  40
ATOM     40  O   UNL A   1      42.310  24.257  25.784  1.00  0.00    -0.460 OA
BRANCH  40  41
ATOM     41  C   UNL A   1      42.379  25.602  25.651  1.00  0.00     0.338 C 
ATOM     42  O   UNL A   1      42.278  26.255  24.627  1.00  0.00    -0.246 OA
BRANCH  41  43
ATOM     43  C   UNL A   1      42.337  26.208  26.998  1.00  0.00     0.060 A 
ATOM     44  C   UNL A   1      41.299  25.823  27.859  1.00  0.00     0.016 A 
ATOM     45  C   UNL A   1      43.281  27.154  27.396  1.00  0.00     0.016 A 
ATOM     46  C   UNL A   1      41.170  26.425  29.107  1.00  0.00     0.010 A 
ATOM     47  C   UNL A   1      43.133  27.783  28.632  1.00  0.00     0.010 A 
ATOM     48  C   UNL A   1      42.053  27.449  29.469  1.00  0.00    -0.014 A 
BRANCH  48  49
ATOM     49  C   UNL A   1      41.703  28.327  30.605  1.00  0.00     0.031 A 
ATOM     50  C   UNL A   1      40.568  29.296  30.421  1.00  0.00     0.074 A 
ATOM     51  C   UNL A   1      42.362  28.256  31.771  1.00  0.00     0.049 A 
ATOM     52  N   UNL A   1      40.075  30.168  31.261  1.00  0.00    -0.248 NA
ATOM     53  C   UNL A   1      39.895  29.274  29.110  1.00  0.00     0.031 C 
ATOM     54  C   UNL A   1      43.459  27.340  32.072  1.00  0.00     0.029 A 
ATOM     55  N   UNL A   1      42.202  28.985  32.922  1.00  0.00    -0.354 N 
ATOM     56  C   UNL A   1      39.031  30.787  30.586  1.00  0.00     0.074 A 
ATOM     57  C   UNL A   1      38.976  30.214  29.260  1.00  0.00     0.031 C 
ATOM     58  C   UNL A   1      43.886  27.572  33.327  1.00  0.00     0.029 A 
ATOM     59  C   UNL A   1      43.103  28.663  33.904  1.00  0.00     0.049 A 
ATOM     60  H   UNL A   1      41.506  29.672  33.032  1.00  0.00     0.167 HD
ATOM     61  C   UNL A   1      38.188  31.746  31.034  1.00  0.00     0.037 A 
ATOM     62  C   UNL A   1      43.278  29.206  35.124  1.00  0.00     0.037 A 
ATOM     63  C   UNL A   1      38.260  32.338  32.341  1.00  0.00     0.049 A 
ATOM     64  C   UNL A   1      42.375  30.322  35.573  1.00  0.00     0.074 A 
ATOM     65  C   UNL A   1      37.456  33.319  32.892  1.00  0.00     0.029 A 
ATOM     66  N   UNL A   1      39.205  32.006  33.299  1.00  0.00    -0.354 N 
ATOM     67  N   UNL A   1      41.372  30.882  34.940  1.00  0.00    -0.248 NA
ATOM     68  C   UNL A   1      42.629  30.882  36.909  1.00  0.00     0.031 C 
ATOM     69  C   UNL A   1      37.939  33.607  34.174  1.00  0.00     0.029 A 
ATOM     70  C   UNL A   1      39.019  32.779  34.432  1.00  0.00     0.049 A 
ATOM     71  H   UNL A   1      39.906  31.322  33.189  1.00  0.00     0.167 HD
ATOM     72  C   UNL A   1      40.862  31.842  35.806  1.00  0.00     0.074 A 
ATOM     73  C   UNL A   1      41.659  31.780  37.015  1.00  0.00     0.031 C 
ATOM     74  C   UNL A   1      39.827  32.698  35.622  1.00  0.00     0.037 A 
BRANCH  61  75
ATOM     75  C   UNL A   1      37.136  32.224  30.081  1.00  0.00     0.057 A 
ATOM     76  C   UNL A   1      37.372  33.288  29.201  1.00  0.00     0.134 A 
ATOM     77  C   UNL A   1      35.875  31.617  30.044  1.00  0.00     0.134 A 
ATOM     78  F   UNL A   1      38.553  33.925  29.205  1.00  0.00    -0.206 F 
ATOM     79  C   UNL A   1      36.382  33.745  28.329  1.00  0.00     0.040 A 
ATOM     80  C   UNL A   1      34.883  32.053  29.163  1.00  0.00     0.040 A 
ATOM     81  F   UNL A   1      35.585  30.598  30.866  1.00  0.00    -0.206 F 
ATOM     82  C   UNL A   1      35.135  33.122  28.306  1.00  0.00     0.006 A 
ENDBRANCH  61  75
BRANCH  62  83
ATOM     83  C   UNL A   1      44.359  28.708  36.009  1.00  0.00     0.057 A 
ATOM     84  C   UNL A   1      44.126  27.679  36.929  1.00  0.00     0.134 A 
ATOM     85  C   UNL A   1      45.642  29.265  35.972  1.00  0.00     0.134 A 
ATOM     86  F   UNL A   1      42.909  27.125  37.025  1.00  0.00    -0.206 F 
ATOM     87  C   UNL A   1      45.126  27.231  37.792  1.00  0.00     0.040 A 
ATOM     88  C   UNL A   1      46.659  28.814  36.816  1.00  0.00     0.040 A 
ATOM     89  F   UNL A   1      45.926  30.255  35.114  1.00  0.00    -0.206 F 
ATOM     90  C   UNL A   1      46.400  27.797  37.734  1.00  0.00     0.006 A 
ENDBRANCH  62  83
BRANCH  74  91
ATOM     91  C   UNL A   1      39.489  33.614  36.758  1.00  0.00     0.057 A 
ATOM     92  C   UNL A   1      38.659  33.206  37.810  1.00  0.00     0.134 A 
ATOM     93  C   UNL A   1      40.025  34.906  36.817  1.00  0.00     0.134 A 
ATOM     94  F   UNL A   1      38.106  31.985  37.805  1.00  0.00    -0.206 F 
ATOM     95  C   UNL A   1      38.357  34.062  38.871  1.00  0.00     0.040 A 
ATOM     96  C   UNL A   1      39.749  35.763  37.883  1.00  0.00     0.040 A 
ATOM     97  F   UNL A   1      40.835  35.352  35.844  1.00  0.00    -0.206 F 
ATOM     98  C   UNL A   1      38.907  35.342  38.911  1.00  0.00     0.006 A 
ENDBRANCH  74  91
ENDBRANCH  48  49
ENDBRANCH  41  43
ENDBRANCH  40  41
ENDBRANCH  39  40
ENDBRANCH  38  39
ENDBRANCH  37  38
ENDBRANCH  36  37
ENDBRANCH   1  36
TORSDOF 21
ENDMDL
MODEL 3
REMARK VINA RESULT:     -11.0      6.114     11.448
REMARK SMILES COc1ccc(N2C(=O)/C(=C/c3c(C(=O)OCCOCCOCCOC(=O)c4ccc(-c5c6nc(c(-c7c(F)cccc7F)c7ccc([nH]7)c(-c7c(F)cccc7F)c7nc(c(-c8c(F)cccc8F)c8ccc5[nH]8)C=C7)C=C6)cc4)[nH]c4cc(OC)ccc34)SC2=S)cc1
REMARK SMILES IDX 20 1 19 2 18 3 17 4 16 5 14 6 15 7 13 8 12 9 90 10 82 11
REMARK SMILES IDX 83 12 89 13 84 15 88 16 85 17 11 18 7 19 8 20 92 21 9 22
REMARK SMILES IDX 10 23 91 24 93 25 6 26 3 27 4 28 95 29 5 30 94 31 2 32 1 33
REMARK SMILES IDX 86 34 87 35 21 36 22 37 23 38 24 39 25 40 26 41 27 42 28 43
REMARK SMILES IDX 29 44 81 45 30 46 80 47 31 48 32 49 33 50 74 51 34 52 79 53
REMARK SMILES IDX 73 54 75 55 35 56 78 57 72 58 71 59 36 61 62 62 45 63 61 64
REMARK SMILES IDX 46 65 49 66 60 67 76 68 47 69 48 70 59 72 77 73 50 74 37 75
REMARK SMILES IDX 38 76 43 77 39 78 40 79 42 80 44 81 41 82 63 83 64 84 69 85
REMARK SMILES IDX 65 86 66 87 68 88 70 89 67 90 51 91 52 92 57 93 53 94 54 95
REMARK SMILES IDX 56 96 58 97 55 98
REMARK H PARENT 82 14 75 60 49 71
REMARK Flexibility Score: inf
ROOT
ATOM      1  C   UNL A   1      37.751  30.920  29.319  1.00  0.00     0.188 C 
ENDROOT
BRANCH   1   2
ATOM      2  O   UNL A   1      36.333  30.938  29.218  1.00  0.00    -0.376 OA
BRANCH   2   3
ATOM      3  C   UNL A   1      35.810  30.922  27.878  1.00  0.00     0.202 C 
BRANCH   3   4
ATOM      4  C   UNL A   1      34.278  30.815  27.766  1.00  0.00     0.261 C 
BRANCH   4   5
ATOM      5  O   UNL A   1      33.905  30.449  26.422  1.00  0.00    -0.459 OA
BRANCH   5   6
ATOM      6  C   UNL A   1      33.388  29.204  26.294  1.00  0.00     0.355 C 
ATOM      7  O   UNL A   1      33.504  28.320  27.137  1.00  0.00    -0.244 OA
BRANCH   6   8
ATOM      8  C   UNL A   1      32.387  29.184  25.253  1.00  0.00     0.133 A 
ATOM      9  C   UNL A   1      32.089  28.397  24.137  1.00  0.00     0.016 A 
ATOM     10  C   UNL A   1      30.861  28.929  23.571  1.00  0.00     0.008 A 
ATOM     11  N   UNL A   1      31.469  30.210  25.277  1.00  0.00    -0.348 N 
ATOM     12  C   UNL A   1      30.567  30.107  24.261  1.00  0.00     0.050 A 
ATOM     13  C   UNL A   1      29.964  28.563  22.539  1.00  0.00     0.015 A 
ATOM     14  H   UNL A   1      31.464  30.930  25.948  1.00  0.00     0.167 HD
ATOM     15  C   UNL A   1      29.512  30.969  23.941  1.00  0.00     0.073 A 
ATOM     16  C   UNL A   1      28.851  29.385  22.242  1.00  0.00     0.047 A 
ATOM     17  C   UNL A   1      28.643  30.577  22.930  1.00  0.00     0.120 A 
BRANCH   9  18
ATOM     18  C   UNL A   1      32.808  27.209  23.708  1.00  0.00     0.032 C 
ATOM     19  N   UNL A   1      32.882  23.611  24.428  1.00  0.00    -0.261 N 
ATOM     20  C   UNL A   1      33.399  24.711  23.734  1.00  0.00     0.270 C 
ATOM     21  C   UNL A   1      31.934  23.885  25.398  1.00  0.00     0.152 C 
ATOM     22  O   UNL A   1      34.219  24.703  22.827  1.00  0.00    -0.268 OA
ATOM     23  C   UNL A   1      32.775  25.981  24.265  1.00  0.00     0.081 C 
ATOM     24  S   UNL A   1      31.967  25.590  25.719  1.00  0.00    -0.054 SA
ATOM     25  S   UNL A   1      30.834  22.849  26.128  1.00  0.00    -0.051 S 
BRANCH  19  26
ATOM     26  C   UNL A   1      33.232  22.261  24.156  1.00  0.00     0.051 A 
ATOM     27  C   UNL A   1      33.379  19.457  24.335  1.00  0.00     0.119 A 
ATOM     28  C   UNL A   1      34.263  20.256  25.061  1.00  0.00     0.048 A 
ATOM     29  C   UNL A   1      32.468  20.064  23.465  1.00  0.00     0.048 A 
ATOM     30  C   UNL A   1      34.194  21.646  24.973  1.00  0.00     0.030 A 
ATOM     31  C   UNL A   1      32.401  21.466  23.363  1.00  0.00     0.030 A 
BRANCH  27  32
ATOM     32  O   UNL A   1      33.490  18.121  24.601  1.00  0.00    -0.497 OA
ATOM     33  C   UNL A   1      32.592  17.567  25.551  1.00  0.00     0.278 C 
ENDBRANCH  27  32
ENDBRANCH  19  26
ENDBRANCH   9  18
BRANCH  17  34
ATOM     34  O   UNL A   1      27.654  31.466  22.606  1.00  0.00    -0.497 OA
ATOM     35  C   UNL A   1      28.023  32.345  21.547  1.00  0.00     0.278 C 
ENDBRANCH  17  34
ENDBRANCH   6   8
ENDBRANCH   5   6
ENDBRANCH   4   5
ENDBRANCH   3   4
ENDBRANCH   2   3
ENDBRANCH   1   2
BRANCH   1  36
ATOM     36  C   UNL A   1      38.463  29.580  29.569  1.00  0.00     0.188 C 
BRANCH  36  37
ATOM     37  O   UNL A   1      38.426  28.579  28.564  1.00  0.00    -0.376 OA
BRANCH  37  38
ATOM     38  C   UNL A   1      39.576  27.754  28.396  1.00  0.00     0.202 C 
BRANCH  38  39
ATOM     39  C   UNL A   1      39.304  26.311  27.964  1.00  0.00     0.261 C 
BRANCH  39  40
ATOM     40  O   UNL A   1      40.008  26.023  26.743  1.00  0.00    -0.460 OA
BRANCH  40  41
ATOM     41  C   UNL A   1      40.934  25.039  26.820  1.00  0.00     0.338 C 
ATOM     42  O   UNL A   1      40.746  23.836  26.787  1.00  0.00    -0.246 OA
BRANCH  41  43
ATOM     43  C   UNL A   1      42.274  25.646  26.686  1.00  0.00     0.060 A 
ATOM     44  C   UNL A   1      43.019  25.860  27.855  1.00  0.00     0.016 A 
ATOM     45  C   UNL A   1      42.778  26.021  25.440  1.00  0.00     0.016 A 
ATOM     46  C   UNL A   1      44.252  26.502  27.787  1.00  0.00     0.010 A 
ATOM     47  C   UNL A   1      43.996  26.696  25.375  1.00  0.00     0.010 A 
ATOM     48  C   UNL A   1      44.713  26.974  26.553  1.00  0.00    -0.014 A 
BRANCH  48  49
ATOM     49  C   UNL A   1      45.814  27.960  26.530  1.00  0.00     0.031 A 
ATOM     50  C   UNL A   1      45.455  29.416  26.637  1.00  0.00     0.074 A 
ATOM     51  C   UNL A   1      47.095  27.574  26.433  1.00  0.00     0.049 A 
ATOM     52  N   UNL A   1      46.235  30.466  26.637  1.00  0.00    -0.248 NA
ATOM     53  C   UNL A   1      44.021  29.729  26.765  1.00  0.00     0.031 C 
ATOM     54  C   UNL A   1      47.561  26.192  26.351  1.00  0.00     0.029 A 
ATOM     55  N   UNL A   1      48.242  28.324  26.380  1.00  0.00    -0.354 N 
ATOM     56  C   UNL A   1      45.389  31.558  26.776  1.00  0.00     0.074 A 
ATOM     57  C   UNL A   1      44.036  31.051  26.830  1.00  0.00     0.031 C 
ATOM     58  C   UNL A   1      48.902  26.193  26.241  1.00  0.00     0.029 A 
ATOM     59  C   UNL A   1      49.380  27.575  26.229  1.00  0.00     0.049 A 
ATOM     60  H   UNL A   1      48.246  29.306  26.445  1.00  0.00     0.167 HD
ATOM     61  C   UNL A   1      45.710  32.870  26.857  1.00  0.00     0.037 A 
ATOM     62  C   UNL A   1      50.659  27.970  26.081  1.00  0.00     0.037 A 
ATOM     63  C   UNL A   1      47.051  33.378  26.774  1.00  0.00     0.049 A 
ATOM     64  C   UNL A   1      50.985  29.439  26.100  1.00  0.00     0.074 A 
ATOM     65  C   UNL A   1      47.485  34.689  26.841  1.00  0.00     0.029 A 
ATOM     66  N   UNL A   1      48.177  32.590  26.591  1.00  0.00    -0.354 N 
ATOM     67  N   UNL A   1      50.183  30.464  26.262  1.00  0.00    -0.248 NA
ATOM     68  C   UNL A   1      52.397  29.806  25.919  1.00  0.00     0.031 C 
ATOM     69  C   UNL A   1      48.874  34.698  26.663  1.00  0.00     0.029 A 
ATOM     70  C   UNL A   1      49.306  33.389  26.522  1.00  0.00     0.049 A 
ATOM     71  H   UNL A   1      48.174  31.608  26.522  1.00  0.00     0.167 HD
ATOM     72  C   UNL A   1      50.992  31.592  26.223  1.00  0.00     0.074 A 
ATOM     73  C   UNL A   1      52.351  31.125  26.036  1.00  0.00     0.031 C 
ATOM     74  C   UNL A   1      50.647  32.899  26.335  1.00  0.00     0.037 A 
BRANCH  61  75
ATOM     75  C   UNL A   1      44.579  33.838  27.020  1.00  0.00     0.057 A 
ATOM     76  C   UNL A   1      44.076  34.173  28.283  1.00  0.00     0.134 A 
ATOM     77  C   UNL A   1      43.987  34.440  25.903  1.00  0.00     0.134 A 
ATOM     78  F   UNL A   1      44.588  33.613  29.390  1.00  0.00    -0.206 F 
ATOM     79  C   UNL A   1      43.008  35.060  28.429  1.00  0.00     0.040 A 
ATOM     80  C   UNL A   1      42.931  35.343  26.038  1.00  0.00     0.040 A 
ATOM     81  F   UNL A   1      44.420  34.156  24.666  1.00  0.00    -0.206 F 
ATOM     82  C   UNL A   1      42.437  35.652  27.304  1.00  0.00     0.006 A 
ENDBRANCH  61  75
BRANCH  62  83
ATOM     83  C   UNL A   1      51.730  26.963  25.893  1.00  0.00     0.057 A 
ATOM     84  C   UNL A   1      52.444  26.452  26.984  1.00  0.00     0.134 A 
ATOM     85  C   UNL A   1      52.081  26.504  24.619  1.00  0.00     0.134 A 
ATOM     86  F   UNL A   1      52.167  26.874  28.226  1.00  0.00    -0.206 F 
ATOM     87  C   UNL A   1      53.479  25.533  26.812  1.00  0.00     0.040 A 
ATOM     88  C   UNL A   1      53.101  25.570  24.433  1.00  0.00     0.040 A 
ATOM     89  F   UNL A   1      51.435  26.958  23.534  1.00  0.00    -0.206 F 
ATOM     90  C   UNL A   1      53.808  25.086  25.533  1.00  0.00     0.006 A 
ENDBRANCH  62  83
BRANCH  74  91
ATOM     91  C   UNL A   1      51.756  33.905  26.278  1.00  0.00     0.057 A 
ATOM     92  C   UNL A   1      52.399  34.357  27.437  1.00  0.00     0.134 A 
ATOM     93  C   UNL A   1      52.206  34.402  25.049  1.00  0.00     0.134 A 
ATOM     94  F   UNL A   1      52.005  33.926  28.645  1.00  0.00    -0.206 F 
ATOM     95  C   UNL A   1      53.438  35.286  27.376  1.00  0.00     0.040 A 
ATOM     96  C   UNL A   1      53.258  35.315  24.973  1.00  0.00     0.040 A 
ATOM     97  F   UNL A   1      51.636  34.001  23.902  1.00  0.00    -0.206 F 
ATOM     98  C   UNL A   1      53.874  35.764  26.141  1.00  0.00     0.006 A 
ENDBRANCH  74  91
ENDBRANCH  48  49
ENDBRANCH  41  43
ENDBRANCH  40  41
ENDBRANCH  39  40
ENDBRANCH  38  39
ENDBRANCH  37  38
ENDBRANCH  36  37
ENDBRANCH   1  36
TORSDOF 21
ENDMDL
