MODEL 1
REMARK VINA RESULT:      -9.5      0.000      0.000
REMARK SMILES O=C(Cc1cccn1-c1ccccc1F)OCCOCCOCCOC(=O)c1ccc(-c2c3nc(c(-c4c(F)cccc4F)c4ccc([nH]4)c(-c4c(F)cccc4F)c4nc(c(-c5c(F)cccc5F)c5ccc2[nH]5)C=C4)C=C3)cc1
REMARK SMILES IDX 20 1 19 2 18 3 17 4 16 5 2 6 1 7 3 8 4 9 5 10 8 11 6 12 7 13
REMARK SMILES IDX 9 14 10 15 14 16 11 17 13 18 15 19 12 20 21 21 22 22 23 23
REMARK SMILES IDX 24 24 25 25 26 26 27 27 28 28 29 29 81 30 30 31 80 32 31 33
REMARK SMILES IDX 32 34 33 35 74 36 34 37 79 38 73 39 75 40 35 41 78 42 72 43
REMARK SMILES IDX 71 44 36 46 62 47 45 48 61 49 46 50 49 51 60 52 76 53 47 54
REMARK SMILES IDX 48 55 59 57 77 58 50 59 37 60 38 61 43 62 39 63 40 64 42 65
REMARK SMILES IDX 44 66 41 67 63 68 64 69 69 70 65 71 66 72 68 73 70 74 67 75
REMARK SMILES IDX 51 76 52 77 57 78 53 79 54 80 56 81 58 82 55 83
REMARK H PARENT 75 45 49 56
REMARK Flexibility Score: inf
ROOT
ATOM      1  C   UNL A   1      40.894  20.645  27.061  1.00  0.00     0.188 C 
ENDROOT
BRANCH   1   2
ATOM      2  O   UNL A   1      40.366  21.576  26.133  1.00  0.00    -0.376 OA
BRANCH   2   3
ATOM      3  C   UNL A   1      39.065  21.269  25.644  1.00  0.00     0.202 C 
BRANCH   3   4
ATOM      4  C   UNL A   1      38.041  22.380  25.859  1.00  0.00     0.261 C 
BRANCH   4   5
ATOM      5  O   UNL A   1      37.100  22.555  24.776  1.00  0.00    -0.463 OA
BRANCH   5   6
ATOM      6  C   UNL A   1      35.868  23.099  24.799  1.00  0.00     0.311 C 
ATOM      7  O   UNL A   1      35.253  23.154  25.865  1.00  0.00    -0.252 OA
BRANCH   6   8
ATOM      8  C   UNL A   1      35.189  23.545  23.527  1.00  0.00     0.177 C 
BRANCH   8   9
ATOM      9  C   UNL A   1      33.692  23.561  23.529  1.00  0.00     0.034 A 
ATOM     10  C   UNL A   1      32.844  22.527  23.165  1.00  0.00     0.024 A 
ATOM     11  N   UNL A   1      32.902  24.661  23.848  1.00  0.00    -0.318 N 
ATOM     12  C   UNL A   1      31.523  23.022  23.191  1.00  0.00     0.020 A 
ATOM     13  C   UNL A   1      31.592  24.343  23.568  1.00  0.00     0.091 A 
BRANCH  11  14
ATOM     14  C   UNL A   1      33.365  25.930  24.248  1.00  0.00     0.081 A 
ATOM     15  C   UNL A   1      33.573  26.925  23.288  1.00  0.00     0.030 A 
ATOM     16  C   UNL A   1      33.431  26.233  25.609  1.00  0.00     0.147 A 
ATOM     17  C   UNL A   1      33.827  28.231  23.706  1.00  0.00     0.002 A 
ATOM     18  C   UNL A   1      33.642  27.545  26.021  1.00  0.00     0.041 A 
ATOM     19  F   UNL A   1      33.167  25.302  26.538  1.00  0.00    -0.205 F 
ATOM     20  C   UNL A   1      33.838  28.546  25.067  1.00  0.00     0.003 A 
ENDBRANCH  11  14
ENDBRANCH   8   9
ENDBRANCH   6   8
ENDBRANCH   5   6
ENDBRANCH   4   5
ENDBRANCH   3   4
ENDBRANCH   2   3
ENDBRANCH   1   2
BRANCH   1  21
ATOM     21  C   UNL A   1      42.282  20.047  26.738  1.00  0.00     0.188 C 
BRANCH  21  22
ATOM     22  O   UNL A   1      42.843  19.994  25.433  1.00  0.00    -0.376 OA
BRANCH  22  23
ATOM     23  C   UNL A   1      44.205  20.273  25.157  1.00  0.00     0.202 C 
BRANCH  23  24
ATOM     24  C   UNL A   1      44.589  21.658  24.656  1.00  0.00     0.261 C 
BRANCH  24  25
ATOM     25  O   UNL A   1      44.080  22.698  25.482  1.00  0.00    -0.460 OA
BRANCH  25  26
ATOM     26  C   UNL A   1      44.464  23.919  25.082  1.00  0.00     0.338 C 
ATOM     27  O   UNL A   1      45.487  24.220  24.467  1.00  0.00    -0.246 OA
BRANCH  26  28
ATOM     28  C   UNL A   1      43.500  24.929  25.503  1.00  0.00     0.060 A 
ATOM     29  C   UNL A   1      43.965  26.249  25.548  1.00  0.00     0.016 A 
ATOM     30  C   UNL A   1      42.304  24.534  26.113  1.00  0.00     0.016 A 
ATOM     31  C   UNL A   1      43.356  27.132  26.407  1.00  0.00     0.010 A 
ATOM     32  C   UNL A   1      41.710  25.410  26.997  1.00  0.00     0.010 A 
ATOM     33  C   UNL A   1      42.306  26.662  27.202  1.00  0.00    -0.014 A 
BRANCH  33  34
ATOM     34  C   UNL A   1      41.928  27.473  28.367  1.00  0.00     0.031 A 
ATOM     35  C   UNL A   1      42.766  27.181  29.587  1.00  0.00     0.074 A 
ATOM     36  C   UNL A   1      40.872  28.313  28.155  1.00  0.00     0.049 A 
ATOM     37  N   UNL A   1      42.512  27.414  30.835  1.00  0.00    -0.248 NA
ATOM     38  C   UNL A   1      44.060  26.472  29.403  1.00  0.00     0.031 C 
ATOM     39  C   UNL A   1      40.165  28.434  26.863  1.00  0.00     0.029 A 
ATOM     40  N   UNL A   1      40.172  29.209  28.935  1.00  0.00    -0.354 N 
ATOM     41  C   UNL A   1      43.678  27.095  31.545  1.00  0.00     0.074 A 
ATOM     42  C   UNL A   1      44.543  26.401  30.641  1.00  0.00     0.031 C 
ATOM     43  C   UNL A   1      39.121  29.273  26.965  1.00  0.00     0.029 A 
ATOM     44  C   UNL A   1      39.048  29.805  28.309  1.00  0.00     0.049 A 
ATOM     45  H   UNL A   1      40.435  29.421  29.861  1.00  0.00     0.167 HD
ATOM     46  C   UNL A   1      43.935  27.558  32.798  1.00  0.00     0.037 A 
ATOM     47  C   UNL A   1      38.101  30.642  28.834  1.00  0.00     0.037 A 
ATOM     48  C   UNL A   1      42.823  28.272  33.330  1.00  0.00     0.049 A 
ATOM     49  C   UNL A   1      38.568  30.963  30.198  1.00  0.00     0.074 A 
ATOM     50  C   UNL A   1      41.602  27.879  33.815  1.00  0.00     0.029 A 
ATOM     51  N   UNL A   1      42.788  29.628  33.113  1.00  0.00    -0.354 N 
ATOM     52  N   UNL A   1      39.589  31.720  30.475  1.00  0.00    -0.248 NA
ATOM     53  C   UNL A   1      37.918  30.315  31.343  1.00  0.00     0.031 C 
ATOM     54  C   UNL A   1      40.736  28.966  33.552  1.00  0.00     0.029 A 
ATOM     55  C   UNL A   1      41.470  30.001  32.966  1.00  0.00     0.049 A 
ATOM     56  H   UNL A   1      43.567  30.228  33.071  1.00  0.00     0.167 HD
ATOM     57  C   UNL A   1      39.895  31.364  31.770  1.00  0.00     0.074 A 
ATOM     58  C   UNL A   1      38.708  30.752  32.319  1.00  0.00     0.031 C 
ATOM     59  C   UNL A   1      41.186  31.146  32.127  1.00  0.00     0.037 A 
BRANCH  46  60
ATOM     60  C   UNL A   1      45.240  27.589  33.528  1.00  0.00     0.057 A 
ATOM     61  C   UNL A   1      45.652  26.593  34.424  1.00  0.00     0.134 A 
ATOM     62  C   UNL A   1      46.234  28.493  33.107  1.00  0.00     0.134 A 
ATOM     63  F   UNL A   1      44.812  25.638  34.845  1.00  0.00    -0.206 F 
ATOM     64  C   UNL A   1      46.978  26.487  34.855  1.00  0.00     0.040 A 
ATOM     65  C   UNL A   1      47.570  28.371  33.497  1.00  0.00     0.040 A 
ATOM     66  F   UNL A   1      45.944  29.492  32.258  1.00  0.00    -0.206 F 
ATOM     67  C   UNL A   1      47.947  27.358  34.369  1.00  0.00     0.006 A 
ENDBRANCH  46  60
BRANCH  47  68
ATOM     68  C   UNL A   1      36.757  31.194  28.404  1.00  0.00     0.057 A 
ATOM     69  C   UNL A   1      36.545  32.598  28.354  1.00  0.00     0.134 A 
ATOM     70  C   UNL A   1      35.606  30.453  28.107  1.00  0.00     0.134 A 
ATOM     71  F   UNL A   1      37.555  33.469  28.486  1.00  0.00    -0.206 F 
ATOM     72  C   UNL A   1      35.292  33.200  28.176  1.00  0.00     0.040 A 
ATOM     73  C   UNL A   1      34.343  31.043  27.898  1.00  0.00     0.040 A 
ATOM     74  F   UNL A   1      35.627  29.125  27.983  1.00  0.00    -0.206 F 
ATOM     75  C   UNL A   1      34.175  32.418  27.966  1.00  0.00     0.006 A 
ENDBRANCH  47  68
BRANCH  59  76
ATOM     76  C   UNL A   1      42.188  31.853  31.242  1.00  0.00     0.057 A 
ATOM     77  C   UNL A   1      42.905  31.212  30.222  1.00  0.00     0.134 A 
ATOM     78  C   UNL A   1      42.360  33.239  31.330  1.00  0.00     0.134 A 
ATOM     79  F   UNL A   1      42.805  29.896  30.044  1.00  0.00    -0.206 F 
ATOM     80  C   UNL A   1      43.751  31.893  29.341  1.00  0.00     0.040 A 
ATOM     81  C   UNL A   1      43.194  33.941  30.449  1.00  0.00     0.040 A 
ATOM     82  F   UNL A   1      41.715  33.940  32.275  1.00  0.00    -0.206 F 
ATOM     83  C   UNL A   1      43.892  33.268  29.448  1.00  0.00     0.006 A 
ENDBRANCH  59  76
ENDBRANCH  33  34
ENDBRANCH  26  28
ENDBRANCH  25  26
ENDBRANCH  24  25
ENDBRANCH  23  24
ENDBRANCH  22  23
ENDBRANCH  21  22
ENDBRANCH   1  21
TORSDOF 19
ENDMDL
MODEL 2
REMARK VINA RESULT:      -9.5      1.598      2.486
REMARK SMILES O=C(Cc1cccn1-c1ccccc1F)OCCOCCOCCOC(=O)c1ccc(-c2c3nc(c(-c4c(F)cccc4F)c4ccc([nH]4)c(-c4c(F)cccc4F)c4nc(c(-c5c(F)cccc5F)c5ccc2[nH]5)C=C4)C=C3)cc1
REMARK SMILES IDX 20 1 19 2 18 3 17 4 16 5 2 6 1 7 3 8 4 9 5 10 8 11 6 12 7 13
REMARK SMILES IDX 9 14 10 15 14 16 11 17 13 18 15 19 12 20 21 21 22 22 23 23
REMARK SMILES IDX 24 24 25 25 26 26 27 27 28 28 29 29 81 30 30 31 80 32 31 33
REMARK SMILES IDX 32 34 33 35 74 36 34 37 79 38 73 39 75 40 35 41 78 42 72 43
REMARK SMILES IDX 71 44 36 46 62 47 45 48 61 49 46 50 49 51 60 52 76 53 47 54
REMARK SMILES IDX 48 55 59 57 77 58 50 59 37 60 38 61 43 62 39 63 40 64 42 65
REMARK SMILES IDX 44 66 41 67 63 68 64 69 69 70 65 71 66 72 68 73 70 74 67 75
REMARK SMILES IDX 51 76 52 77 57 78 53 79 54 80 56 81 58 82 55 83
REMARK H PARENT 75 45 49 56
REMARK Flexibility Score: inf
ROOT
ATOM      1  C   UNL A   1      39.875  20.324  25.898  1.00  0.00     0.188 C 
ENDROOT
BRANCH   1   2
ATOM      2  O   UNL A   1      39.597  21.465  26.692  1.00  0.00    -0.376 OA
BRANCH   2   3
ATOM      3  C   UNL A   1      38.668  22.383  26.126  1.00  0.00     0.202 C 
BRANCH   3   4
ATOM      4  C   UNL A   1      37.818  21.794  25.003  1.00  0.00     0.261 C 
BRANCH   4   5
ATOM      5  O   UNL A   1      36.985  22.749  24.310  1.00  0.00    -0.463 OA
BRANCH   5   6
ATOM      6  C   UNL A   1      35.759  22.580  23.777  1.00  0.00     0.311 C 
ATOM      7  O   UNL A   1      35.429  23.252  22.798  1.00  0.00    -0.252 OA
BRANCH   6   8
ATOM      8  C   UNL A   1      34.748  21.663  24.422  1.00  0.00     0.177 C 
BRANCH   8   9
ATOM      9  C   UNL A   1      34.176  22.103  25.734  1.00  0.00     0.034 A 
ATOM     10  C   UNL A   1      34.512  21.631  26.993  1.00  0.00     0.024 A 
ATOM     11  N   UNL A   1      33.152  23.032  25.892  1.00  0.00    -0.318 N 
ATOM     12  C   UNL A   1      33.635  22.224  27.925  1.00  0.00     0.020 A 
ATOM     13  C   UNL A   1      32.783  23.041  27.218  1.00  0.00     0.091 A 
BRANCH  11  14
ATOM     14  C   UNL A   1      32.501  23.736  24.860  1.00  0.00     0.081 A 
ATOM     15  C   UNL A   1      31.471  23.119  24.144  1.00  0.00     0.030 A 
ATOM     16  C   UNL A   1      32.764  25.097  24.692  1.00  0.00     0.147 A 
ATOM     17  C   UNL A   1      30.694  23.883  23.274  1.00  0.00     0.002 A 
ATOM     18  C   UNL A   1      31.961  25.864  23.856  1.00  0.00     0.041 A 
ATOM     19  F   UNL A   1      33.705  25.714  25.423  1.00  0.00    -0.205 F 
ATOM     20  C   UNL A   1      30.922  25.256  23.147  1.00  0.00     0.003 A 
ENDBRANCH  11  14
ENDBRANCH   8   9
ENDBRANCH   6   8
ENDBRANCH   5   6
ENDBRANCH   4   5
ENDBRANCH   3   4
ENDBRANCH   2   3
ENDBRANCH   1   2
BRANCH   1  21
ATOM     21  C   UNL A   1      41.215  19.601  26.159  1.00  0.00     0.188 C 
BRANCH  21  22
ATOM     22  O   UNL A   1      42.243  19.452  25.190  1.00  0.00    -0.376 OA
BRANCH  22  23
ATOM     23  C   UNL A   1      43.621  19.591  25.487  1.00  0.00     0.202 C 
BRANCH  23  24
ATOM     24  C   UNL A   1      44.412  20.710  24.823  1.00  0.00     0.261 C 
BRANCH  24  25
ATOM     25  O   UNL A   1      43.589  21.798  24.422  1.00  0.00    -0.460 OA
BRANCH  25  26
ATOM     26  C   UNL A   1      44.213  22.983  24.498  1.00  0.00     0.338 C 
ATOM     27  O   UNL A   1      45.353  23.256  24.123  1.00  0.00    -0.246 OA
BRANCH  26  28
ATOM     28  C   UNL A   1      43.361  23.976  25.142  1.00  0.00     0.060 A 
ATOM     29  C   UNL A   1      43.770  25.310  25.028  1.00  0.00     0.016 A 
ATOM     30  C   UNL A   1      42.392  23.565  26.064  1.00  0.00     0.016 A 
ATOM     31  C   UNL A   1      43.383  26.202  26.000  1.00  0.00     0.010 A 
ATOM     32  C   UNL A   1      42.027  24.451  27.056  1.00  0.00     0.010 A 
ATOM     33  C   UNL A   1      42.608  25.727  27.062  1.00  0.00    -0.014 A 
BRANCH  33  34
ATOM     34  C   UNL A   1      42.528  26.563  28.266  1.00  0.00     0.031 A 
ATOM     35  C   UNL A   1      43.454  26.104  29.365  1.00  0.00     0.074 A 
ATOM     36  C   UNL A   1      41.616  27.577  28.195  1.00  0.00     0.049 A 
ATOM     37  N   UNL A   1      43.408  26.348  30.636  1.00  0.00    -0.248 NA
ATOM     38  C   UNL A   1      44.571  25.188  29.013  1.00  0.00     0.031 C 
ATOM     39  C   UNL A   1      40.780  27.846  27.006  1.00  0.00     0.029 A 
ATOM     40  N   UNL A   1      41.189  28.562  29.060  1.00  0.00    -0.354 N 
ATOM     41  C   UNL A   1      44.582  25.818  31.187  1.00  0.00     0.074 A 
ATOM     42  C   UNL A   1      45.190  25.006  30.177  1.00  0.00     0.031 C 
ATOM     43  C   UNL A   1      39.919  28.850  27.244  1.00  0.00     0.029 A 
ATOM     44  C   UNL A   1      40.113  29.356  28.586  1.00  0.00     0.049 A 
ATOM     45  H   UNL A   1      41.600  28.704  29.943  1.00  0.00     0.167 HD
ATOM     46  C   UNL A   1      45.075  26.201  32.396  1.00  0.00     0.037 A 
ATOM     47  C   UNL A   1      39.401  30.331  29.232  1.00  0.00     0.037 A 
ATOM     48  C   UNL A   1      44.182  27.083  33.069  1.00  0.00     0.049 A 
ATOM     49  C   UNL A   1      40.088  30.535  30.522  1.00  0.00     0.074 A 
ATOM     50  C   UNL A   1      42.984  26.894  33.709  1.00  0.00     0.029 A 
ATOM     51  N   UNL A   1      44.354  28.429  32.859  1.00  0.00    -0.354 N 
ATOM     52  N   UNL A   1      41.252  31.100  30.663  1.00  0.00    -0.248 NA
ATOM     53  C   UNL A   1      39.489  29.982  31.742  1.00  0.00     0.031 C 
ATOM     54  C   UNL A   1      42.293  28.119  33.563  1.00  0.00     0.029 A 
ATOM     55  C   UNL A   1      43.113  29.026  32.886  1.00  0.00     0.049 A 
ATOM     56  H   UNL A   1      45.213  28.887  32.715  1.00  0.00     0.167 HD
ATOM     57  C   UNL A   1      41.656  30.666  31.907  1.00  0.00     0.074 A 
ATOM     58  C   UNL A   1      40.462  30.255  32.607  1.00  0.00     0.031 C 
ATOM     59  C   UNL A   1      42.925  30.222  32.092  1.00  0.00     0.037 A 
BRANCH  46  60
ATOM     60  C   UNL A   1      46.448  25.991  32.948  1.00  0.00     0.057 A 
ATOM     61  C   UNL A   1      46.790  24.928  33.796  1.00  0.00     0.134 A 
ATOM     62  C   UNL A   1      47.525  26.707  32.389  1.00  0.00     0.134 A 
ATOM     63  F   UNL A   1      45.855  24.135  34.336  1.00  0.00    -0.206 F 
ATOM     64  C   UNL A   1      48.121  24.583  34.052  1.00  0.00     0.040 A 
ATOM     65  C   UNL A   1      48.856  26.344  32.603  1.00  0.00     0.040 A 
ATOM     66  F   UNL A   1      47.309  27.750  31.572  1.00  0.00    -0.206 F 
ATOM     67  C   UNL A   1      49.158  25.271  33.431  1.00  0.00     0.006 A 
ENDBRANCH  46  60
BRANCH  47  68
ATOM     68  C   UNL A   1      38.128  31.115  28.981  1.00  0.00     0.057 A 
ATOM     69  C   UNL A   1      36.971  30.455  28.486  1.00  0.00     0.134 A 
ATOM     70  C   UNL A   1      37.961  32.500  29.108  1.00  0.00     0.134 A 
ATOM     71  F   UNL A   1      36.896  29.119  28.414  1.00  0.00    -0.206 F 
ATOM     72  C   UNL A   1      35.824  31.117  28.027  1.00  0.00     0.040 A 
ATOM     73  C   UNL A   1      36.804  33.178  28.676  1.00  0.00     0.040 A 
ATOM     74  F   UNL A   1      38.887  33.280  29.668  1.00  0.00    -0.206 F 
ATOM     75  C   UNL A   1      35.744  32.492  28.102  1.00  0.00     0.006 A 
ENDBRANCH  47  68
BRANCH  59  76
ATOM     76  C   UNL A   1      43.912  30.767  31.083  1.00  0.00     0.057 A 
ATOM     77  C   UNL A   1      44.479  32.045  31.170  1.00  0.00     0.134 A 
ATOM     78  C   UNL A   1      44.401  29.951  30.057  1.00  0.00     0.134 A 
ATOM     79  F   UNL A   1      44.092  32.897  32.118  1.00  0.00    -0.206 F 
ATOM     80  C   UNL A   1      45.468  32.502  30.293  1.00  0.00     0.040 A 
ATOM     81  C   UNL A   1      45.400  30.386  29.175  1.00  0.00     0.040 A 
ATOM     82  F   UNL A   1      43.918  28.710  29.893  1.00  0.00    -0.206 F 
ATOM     83  C   UNL A   1      45.939  31.666  29.293  1.00  0.00     0.006 A 
ENDBRANCH  59  76
ENDBRANCH  33  34
ENDBRANCH  26  28
ENDBRANCH  25  26
ENDBRANCH  24  25
ENDBRANCH  23  24
ENDBRANCH  22  23
ENDBRANCH  21  22
ENDBRANCH   1  21
TORSDOF 19
ENDMDL
MODEL 3
REMARK VINA RESULT:      -9.4      3.919      8.450
REMARK SMILES O=C(Cc1cccn1-c1ccccc1F)OCCOCCOCCOC(=O)c1ccc(-c2c3nc(c(-c4c(F)cccc4F)c4ccc([nH]4)c(-c4c(F)cccc4F)c4nc(c(-c5c(F)cccc5F)c5ccc2[nH]5)C=C4)C=C3)cc1
REMARK SMILES IDX 20 1 19 2 18 3 17 4 16 5 2 6 1 7 3 8 4 9 5 10 8 11 6 12 7 13
REMARK SMILES IDX 9 14 10 15 14 16 11 17 13 18 15 19 12 20 21 21 22 22 23 23
REMARK SMILES IDX 24 24 25 25 26 26 27 27 28 28 29 29 81 30 30 31 80 32 31 33
REMARK SMILES IDX 32 34 33 35 74 36 34 37 79 38 73 39 75 40 35 41 78 42 72 43
REMARK SMILES IDX 71 44 36 46 62 47 45 48 61 49 46 50 49 51 60 52 76 53 47 54
REMARK SMILES IDX 48 55 59 57 77 58 50 59 37 60 38 61 43 62 39 63 40 64 42 65
REMARK SMILES IDX 44 66 41 67 63 68 64 69 69 70 65 71 66 72 68 73 70 74 67 75
REMARK SMILES IDX 51 76 52 77 57 78 53 79 54 80 56 81 58 82 55 83
REMARK H PARENT 75 45 49 56
REMARK Flexibility Score: inf
ROOT
ATOM      1  C   UNL A   1      34.620  33.375  28.216  1.00  0.00     0.188 C 
ENDROOT
BRANCH   1   2
ATOM      2  O   UNL A   1      34.238  32.011  28.279  1.00  0.00    -0.376 OA
BRANCH   2   3
ATOM      3  C   UNL A   1      35.186  31.094  27.743  1.00  0.00     0.202 C 
BRANCH   3   4
ATOM      4  C   UNL A   1      34.563  29.848  27.120  1.00  0.00     0.261 C 
BRANCH   4   5
ATOM      5  O   UNL A   1      33.119  29.803  27.173  1.00  0.00    -0.463 OA
BRANCH   5   6
ATOM      6  C   UNL A   1      32.270  28.974  26.534  1.00  0.00     0.311 C 
ATOM      7  O   UNL A   1      31.403  28.384  27.181  1.00  0.00    -0.252 OA
BRANCH   6   8
ATOM      8  C   UNL A   1      32.429  28.677  25.063  1.00  0.00     0.177 C 
BRANCH   8   9
ATOM      9  C   UNL A   1      31.444  27.727  24.455  1.00  0.00     0.034 A 
ATOM     10  C   UNL A   1      30.198  28.035  23.932  1.00  0.00     0.024 A 
ATOM     11  N   UNL A   1      31.606  26.348  24.374  1.00  0.00    -0.318 N 
ATOM     12  C   UNL A   1      29.561  26.824  23.593  1.00  0.00     0.020 A 
ATOM     13  C   UNL A   1      30.426  25.805  23.917  1.00  0.00     0.091 A 
BRANCH  11  14
ATOM     14  C   UNL A   1      32.723  25.613  24.817  1.00  0.00     0.081 A 
ATOM     15  C   UNL A   1      32.680  24.968  26.056  1.00  0.00     0.030 A 
ATOM     16  C   UNL A   1      33.782  25.386  23.936  1.00  0.00     0.147 A 
ATOM     17  C   UNL A   1      33.697  24.076  26.395  1.00  0.00     0.002 A 
ATOM     18  C   UNL A   1      34.772  24.464  24.259  1.00  0.00     0.041 A 
ATOM     19  F   UNL A   1      33.800  25.947  22.717  1.00  0.00    -0.205 F 
ATOM     20  C   UNL A   1      34.728  23.807  25.491  1.00  0.00     0.003 A 
ENDBRANCH  11  14
ENDBRANCH   8   9
ENDBRANCH   6   8
ENDBRANCH   5   6
ENDBRANCH   4   5
ENDBRANCH   3   4
ENDBRANCH   2   3
ENDBRANCH   1   2
BRANCH   1  21
ATOM     21  C   UNL A   1      34.854  34.097  29.562  1.00  0.00     0.188 C 
BRANCH  21  22
ATOM     22  O   UNL A   1      34.020  33.947  30.703  1.00  0.00    -0.376 OA
BRANCH  22  23
ATOM     23  C   UNL A   1      34.222  34.651  31.916  1.00  0.00     0.202 C 
BRANCH  23  24
ATOM     24  C   UNL A   1      34.607  33.874  33.168  1.00  0.00     0.261 C 
BRANCH  24  25
ATOM     25  O   UNL A   1      35.020  32.544  32.880  1.00  0.00    -0.460 OA
BRANCH  25  26
ATOM     26  C   UNL A   1      36.298  32.310  33.214  1.00  0.00     0.338 C 
ATOM     27  O   UNL A   1      37.003  32.959  33.986  1.00  0.00    -0.246 OA
BRANCH  26  28
ATOM     28  C   UNL A   1      36.814  31.149  32.498  1.00  0.00     0.060 A 
ATOM     29  C   UNL A   1      37.771  30.381  33.173  1.00  0.00     0.016 A 
ATOM     30  C   UNL A   1      36.587  31.023  31.123  1.00  0.00     0.016 A 
ATOM     31  C   UNL A   1      38.670  29.651  32.434  1.00  0.00     0.010 A 
ATOM     32  C   UNL A   1      37.506  30.316  30.378  1.00  0.00     0.010 A 
ATOM     33  C   UNL A   1      38.591  29.723  31.040  1.00  0.00    -0.014 A 
BRANCH  33  34
ATOM     34  C   UNL A   1      39.760  29.274  30.273  1.00  0.00     0.031 A 
ATOM     35  C   UNL A   1      40.802  30.351  30.100  1.00  0.00     0.074 A 
ATOM     36  C   UNL A   1      39.686  27.985  29.826  1.00  0.00     0.049 A 
ATOM     37  N   UNL A   1      41.751  30.446  29.224  1.00  0.00    -0.248 NA
ATOM     38  C   UNL A   1      40.752  31.535  30.999  1.00  0.00     0.031 C 
ATOM     39  C   UNL A   1      38.544  27.088  30.097  1.00  0.00     0.029 A 
ATOM     40  N   UNL A   1      40.502  27.171  29.070  1.00  0.00    -0.354 N 
ATOM     41  C   UNL A   1      42.528  31.552  29.596  1.00  0.00     0.074 A 
ATOM     42  C   UNL A   1      41.798  32.257  30.605  1.00  0.00     0.031 C 
ATOM     43  C   UNL A   1      38.702  25.910  29.471  1.00  0.00     0.029 A 
ATOM     44  C   UNL A   1      39.959  25.899  28.754  1.00  0.00     0.049 A 
ATOM     45  H   UNL A   1      41.398  27.452  28.772  1.00  0.00     0.167 HD
ATOM     46  C   UNL A   1      43.804  31.743  29.165  1.00  0.00     0.037 A 
ATOM     47  C   UNL A   1      40.463  24.915  27.947  1.00  0.00     0.037 A 
ATOM     48  C   UNL A   1      44.179  30.767  28.197  1.00  0.00     0.049 A 
ATOM     49  C   UNL A   1      41.818  25.364  27.571  1.00  0.00     0.074 A 
ATOM     50  C   UNL A   1      43.850  30.579  26.879  1.00  0.00     0.029 A 
ATOM     51  N   UNL A   1      44.780  29.623  28.662  1.00  0.00    -0.354 N 
ATOM     52  N   UNL A   1      42.836  25.413  28.379  1.00  0.00    -0.248 NA
ATOM     53  C   UNL A   1      42.041  25.898  26.222  1.00  0.00     0.031 C 
ATOM     54  C   UNL A   1      43.950  29.184  26.671  1.00  0.00     0.029 A 
ATOM     55  C   UNL A   1      44.387  28.578  27.853  1.00  0.00     0.049 A 
ATOM     56  H   UNL A   1      45.384  29.559  29.436  1.00  0.00     0.167 HD
ATOM     57  C   UNL A   1      43.695  26.281  27.741  1.00  0.00     0.074 A 
ATOM     58  C   UNL A   1      43.301  26.303  26.352  1.00  0.00     0.031 C 
ATOM     59  C   UNL A   1      44.319  27.259  28.445  1.00  0.00     0.037 A 
BRANCH  46  60
ATOM     60  C   UNL A   1      44.847  32.657  29.723  1.00  0.00     0.057 A 
ATOM     61  C   UNL A   1      45.608  32.363  30.862  1.00  0.00     0.134 A 
ATOM     62  C   UNL A   1      45.301  33.733  28.935  1.00  0.00     0.134 A 
ATOM     63  F   UNL A   1      45.313  31.324  31.653  1.00  0.00    -0.206 F 
ATOM     64  C   UNL A   1      46.767  33.079  31.184  1.00  0.00     0.040 A 
ATOM     65  C   UNL A   1      46.478  34.426  29.223  1.00  0.00     0.040 A 
ATOM     66  F   UNL A   1      44.638  34.105  27.828  1.00  0.00    -0.206 F 
ATOM     67  C   UNL A   1      47.221  34.093  30.348  1.00  0.00     0.006 A 
ENDBRANCH  46  60
BRANCH  47  68
ATOM     68  C   UNL A   1      39.955  23.624  27.336  1.00  0.00     0.057 A 
ATOM     69  C   UNL A   1      40.683  22.417  27.514  1.00  0.00     0.134 A 
ATOM     70  C   UNL A   1      38.838  23.477  26.504  1.00  0.00     0.134 A 
ATOM     71  F   UNL A   1      41.709  22.330  28.372  1.00  0.00    -0.206 F 
ATOM     72  C   UNL A   1      40.416  21.228  26.822  1.00  0.00     0.040 A 
ATOM     73  C   UNL A   1      38.539  22.280  25.822  1.00  0.00     0.040 A 
ATOM     74  F   UNL A   1      37.960  24.462  26.311  1.00  0.00    -0.206 F 
ATOM     75  C   UNL A   1      39.347  21.161  25.951  1.00  0.00     0.006 A 
ENDBRANCH  47  68
BRANCH  59  76
ATOM     76  C   UNL A   1      44.452  26.954  29.921  1.00  0.00     0.057 A 
ATOM     77  C   UNL A   1      43.616  27.505  30.902  1.00  0.00     0.134 A 
ATOM     78  C   UNL A   1      45.365  25.992  30.367  1.00  0.00     0.134 A 
ATOM     79  F   UNL A   1      42.705  28.421  30.582  1.00  0.00    -0.206 F 
ATOM     80  C   UNL A   1      43.679  27.138  32.250  1.00  0.00     0.040 A 
ATOM     81  C   UNL A   1      45.435  25.602  31.712  1.00  0.00     0.040 A 
ATOM     82  F   UNL A   1      46.207  25.409  29.501  1.00  0.00    -0.206 F 
ATOM     83  C   UNL A   1      44.588  26.175  32.659  1.00  0.00     0.006 A 
ENDBRANCH  59  76
ENDBRANCH  33  34
ENDBRANCH  26  28
ENDBRANCH  25  26
ENDBRANCH  24  25
ENDBRANCH  23  24
ENDBRANCH  22  23
ENDBRANCH  21  22
ENDBRANCH   1  21
TORSDOF 19
ENDMDL
