MODEL 1
REMARK VINA RESULT:     -10.2      0.000      0.000
REMARK SMILES O=C(NC[C@@H]1CCOC1)NC[C@@H]1CC[C@H](C(=O)OCCOCCOCCOC(=O)c2ccc(-c3c4nc(c(-c5c(F)cccc5F)c5ccc([nH]5)c(-c5c(F)cccc5F)c5nc(c(-c6c(F)cccc6F)c6ccc3[nH]6)C=C5)C=C4)cc2)O1
REMARK SMILES IDX 22 1 21 2 20 3 19 4 18 5 16 6 17 7 15 8 12 9 13 10 84 11
REMARK SMILES IDX 14 12 11 13 10 14 1 15 2 16 3 17 4 20 5 21 6 22 9 23 7 24
REMARK SMILES IDX 8 25 23 26 24 27 25 28 26 29 27 30 28 31 29 32 30 33 31 34
REMARK SMILES IDX 83 35 32 36 82 37 33 38 34 39 35 40 76 41 36 42 81 43 75 44
REMARK SMILES IDX 77 45 37 46 80 47 74 48 73 49 38 51 64 52 47 53 63 54 48 55
REMARK SMILES IDX 51 56 62 57 78 58 49 59 50 60 61 62 79 63 52 64 39 65 40 66
REMARK SMILES IDX 45 67 41 68 42 69 44 70 46 71 43 72 65 73 66 74 71 75 67 76
REMARK SMILES IDX 68 77 70 78 72 79 69 80 53 81 54 82 59 83 55 84 56 85 58 86
REMARK SMILES IDX 60 87 57 88
REMARK H PARENT 3 18 10 19 77 50 51 61
REMARK Flexibility Score: inf
ROOT
ATOM      1  C   UNL A   1      40.356  20.867  26.781  1.00  0.00     0.188 C 
ENDROOT
BRANCH   1   2
ATOM      2  O   UNL A   1      40.017  21.913  25.882  1.00  0.00    -0.376 OA
BRANCH   2   3
ATOM      3  C   UNL A   1      38.763  22.568  26.099  1.00  0.00     0.202 C 
BRANCH   3   4
ATOM      4  C   UNL A   1      37.518  22.006  25.385  1.00  0.00     0.261 C 
BRANCH   4   5
ATOM      5  O   UNL A   1      36.486  22.989  25.112  1.00  0.00    -0.461 OA
BRANCH   5   6
ATOM      6  C   UNL A   1      35.743  22.779  23.995  1.00  0.00     0.335 C 
ATOM      7  O   UNL A   1      36.180  22.891  22.851  1.00  0.00    -0.249 OA
BRANCH   6   8
ATOM      8  C   UNL A   1      34.299  22.307  24.262  1.00  0.00     0.228 C 
ATOM      9  C   UNL A   1      32.792  23.655  23.108  1.00  0.00     0.138 C 
ATOM     10  C   UNL A   1      32.829  24.130  24.556  1.00  0.00     0.037 C 
ATOM     11  O   UNL A   1      33.538  22.424  23.043  1.00  0.00    -0.361 OA
ATOM     12  C   UNL A   1      33.422  22.972  25.300  1.00  0.00     0.047 C 
BRANCH   9  13
ATOM     13  C   UNL A   1      33.365  24.683  22.118  1.00  0.00     0.149 C 
BRANCH  13  14
ATOM     14  N   UNL A   1      33.197  26.045  22.596  1.00  0.00    -0.336 N 
ATOM     15  O   UNL A   1      31.307  26.465  21.388  1.00  0.00    -0.249 OA
ATOM     16  C   UNL A   1      32.226  26.854  22.102  1.00  0.00     0.314 C 
ATOM     17  N   UNL A   1      32.313  28.173  22.380  1.00  0.00    -0.338 N 
ATOM     18  H   UNL A   1      31.576  28.708  22.006  1.00  0.00     0.165 HD
ATOM     19  H   UNL A   1      33.801  26.388  23.294  1.00  0.00     0.165 HD
BRANCH  17  20
ATOM     20  C   UNL A   1      33.283  28.953  23.123  1.00  0.00     0.123 C 
BRANCH  20  21
ATOM     21  C   UNL A   1      32.875  29.335  24.560  1.00  0.00     0.036 C 
ATOM     22  C   UNL A   1      33.586  28.599  25.680  1.00  0.00     0.036 C 
ATOM     23  C   UNL A   1      31.414  29.042  24.874  1.00  0.00     0.165 C 
ATOM     24  C   UNL A   1      32.672  27.428  25.984  1.00  0.00     0.160 C 
ATOM     25  O   UNL A   1      31.348  27.811  25.597  1.00  0.00    -0.381 OA
ENDBRANCH  20  21
ENDBRANCH  17  20
ENDBRANCH  13  14
ENDBRANCH   9  13
ENDBRANCH   6   8
ENDBRANCH   5   6
ENDBRANCH   4   5
ENDBRANCH   3   4
ENDBRANCH   2   3
ENDBRANCH   1   2
BRANCH   1  26
ATOM     26  C   UNL A   1      40.726  19.520  26.157  1.00  0.00     0.188 C 
BRANCH  26  27
ATOM     27  O   UNL A   1      41.827  19.559  25.281  1.00  0.00    -0.376 OA
BRANCH  27  28
ATOM     28  C   UNL A   1      43.154  19.741  25.757  1.00  0.00     0.202 C 
BRANCH  28  29
ATOM     29  C   UNL A   1      43.949  21.051  25.540  1.00  0.00     0.261 C 
BRANCH  29  30
ATOM     30  O   UNL A   1      43.548  22.224  26.267  1.00  0.00    -0.460 OA
BRANCH  30  31
ATOM     31  C   UNL A   1      43.591  23.413  25.620  1.00  0.00     0.338 C 
ATOM     32  O   UNL A   1      43.797  23.587  24.430  1.00  0.00    -0.246 OA
BRANCH  31  33
ATOM     33  C   UNL A   1      43.045  24.447  26.546  1.00  0.00     0.060 A 
ATOM     34  C   UNL A   1      43.574  25.746  26.477  1.00  0.00     0.016 A 
ATOM     35  C   UNL A   1      41.955  24.186  27.380  1.00  0.00     0.016 A 
ATOM     36  C   UNL A   1      43.039  26.774  27.261  1.00  0.00     0.010 A 
ATOM     37  C   UNL A   1      41.437  25.209  28.186  1.00  0.00     0.010 A 
ATOM     38  C   UNL A   1      41.993  26.503  28.151  1.00  0.00    -0.014 A 
BRANCH  38  39
ATOM     39  C   UNL A   1      41.610  27.492  29.194  1.00  0.00     0.031 A 
ATOM     40  C   UNL A   1      42.366  27.472  30.495  1.00  0.00     0.074 A 
ATOM     41  C   UNL A   1      40.615  28.380  29.016  1.00  0.00     0.049 A 
ATOM     42  N   UNL A   1      42.146  28.137  31.600  1.00  0.00    -0.248 NA
ATOM     43  C   UNL A   1      43.527  26.569  30.555  1.00  0.00     0.031 C 
ATOM     44  C   UNL A   1      39.837  28.551  27.792  1.00  0.00     0.029 A 
ATOM     45  N   UNL A   1      40.076  29.297  29.888  1.00  0.00    -0.354 N 
ATOM     46  C   UNL A   1      43.129  27.720  32.490  1.00  0.00     0.074 A 
ATOM     47  C   UNL A   1      43.930  26.730  31.805  1.00  0.00     0.031 C 
ATOM     48  C   UNL A   1      38.902  29.497  27.999  1.00  0.00     0.029 A 
ATOM     49  C   UNL A   1      38.988  29.968  29.382  1.00  0.00     0.049 A 
ATOM     50  H   UNL A   1      40.436  29.458  30.791  1.00  0.00     0.167 HD
ATOM     51  C   UNL A   1      43.345  28.126  33.762  1.00  0.00     0.037 A 
ATOM     52  C   UNL A   1      38.139  30.830  29.977  1.00  0.00     0.037 A 
ATOM     53  C   UNL A   1      42.548  29.109  34.447  1.00  0.00     0.049 A 
ATOM     54  C   UNL A   1      38.340  31.195  31.428  1.00  0.00     0.074 A 
ATOM     55  C   UNL A   1      42.706  29.603  35.730  1.00  0.00     0.029 A 
ATOM     56  N   UNL A   1      41.435  29.736  33.910  1.00  0.00    -0.354 N 
ATOM     57  N   UNL A   1      39.284  30.816  32.256  1.00  0.00    -0.248 NA
ATOM     58  C   UNL A   1      37.352  32.104  32.030  1.00  0.00     0.031 C 
ATOM     59  C   UNL A   1      41.651  30.482  35.992  1.00  0.00     0.029 A 
ATOM     60  C   UNL A   1      40.874  30.584  34.850  1.00  0.00     0.049 A 
ATOM     61  H   UNL A   1      41.095  29.600  32.996  1.00  0.00     0.167 HD
ATOM     62  C   UNL A   1      39.018  31.459  33.462  1.00  0.00     0.074 A 
ATOM     63  C   UNL A   1      37.834  32.264  33.255  1.00  0.00     0.031 C 
ATOM     64  C   UNL A   1      39.696  31.387  34.634  1.00  0.00     0.037 A 
BRANCH  51  65
ATOM     65  C   UNL A   1      44.469  27.475  34.514  1.00  0.00     0.057 A 
ATOM     66  C   UNL A   1      44.290  26.295  35.249  1.00  0.00     0.134 A 
ATOM     67  C   UNL A   1      45.758  28.022  34.479  1.00  0.00     0.134 A 
ATOM     68  F   UNL A   1      43.077  25.728  35.337  1.00  0.00    -0.206 F 
ATOM     69  C   UNL A   1      45.345  25.699  35.940  1.00  0.00     0.040 A 
ATOM     70  C   UNL A   1      46.828  27.419  35.140  1.00  0.00     0.040 A 
ATOM     71  F   UNL A   1      46.001  29.148  33.791  1.00  0.00    -0.206 F 
ATOM     72  C   UNL A   1      46.620  26.257  35.880  1.00  0.00     0.006 A 
ENDBRANCH  51  65
BRANCH  52  73
ATOM     73  C   UNL A   1      36.985  31.386  29.221  1.00  0.00     0.057 A 
ATOM     74  C   UNL A   1      35.857  30.607  28.936  1.00  0.00     0.134 A 
ATOM     75  C   UNL A   1      36.999  32.698  28.730  1.00  0.00     0.134 A 
ATOM     76  F   UNL A   1      35.796  29.333  29.349  1.00  0.00    -0.206 F 
ATOM     77  C   UNL A   1      34.793  31.106  28.182  1.00  0.00     0.040 A 
ATOM     78  C   UNL A   1      35.930  33.220  27.999  1.00  0.00     0.040 A 
ATOM     79  F   UNL A   1      38.054  33.495  28.958  1.00  0.00    -0.206 F 
ATOM     80  C   UNL A   1      34.825  32.419  27.716  1.00  0.00     0.006 A 
ENDBRANCH  52  73
BRANCH  64  81
ATOM     81  C   UNL A   1      39.202  32.222  35.782  1.00  0.00     0.057 A 
ATOM     82  C   UNL A   1      39.611  33.548  35.965  1.00  0.00     0.134 A 
ATOM     83  C   UNL A   1      38.252  31.712  36.677  1.00  0.00     0.134 A 
ATOM     84  F   UNL A   1      40.526  34.096  35.151  1.00  0.00    -0.206 F 
ATOM     85  C   UNL A   1      39.106  34.333  37.004  1.00  0.00     0.040 A 
ATOM     86  C   UNL A   1      37.716  32.495  37.701  1.00  0.00     0.040 A 
ATOM     87  F   UNL A   1      37.806  30.452  36.554  1.00  0.00    -0.206 F 
ATOM     88  C   UNL A   1      38.147  33.809  37.870  1.00  0.00     0.006 A 
ENDBRANCH  64  81
ENDBRANCH  38  39
ENDBRANCH  31  33
ENDBRANCH  30  31
ENDBRANCH  29  30
ENDBRANCH  28  29
ENDBRANCH  27  28
ENDBRANCH  26  27
ENDBRANCH   1  26
TORSDOF 21
ENDMDL
MODEL 2
REMARK VINA RESULT:     -10.0      2.655      8.096
REMARK SMILES O=C(NC[C@@H]1CCOC1)NC[C@@H]1CC[C@H](C(=O)OCCOCCOCCOC(=O)c2ccc(-c3c4nc(c(-c5c(F)cccc5F)c5ccc([nH]5)c(-c5c(F)cccc5F)c5nc(c(-c6c(F)cccc6F)c6ccc3[nH]6)C=C5)C=C4)cc2)O1
REMARK SMILES IDX 22 1 21 2 20 3 19 4 18 5 16 6 17 7 15 8 12 9 13 10 84 11
REMARK SMILES IDX 14 12 11 13 10 14 1 15 2 16 3 17 4 20 5 21 6 22 9 23 7 24
REMARK SMILES IDX 8 25 23 26 24 27 25 28 26 29 27 30 28 31 29 32 30 33 31 34
REMARK SMILES IDX 83 35 32 36 82 37 33 38 34 39 35 40 76 41 36 42 81 43 75 44
REMARK SMILES IDX 77 45 37 46 80 47 74 48 73 49 38 51 64 52 47 53 63 54 48 55
REMARK SMILES IDX 51 56 62 57 78 58 49 59 50 60 61 62 79 63 52 64 39 65 40 66
REMARK SMILES IDX 45 67 41 68 42 69 44 70 46 71 43 72 65 73 66 74 71 75 67 76
REMARK SMILES IDX 68 77 70 78 72 79 69 80 53 81 54 82 59 83 55 84 56 85 58 86
REMARK SMILES IDX 60 87 57 88
REMARK H PARENT 3 18 10 19 77 50 51 61
REMARK Flexibility Score: inf
ROOT
ATOM      1  C   UNL A   1      31.773  28.358  27.457  1.00  0.00     0.188 C 
ENDROOT
BRANCH   1   2
ATOM      2  O   UNL A   1      31.315  27.198  26.777  1.00  0.00    -0.376 OA
BRANCH   2   3
ATOM      3  C   UNL A   1      32.241  26.564  25.889  1.00  0.00     0.202 C 
BRANCH   3   4
ATOM      4  C   UNL A   1      33.079  25.389  26.433  1.00  0.00     0.261 C 
BRANCH   4   5
ATOM      5  O   UNL A   1      32.963  24.163  25.666  1.00  0.00    -0.461 OA
BRANCH   5   6
ATOM      6  C   UNL A   1      33.854  24.006  24.653  1.00  0.00     0.335 C 
ATOM      7  O   UNL A   1      35.059  24.230  24.760  1.00  0.00    -0.249 OA
BRANCH   6   8
ATOM      8  C   UNL A   1      33.254  23.442  23.350  1.00  0.00     0.228 C 
ATOM      9  C   UNL A   1      32.842  25.171  21.846  1.00  0.00     0.138 C 
ATOM     10  C   UNL A   1      31.523  24.817  22.523  1.00  0.00     0.037 C 
ATOM     11  O   UNL A   1      33.802  24.168  22.232  1.00  0.00    -0.361 OA
ATOM     12  C   UNL A   1      31.763  23.451  23.090  1.00  0.00     0.047 C 
BRANCH   9  13
ATOM     13  C   UNL A   1      33.354  26.574  22.213  1.00  0.00     0.149 C 
BRANCH  13  14
ATOM     14  N   UNL A   1      32.263  27.490  22.499  1.00  0.00    -0.336 N 
ATOM     15  O   UNL A   1      33.587  29.334  22.733  1.00  0.00    -0.249 OA
ATOM     16  C   UNL A   1      32.494  28.784  22.837  1.00  0.00     0.314 C 
ATOM     17  N   UNL A   1      31.466  29.484  23.361  1.00  0.00    -0.338 N 
ATOM     18  H   UNL A   1      31.689  30.419  23.575  1.00  0.00     0.165 HD
ATOM     19  H   UNL A   1      31.335  27.164  22.448  1.00  0.00     0.165 HD
BRANCH  17  20
ATOM     20  C   UNL A   1      30.096  29.126  23.670  1.00  0.00     0.123 C 
BRANCH  20  21
ATOM     21  C   UNL A   1      29.089  29.272  22.512  1.00  0.00     0.036 C 
ATOM     22  C   UNL A   1      29.266  30.482  21.615  1.00  0.00     0.036 C 
ATOM     23  C   UNL A   1      27.648  29.437  22.977  1.00  0.00     0.165 C 
ATOM     24  C   UNL A   1      28.352  31.525  22.227  1.00  0.00     0.160 C 
ATOM     25  O   UNL A   1      27.317  30.826  22.926  1.00  0.00    -0.381 OA
ENDBRANCH  20  21
ENDBRANCH  17  20
ENDBRANCH  13  14
ENDBRANCH   9  13
ENDBRANCH   6   8
ENDBRANCH   5   6
ENDBRANCH   4   5
ENDBRANCH   3   4
ENDBRANCH   2   3
ENDBRANCH   1   2
BRANCH   1  26
ATOM     26  C   UNL A   1      33.098  28.957  26.978  1.00  0.00     0.188 C 
BRANCH  26  27
ATOM     27  O   UNL A   1      33.047  30.330  26.674  1.00  0.00    -0.376 OA
BRANCH  27  28
ATOM     28  C   UNL A   1      31.815  31.036  26.609  1.00  0.00     0.202 C 
BRANCH  28  29
ATOM     29  C   UNL A   1      31.702  32.553  26.896  1.00  0.00     0.261 C 
BRANCH  29  30
ATOM     30  O   UNL A   1      32.904  33.342  26.891  1.00  0.00    -0.460 OA
BRANCH  30  31
ATOM     31  C   UNL A   1      33.218  34.020  28.020  1.00  0.00     0.338 C 
ATOM     32  O   UNL A   1      32.512  34.824  28.607  1.00  0.00    -0.246 OA
BRANCH  31  33
ATOM     33  C   UNL A   1      34.446  33.395  28.591  1.00  0.00     0.060 A 
ATOM     34  C   UNL A   1      34.300  32.235  29.369  1.00  0.00     0.016 A 
ATOM     35  C   UNL A   1      35.725  33.860  28.275  1.00  0.00     0.016 A 
ATOM     36  C   UNL A   1      35.425  31.559  29.855  1.00  0.00     0.010 A 
ATOM     37  C   UNL A   1      36.850  33.199  28.785  1.00  0.00     0.010 A 
ATOM     38  C   UNL A   1      36.707  32.060  29.600  1.00  0.00    -0.014 A 
BRANCH  38  39
ATOM     39  C   UNL A   1      37.886  31.538  30.341  1.00  0.00     0.031 A 
ATOM     40  C   UNL A   1      38.750  30.513  29.657  1.00  0.00     0.074 A 
ATOM     41  C   UNL A   1      38.189  31.938  31.589  1.00  0.00     0.049 A 
ATOM     42  N   UNL A   1      39.751  29.815  30.127  1.00  0.00    -0.248 NA
ATOM     43  C   UNL A   1      38.433  30.237  28.246  1.00  0.00     0.031 C 
ATOM     44  C   UNL A   1      37.478  32.960  32.351  1.00  0.00     0.029 A 
ATOM     45  N   UNL A   1      39.176  31.506  32.445  1.00  0.00    -0.354 N 
ATOM     46  C   UNL A   1      40.170  29.005  29.078  1.00  0.00     0.074 A 
ATOM     47  C   UNL A   1      39.301  29.282  27.955  1.00  0.00     0.031 C 
ATOM     48  C   UNL A   1      38.035  33.059  33.572  1.00  0.00     0.029 A 
ATOM     49  C   UNL A   1      39.114  32.078  33.693  1.00  0.00     0.049 A 
ATOM     50  H   UNL A   1      39.863  30.848  32.188  1.00  0.00     0.167 HD
ATOM     51  C   UNL A   1      41.186  28.113  29.052  1.00  0.00     0.037 A 
ATOM     52  C   UNL A   1      39.819  31.813  34.812  1.00  0.00     0.037 A 
ATOM     53  C   UNL A   1      42.050  27.833  30.168  1.00  0.00     0.049 A 
ATOM     54  C   UNL A   1      40.884  30.743  34.789  1.00  0.00     0.074 A 
ATOM     55  C   UNL A   1      43.123  26.962  30.228  1.00  0.00     0.029 A 
ATOM     56  N   UNL A   1      41.929  28.409  31.423  1.00  0.00    -0.354 N 
ATOM     57  N   UNL A   1      41.290  29.999  33.788  1.00  0.00    -0.248 NA
ATOM     58  C   UNL A   1      41.585  30.471  36.054  1.00  0.00     0.031 C 
ATOM     59  C   UNL A   1      43.612  26.963  31.538  1.00  0.00     0.029 A 
ATOM     60  C   UNL A   1      42.885  27.882  32.276  1.00  0.00     0.049 A 
ATOM     61  H   UNL A   1      41.264  29.091  31.671  1.00  0.00     0.167 HD
ATOM     62  C   UNL A   1      42.307  29.195  34.295  1.00  0.00     0.074 A 
ATOM     63  C   UNL A   1      42.466  29.551  35.688  1.00  0.00     0.031 C 
ATOM     64  C   UNL A   1      43.041  28.247  33.662  1.00  0.00     0.037 A 
BRANCH  51  65
ATOM     65  C   UNL A   1      41.395  27.340  27.782  1.00  0.00     0.057 A 
ATOM     66  C   UNL A   1      40.778  26.103  27.552  1.00  0.00     0.134 A 
ATOM     67  C   UNL A   1      42.205  27.856  26.762  1.00  0.00     0.134 A 
ATOM     68  F   UNL A   1      40.003  25.545  28.494  1.00  0.00    -0.206 F 
ATOM     69  C   UNL A   1      40.978  25.398  26.364  1.00  0.00     0.040 A 
ATOM     70  C   UNL A   1      42.388  27.175  25.559  1.00  0.00     0.040 A 
ATOM     71  F   UNL A   1      42.822  29.037  26.915  1.00  0.00    -0.206 F 
ATOM     72  C   UNL A   1      41.779  25.938  25.361  1.00  0.00     0.006 A 
ENDBRANCH  51  65
BRANCH  52  73
ATOM     73  C   UNL A   1      39.521  32.542  36.074  1.00  0.00     0.057 A 
ATOM     74  C   UNL A   1      38.551  32.078  36.971  1.00  0.00     0.134 A 
ATOM     75  C   UNL A   1      40.171  33.740  36.395  1.00  0.00     0.134 A 
ATOM     76  F   UNL A   1      37.868  30.955  36.705  1.00  0.00    -0.206 F 
ATOM     77  C   UNL A   1      38.229  32.785  38.132  1.00  0.00     0.040 A 
ATOM     78  C   UNL A   1      39.881  34.442  37.567  1.00  0.00     0.040 A 
ATOM     79  F   UNL A   1      41.104  34.245  35.575  1.00  0.00    -0.206 F 
ATOM     80  C   UNL A   1      38.900  33.967  38.436  1.00  0.00     0.006 A 
ENDBRANCH  52  73
BRANCH  64  81
ATOM     81  C   UNL A   1      44.109  27.544  34.451  1.00  0.00     0.057 A 
ATOM     82  C   UNL A   1      43.880  26.311  35.074  1.00  0.00     0.134 A 
ATOM     83  C   UNL A   1      45.404  28.076  34.531  1.00  0.00     0.134 A 
ATOM     84  F   UNL A   1      42.662  25.751  35.046  1.00  0.00    -0.206 F 
ATOM     85  C   UNL A   1      44.895  25.640  35.761  1.00  0.00     0.040 A 
ATOM     86  C   UNL A   1      46.433  27.401  35.188  1.00  0.00     0.040 A 
ATOM     87  F   UNL A   1      45.697  29.248  33.946  1.00  0.00    -0.206 F 
ATOM     88  C   UNL A   1      46.179  26.180  35.810  1.00  0.00     0.006 A 
ENDBRANCH  64  81
ENDBRANCH  38  39
ENDBRANCH  31  33
ENDBRANCH  30  31
ENDBRANCH  29  30
ENDBRANCH  28  29
ENDBRANCH  27  28
ENDBRANCH  26  27
ENDBRANCH   1  26
TORSDOF 21
ENDMDL
MODEL 3
REMARK VINA RESULT:      -9.9      1.007      2.017
REMARK SMILES O=C(NC[C@@H]1CCOC1)NC[C@@H]1CC[C@H](C(=O)OCCOCCOCCOC(=O)c2ccc(-c3c4nc(c(-c5c(F)cccc5F)c5ccc([nH]5)c(-c5c(F)cccc5F)c5nc(c(-c6c(F)cccc6F)c6ccc3[nH]6)C=C5)C=C4)cc2)O1
REMARK SMILES IDX 22 1 21 2 20 3 19 4 18 5 16 6 17 7 15 8 12 9 13 10 84 11
REMARK SMILES IDX 14 12 11 13 10 14 1 15 2 16 3 17 4 20 5 21 6 22 9 23 7 24
REMARK SMILES IDX 8 25 23 26 24 27 25 28 26 29 27 30 28 31 29 32 30 33 31 34
REMARK SMILES IDX 83 35 32 36 82 37 33 38 34 39 35 40 76 41 36 42 81 43 75 44
REMARK SMILES IDX 77 45 37 46 80 47 74 48 73 49 38 51 64 52 47 53 63 54 48 55
REMARK SMILES IDX 51 56 62 57 78 58 49 59 50 60 61 62 79 63 52 64 39 65 40 66
REMARK SMILES IDX 45 67 41 68 42 69 44 70 46 71 43 72 65 73 66 74 71 75 67 76
REMARK SMILES IDX 68 77 70 78 72 79 69 80 53 81 54 82 59 83 55 84 56 85 58 86
REMARK SMILES IDX 60 87 57 88
REMARK H PARENT 3 18 10 19 77 50 51 61
REMARK Flexibility Score: inf
ROOT
ATOM      1  C   UNL A   1      40.377  20.686  26.706  1.00  0.00     0.188 C 
ENDROOT
BRANCH   1   2
ATOM      2  O   UNL A   1      39.924  21.652  25.768  1.00  0.00    -0.376 OA
BRANCH   2   3
ATOM      3  C   UNL A   1      38.525  21.953  25.778  1.00  0.00     0.202 C 
BRANCH   3   4
ATOM      4  C   UNL A   1      37.574  21.004  25.022  1.00  0.00     0.261 C 
BRANCH   4   5
ATOM      5  O   UNL A   1      36.358  21.631  24.539  1.00  0.00    -0.461 OA
BRANCH   5   6
ATOM      6  C   UNL A   1      35.197  21.174  25.075  1.00  0.00     0.335 C 
ATOM      7  O   UNL A   1      34.564  20.220  24.625  1.00  0.00    -0.249 OA
BRANCH   6   8
ATOM      8  C   UNL A   1      34.752  21.900  26.360  1.00  0.00     0.228 C 
ATOM      9  C   UNL A   1      32.985  23.342  25.892  1.00  0.00     0.138 C 
ATOM     10  C   UNL A   1      34.262  24.172  25.950  1.00  0.00     0.037 C 
ATOM     11  O   UNL A   1      33.315  22.017  26.355  1.00  0.00    -0.361 OA
ATOM     12  C   UNL A   1      35.227  23.299  26.691  1.00  0.00     0.047 C 
BRANCH   9  13
ATOM     13  C   UNL A   1      32.365  23.280  24.486  1.00  0.00     0.149 C 
BRANCH  13  14
ATOM     14  N   UNL A   1      32.046  24.603  23.977  1.00  0.00    -0.336 N 
ATOM     15  O   UNL A   1      30.262  24.940  25.360  1.00  0.00    -0.249 OA
ATOM     16  C   UNL A   1      30.947  25.278  24.399  1.00  0.00     0.314 C 
ATOM     17  N   UNL A   1      30.565  26.357  23.682  1.00  0.00    -0.338 N 
ATOM     18  H   UNL A   1      29.769  26.812  24.041  1.00  0.00     0.165 HD
ATOM     19  H   UNL A   1      32.641  25.019  23.312  1.00  0.00     0.165 HD
BRANCH  17  20
ATOM     20  C   UNL A   1      31.101  26.974  22.485  1.00  0.00     0.123 C 
BRANCH  20  21
ATOM     21  C   UNL A   1      31.922  28.261  22.705  1.00  0.00     0.036 C 
ATOM     22  C   UNL A   1      33.423  28.087  22.832  1.00  0.00     0.036 C 
ATOM     23  C   UNL A   1      31.581  28.983  24.002  1.00  0.00     0.165 C 
ATOM     24  C   UNL A   1      33.651  27.969  24.326  1.00  0.00     0.160 C 
ATOM     25  O   UNL A   1      32.572  28.647  24.976  1.00  0.00    -0.381 OA
ENDBRANCH  20  21
ENDBRANCH  17  20
ENDBRANCH  13  14
ENDBRANCH   9  13
ENDBRANCH   6   8
ENDBRANCH   5   6
ENDBRANCH   4   5
ENDBRANCH   3   4
ENDBRANCH   2   3
ENDBRANCH   1   2
BRANCH   1  26
ATOM     26  C   UNL A   1      40.887  19.360  26.134  1.00  0.00     0.188 C 
BRANCH  26  27
ATOM     27  O   UNL A   1      41.990  19.478  25.268  1.00  0.00    -0.376 OA
BRANCH  27  28
ATOM     28  C   UNL A   1      43.295  19.757  25.756  1.00  0.00     0.202 C 
BRANCH  28  29
ATOM     29  C   UNL A   1      44.005  21.113  25.522  1.00  0.00     0.261 C 
BRANCH  29  30
ATOM     30  O   UNL A   1      43.507  22.274  26.208  1.00  0.00    -0.460 OA
BRANCH  30  31
ATOM     31  C   UNL A   1      43.465  23.443  25.524  1.00  0.00     0.338 C 
ATOM     32  O   UNL A   1      43.608  23.587  24.321  1.00  0.00    -0.246 OA
BRANCH  31  33
ATOM     33  C   UNL A   1      42.916  24.480  26.444  1.00  0.00     0.060 A 
ATOM     34  C   UNL A   1      43.473  25.768  26.399  1.00  0.00     0.016 A 
ATOM     35  C   UNL A   1      41.799  24.236  27.247  1.00  0.00     0.016 A 
ATOM     36  C   UNL A   1      42.937  26.801  27.177  1.00  0.00     0.010 A 
ATOM     37  C   UNL A   1      41.281  25.263  28.047  1.00  0.00     0.010 A 
ATOM     38  C   UNL A   1      41.863  26.545  28.037  1.00  0.00    -0.014 A 
BRANCH  38  39
ATOM     39  C   UNL A   1      41.472  27.534  29.077  1.00  0.00     0.031 A 
ATOM     40  C   UNL A   1      42.221  27.517  30.382  1.00  0.00     0.074 A 
ATOM     41  C   UNL A   1      40.476  28.420  28.893  1.00  0.00     0.049 A 
ATOM     42  N   UNL A   1      41.995  28.182  31.485  1.00  0.00    -0.248 NA
ATOM     43  C   UNL A   1      43.385  26.617  30.448  1.00  0.00     0.031 C 
ATOM     44  C   UNL A   1      39.704  28.588  27.665  1.00  0.00     0.029 A 
ATOM     45  N   UNL A   1      39.931  29.336  29.762  1.00  0.00    -0.354 N 
ATOM     46  C   UNL A   1      42.974  27.768  32.380  1.00  0.00     0.074 A 
ATOM     47  C   UNL A   1      43.780  26.779  31.701  1.00  0.00     0.031 C 
ATOM     48  C   UNL A   1      38.766  29.532  27.867  1.00  0.00     0.029 A 
ATOM     49  C   UNL A   1      38.844  30.004  29.250  1.00  0.00     0.049 A 
ATOM     50  H   UNL A   1      40.286  29.499  30.666  1.00  0.00     0.167 HD
ATOM     51  C   UNL A   1      43.182  28.176  33.654  1.00  0.00     0.037 A 
ATOM     52  C   UNL A   1      37.990  30.865  29.840  1.00  0.00     0.037 A 
ATOM     53  C   UNL A   1      42.379  29.157  34.333  1.00  0.00     0.049 A 
ATOM     54  C   UNL A   1      38.182  31.232  31.292  1.00  0.00     0.074 A 
ATOM     55  C   UNL A   1      42.530  29.652  35.617  1.00  0.00     0.029 A 
ATOM     56  N   UNL A   1      41.268  29.781  33.790  1.00  0.00    -0.354 N 
ATOM     57  N   UNL A   1      39.123  30.855  32.125  1.00  0.00    -0.248 NA
ATOM     58  C   UNL A   1      37.189  32.139  31.888  1.00  0.00     0.031 C 
ATOM     59  C   UNL A   1      41.471  30.529  35.873  1.00  0.00     0.029 A 
ATOM     60  C   UNL A   1      40.700  30.629  34.727  1.00  0.00     0.049 A 
ATOM     61  H   UNL A   1      40.933  29.644  32.875  1.00  0.00     0.167 HD
ATOM     62  C   UNL A   1      38.849  31.498  33.328  1.00  0.00     0.074 A 
ATOM     63  C   UNL A   1      37.665  32.300  33.115  1.00  0.00     0.031 C 
ATOM     64  C   UNL A   1      39.522  31.429  34.504  1.00  0.00     0.037 A 
BRANCH  51  65
ATOM     65  C   UNL A   1      44.304  27.527  34.412  1.00  0.00     0.057 A 
ATOM     66  C   UNL A   1      45.582  28.097  34.484  1.00  0.00     0.134 A 
ATOM     67  C   UNL A   1      44.093  26.328  35.104  1.00  0.00     0.134 A 
ATOM     68  F   UNL A   1      45.856  29.237  33.830  1.00  0.00    -0.206 F 
ATOM     69  C   UNL A   1      46.615  27.484  35.195  1.00  0.00     0.040 A 
ATOM     70  C   UNL A   1      45.109  25.722  35.843  1.00  0.00     0.040 A 
ATOM     71  F   UNL A   1      42.892  25.730  35.080  1.00  0.00    -0.206 F 
ATOM     72  C   UNL A   1      46.376  26.297  35.884  1.00  0.00     0.006 A 
ENDBRANCH  51  65
BRANCH  52  73
ATOM     73  C   UNL A   1      36.839  31.418  29.077  1.00  0.00     0.057 A 
ATOM     74  C   UNL A   1      36.812  32.757  28.668  1.00  0.00     0.134 A 
ATOM     75  C   UNL A   1      35.720  30.632  28.773  1.00  0.00     0.134 A 
ATOM     76  F   UNL A   1      37.837  33.571  28.958  1.00  0.00    -0.206 F 
ATOM     77  C   UNL A   1      35.712  33.297  27.998  1.00  0.00     0.040 A 
ATOM     78  C   UNL A   1      34.626  31.151  28.077  1.00  0.00     0.040 A 
ATOM     79  F   UNL A   1      35.676  29.344  29.144  1.00  0.00    -0.206 F 
ATOM     80  C   UNL A   1      34.617  32.491  27.695  1.00  0.00     0.006 A 
ENDBRANCH  52  73
BRANCH  64  81
ATOM     81  C   UNL A   1      39.020  32.264  35.649  1.00  0.00     0.057 A 
ATOM     82  C   UNL A   1      38.202  31.731  36.652  1.00  0.00     0.134 A 
ATOM     83  C   UNL A   1      39.417  33.601  35.784  1.00  0.00     0.134 A 
ATOM     84  F   UNL A   1      37.777  30.461  36.580  1.00  0.00    -0.206 F 
ATOM     85  C   UNL A   1      37.784  32.500  37.740  1.00  0.00     0.040 A 
ATOM     86  C   UNL A   1      39.031  34.372  36.882  1.00  0.00     0.040 A 
ATOM     87  F   UNL A   1      40.210  34.173  34.865  1.00  0.00    -0.206 F 
ATOM     88  C   UNL A   1      38.208  33.823  37.862  1.00  0.00     0.006 A 
ENDBRANCH  64  81
ENDBRANCH  38  39
ENDBRANCH  31  33
ENDBRANCH  30  31
ENDBRANCH  29  30
ENDBRANCH  28  29
ENDBRANCH  27  28
ENDBRANCH  26  27
ENDBRANCH   1  26
TORSDOF 21
ENDMDL
