MODEL 1
REMARK VINA RESULT:     -10.7      0.000      0.000
REMARK SMILES Cc1ccc(C(F)(F)F)cc1-c1ccc(/C=C/C(=O)OCCOCCOCCOC(=O)c2ccc(-c3c4nc(c(-c5c(F)cccc5F)c5ccc([nH]5)c(-c5c(F)cccc5F)c5nc(c(-c6c(F)cccc6F)c6ccc3[nH]6)C=C5)C=C4)cc2)s1
REMARK SMILES IDX 24 1 23 2 22 3 21 4 20 5 18 6 19 7 17 8 16 9 15 10 12 11
REMARK SMILES IDX 13 12 86 13 14 14 11 15 1 16 2 17 3 18 4 19 10 20 5 21 6 22
REMARK SMILES IDX 7 23 8 24 9 25 25 26 26 27 27 28 28 29 29 30 30 31 31 32
REMARK SMILES IDX 32 33 33 34 85 35 34 36 84 37 35 38 36 39 37 40 78 41 38 42
REMARK SMILES IDX 83 43 77 44 79 45 39 46 82 47 76 48 75 49 40 51 66 52 49 53
REMARK SMILES IDX 65 54 50 55 53 56 64 57 80 58 51 59 52 60 63 62 81 63 54 64
REMARK SMILES IDX 41 65 42 66 47 67 43 68 44 69 46 70 48 71 45 72 67 73 68 74
REMARK SMILES IDX 73 75 69 76 70 77 72 78 74 79 71 80 55 81 56 82 61 83 57 84
REMARK SMILES IDX 58 85 60 86 62 87 59 88
REMARK H PARENT 79 50 53 61
REMARK Flexibility Score: inf
ROOT
ATOM      1  C   UNL A   1      36.918  21.645  24.701  1.00  0.00     0.188 C 
ENDROOT
BRANCH   1   2
ATOM      2  O   UNL A   1      36.100  22.678  25.253  1.00  0.00    -0.376 OA
BRANCH   2   3
ATOM      3  C   UNL A   1      35.391  22.635  26.474  1.00  0.00     0.202 C 
BRANCH   3   4
ATOM      4  C   UNL A   1      34.302  21.418  26.786  1.00  0.00     0.261 C 
BRANCH   4   5
ATOM      5  O   UNL A   1      33.375  20.380  25.980  1.00  0.00    -0.460 OA
BRANCH   5   6
ATOM      6  C   UNL A   1      32.548  20.304  24.879  1.00  0.00     0.330 C 
ATOM      7  O   UNL A   1      31.997  19.328  24.394  1.00  0.00    -0.247 OA
BRANCH   6   8
ATOM      8  C   UNL A   1      32.107  21.516  24.173  1.00  0.00     0.095 C 
ATOM      9  C   UNL A   1      33.102  22.159  23.525  1.00  0.00     0.026 C 
BRANCH   9  10
ATOM     10  C   UNL A   1      33.172  23.592  23.520  1.00  0.00     0.028 A 
ATOM     11  C   UNL A   1      33.005  26.019  24.174  1.00  0.00     0.035 A 
ATOM     12  C   UNL A   1      33.501  25.829  22.898  1.00  0.00     0.021 A 
ATOM     13  S   UNL A   1      32.718  24.504  24.930  1.00  0.00    -0.136 S 
ATOM     14  C   UNL A   1      33.578  24.454  22.520  1.00  0.00     0.020 A 
BRANCH  11  15
ATOM     15  C   UNL A   1      32.735  27.313  24.849  1.00  0.00    -0.005 A 
ATOM     16  C   UNL A   1      30.463  27.546  23.681  1.00  0.00     0.045 C 
ATOM     17  C   UNL A   1      31.575  28.069  24.553  1.00  0.00    -0.042 A 
ATOM     18  C   UNL A   1      31.442  29.379  25.052  1.00  0.00     0.005 A 
ATOM     19  C   UNL A   1      32.412  29.927  25.886  1.00  0.00     0.013 A 
ATOM     20  C   UNL A   1      33.688  27.874  25.722  1.00  0.00     0.023 A 
ATOM     21  C   UNL A   1      33.532  29.172  26.254  1.00  0.00     0.056 A 
BRANCH  21  22
ATOM     22  C   UNL A   1      34.567  29.789  27.164  1.00  0.00     0.416 C 
ATOM     23  F   UNL A   1      35.828  29.673  26.666  1.00  0.00    -0.166 F 
ATOM     24  F   UNL A   1      34.369  31.125  27.359  1.00  0.00    -0.166 F 
ATOM     25  F   UNL A   1      34.602  29.235  28.408  1.00  0.00    -0.166 F 
ENDBRANCH  21  22
ENDBRANCH  11  15
ENDBRANCH   9  10
ENDBRANCH   6   8
ENDBRANCH   5   6
ENDBRANCH   4   5
ENDBRANCH   3   4
ENDBRANCH   2   3
ENDBRANCH   1   2
BRANCH   1  26
ATOM     26  C   UNL A   1      38.217  21.240  25.378  1.00  0.00     0.188 C 
BRANCH  26  27
ATOM     27  O   UNL A   1      38.761  22.338  26.084  1.00  0.00    -0.376 OA
BRANCH  27  28
ATOM     28  C   UNL A   1      39.913  22.017  26.850  1.00  0.00     0.202 C 
BRANCH  28  29
ATOM     29  C   UNL A   1      41.229  22.408  26.154  1.00  0.00     0.261 C 
BRANCH  29  30
ATOM     30  O   UNL A   1      41.375  23.846  26.158  1.00  0.00    -0.460 OA
BRANCH  30  31
ATOM     31  C   UNL A   1      41.522  24.452  27.374  1.00  0.00     0.338 C 
ATOM     32  O   UNL A   1      42.168  23.999  28.313  1.00  0.00    -0.246 OA
BRANCH  31  33
ATOM     33  C   UNL A   1      40.550  25.585  27.492  1.00  0.00     0.060 A 
ATOM     34  C   UNL A   1      40.743  26.829  26.882  1.00  0.00     0.016 A 
ATOM     35  C   UNL A   1      39.629  25.542  28.498  1.00  0.00     0.016 A 
ATOM     36  C   UNL A   1      40.191  28.035  27.446  1.00  0.00     0.010 A 
ATOM     37  C   UNL A   1      39.261  26.758  29.080  1.00  0.00     0.010 A 
ATOM     38  C   UNL A   1      39.523  28.070  28.671  1.00  0.00    -0.014 A 
BRANCH  38  39
ATOM     39  C   UNL A   1      39.365  29.351  29.603  1.00  0.00     0.031 A 
ATOM     40  C   UNL A   1      38.314  30.498  29.590  1.00  0.00     0.074 A 
ATOM     41  C   UNL A   1      40.224  29.522  30.635  1.00  0.00     0.049 A 
ATOM     42  N   UNL A   1      38.435  31.692  29.053  1.00  0.00    -0.248 NA
ATOM     43  C   UNL A   1      37.015  30.406  30.291  1.00  0.00     0.031 C 
ATOM     44  C   UNL A   1      40.232  30.590  31.637  1.00  0.00     0.029 A 
ATOM     45  N   UNL A   1      41.410  28.825  30.878  1.00  0.00    -0.354 N 
ATOM     46  C   UNL A   1      37.242  32.391  29.300  1.00  0.00     0.074 A 
ATOM     47  C   UNL A   1      36.315  31.457  29.873  1.00  0.00     0.031 C 
ATOM     48  C   UNL A   1      41.485  30.699  32.114  1.00  0.00     0.029 A 
ATOM     49  C   UNL A   1      42.320  29.772  31.361  1.00  0.00     0.049 A 
ATOM     50  H   UNL A   1      41.572  27.864  30.740  1.00  0.00     0.167 HD
ATOM     51  C   UNL A   1      37.105  33.718  29.605  1.00  0.00     0.037 A 
ATOM     52  C   UNL A   1      43.419  30.081  30.618  1.00  0.00     0.037 A 
ATOM     53  C   UNL A   1      38.323  34.192  30.203  1.00  0.00     0.049 A 
ATOM     54  C   UNL A   1      43.443  31.533  30.212  1.00  0.00     0.074 A 
ATOM     55  C   UNL A   1      38.723  34.205  31.530  1.00  0.00     0.029 A 
ATOM     56  N   UNL A   1      39.453  34.346  29.432  1.00  0.00    -0.354 N 
ATOM     57  N   UNL A   1      42.399  32.316  30.230  1.00  0.00    -0.248 NA
ATOM     58  C   UNL A   1      44.647  32.217  29.750  1.00  0.00     0.031 C 
ATOM     59  C   UNL A   1      40.132  34.282  31.551  1.00  0.00     0.029 A 
ATOM     60  C   UNL A   1      40.567  34.379  30.242  1.00  0.00     0.049 A 
ATOM     61  H   UNL A   1      39.463  34.421  28.450  1.00  0.00     0.167 HD
ATOM     62  C   UNL A   1      42.758  33.557  29.780  1.00  0.00     0.074 A 
ATOM     63  C   UNL A   1      44.178  33.453  29.511  1.00  0.00     0.031 C 
ATOM     64  C   UNL A   1      41.867  34.577  29.647  1.00  0.00     0.037 A 
BRANCH  51  65
ATOM     65  C   UNL A   1      35.722  34.305  29.843  1.00  0.00     0.057 A 
ATOM     66  C   UNL A   1      35.180  34.559  31.114  1.00  0.00     0.134 A 
ATOM     67  C   UNL A   1      34.865  34.597  28.759  1.00  0.00     0.134 A 
ATOM     68  F   UNL A   1      35.894  34.385  32.232  1.00  0.00    -0.206 F 
ATOM     69  C   UNL A   1      33.850  34.977  31.297  1.00  0.00     0.040 A 
ATOM     70  C   UNL A   1      33.531  35.003  28.930  1.00  0.00     0.040 A 
ATOM     71  F   UNL A   1      35.288  34.442  27.494  1.00  0.00    -0.206 F 
ATOM     72  C   UNL A   1      33.014  35.179  30.207  1.00  0.00     0.006 A 
ENDBRANCH  51  65
BRANCH  52  73
ATOM     73  C   UNL A   1      43.982  28.935  29.832  1.00  0.00     0.057 A 
ATOM     74  C   UNL A   1      44.625  27.888  30.531  1.00  0.00     0.134 A 
ATOM     75  C   UNL A   1      43.672  28.681  28.491  1.00  0.00     0.134 A 
ATOM     76  F   UNL A   1      44.959  28.047  31.823  1.00  0.00    -0.206 F 
ATOM     77  C   UNL A   1      44.842  26.627  29.970  1.00  0.00     0.040 A 
ATOM     78  C   UNL A   1      43.904  27.422  27.909  1.00  0.00     0.040 A 
ATOM     79  F   UNL A   1      43.013  29.589  27.758  1.00  0.00    -0.206 F 
ATOM     80  C   UNL A   1      44.465  26.384  28.655  1.00  0.00     0.006 A 
ENDBRANCH  52  73
BRANCH  64  81
ATOM     81  C   UNL A   1      42.125  35.886  28.967  1.00  0.00     0.057 A 
ATOM     82  C   UNL A   1      42.960  36.872  29.501  1.00  0.00     0.134 A 
ATOM     83  C   UNL A   1      41.694  36.095  27.638  1.00  0.00     0.134 A 
ATOM     84  F   UNL A   1      43.507  36.736  30.718  1.00  0.00    -0.206 F 
ATOM     85  C   UNL A   1      43.315  38.014  28.778  1.00  0.00     0.040 A 
ATOM     86  C   UNL A   1      42.083  37.204  26.888  1.00  0.00     0.040 A 
ATOM     87  F   UNL A   1      40.904  35.212  27.007  1.00  0.00    -0.206 F 
ATOM     88  C   UNL A   1      42.890  38.175  27.462  1.00  0.00     0.006 A 
ENDBRANCH  64  81
ENDBRANCH  38  39
ENDBRANCH  31  33
ENDBRANCH  30  31
ENDBRANCH  29  30
ENDBRANCH  28  29
ENDBRANCH  27  28
ENDBRANCH  26  27
ENDBRANCH   1  26
TORSDOF 20
ENDMDL
MODEL 2
REMARK VINA RESULT:     -10.4      4.873      9.446
REMARK SMILES Cc1ccc(C(F)(F)F)cc1-c1ccc(/C=C/C(=O)OCCOCCOCCOC(=O)c2ccc(-c3c4nc(c(-c5c(F)cccc5F)c5ccc([nH]5)c(-c5c(F)cccc5F)c5nc(c(-c6c(F)cccc6F)c6ccc3[nH]6)C=C5)C=C4)cc2)s1
REMARK SMILES IDX 24 1 23 2 22 3 21 4 20 5 18 6 19 7 17 8 16 9 15 10 12 11
REMARK SMILES IDX 13 12 86 13 14 14 11 15 1 16 2 17 3 18 4 19 10 20 5 21 6 22
REMARK SMILES IDX 7 23 8 24 9 25 25 26 26 27 27 28 28 29 29 30 30 31 31 32
REMARK SMILES IDX 32 33 33 34 85 35 34 36 84 37 35 38 36 39 37 40 78 41 38 42
REMARK SMILES IDX 83 43 77 44 79 45 39 46 82 47 76 48 75 49 40 51 66 52 49 53
REMARK SMILES IDX 65 54 50 55 53 56 64 57 80 58 51 59 52 60 63 62 81 63 54 64
REMARK SMILES IDX 41 65 42 66 47 67 43 68 44 69 46 70 48 71 45 72 67 73 68 74
REMARK SMILES IDX 73 75 69 76 70 77 72 78 74 79 71 80 55 81 56 82 61 83 57 84
REMARK SMILES IDX 58 85 60 86 62 87 59 88
REMARK H PARENT 79 50 53 61
REMARK Flexibility Score: inf
ROOT
ATOM      1  C   UNL A   1      34.146  31.189  27.844  1.00  0.00     0.188 C 
ENDROOT
BRANCH   1   2
ATOM      2  O   UNL A   1      33.597  30.462  26.744  1.00  0.00    -0.376 OA
BRANCH   2   3
ATOM      3  C   UNL A   1      32.242  30.425  26.346  1.00  0.00     0.202 C 
BRANCH   3   4
ATOM      4  C   UNL A   1      31.745  29.435  25.106  1.00  0.00     0.261 C 
BRANCH   4   5
ATOM      5  O   UNL A   1      30.567  29.351  24.015  1.00  0.00    -0.460 OA
BRANCH   5   6
ATOM      6  C   UNL A   1      30.343  29.026  22.694  1.00  0.00     0.330 C 
ATOM      7  O   UNL A   1      30.165  29.765  21.737  1.00  0.00    -0.247 OA
BRANCH   6   8
ATOM      8  C   UNL A   1      30.415  27.634  22.229  1.00  0.00     0.095 C 
ATOM      9  C   UNL A   1      30.531  26.733  23.228  1.00  0.00     0.026 C 
BRANCH   9  10
ATOM     10  C   UNL A   1      31.394  25.594  23.098  1.00  0.00     0.028 A 
ATOM     11  C   UNL A   1      32.607  23.425  23.512  1.00  0.00     0.035 A 
ATOM     12  C   UNL A   1      32.991  24.053  22.342  1.00  0.00     0.021 A 
ATOM     13  S   UNL A   1      31.360  24.320  24.282  1.00  0.00    -0.136 S 
ATOM     14  C   UNL A   1      32.317  25.291  22.116  1.00  0.00     0.020 A 
BRANCH  11  15
ATOM     15  C   UNL A   1      33.154  22.167  24.077  1.00  0.00    -0.005 A 
ATOM     16  C   UNL A   1      34.891  23.443  25.467  1.00  0.00     0.045 C 
ATOM     17  C   UNL A   1      34.281  22.173  24.934  1.00  0.00    -0.042 A 
ATOM     18  C   UNL A   1      34.900  20.960  25.292  1.00  0.00     0.005 A 
ATOM     19  C   UNL A   1      34.383  19.741  24.862  1.00  0.00     0.013 A 
ATOM     20  C   UNL A   1      32.628  20.921  23.681  1.00  0.00     0.023 A 
ATOM     21  C   UNL A   1      33.226  19.704  24.076  1.00  0.00     0.056 A 
BRANCH  21  22
ATOM     22  C   UNL A   1      32.684  18.369  23.628  1.00  0.00     0.416 C 
ATOM     23  F   UNL A   1      31.914  18.472  22.510  1.00  0.00    -0.166 F 
ATOM     24  F   UNL A   1      33.669  17.478  23.315  1.00  0.00    -0.166 F 
ATOM     25  F   UNL A   1      31.909  17.751  24.562  1.00  0.00    -0.166 F 
ENDBRANCH  21  22
ENDBRANCH  11  15
ENDBRANCH   9  10
ENDBRANCH   6   8
ENDBRANCH   5   6
ENDBRANCH   4   5
ENDBRANCH   3   4
ENDBRANCH   2   3
ENDBRANCH   1   2
BRANCH   1  26
ATOM     26  C   UNL A   1      33.931  32.688  27.968  1.00  0.00     0.188 C 
BRANCH  26  27
ATOM     27  O   UNL A   1      34.854  33.237  28.889  1.00  0.00    -0.376 OA
BRANCH  27  28
ATOM     28  C   UNL A   1      34.824  34.655  28.959  1.00  0.00     0.202 C 
BRANCH  28  29
ATOM     29  C   UNL A   1      33.647  35.194  29.791  1.00  0.00     0.261 C 
BRANCH  29  30
ATOM     30  O   UNL A   1      33.448  34.359  30.953  1.00  0.00    -0.460 OA
BRANCH  30  31
ATOM     31  C   UNL A   1      33.868  34.856  32.155  1.00  0.00     0.338 C 
ATOM     32  O   UNL A   1      33.586  35.965  32.595  1.00  0.00    -0.246 OA
BRANCH  31  33
ATOM     33  C   UNL A   1      34.948  33.981  32.711  1.00  0.00     0.060 A 
ATOM     34  C   UNL A   1      36.104  34.480  33.320  1.00  0.00     0.016 A 
ATOM     35  C   UNL A   1      34.993  32.678  32.308  1.00  0.00     0.016 A 
ATOM     36  C   UNL A   1      37.342  33.744  33.296  1.00  0.00     0.010 A 
ATOM     37  C   UNL A   1      36.254  32.092  32.179  1.00  0.00     0.010 A 
ATOM     38  C   UNL A   1      37.510  32.551  32.592  1.00  0.00    -0.014 A 
BRANCH  38  39
ATOM     39  C   UNL A   1      38.897  31.970  32.068  1.00  0.00     0.031 A 
ATOM     40  C   UNL A   1      39.208  30.799  31.094  1.00  0.00     0.074 A 
ATOM     41  C   UNL A   1      40.046  32.571  32.454  1.00  0.00     0.049 A 
ATOM     42  N   UNL A   1      39.536  29.563  31.403  1.00  0.00    -0.248 NA
ATOM     43  C   UNL A   1      39.258  30.965  29.626  1.00  0.00     0.031 C 
ATOM     44  C   UNL A   1      41.417  32.239  32.058  1.00  0.00     0.029 A 
ATOM     45  N   UNL A   1      40.211  33.529  33.457  1.00  0.00    -0.354 N 
ATOM     46  C   UNL A   1      39.738  28.865  30.201  1.00  0.00     0.074 A 
ATOM     47  C   UNL A   1      39.325  29.731  29.134  1.00  0.00     0.031 C 
ATOM     48  C   UNL A   1      42.243  32.678  33.023  1.00  0.00     0.029 A 
ATOM     49  C   UNL A   1      41.415  33.214  34.095  1.00  0.00     0.049 A 
ATOM     50  H   UNL A   1      39.604  34.274  33.670  1.00  0.00     0.167 HD
ATOM     51  C   UNL A   1      40.688  27.916  29.942  1.00  0.00     0.037 A 
ATOM     52  C   UNL A   1      41.394  32.803  35.395  1.00  0.00     0.037 A 
ATOM     53  C   UNL A   1      41.806  28.115  30.824  1.00  0.00     0.049 A 
ATOM     54  C   UNL A   1      41.938  31.407  35.560  1.00  0.00     0.074 A 
ATOM     55  C   UNL A   1      42.936  28.902  30.673  1.00  0.00     0.029 A 
ATOM     56  N   UNL A   1      41.685  27.823  32.163  1.00  0.00    -0.354 N 
ATOM     57  N   UNL A   1      42.066  30.550  34.584  1.00  0.00    -0.248 NA
ATOM     58  C   UNL A   1      42.379  30.864  36.841  1.00  0.00     0.031 C 
ATOM     59  C   UNL A   1      43.454  29.158  31.961  1.00  0.00     0.029 A 
ATOM     60  C   UNL A   1      42.672  28.473  32.871  1.00  0.00     0.049 A 
ATOM     61  H   UNL A   1      40.996  27.239  32.556  1.00  0.00     0.167 HD
ATOM     62  C   UNL A   1      42.563  29.374  35.078  1.00  0.00     0.074 A 
ATOM     63  C   UNL A   1      42.763  29.625  36.490  1.00  0.00     0.031 C 
ATOM     64  C   UNL A   1      42.764  28.277  34.299  1.00  0.00     0.037 A 
BRANCH  51  65
ATOM     65  C   UNL A   1      40.757  27.263  28.570  1.00  0.00     0.057 A 
ATOM     66  C   UNL A   1      41.554  27.729  27.511  1.00  0.00     0.134 A 
ATOM     67  C   UNL A   1      39.962  26.135  28.266  1.00  0.00     0.134 A 
ATOM     68  F   UNL A   1      42.402  28.754  27.667  1.00  0.00    -0.206 F 
ATOM     69  C   UNL A   1      41.491  27.179  26.219  1.00  0.00     0.040 A 
ATOM     70  C   UNL A   1      39.881  25.585  26.976  1.00  0.00     0.040 A 
ATOM     71  F   UNL A   1      39.195  25.567  29.211  1.00  0.00    -0.206 F 
ATOM     72  C   UNL A   1      40.637  26.120  25.941  1.00  0.00     0.006 A 
ENDBRANCH  51  65
BRANCH  52  73
ATOM     73  C   UNL A   1      40.327  33.441  36.232  1.00  0.00     0.057 A 
ATOM     74  C   UNL A   1      39.123  32.732  36.446  1.00  0.00     0.134 A 
ATOM     75  C   UNL A   1      40.539  34.557  37.050  1.00  0.00     0.134 A 
ATOM     76  F   UNL A   1      38.839  31.648  35.704  1.00  0.00    -0.206 F 
ATOM     77  C   UNL A   1      38.239  33.041  37.484  1.00  0.00     0.040 A 
ATOM     78  C   UNL A   1      39.647  34.889  38.086  1.00  0.00     0.040 A 
ATOM     79  F   UNL A   1      41.675  35.262  36.963  1.00  0.00    -0.206 F 
ATOM     80  C   UNL A   1      38.509  34.115  38.321  1.00  0.00     0.006 A 
ENDBRANCH  52  73
BRANCH  64  81
ATOM     81  C   UNL A   1      43.095  26.901  34.788  1.00  0.00     0.057 A 
ATOM     82  C   UNL A   1      42.122  25.964  35.147  1.00  0.00     0.134 A 
ATOM     83  C   UNL A   1      44.420  26.416  34.707  1.00  0.00     0.134 A 
ATOM     84  F   UNL A   1      40.821  26.285  35.165  1.00  0.00    -0.206 F 
ATOM     85  C   UNL A   1      42.446  24.637  35.444  1.00  0.00     0.040 A 
ATOM     86  C   UNL A   1      44.748  25.083  34.950  1.00  0.00     0.040 A 
ATOM     87  F   UNL A   1      45.441  27.214  34.355  1.00  0.00    -0.206 F 
ATOM     88  C   UNL A   1      43.758  24.189  35.331  1.00  0.00     0.006 A 
ENDBRANCH  64  81
ENDBRANCH  38  39
ENDBRANCH  31  33
ENDBRANCH  30  31
ENDBRANCH  29  30
ENDBRANCH  28  29
ENDBRANCH  27  28
ENDBRANCH  26  27
ENDBRANCH   1  26
TORSDOF 20
ENDMDL
MODEL 3
REMARK VINA RESULT:      -9.7      3.373      7.045
REMARK SMILES Cc1ccc(C(F)(F)F)cc1-c1ccc(/C=C/C(=O)OCCOCCOCCOC(=O)c2ccc(-c3c4nc(c(-c5c(F)cccc5F)c5ccc([nH]5)c(-c5c(F)cccc5F)c5nc(c(-c6c(F)cccc6F)c6ccc3[nH]6)C=C5)C=C4)cc2)s1
REMARK SMILES IDX 24 1 23 2 22 3 21 4 20 5 18 6 19 7 17 8 16 9 15 10 12 11
REMARK SMILES IDX 13 12 86 13 14 14 11 15 1 16 2 17 3 18 4 19 10 20 5 21 6 22
REMARK SMILES IDX 7 23 8 24 9 25 25 26 26 27 27 28 28 29 29 30 30 31 31 32
REMARK SMILES IDX 32 33 33 34 85 35 34 36 84 37 35 38 36 39 37 40 78 41 38 42
REMARK SMILES IDX 83 43 77 44 79 45 39 46 82 47 76 48 75 49 40 51 66 52 49 53
REMARK SMILES IDX 65 54 50 55 53 56 64 57 80 58 51 59 52 60 63 62 81 63 54 64
REMARK SMILES IDX 41 65 42 66 47 67 43 68 44 69 46 70 48 71 45 72 67 73 68 74
REMARK SMILES IDX 73 75 69 76 70 77 72 78 74 79 71 80 55 81 56 82 61 83 57 84
REMARK SMILES IDX 58 85 60 86 62 87 59 88
REMARK H PARENT 79 50 53 61
REMARK Flexibility Score: inf
ROOT
ATOM      1  C   UNL A   1      37.285  20.836  25.092  1.00  0.00     0.188 C 
ENDROOT
BRANCH   1   2
ATOM      2  O   UNL A   1      35.916  21.189  24.889  1.00  0.00    -0.376 OA
BRANCH   2   3
ATOM      3  C   UNL A   1      34.803  20.720  25.620  1.00  0.00     0.202 C 
BRANCH   3   4
ATOM      4  C   UNL A   1      33.752  19.614  24.959  1.00  0.00     0.261 C 
BRANCH   4   5
ATOM      5  O   UNL A   1      32.548  19.566  23.895  1.00  0.00    -0.460 OA
BRANCH   5   6
ATOM      6  C   UNL A   1      32.217  19.985  22.624  1.00  0.00     0.330 C 
ATOM      7  O   UNL A   1      32.086  19.326  21.603  1.00  0.00    -0.247 OA
BRANCH   6   8
ATOM      8  C   UNL A   1      31.838  21.380  22.357  1.00  0.00     0.095 C 
ATOM      9  C   UNL A   1      32.575  22.283  23.039  1.00  0.00     0.026 C 
BRANCH   9  10
ATOM     10  C   UNL A   1      31.968  23.452  23.607  1.00  0.00     0.028 A 
ATOM     11  C   UNL A   1      31.337  25.836  24.122  1.00  0.00     0.035 A 
ATOM     12  C   UNL A   1      30.693  24.913  24.925  1.00  0.00     0.021 A 
ATOM     13  S   UNL A   1      32.329  25.031  22.974  1.00  0.00    -0.136 S 
ATOM     14  C   UNL A   1      31.064  23.564  24.645  1.00  0.00     0.020 A 
BRANCH  11  15
ATOM     15  C   UNL A   1      31.233  27.315  24.192  1.00  0.00    -0.005 A 
ATOM     16  C   UNL A   1      33.180  27.460  25.854  1.00  0.00     0.045 C 
ATOM     17  C   UNL A   1      32.048  28.070  25.069  1.00  0.00    -0.042 A 
ATOM     18  C   UNL A   1      31.792  29.441  25.263  1.00  0.00     0.005 A 
ATOM     19  C   UNL A   1      30.780  30.085  24.557  1.00  0.00     0.013 A 
ATOM     20  C   UNL A   1      30.236  27.994  23.462  1.00  0.00     0.023 A 
ATOM     21  C   UNL A   1      30.009  29.378  23.628  1.00  0.00     0.056 A 
BRANCH  21  22
ATOM     22  C   UNL A   1      28.922  30.102  22.872  1.00  0.00     0.416 C 
ATOM     23  F   UNL A   1      27.769  30.198  23.590  1.00  0.00    -0.166 F 
ATOM     24  F   UNL A   1      29.265  31.383  22.553  1.00  0.00    -0.166 F 
ATOM     25  F   UNL A   1      28.583  29.506  21.695  1.00  0.00    -0.166 F 
ENDBRANCH  21  22
ENDBRANCH  11  15
ENDBRANCH   9  10
ENDBRANCH   6   8
ENDBRANCH   5   6
ENDBRANCH   4   5
ENDBRANCH   3   4
ENDBRANCH   2   3
ENDBRANCH   1   2
BRANCH   1  26
ATOM     26  C   UNL A   1      38.326  21.904  25.385  1.00  0.00     0.188 C 
BRANCH  26  27
ATOM     27  O   UNL A   1      39.326  21.386  26.240  1.00  0.00    -0.376 OA
BRANCH  27  28
ATOM     28  C   UNL A   1      40.029  22.378  26.973  1.00  0.00     0.202 C 
BRANCH  28  29
ATOM     29  C   UNL A   1      39.295  23.730  27.019  1.00  0.00     0.261 C 
BRANCH  29  30
ATOM     30  O   UNL A   1      39.954  24.612  27.954  1.00  0.00    -0.460 OA
BRANCH  30  31
ATOM     31  C   UNL A   1      40.623  25.683  27.432  1.00  0.00     0.338 C 
ATOM     32  O   UNL A   1      41.709  25.628  26.865  1.00  0.00    -0.246 OA
BRANCH  31  33
ATOM     33  C   UNL A   1      39.988  26.953  27.909  1.00  0.00     0.060 A 
ATOM     34  C   UNL A   1      40.082  28.166  27.219  1.00  0.00     0.016 A 
ATOM     35  C   UNL A   1      39.610  27.031  29.218  1.00  0.00     0.016 A 
ATOM     36  C   UNL A   1      40.026  29.429  27.910  1.00  0.00     0.010 A 
ATOM     37  C   UNL A   1      39.725  28.275  29.844  1.00  0.00     0.010 A 
ATOM     38  C   UNL A   1      39.979  29.538  29.301  1.00  0.00    -0.014 A 
BRANCH  38  39
ATOM     39  C   UNL A   1      40.445  30.804  30.147  1.00  0.00     0.031 A 
ATOM     40  C   UNL A   1      41.578  30.964  31.200  1.00  0.00     0.074 A 
ATOM     41  C   UNL A   1      39.832  31.993  29.941  1.00  0.00     0.049 A 
ATOM     42  N   UNL A   1      41.468  30.928  32.510  1.00  0.00    -0.248 NA
ATOM     43  C   UNL A   1      42.976  31.279  30.836  1.00  0.00     0.031 C 
ATOM     44  C   UNL A   1      40.129  33.284  30.565  1.00  0.00     0.029 A 
ATOM     45  N   UNL A   1      38.657  32.231  29.223  1.00  0.00    -0.354 N 
ATOM     46  C   UNL A   1      42.748  31.134  33.049  1.00  0.00     0.074 A 
ATOM     47  C   UNL A   1      43.676  31.116  31.955  1.00  0.00     0.031 C 
ATOM     48  C   UNL A   1      39.015  34.034  30.513  1.00  0.00     0.029 A 
ATOM     49  C   UNL A   1      37.960  33.208  29.941  1.00  0.00     0.049 A 
ATOM     50  H   UNL A   1      38.378  31.800  28.383  1.00  0.00     0.167 HD
ATOM     51  C   UNL A   1      43.071  31.851  34.169  1.00  0.00     0.037 A 
ATOM     52  C   UNL A   1      36.768  32.887  30.520  1.00  0.00     0.037 A 
ATOM     53  C   UNL A   1      42.051  32.834  34.411  1.00  0.00     0.049 A 
ATOM     54  C   UNL A   1      36.804  33.040  32.020  1.00  0.00     0.074 A 
ATOM     55  C   UNL A   1      41.929  34.132  33.942  1.00  0.00     0.029 A 
ATOM     56  N   UNL A   1      40.809  32.440  34.856  1.00  0.00    -0.354 N 
ATOM     57  N   UNL A   1      37.901  33.102  32.724  1.00  0.00    -0.248 NA
ATOM     58  C   UNL A   1      35.604  33.131  32.846  1.00  0.00     0.031 C 
ATOM     59  C   UNL A   1      40.567  34.493  34.029  1.00  0.00     0.029 A 
ATOM     60  C   UNL A   1      39.890  33.435  34.607  1.00  0.00     0.049 A 
ATOM     61  H   UNL A   1      40.608  31.577  35.286  1.00  0.00     0.167 HD
ATOM     62  C   UNL A   1      37.581  33.213  34.049  1.00  0.00     0.074 A 
ATOM     63  C   UNL A   1      36.133  33.249  34.075  1.00  0.00     0.031 C 
ATOM     64  C   UNL A   1      38.521  33.256  35.031  1.00  0.00     0.037 A 
BRANCH  51  65
ATOM     65  C   UNL A   1      44.524  31.968  34.605  1.00  0.00     0.057 A 
ATOM     66  C   UNL A   1      45.142  31.114  35.534  1.00  0.00     0.134 A 
ATOM     67  C   UNL A   1      45.346  33.005  34.110  1.00  0.00     0.134 A 
ATOM     68  F   UNL A   1      44.506  30.053  36.046  1.00  0.00    -0.206 F 
ATOM     69  C   UNL A   1      46.446  31.334  36.011  1.00  0.00     0.040 A 
ATOM     70  C   UNL A   1      46.645  33.242  34.587  1.00  0.00     0.040 A 
ATOM     71  F   UNL A   1      44.884  33.855  33.178  1.00  0.00    -0.206 F 
ATOM     72  C   UNL A   1      47.194  32.412  35.556  1.00  0.00     0.006 A 
ENDBRANCH  51  65
BRANCH  52  73
ATOM     73  C   UNL A   1      35.951  31.893  29.752  1.00  0.00     0.057 A 
ATOM     74  C   UNL A   1      35.091  32.367  28.735  1.00  0.00     0.134 A 
ATOM     75  C   UNL A   1      36.182  30.513  29.770  1.00  0.00     0.134 A 
ATOM     76  F   UNL A   1      34.814  33.679  28.645  1.00  0.00    -0.206 F 
ATOM     77  C   UNL A   1      34.585  31.541  27.728  1.00  0.00     0.040 A 
ATOM     78  C   UNL A   1      35.662  29.668  28.773  1.00  0.00     0.040 A 
ATOM     79  F   UNL A   1      37.025  29.973  30.660  1.00  0.00    -0.206 F 
ATOM     80  C   UNL A   1      34.884  30.185  27.735  1.00  0.00     0.006 A 
ENDBRANCH  52  73
BRANCH  64  81
ATOM     81  C   UNL A   1      38.260  33.160  36.504  1.00  0.00     0.057 A 
ATOM     82  C   UNL A   1      37.881  31.972  37.135  1.00  0.00     0.134 A 
ATOM     83  C   UNL A   1      38.594  34.235  37.357  1.00  0.00     0.134 A 
ATOM     84  F   UNL A   1      37.632  30.859  36.431  1.00  0.00    -0.206 F 
ATOM     85  C   UNL A   1      37.801  31.866  38.526  1.00  0.00     0.040 A 
ATOM     86  C   UNL A   1      38.569  34.126  38.747  1.00  0.00     0.040 A 
ATOM     87  F   UNL A   1      38.991  35.422  36.872  1.00  0.00    -0.206 F 
ATOM     88  C   UNL A   1      38.161  32.939  39.336  1.00  0.00     0.006 A 
ENDBRANCH  64  81
ENDBRANCH  38  39
ENDBRANCH  31  33
ENDBRANCH  30  31
ENDBRANCH  29  30
ENDBRANCH  28  29
ENDBRANCH  27  28
ENDBRANCH  26  27
ENDBRANCH   1  26
TORSDOF 20
ENDMDL
