MODEL 1
REMARK VINA RESULT:     -10.0      0.000      0.000
REMARK SMILES O=C(OCCOCCOCCOC(=O)[C@H]1Cc2cc(Cl)ccc2O1)c1ccc(-c2c3nc(c(-c4c(F)cccc4F)c4ccc([nH]4)c(-c4c(F)cccc4F)c4nc(c(-c5c(F)cccc5F)c5ccc2[nH]5)C=C4)C=C3)cc1
REMARK SMILES IDX 7 1 6 2 5 3 4 4 3 5 2 6 1 7 25 8 26 9 78 10 27 11 77 12
REMARK SMILES IDX 28 13 29 14 30 15 71 16 31 17 76 18 70 19 72 20 32 21 75 22
REMARK SMILES IDX 69 23 68 24 33 26 59 27 42 28 58 29 43 30 46 31 57 32 73 33
REMARK SMILES IDX 44 34 45 35 56 37 74 38 47 39 34 40 35 41 40 42 36 43 37 44
REMARK SMILES IDX 39 45 41 46 38 47 60 48 61 49 66 50 62 51 63 52 65 53 67 54
REMARK SMILES IDX 64 55 48 56 49 57 54 58 50 59 51 60 53 61 55 62 52 63 8 64
REMARK SMILES IDX 9 65 10 66 11 67 12 68 13 69 14 70 15 71 16 72 24 73 17 74
REMARK SMILES IDX 23 75 18 76 22 77 19 78 21 79 20 80
REMARK H PARENT 72 25 46 36
REMARK Flexibility Score: inf
ROOT
ATOM      1  C   UNL A   1      36.455  22.011  25.455  1.00  0.00     0.188 C 
ENDROOT
BRANCH   1   2
ATOM      2  O   UNL A   1      37.754  21.769  24.901  1.00  0.00    -0.376 OA
BRANCH   2   3
ATOM      3  C   UNL A   1      38.582  20.950  25.737  1.00  0.00     0.202 C 
BRANCH   3   4
ATOM      4  C   UNL A   1      38.978  19.601  25.120  1.00  0.00     0.261 C 
BRANCH   4   5
ATOM      5  O   UNL A   1      39.994  18.924  25.867  1.00  0.00    -0.460 OA
BRANCH   5   6
ATOM      6  C   UNL A   1      41.301  19.261  25.986  1.00  0.00     0.338 C 
ATOM      7  O   UNL A   1      42.134  18.377  25.802  1.00  0.00    -0.246 OA
BRANCH   6   8
ATOM      8  C   UNL A   1      41.810  20.626  26.357  1.00  0.00     0.060 A 
ATOM      9  C   UNL A   1      41.742  20.942  27.718  1.00  0.00     0.016 A 
ATOM     10  C   UNL A   1      42.269  21.632  25.497  1.00  0.00     0.016 A 
ATOM     11  C   UNL A   1      42.078  22.218  28.173  1.00  0.00     0.010 A 
ATOM     12  C   UNL A   1      42.645  22.903  25.957  1.00  0.00     0.010 A 
ATOM     13  C   UNL A   1      42.530  23.224  27.300  1.00  0.00    -0.014 A 
BRANCH  13  14
ATOM     14  C   UNL A   1      43.007  24.517  27.853  1.00  0.00     0.031 A 
ATOM     15  C   UNL A   1      44.465  24.890  27.968  1.00  0.00     0.074 A 
ATOM     16  C   UNL A   1      42.048  25.399  28.198  1.00  0.00     0.049 A 
ATOM     17  N   UNL A   1      44.992  26.086  28.080  1.00  0.00    -0.248 NA
ATOM     18  C   UNL A   1      45.467  23.812  27.942  1.00  0.00     0.031 C 
ATOM     19  C   UNL A   1      40.610  25.106  28.228  1.00  0.00     0.029 A 
ATOM     20  N   UNL A   1      42.124  26.715  28.557  1.00  0.00    -0.354 N 
ATOM     21  C   UNL A   1      46.372  25.912  27.979  1.00  0.00     0.074 A 
ATOM     22  C   UNL A   1      46.612  24.489  27.953  1.00  0.00     0.031 C 
ATOM     23  C   UNL A   1      39.937  26.223  28.522  1.00  0.00     0.029 A 
ATOM     24  C   UNL A   1      40.895  27.291  28.763  1.00  0.00     0.049 A 
ATOM     25  H   UNL A   1      42.974  27.202  28.658  1.00  0.00     0.167 HD
ATOM     26  C   UNL A   1      47.319  26.872  27.819  1.00  0.00     0.037 A 
ATOM     27  C   UNL A   1      40.575  28.545  29.124  1.00  0.00     0.037 A 
ATOM     28  C   UNL A   1      47.049  28.272  28.000  1.00  0.00     0.049 A 
ATOM     29  C   UNL A   1      41.689  29.534  29.259  1.00  0.00     0.074 A 
ATOM     30  C   UNL A   1      47.917  29.343  27.907  1.00  0.00     0.029 A 
ATOM     31  N   UNL A   1      45.819  28.781  28.391  1.00  0.00    -0.354 N 
ATOM     32  N   UNL A   1      42.958  29.389  28.962  1.00  0.00    -0.248 NA
ATOM     33  C   UNL A   1      41.334  30.854  29.786  1.00  0.00     0.031 C 
ATOM     34  C   UNL A   1      47.231  30.490  28.325  1.00  0.00     0.029 A 
ATOM     35  C   UNL A   1      45.924  30.138  28.632  1.00  0.00     0.049 A 
ATOM     36  H   UNL A   1      44.993  28.254  28.484  1.00  0.00     0.167 HD
ATOM     37  C   UNL A   1      43.559  30.603  29.254  1.00  0.00     0.074 A 
ATOM     38  C   UNL A   1      42.502  31.479  29.729  1.00  0.00     0.031 C 
ATOM     39  C   UNL A   1      44.860  30.967  29.140  1.00  0.00     0.037 A 
BRANCH  26  40
ATOM     40  C   UNL A   1      48.706  26.465  27.400  1.00  0.00     0.057 A 
ATOM     41  C   UNL A   1      49.084  26.366  26.059  1.00  0.00     0.134 A 
ATOM     42  C   UNL A   1      49.660  26.067  28.353  1.00  0.00     0.134 A 
ATOM     43  F   UNL A   1      48.204  26.646  25.086  1.00  0.00    -0.206 F 
ATOM     44  C   UNL A   1      50.367  25.944  25.687  1.00  0.00     0.040 A 
ATOM     45  C   UNL A   1      50.959  25.696  28.001  1.00  0.00     0.040 A 
ATOM     46  F   UNL A   1      49.332  25.968  29.648  1.00  0.00    -0.206 F 
ATOM     47  C   UNL A   1      51.317  25.633  26.659  1.00  0.00     0.006 A 
ENDBRANCH  26  40
BRANCH  27  48
ATOM     48  C   UNL A   1      39.161  28.887  29.417  1.00  0.00     0.057 A 
ATOM     49  C   UNL A   1      38.344  29.462  28.432  1.00  0.00     0.134 A 
ATOM     50  C   UNL A   1      38.595  28.684  30.679  1.00  0.00     0.134 A 
ATOM     51  F   UNL A   1      38.827  29.690  27.200  1.00  0.00    -0.206 F 
ATOM     52  C   UNL A   1      37.031  29.847  28.695  1.00  0.00     0.040 A 
ATOM     53  C   UNL A   1      37.269  29.035  30.949  1.00  0.00     0.040 A 
ATOM     54  F   UNL A   1      39.316  28.126  31.662  1.00  0.00    -0.206 F 
ATOM     55  C   UNL A   1      36.488  29.628  29.958  1.00  0.00     0.006 A 
ENDBRANCH  27  48
BRANCH  39  56
ATOM     56  C   UNL A   1      45.192  32.364  29.562  1.00  0.00     0.057 A 
ATOM     57  C   UNL A   1      45.048  33.435  28.675  1.00  0.00     0.134 A 
ATOM     58  C   UNL A   1      45.639  32.646  30.860  1.00  0.00     0.134 A 
ATOM     59  F   UNL A   1      44.632  33.228  27.416  1.00  0.00    -0.206 F 
ATOM     60  C   UNL A   1      45.333  34.743  29.064  1.00  0.00     0.040 A 
ATOM     61  C   UNL A   1      45.893  33.954  31.271  1.00  0.00     0.040 A 
ATOM     62  F   UNL A   1      45.777  31.662  31.761  1.00  0.00    -0.206 F 
ATOM     63  C   UNL A   1      45.744  35.006  30.369  1.00  0.00     0.006 A 
ENDBRANCH  39  56
ENDBRANCH  13  14
ENDBRANCH   6   8
ENDBRANCH   5   6
ENDBRANCH   4   5
ENDBRANCH   3   4
ENDBRANCH   2   3
ENDBRANCH   1   2
BRANCH   1  64
ATOM     64  C   UNL A   1      36.188  23.497  25.711  1.00  0.00     0.188 C 
BRANCH  64  65
ATOM     65  O   UNL A   1      34.884  23.859  26.160  1.00  0.00    -0.376 OA
BRANCH  65  66
ATOM     66  C   UNL A   1      34.304  25.037  25.611  1.00  0.00     0.202 C 
BRANCH  66  67
ATOM     67  C   UNL A   1      33.195  24.873  24.555  1.00  0.00     0.261 C 
BRANCH  67  68
ATOM     68  O   UNL A   1      33.228  23.637  23.813  1.00  0.00    -0.460 OA
BRANCH  68  69
ATOM     69  C   UNL A   1      32.336  22.687  24.218  1.00  0.00     0.347 C 
ATOM     70  O   UNL A   1      31.146  22.904  24.418  1.00  0.00    -0.248 OA
BRANCH  69  71
ATOM     71  C   UNL A   1      32.951  21.306  24.441  1.00  0.00     0.287 C 
ATOM     72  C   UNL A   1      32.529  20.504  25.679  1.00  0.00     0.097 C 
ATOM     73  O   UNL A   1      32.714  20.488  23.271  1.00  0.00    -0.478 OA
ATOM     74  C   UNL A   1      32.733  19.134  25.140  1.00  0.00    -0.000 A 
ATOM     75  C   UNL A   1      32.776  19.210  23.762  1.00  0.00     0.124 A 
ATOM     76  C   UNL A   1      32.770  17.902  25.771  1.00  0.00     0.028 A 
ATOM     77  C   UNL A   1      32.794  18.080  22.978  1.00  0.00     0.048 A 
ATOM     78  C   UNL A   1      32.766  16.744  24.979  1.00  0.00     0.041 A 
ATOM     79  C   UNL A   1      32.759  16.829  23.586  1.00  0.00     0.024 A 
ATOM     80  Cl  UNL A   1      32.692  15.193  25.724  1.00  0.00    -0.084 Cl
ENDBRANCH  69  71
ENDBRANCH  68  69
ENDBRANCH  67  68
ENDBRANCH  66  67
ENDBRANCH  65  66
ENDBRANCH  64  65
ENDBRANCH   1  64
TORSDOF 17
ENDMDL
MODEL 2
REMARK VINA RESULT:     -10.0      3.016      8.210
REMARK SMILES O=C(OCCOCCOCCOC(=O)[C@H]1Cc2cc(Cl)ccc2O1)c1ccc(-c2c3nc(c(-c4c(F)cccc4F)c4ccc([nH]4)c(-c4c(F)cccc4F)c4nc(c(-c5c(F)cccc5F)c5ccc2[nH]5)C=C4)C=C3)cc1
REMARK SMILES IDX 7 1 6 2 5 3 4 4 3 5 2 6 1 7 25 8 26 9 78 10 27 11 77 12
REMARK SMILES IDX 28 13 29 14 30 15 71 16 31 17 76 18 70 19 72 20 32 21 75 22
REMARK SMILES IDX 69 23 68 24 33 26 59 27 42 28 58 29 43 30 46 31 57 32 73 33
REMARK SMILES IDX 44 34 45 35 56 37 74 38 47 39 34 40 35 41 40 42 36 43 37 44
REMARK SMILES IDX 39 45 41 46 38 47 60 48 61 49 66 50 62 51 63 52 65 53 67 54
REMARK SMILES IDX 64 55 48 56 49 57 54 58 50 59 51 60 53 61 55 62 52 63 8 64
REMARK SMILES IDX 9 65 10 66 11 67 12 68 13 69 14 70 15 71 16 72 24 73 17 74
REMARK SMILES IDX 23 75 18 76 22 77 19 78 21 79 20 80
REMARK H PARENT 72 25 46 36
REMARK Flexibility Score: inf
ROOT
ATOM      1  C   UNL A   1      33.594  31.144  27.436  1.00  0.00     0.188 C 
ENDROOT
BRANCH   1   2
ATOM      2  O   UNL A   1      34.650  31.969  27.946  1.00  0.00    -0.376 OA
BRANCH   2   3
ATOM      3  C   UNL A   1      34.223  33.299  28.268  1.00  0.00     0.202 C 
BRANCH   3   4
ATOM      4  C   UNL A   1      34.426  33.698  29.737  1.00  0.00     0.261 C 
BRANCH   4   5
ATOM      5  O   UNL A   1      34.602  32.571  30.601  1.00  0.00    -0.460 OA
BRANCH   5   6
ATOM      6  C   UNL A   1      35.596  32.358  31.497  1.00  0.00     0.338 C 
ATOM      7  O   UNL A   1      35.414  32.742  32.649  1.00  0.00    -0.246 OA
BRANCH   6   8
ATOM      8  C   UNL A   1      36.919  31.716  31.181  1.00  0.00     0.060 A 
ATOM      9  C   UNL A   1      37.278  31.716  29.829  1.00  0.00     0.016 A 
ATOM     10  C   UNL A   1      37.786  31.062  32.065  1.00  0.00     0.016 A 
ATOM     11  C   UNL A   1      38.426  31.051  29.395  1.00  0.00     0.010 A 
ATOM     12  C   UNL A   1      38.961  30.426  31.637  1.00  0.00     0.010 A 
ATOM     13  C   UNL A   1      39.286  30.389  30.290  1.00  0.00    -0.014 A 
BRANCH  13  14
ATOM     14  C   UNL A   1      40.565  29.819  29.795  1.00  0.00     0.031 A 
ATOM     15  C   UNL A   1      40.741  28.369  29.416  1.00  0.00     0.074 A 
ATOM     16  C   UNL A   1      41.575  30.695  29.629  1.00  0.00     0.049 A 
ATOM     17  N   UNL A   1      41.659  27.835  28.645  1.00  0.00    -0.248 NA
ATOM     18  C   UNL A   1      39.779  27.386  29.940  1.00  0.00     0.031 C 
ATOM     19  C   UNL A   1      41.548  32.098  30.061  1.00  0.00     0.029 A 
ATOM     20  N   UNL A   1      42.797  30.557  29.034  1.00  0.00    -0.354 N 
ATOM     21  C   UNL A   1      41.291  26.502  28.470  1.00  0.00     0.074 A 
ATOM     22  C   UNL A   1      40.160  26.264  29.334  1.00  0.00     0.031 C 
ATOM     23  C   UNL A   1      42.670  32.705  29.661  1.00  0.00     0.029 A 
ATOM     24  C   UNL A   1      43.519  31.724  29.004  1.00  0.00     0.049 A 
ATOM     25  H   UNL A   1      43.127  29.706  28.664  1.00  0.00     0.167 HD
ATOM     26  C   UNL A   1      41.805  25.609  27.585  1.00  0.00     0.037 A 
ATOM     27  C   UNL A   1      44.744  31.972  28.512  1.00  0.00     0.037 A 
ATOM     28  C   UNL A   1      43.021  25.846  26.856  1.00  0.00     0.049 A 
ATOM     29  C   UNL A   1      45.446  30.858  27.803  1.00  0.00     0.074 A 
ATOM     30  C   UNL A   1      43.671  25.017  25.961  1.00  0.00     0.029 A 
ATOM     31  N   UNL A   1      43.810  26.977  27.008  1.00  0.00    -0.354 N 
ATOM     32  N   UNL A   1      44.990  29.672  27.479  1.00  0.00    -0.248 NA
ATOM     33  C   UNL A   1      46.831  31.109  27.397  1.00  0.00     0.031 C 
ATOM     34  C   UNL A   1      44.896  25.614  25.636  1.00  0.00     0.029 A 
ATOM     35  C   UNL A   1      44.985  26.833  26.294  1.00  0.00     0.049 A 
ATOM     36  H   UNL A   1      43.569  27.766  27.545  1.00  0.00     0.167 HD
ATOM     37  C   UNL A   1      46.027  29.031  26.820  1.00  0.00     0.074 A 
ATOM     38  C   UNL A   1      47.127  29.979  26.771  1.00  0.00     0.031 C 
ATOM     39  C   UNL A   1      46.071  27.780  26.301  1.00  0.00     0.037 A 
BRANCH  26  40
ATOM     40  C   UNL A   1      41.057  24.330  27.322  1.00  0.00     0.057 A 
ATOM     41  C   UNL A   1      39.856  24.298  26.610  1.00  0.00     0.134 A 
ATOM     42  C   UNL A   1      41.492  23.114  27.877  1.00  0.00     0.134 A 
ATOM     43  F   UNL A   1      39.329  25.430  26.120  1.00  0.00    -0.206 F 
ATOM     44  C   UNL A   1      39.152  23.103  26.412  1.00  0.00     0.040 A 
ATOM     45  C   UNL A   1      40.829  21.907  27.644  1.00  0.00     0.040 A 
ATOM     46  F   UNL A   1      42.537  23.079  28.714  1.00  0.00    -0.206 F 
ATOM     47  C   UNL A   1      39.651  21.899  26.907  1.00  0.00     0.006 A 
ENDBRANCH  26  40
BRANCH  27  48
ATOM     48  C   UNL A   1      45.366  33.303  28.727  1.00  0.00     0.057 A 
ATOM     49  C   UNL A   1      45.213  34.325  27.778  1.00  0.00     0.134 A 
ATOM     50  C   UNL A   1      46.147  33.583  29.852  1.00  0.00     0.134 A 
ATOM     51  F   UNL A   1      44.482  34.120  26.672  1.00  0.00    -0.206 F 
ATOM     52  C   UNL A   1      45.834  35.565  27.925  1.00  0.00     0.040 A 
ATOM     53  C   UNL A   1      46.748  34.832  30.028  1.00  0.00     0.040 A 
ATOM     54  F   UNL A   1      46.322  32.655  30.803  1.00  0.00    -0.206 F 
ATOM     55  C   UNL A   1      46.601  35.823  29.058  1.00  0.00     0.006 A 
ENDBRANCH  27  48
BRANCH  39  56
ATOM     56  C   UNL A   1      47.364  27.377  25.661  1.00  0.00     0.057 A 
ATOM     57  C   UNL A   1      48.339  26.687  26.388  1.00  0.00     0.134 A 
ATOM     58  C   UNL A   1      47.629  27.661  24.315  1.00  0.00     0.134 A 
ATOM     59  F   UNL A   1      48.146  26.393  27.683  1.00  0.00    -0.206 F 
ATOM     60  C   UNL A   1      49.536  26.287  25.796  1.00  0.00     0.040 A 
ATOM     61  C   UNL A   1      48.808  27.235  23.704  1.00  0.00     0.040 A 
ATOM     62  F   UNL A   1      46.723  28.302  23.563  1.00  0.00    -0.206 F 
ATOM     63  C   UNL A   1      49.767  26.549  24.447  1.00  0.00     0.006 A 
ENDBRANCH  39  56
ENDBRANCH  13  14
ENDBRANCH   6   8
ENDBRANCH   5   6
ENDBRANCH   4   5
ENDBRANCH   3   4
ENDBRANCH   2   3
ENDBRANCH   1   2
BRANCH   1  64
ATOM     64  C   UNL A   1      34.073  29.742  27.048  1.00  0.00     0.188 C 
BRANCH  64  65
ATOM     65  O   UNL A   1      33.279  28.638  27.477  1.00  0.00    -0.376 OA
BRANCH  65  66
ATOM     66  C   UNL A   1      32.977  27.634  26.515  1.00  0.00     0.202 C 
BRANCH  66  67
ATOM     67  C   UNL A   1      31.572  27.005  26.541  1.00  0.00     0.261 C 
BRANCH  67  68
ATOM     68  O   UNL A   1      31.378  25.891  25.648  1.00  0.00    -0.460 OA
BRANCH  68  69
ATOM     69  C   UNL A   1      31.639  24.662  26.180  1.00  0.00     0.347 C 
ATOM     70  O   UNL A   1      31.134  24.240  27.214  1.00  0.00    -0.248 OA
BRANCH  69  71
ATOM     71  C   UNL A   1      32.657  23.841  25.388  1.00  0.00     0.287 C 
ATOM     72  C   UNL A   1      34.136  23.918  25.790  1.00  0.00     0.097 C 
ATOM     73  O   UNL A   1      32.258  22.450  25.403  1.00  0.00    -0.478 OA
ATOM     74  C   UNL A   1      34.561  22.567  25.341  1.00  0.00    -0.000 A 
ATOM     75  C   UNL A   1      33.436  21.782  25.194  1.00  0.00     0.124 A 
ATOM     76  C   UNL A   1      35.821  22.016  25.175  1.00  0.00     0.028 A 
ATOM     77  C   UNL A   1      33.526  20.433  24.943  1.00  0.00     0.048 A 
ATOM     78  C   UNL A   1      35.924  20.637  24.942  1.00  0.00     0.041 A 
ATOM     79  C   UNL A   1      34.781  19.840  24.844  1.00  0.00     0.024 A 
ATOM     80  Cl  UNL A   1      37.474  19.893  24.848  1.00  0.00    -0.084 Cl
ENDBRANCH  69  71
ENDBRANCH  68  69
ENDBRANCH  67  68
ENDBRANCH  66  67
ENDBRANCH  65  66
ENDBRANCH  64  65
ENDBRANCH   1  64
TORSDOF 17
ENDMDL
MODEL 3
REMARK VINA RESULT:     -10.0      9.967     16.814
REMARK SMILES O=C(OCCOCCOCCOC(=O)[C@H]1Cc2cc(Cl)ccc2O1)c1ccc(-c2c3nc(c(-c4c(F)cccc4F)c4ccc([nH]4)c(-c4c(F)cccc4F)c4nc(c(-c5c(F)cccc5F)c5ccc2[nH]5)C=C4)C=C3)cc1
REMARK SMILES IDX 7 1 6 2 5 3 4 4 3 5 2 6 1 7 25 8 26 9 78 10 27 11 77 12
REMARK SMILES IDX 28 13 29 14 30 15 71 16 31 17 76 18 70 19 72 20 32 21 75 22
REMARK SMILES IDX 69 23 68 24 33 26 59 27 42 28 58 29 43 30 46 31 57 32 73 33
REMARK SMILES IDX 44 34 45 35 56 37 74 38 47 39 34 40 35 41 40 42 36 43 37 44
REMARK SMILES IDX 39 45 41 46 38 47 60 48 61 49 66 50 62 51 63 52 65 53 67 54
REMARK SMILES IDX 64 55 48 56 49 57 54 58 50 59 51 60 53 61 55 62 52 63 8 64
REMARK SMILES IDX 9 65 10 66 11 67 12 68 13 69 14 70 15 71 16 72 24 73 17 74
REMARK SMILES IDX 23 75 18 76 22 77 19 78 21 79 20 80
REMARK H PARENT 72 25 46 36
REMARK Flexibility Score: inf
ROOT
ATOM      1  C   UNL A   1      43.376  41.960  25.013  1.00  0.00     0.188 C 
ENDROOT
BRANCH   1   2
ATOM      2  O   UNL A   1      43.151  40.599  25.403  1.00  0.00    -0.376 OA
BRANCH   2   3
ATOM      3  C   UNL A   1      43.334  40.376  26.807  1.00  0.00     0.202 C 
BRANCH   3   4
ATOM      4  C   UNL A   1      43.445  38.898  27.211  1.00  0.00     0.261 C 
BRANCH   4   5
ATOM      5  O   UNL A   1      44.595  38.254  26.657  1.00  0.00    -0.460 OA
BRANCH   5   6
ATOM      6  C   UNL A   1      45.472  37.434  27.285  1.00  0.00     0.338 C 
ATOM      7  O   UNL A   1      46.573  37.895  27.575  1.00  0.00    -0.246 OA
BRANCH   6   8
ATOM      8  C   UNL A   1      45.213  35.993  27.627  1.00  0.00     0.060 A 
ATOM      9  C   UNL A   1      44.306  35.333  26.792  1.00  0.00     0.016 A 
ATOM     10  C   UNL A   1      45.712  35.268  28.716  1.00  0.00     0.016 A 
ATOM     11  C   UNL A   1      43.896  34.027  27.072  1.00  0.00     0.010 A 
ATOM     12  C   UNL A   1      45.333  33.943  28.978  1.00  0.00     0.010 A 
ATOM     13  C   UNL A   1      44.398  33.311  28.174  1.00  0.00    -0.014 A 
BRANCH  13  14
ATOM     14  C   UNL A   1      44.036  31.881  28.346  1.00  0.00     0.031 A 
ATOM     15  C   UNL A   1      42.826  31.412  29.116  1.00  0.00     0.074 A 
ATOM     16  C   UNL A   1      44.823  30.993  27.707  1.00  0.00     0.049 A 
ATOM     17  N   UNL A   1      42.206  30.259  29.034  1.00  0.00    -0.248 NA
ATOM     18  C   UNL A   1      42.214  32.334  30.086  1.00  0.00     0.031 C 
ATOM     19  C   UNL A   1      46.079  31.327  27.022  1.00  0.00     0.029 A 
ATOM     20  N   UNL A   1      44.681  29.651  27.500  1.00  0.00    -0.354 N 
ATOM     21  C   UNL A   1      41.057  30.380  29.816  1.00  0.00     0.074 A 
ATOM     22  C   UNL A   1      41.141  31.655  30.485  1.00  0.00     0.031 C 
ATOM     23  C   UNL A   1      46.556  30.233  26.418  1.00  0.00     0.029 A 
ATOM     24  C   UNL A   1      45.679  29.114  26.725  1.00  0.00     0.049 A 
ATOM     25  H   UNL A   1      43.938  29.121  27.869  1.00  0.00     0.167 HD
ATOM     26  C   UNL A   1      39.998  29.532  29.868  1.00  0.00     0.037 A 
ATOM     27  C   UNL A   1      45.876  27.848  26.318  1.00  0.00     0.037 A 
ATOM     28  C   UNL A   1      40.026  28.211  29.302  1.00  0.00     0.049 A 
ATOM     29  C   UNL A   1      44.831  26.837  26.669  1.00  0.00     0.074 A 
ATOM     30  C   UNL A   1      39.044  27.239  29.315  1.00  0.00     0.029 A 
ATOM     31  N   UNL A   1      41.138  27.655  28.687  1.00  0.00    -0.354 N 
ATOM     32  N   UNL A   1      43.661  27.024  27.233  1.00  0.00    -0.248 NA
ATOM     33  C   UNL A   1      45.130  25.443  26.336  1.00  0.00     0.031 C 
ATOM     34  C   UNL A   1      39.592  26.067  28.782  1.00  0.00     0.029 A 
ATOM     35  C   UNL A   1      40.900  26.324  28.396  1.00  0.00     0.049 A 
ATOM     36  H   UNL A   1      41.974  28.135  28.487  1.00  0.00     0.167 HD
ATOM     37  C   UNL A   1      43.075  25.771  27.317  1.00  0.00     0.074 A 
ATOM     38  C   UNL A   1      44.014  24.839  26.718  1.00  0.00     0.031 C 
ATOM     39  C   UNL A   1      41.873  25.420  27.836  1.00  0.00     0.037 A 
BRANCH  26  40
ATOM     40  C   UNL A   1      38.721  30.000  30.513  1.00  0.00     0.057 A 
ATOM     41  C   UNL A   1      38.359  29.630  31.811  1.00  0.00     0.134 A 
ATOM     42  C   UNL A   1      37.782  30.756  29.790  1.00  0.00     0.134 A 
ATOM     43  F   UNL A   1      39.161  28.838  32.538  1.00  0.00    -0.206 F 
ATOM     44  C   UNL A   1      37.146  30.040  32.379  1.00  0.00     0.040 A 
ATOM     45  C   UNL A   1      36.594  31.216  30.360  1.00  0.00     0.040 A 
ATOM     46  F   UNL A   1      37.969  31.012  28.488  1.00  0.00    -0.206 F 
ATOM     47  C   UNL A   1      36.271  30.857  31.663  1.00  0.00     0.006 A 
ENDBRANCH  26  40
BRANCH  27  48
ATOM     48  C   UNL A   1      47.121  27.495  25.592  1.00  0.00     0.057 A 
ATOM     49  C   UNL A   1      48.245  27.024  26.286  1.00  0.00     0.134 A 
ATOM     50  C   UNL A   1      47.239  27.644  24.207  1.00  0.00     0.134 A 
ATOM     51  F   UNL A   1      48.202  26.864  27.618  1.00  0.00    -0.206 F 
ATOM     52  C   UNL A   1      49.446  26.740  25.637  1.00  0.00     0.040 A 
ATOM     53  C   UNL A   1      48.426  27.333  23.539  1.00  0.00     0.040 A 
ATOM     54  F   UNL A   1      46.198  28.077  23.481  1.00  0.00    -0.206 F 
ATOM     55  C   UNL A   1      49.537  26.890  24.256  1.00  0.00     0.006 A 
ENDBRANCH  27  48
BRANCH  39  56
ATOM     56  C   UNL A   1      41.537  23.961  27.790  1.00  0.00     0.057 A 
ATOM     57  C   UNL A   1      40.642  23.461  26.839  1.00  0.00     0.134 A 
ATOM     58  C   UNL A   1      42.120  23.051  28.680  1.00  0.00     0.134 A 
ATOM     59  F   UNL A   1      40.044  24.284  25.963  1.00  0.00    -0.206 F 
ATOM     60  C   UNL A   1      40.340  22.102  26.772  1.00  0.00     0.040 A 
ATOM     61  C   UNL A   1      41.853  21.685  28.600  1.00  0.00     0.040 A 
ATOM     62  F   UNL A   1      43.002  23.470  29.601  1.00  0.00    -0.206 F 
ATOM     63  C   UNL A   1      40.956  21.209  27.646  1.00  0.00     0.006 A 
ENDBRANCH  39  56
ENDBRANCH  13  14
ENDBRANCH   6   8
ENDBRANCH   5   6
ENDBRANCH   4   5
ENDBRANCH   3   4
ENDBRANCH   2   3
ENDBRANCH   1   2
BRANCH   1  64
ATOM     64  C   UNL A   1      42.392  42.439  23.942  1.00  0.00     0.188 C 
BRANCH  64  65
ATOM     65  O   UNL A   1      42.351  41.709  22.718  1.00  0.00    -0.376 OA
BRANCH  65  66
ATOM     66  C   UNL A   1      42.763  42.385  21.536  1.00  0.00     0.202 C 
BRANCH  66  67
ATOM     67  C   UNL A   1      41.693  43.137  20.722  1.00  0.00     0.261 C 
BRANCH  67  68
ATOM     68  O   UNL A   1      41.908  43.165  19.297  1.00  0.00    -0.460 OA
BRANCH  68  69
ATOM     69  C   UNL A   1      41.212  44.122  18.618  1.00  0.00     0.347 C 
ATOM     70  O   UNL A   1      39.989  44.215  18.626  1.00  0.00    -0.248 OA
BRANCH  69  71
ATOM     71  C   UNL A   1      42.087  45.072  17.801  1.00  0.00     0.287 C 
ATOM     72  C   UNL A   1      41.468  46.376  17.280  1.00  0.00     0.097 C 
ATOM     73  O   UNL A   1      43.266  45.408  18.569  1.00  0.00    -0.478 OA
ATOM     74  C   UNL A   1      42.698  47.209  17.244  1.00  0.00    -0.000 A 
ATOM     75  C   UNL A   1      43.652  46.613  18.044  1.00  0.00     0.124 A 
ATOM     76  C   UNL A   1      42.949  48.440  16.660  1.00  0.00     0.028 A 
ATOM     77  C   UNL A   1      44.842  47.238  18.335  1.00  0.00     0.048 A 
ATOM     78  C   UNL A   1      44.150  49.095  16.970  1.00  0.00     0.041 A 
ATOM     79  C   UNL A   1      45.089  48.507  17.820  1.00  0.00     0.024 A 
ATOM     80  Cl  UNL A   1      44.448  50.678  16.361  1.00  0.00    -0.084 Cl
ENDBRANCH  69  71
ENDBRANCH  68  69
ENDBRANCH  67  68
ENDBRANCH  66  67
ENDBRANCH  65  66
ENDBRANCH  64  65
ENDBRANCH   1  64
TORSDOF 17
ENDMDL
