MODEL 1
REMARK VINA RESULT:      -9.7      0.000      0.000
REMARK SMILES Cc1cc(C)c(C#N)c(NC[C@H](CC(C)C)C(=O)OCCOCCOCCOC(=O)c2ccc(-c3c4nc(c(-c5c(F)cccc5F)c5ccc([nH]5)c(-c5c(F)cccc5F)c5nc(c(-c6c(F)cccc6F)c6ccc3[nH]6)C=C5)C=C4)cc2)n1
REMARK SMILES IDX 23 1 22 2 21 3 20 4 19 5 17 6 18 7 12 8 11 9 10 10 9 12 1 13
REMARK SMILES IDX 2 14 3 15 85 16 4 17 5 18 6 19 7 20 8 21 13 22 14 23 15 24
REMARK SMILES IDX 16 25 24 26 25 27 26 28 27 29 28 30 29 31 30 32 31 33 32 34
REMARK SMILES IDX 84 35 33 36 83 37 34 38 35 39 36 40 77 41 37 42 82 43 76 44
REMARK SMILES IDX 78 45 38 46 81 47 75 48 74 49 39 51 65 52 48 53 64 54 49 55
REMARK SMILES IDX 52 56 63 57 79 58 50 59 51 60 62 62 80 63 53 64 40 65 41 66
REMARK SMILES IDX 46 67 42 68 43 69 45 70 47 71 44 72 66 73 67 74 72 75 68 76
REMARK SMILES IDX 69 77 71 78 73 79 70 80 54 81 55 82 60 83 56 84 57 85 59 86
REMARK SMILES IDX 61 87 58 88
REMARK H PARENT 10 11 78 50 52 61
REMARK Flexibility Score: inf
ROOT
ATOM      1  C   UNL A   1      34.614  29.461  27.623  1.00  0.00     0.188 C 
ENDROOT
BRANCH   1   2
ATOM      2  O   UNL A   1      34.842  28.596  26.516  1.00  0.00    -0.376 OA
BRANCH   2   3
ATOM      3  C   UNL A   1      33.833  28.575  25.505  1.00  0.00     0.202 C 
BRANCH   3   4
ATOM      4  C   UNL A   1      33.625  27.242  24.764  1.00  0.00     0.261 C 
BRANCH   4   5
ATOM      5  O   UNL A   1      34.026  27.267  23.375  1.00  0.00    -0.463 OA
BRANCH   5   6
ATOM      6  C   UNL A   1      33.161  26.730  22.478  1.00  0.00     0.310 C 
ATOM      7  O   UNL A   1      33.513  26.240  21.408  1.00  0.00    -0.252 OA
BRANCH   6   8
ATOM      8  C   UNL A   1      31.722  26.610  22.986  1.00  0.00     0.118 C 
BRANCH   8   9
ATOM      9  C   UNL A   1      31.273  25.142  23.003  1.00  0.00     0.129 C 
BRANCH   9  10
ATOM     10  N   UNL A   1      32.370  24.212  22.994  1.00  0.00    -0.368 N 
ATOM     11  H   UNL A   1      32.586  23.845  22.107  1.00  0.00     0.162 HD
BRANCH  10  12
ATOM     12  C   UNL A   1      33.163  23.750  24.001  1.00  0.00     0.144 A 
ATOM     13  C   UNL A   1      36.642  22.574  23.699  1.00  0.00     0.067 C 
ATOM     14  C   UNL A   1      35.312  22.872  24.320  1.00  0.00     0.040 A 
ATOM     15  C   UNL A   1      35.060  22.594  25.653  1.00  0.00     0.028 A 
ATOM     16  N   UNL A   1      34.383  23.423  23.509  1.00  0.00    -0.235 NA
ATOM     17  C   UNL A   1      33.813  22.930  26.183  1.00  0.00    -0.028 A 
ATOM     18  C   UNL A   1      33.500  22.589  27.617  1.00  0.00     0.046 C 
ATOM     19  C   UNL A   1      32.860  23.561  25.353  1.00  0.00     0.097 A 
BRANCH  19  20
ATOM     20  C   UNL A   1      31.614  23.958  25.948  1.00  0.00     0.103 C 
ATOM     21  N   UNL A   1      30.643  24.334  26.456  1.00  0.00    -0.192 NA
ENDBRANCH  19  20
ENDBRANCH  10  12
ENDBRANCH   9  10
ENDBRANCH   8   9
BRANCH   8  22
ATOM     22  C   UNL A   1      30.583  27.564  22.561  1.00  0.00     0.020 C 
BRANCH  22  23
ATOM     23  C   UNL A   1      30.683  29.083  22.741  1.00  0.00    -0.017 C 
ATOM     24  C   UNL A   1      29.595  29.854  22.009  1.00  0.00     0.007 C 
ATOM     25  C   UNL A   1      30.644  29.405  24.242  1.00  0.00     0.007 C 
ENDBRANCH  22  23
ENDBRANCH   8  22
ENDBRANCH   6   8
ENDBRANCH   5   6
ENDBRANCH   4   5
ENDBRANCH   3   4
ENDBRANCH   2   3
ENDBRANCH   1   2
BRANCH   1  26
ATOM     26  C   UNL A   1      33.925  30.781  27.284  1.00  0.00     0.188 C 
BRANCH  26  27
ATOM     27  O   UNL A   1      32.518  30.750  27.246  1.00  0.00    -0.376 OA
BRANCH  27  28
ATOM     28  C   UNL A   1      31.789  31.856  26.725  1.00  0.00     0.202 C 
BRANCH  28  29
ATOM     29  C   UNL A   1      32.139  33.345  26.978  1.00  0.00     0.261 C 
BRANCH  29  30
ATOM     30  O   UNL A   1      32.080  33.878  28.310  1.00  0.00    -0.460 OA
BRANCH  30  31
ATOM     31  C   UNL A   1      32.931  34.873  28.654  1.00  0.00     0.338 C 
ATOM     32  O   UNL A   1      32.660  36.056  28.748  1.00  0.00    -0.246 OA
BRANCH  31  33
ATOM     33  C   UNL A   1      34.173  34.230  29.186  1.00  0.00     0.060 A 
ATOM     34  C   UNL A   1      34.045  33.233  30.168  1.00  0.00     0.016 A 
ATOM     35  C   UNL A   1      35.434  34.508  28.650  1.00  0.00     0.016 A 
ATOM     36  C   UNL A   1      35.166  32.528  30.624  1.00  0.00     0.010 A 
ATOM     37  C   UNL A   1      36.558  33.825  29.128  1.00  0.00     0.010 A 
ATOM     38  C   UNL A   1      36.437  32.851  30.137  1.00  0.00    -0.014 A 
BRANCH  38  39
ATOM     39  C   UNL A   1      37.669  32.360  30.809  1.00  0.00     0.031 A 
ATOM     40  C   UNL A   1      38.420  31.235  30.153  1.00  0.00     0.074 A 
ATOM     41  C   UNL A   1      38.090  32.840  31.992  1.00  0.00     0.049 A 
ATOM     42  N   UNL A   1      39.388  30.489  30.618  1.00  0.00    -0.248 NA
ATOM     43  C   UNL A   1      37.997  30.897  28.785  1.00  0.00     0.031 C 
ATOM     44  C   UNL A   1      37.496  33.960  32.714  1.00  0.00     0.029 A 
ATOM     45  N   UNL A   1      39.106  32.407  32.813  1.00  0.00    -0.354 N 
ATOM     46  C   UNL A   1      39.667  29.571  29.614  1.00  0.00     0.074 A 
ATOM     47  C   UNL A   1      38.748  29.839  28.529  1.00  0.00     0.031 C 
ATOM     48  C   UNL A   1      38.129  34.098  33.894  1.00  0.00     0.029 A 
ATOM     49  C   UNL A   1      39.138  33.047  34.027  1.00  0.00     0.049 A 
ATOM     50  H   UNL A   1      39.748  31.705  32.554  1.00  0.00     0.167 HD
ATOM     51  C   UNL A   1      40.602  28.591  29.597  1.00  0.00     0.037 A 
ATOM     52  C   UNL A   1      39.857  32.782  35.137  1.00  0.00     0.037 A 
ATOM     53  C   UNL A   1      41.502  28.320  30.686  1.00  0.00     0.049 A 
ATOM     54  C   UNL A   1      40.836  31.634  35.140  1.00  0.00     0.074 A 
ATOM     55  C   UNL A   1      42.500  27.364  30.762  1.00  0.00     0.029 A 
ATOM     56  N   UNL A   1      41.499  28.991  31.902  1.00  0.00    -0.354 N 
ATOM     57  N   UNL A   1      41.110  30.777  34.187  1.00  0.00    -0.248 NA
ATOM     58  C   UNL A   1      41.608  31.417  36.374  1.00  0.00     0.031 C 
ATOM     59  C   UNL A   1      43.046  27.405  32.048  1.00  0.00     0.029 A 
ATOM     60  C   UNL A   1      42.452  28.444  32.745  1.00  0.00     0.049 A 
ATOM     61  H   UNL A   1      40.908  29.744  32.129  1.00  0.00     0.167 HD
ATOM     62  C   UNL A   1      42.106  29.944  34.689  1.00  0.00     0.074 A 
ATOM     63  C   UNL A   1      42.388  30.399  36.034  1.00  0.00     0.031 C 
ATOM     64  C   UNL A   1      42.734  28.906  34.084  1.00  0.00     0.037 A 
BRANCH  51  65
ATOM     65  C   UNL A   1      40.644  27.705  28.383  1.00  0.00     0.057 A 
ATOM     66  C   UNL A   1      39.942  26.493  28.313  1.00  0.00     0.134 A 
ATOM     67  C   UNL A   1      41.419  28.062  27.272  1.00  0.00     0.134 A 
ATOM     68  F   UNL A   1      39.187  26.082  29.344  1.00  0.00    -0.206 F 
ATOM     69  C   UNL A   1      40.051  25.646  27.208  1.00  0.00     0.040 A 
ATOM     70  C   UNL A   1      41.505  27.243  26.145  1.00  0.00     0.040 A 
ATOM     71  F   UNL A   1      42.111  29.210  27.263  1.00  0.00    -0.206 F 
ATOM     72  C   UNL A   1      40.834  26.023  26.118  1.00  0.00     0.006 A 
ENDBRANCH  51  65
BRANCH  52  73
ATOM     73  C   UNL A   1      39.646  33.603  36.359  1.00  0.00     0.057 A 
ATOM     74  C   UNL A   1      38.717  33.233  37.337  1.00  0.00     0.134 A 
ATOM     75  C   UNL A   1      40.383  34.774  36.582  1.00  0.00     0.134 A 
ATOM     76  F   UNL A   1      37.958  32.140  37.168  1.00  0.00    -0.206 F 
ATOM     77  C   UNL A   1      38.528  33.995  38.492  1.00  0.00     0.040 A 
ATOM     78  C   UNL A   1      40.224  35.530  37.745  1.00  0.00     0.040 A 
ATOM     79  F   UNL A   1      41.284  35.189  35.680  1.00  0.00    -0.206 F 
ATOM     80  C   UNL A   1      39.291  35.142  38.704  1.00  0.00     0.006 A 
ENDBRANCH  52  73
BRANCH  64  81
ATOM     81  C   UNL A   1      43.837  28.213  34.836  1.00  0.00     0.057 A 
ATOM     82  C   UNL A   1      43.617  27.062  35.601  1.00  0.00     0.134 A 
ATOM     83  C   UNL A   1      45.160  28.668  34.725  1.00  0.00     0.134 A 
ATOM     84  F   UNL A   1      42.378  26.575  35.759  1.00  0.00    -0.206 F 
ATOM     85  C   UNL A   1      44.668  26.397  36.241  1.00  0.00     0.040 A 
ATOM     86  C   UNL A   1      46.221  27.995  35.331  1.00  0.00     0.040 A 
ATOM     87  F   UNL A   1      45.446  29.759  33.998  1.00  0.00    -0.206 F 
ATOM     88  C   UNL A   1      45.976  26.858  36.097  1.00  0.00     0.006 A 
ENDBRANCH  64  81
ENDBRANCH  38  39
ENDBRANCH  31  33
ENDBRANCH  30  31
ENDBRANCH  29  30
ENDBRANCH  28  29
ENDBRANCH  27  28
ENDBRANCH  26  27
ENDBRANCH   1  26
TORSDOF 23
ENDMDL
MODEL 2
REMARK VINA RESULT:      -9.6      3.865      7.732
REMARK SMILES Cc1cc(C)c(C#N)c(NC[C@H](CC(C)C)C(=O)OCCOCCOCCOC(=O)c2ccc(-c3c4nc(c(-c5c(F)cccc5F)c5ccc([nH]5)c(-c5c(F)cccc5F)c5nc(c(-c6c(F)cccc6F)c6ccc3[nH]6)C=C5)C=C4)cc2)n1
REMARK SMILES IDX 23 1 22 2 21 3 20 4 19 5 17 6 18 7 12 8 11 9 10 10 9 12 1 13
REMARK SMILES IDX 2 14 3 15 85 16 4 17 5 18 6 19 7 20 8 21 13 22 14 23 15 24
REMARK SMILES IDX 16 25 24 26 25 27 26 28 27 29 28 30 29 31 30 32 31 33 32 34
REMARK SMILES IDX 84 35 33 36 83 37 34 38 35 39 36 40 77 41 37 42 82 43 76 44
REMARK SMILES IDX 78 45 38 46 81 47 75 48 74 49 39 51 65 52 48 53 64 54 49 55
REMARK SMILES IDX 52 56 63 57 79 58 50 59 51 60 62 62 80 63 53 64 40 65 41 66
REMARK SMILES IDX 46 67 42 68 43 69 45 70 47 71 44 72 66 73 67 74 72 75 68 76
REMARK SMILES IDX 69 77 71 78 73 79 70 80 54 81 55 82 60 83 56 84 57 85 59 86
REMARK SMILES IDX 61 87 58 88
REMARK H PARENT 10 11 78 50 52 61
REMARK Flexibility Score: inf
ROOT
ATOM      1  C   UNL A   1      31.704  28.759  23.284  1.00  0.00     0.188 C 
ENDROOT
BRANCH   1   2
ATOM      2  O   UNL A   1      32.162  27.413  23.355  1.00  0.00    -0.376 OA
BRANCH   2   3
ATOM      3  C   UNL A   1      33.114  27.011  22.369  1.00  0.00     0.202 C 
BRANCH   3   4
ATOM      4  C   UNL A   1      32.834  25.685  21.638  1.00  0.00     0.261 C 
BRANCH   4   5
ATOM      5  O   UNL A   1      33.639  24.574  22.097  1.00  0.00    -0.463 OA
BRANCH   5   6
ATOM      6  C   UNL A   1      33.000  23.605  22.799  1.00  0.00     0.310 C 
ATOM      7  O   UNL A   1      32.876  22.450  22.400  1.00  0.00    -0.252 OA
BRANCH   6   8
ATOM      8  C   UNL A   1      32.607  24.014  24.221  1.00  0.00     0.118 C 
BRANCH   8   9
ATOM      9  C   UNL A   1      33.853  24.176  25.103  1.00  0.00     0.129 C 
BRANCH   9  10
ATOM     10  N   UNL A   1      34.144  23.011  25.894  1.00  0.00    -0.368 N 
ATOM     11  H   UNL A   1      33.684  22.983  26.764  1.00  0.00     0.162 HD
BRANCH  10  12
ATOM     12  C   UNL A   1      34.948  21.938  25.650  1.00  0.00     0.144 A 
ATOM     13  C   UNL A   1      38.632  21.889  25.716  1.00  0.00     0.067 C 
ATOM     14  C   UNL A   1      37.227  21.411  25.513  1.00  0.00     0.040 A 
ATOM     15  C   UNL A   1      36.959  20.126  25.074  1.00  0.00     0.028 A 
ATOM     16  N   UNL A   1      36.248  22.301  25.781  1.00  0.00    -0.235 NA
ATOM     17  C   UNL A   1      35.627  19.728  24.940  1.00  0.00    -0.028 A 
ATOM     18  C   UNL A   1      35.314  18.351  24.414  1.00  0.00     0.046 C 
ATOM     19  C   UNL A   1      34.601  20.636  25.276  1.00  0.00     0.097 A 
BRANCH  19  20
ATOM     20  C   UNL A   1      33.244  20.171  25.196  1.00  0.00     0.103 C 
ATOM     21  N   UNL A   1      32.174  19.737  25.102  1.00  0.00    -0.192 NA
ENDBRANCH  19  20
ENDBRANCH  10  12
ENDBRANCH   9  10
ENDBRANCH   8   9
BRANCH   8  22
ATOM     22  C   UNL A   1      31.422  23.391  24.992  1.00  0.00     0.020 C 
BRANCH  22  23
ATOM     23  C   UNL A   1      30.845  24.035  26.258  1.00  0.00    -0.017 C 
ATOM     24  C   UNL A   1      30.117  25.344  25.997  1.00  0.00     0.007 C 
ATOM     25  C   UNL A   1      29.902  23.029  26.936  1.00  0.00     0.007 C 
ENDBRANCH  22  23
ENDBRANCH   8  22
ENDBRANCH   6   8
ENDBRANCH   5   6
ENDBRANCH   4   5
ENDBRANCH   3   4
ENDBRANCH   2   3
ENDBRANCH   1   2
BRANCH   1  26
ATOM     26  C   UNL A   1      31.447  29.428  24.633  1.00  0.00     0.188 C 
BRANCH  26  27
ATOM     27  O   UNL A   1      31.430  28.575  25.752  1.00  0.00    -0.376 OA
BRANCH  27  28
ATOM     28  C   UNL A   1      31.988  29.001  26.990  1.00  0.00     0.202 C 
BRANCH  28  29
ATOM     29  C   UNL A   1      32.767  30.325  27.200  1.00  0.00     0.261 C 
BRANCH  29  30
ATOM     30  O   UNL A   1      34.202  30.308  27.262  1.00  0.00    -0.460 OA
BRANCH  30  31
ATOM     31  C   UNL A   1      34.820  30.977  28.263  1.00  0.00     0.338 C 
ATOM     32  O   UNL A   1      34.304  31.769  29.030  1.00  0.00    -0.246 OA
BRANCH  31  33
ATOM     33  C   UNL A   1      36.165  30.350  28.452  1.00  0.00     0.060 A 
ATOM     34  C   UNL A   1      36.484  29.809  29.709  1.00  0.00     0.016 A 
ATOM     35  C   UNL A   1      37.056  30.182  27.387  1.00  0.00     0.016 A 
ATOM     36  C   UNL A   1      37.687  29.120  29.909  1.00  0.00     0.010 A 
ATOM     37  C   UNL A   1      38.271  29.520  27.594  1.00  0.00     0.010 A 
ATOM     38  C   UNL A   1      38.608  29.009  28.862  1.00  0.00    -0.014 A 
BRANCH  38  39
ATOM     39  C   UNL A   1      40.008  28.572  29.108  1.00  0.00     0.031 A 
ATOM     40  C   UNL A   1      40.979  29.599  29.619  1.00  0.00     0.074 A 
ATOM     41  C   UNL A   1      40.439  27.328  28.835  1.00  0.00     0.049 A 
ATOM     42  N   UNL A   1      42.281  29.547  29.718  1.00  0.00    -0.248 NA
ATOM     43  C   UNL A   1      40.388  30.873  30.059  1.00  0.00     0.031 C 
ATOM     44  C   UNL A   1      39.602  26.219  28.389  1.00  0.00     0.029 A 
ATOM     45  N   UNL A   1      41.711  26.806  28.861  1.00  0.00    -0.354 N 
ATOM     46  C   UNL A   1      42.670  30.791  30.199  1.00  0.00     0.074 A 
ATOM     47  C   UNL A   1      41.468  31.583  30.344  1.00  0.00     0.031 C 
ATOM     48  C   UNL A   1      40.390  25.157  28.138  1.00  0.00     0.029 A 
ATOM     49  C   UNL A   1      41.788  25.530  28.360  1.00  0.00     0.049 A 
ATOM     50  H   UNL A   1      42.491  27.300  29.205  1.00  0.00     0.167 HD
ATOM     51  C   UNL A   1      43.916  31.236  30.490  1.00  0.00     0.037 A 
ATOM     52  C   UNL A   1      42.862  24.770  28.063  1.00  0.00     0.037 A 
ATOM     53  C   UNL A   1      45.109  30.448  30.328  1.00  0.00     0.049 A 
ATOM     54  C   UNL A   1      44.251  25.304  28.311  1.00  0.00     0.074 A 
ATOM     55  C   UNL A   1      46.417  30.797  30.614  1.00  0.00     0.029 A 
ATOM     56  N   UNL A   1      45.143  29.159  29.814  1.00  0.00    -0.354 N 
ATOM     57  N   UNL A   1      44.617  26.473  28.778  1.00  0.00    -0.248 NA
ATOM     58  C   UNL A   1      45.377  24.413  27.990  1.00  0.00     0.031 C 
ATOM     59  C   UNL A   1      47.248  29.752  30.201  1.00  0.00     0.029 A 
ATOM     60  C   UNL A   1      46.453  28.714  29.740  1.00  0.00     0.049 A 
ATOM     61  H   UNL A   1      44.353  28.638  29.544  1.00  0.00     0.167 HD
ATOM     62  C   UNL A   1      46.007  26.447  28.842  1.00  0.00     0.074 A 
ATOM     63  C   UNL A   1      46.419  25.145  28.363  1.00  0.00     0.031 C 
ATOM     64  C   UNL A   1      46.859  27.412  29.268  1.00  0.00     0.037 A 
BRANCH  51  65
ATOM     65  C   UNL A   1      44.044  32.661  30.950  1.00  0.00     0.057 A 
ATOM     66  C   UNL A   1      44.074  33.740  30.056  1.00  0.00     0.134 A 
ATOM     67  C   UNL A   1      44.162  32.957  32.315  1.00  0.00     0.134 A 
ATOM     68  F   UNL A   1      43.978  33.531  28.733  1.00  0.00    -0.206 F 
ATOM     69  C   UNL A   1      44.269  35.051  30.494  1.00  0.00     0.040 A 
ATOM     70  C   UNL A   1      44.316  34.268  32.770  1.00  0.00     0.040 A 
ATOM     71  F   UNL A   1      44.132  31.978  33.231  1.00  0.00    -0.206 F 
ATOM     72  C   UNL A   1      44.388  35.317  31.858  1.00  0.00     0.006 A 
ENDBRANCH  51  65
BRANCH  52  73
ATOM     73  C   UNL A   1      42.662  23.426  27.457  1.00  0.00     0.057 A 
ATOM     74  C   UNL A   1      42.384  22.303  28.244  1.00  0.00     0.134 A 
ATOM     75  C   UNL A   1      42.731  23.238  26.070  1.00  0.00     0.134 A 
ATOM     76  F   UNL A   1      42.337  22.411  29.580  1.00  0.00    -0.206 F 
ATOM     77  C   UNL A   1      42.181  21.044  27.676  1.00  0.00     0.040 A 
ATOM     78  C   UNL A   1      42.502  21.991  25.487  1.00  0.00     0.040 A 
ATOM     79  F   UNL A   1      43.001  24.272  25.259  1.00  0.00    -0.206 F 
ATOM     80  C   UNL A   1      42.229  20.888  26.291  1.00  0.00     0.006 A 
ENDBRANCH  52  73
BRANCH  64  81
ATOM     81  C   UNL A   1      48.328  27.092  29.301  1.00  0.00     0.057 A 
ATOM     82  C   UNL A   1      48.906  26.309  30.307  1.00  0.00     0.134 A 
ATOM     83  C   UNL A   1      49.165  27.516  28.257  1.00  0.00     0.134 A 
ATOM     84  F   UNL A   1      48.168  25.876  31.341  1.00  0.00    -0.206 F 
ATOM     85  C   UNL A   1      50.262  25.971  30.284  1.00  0.00     0.040 A 
ATOM     86  C   UNL A   1      50.513  27.158  28.205  1.00  0.00     0.040 A 
ATOM     87  F   UNL A   1      48.678  28.260  27.253  1.00  0.00    -0.206 F 
ATOM     88  C   UNL A   1      51.067  26.387  29.224  1.00  0.00     0.006 A 
ENDBRANCH  64  81
ENDBRANCH  38  39
ENDBRANCH  31  33
ENDBRANCH  30  31
ENDBRANCH  29  30
ENDBRANCH  28  29
ENDBRANCH  27  28
ENDBRANCH  26  27
ENDBRANCH   1  26
TORSDOF 23
ENDMDL
MODEL 3
REMARK VINA RESULT:      -9.5      3.903      7.689
REMARK SMILES Cc1cc(C)c(C#N)c(NC[C@H](CC(C)C)C(=O)OCCOCCOCCOC(=O)c2ccc(-c3c4nc(c(-c5c(F)cccc5F)c5ccc([nH]5)c(-c5c(F)cccc5F)c5nc(c(-c6c(F)cccc6F)c6ccc3[nH]6)C=C5)C=C4)cc2)n1
REMARK SMILES IDX 23 1 22 2 21 3 20 4 19 5 17 6 18 7 12 8 11 9 10 10 9 12 1 13
REMARK SMILES IDX 2 14 3 15 85 16 4 17 5 18 6 19 7 20 8 21 13 22 14 23 15 24
REMARK SMILES IDX 16 25 24 26 25 27 26 28 27 29 28 30 29 31 30 32 31 33 32 34
REMARK SMILES IDX 84 35 33 36 83 37 34 38 35 39 36 40 77 41 37 42 82 43 76 44
REMARK SMILES IDX 78 45 38 46 81 47 75 48 74 49 39 51 65 52 48 53 64 54 49 55
REMARK SMILES IDX 52 56 63 57 79 58 50 59 51 60 62 62 80 63 53 64 40 65 41 66
REMARK SMILES IDX 46 67 42 68 43 69 45 70 47 71 44 72 66 73 67 74 72 75 68 76
REMARK SMILES IDX 69 77 71 78 73 79 70 80 54 81 55 82 60 83 56 84 57 85 59 86
REMARK SMILES IDX 61 87 58 88
REMARK H PARENT 10 11 78 50 52 61
REMARK Flexibility Score: inf
ROOT
ATOM      1  C   UNL A   1      33.090  30.661  27.092  1.00  0.00     0.188 C 
ENDROOT
BRANCH   1   2
ATOM      2  O   UNL A   1      33.589  29.797  26.078  1.00  0.00    -0.376 OA
BRANCH   2   3
ATOM      3  C   UNL A   1      33.940  28.473  26.483  1.00  0.00     0.202 C 
BRANCH   3   4
ATOM      4  C   UNL A   1      33.618  27.338  25.494  1.00  0.00     0.261 C 
BRANCH   4   5
ATOM      5  O   UNL A   1      33.568  27.756  24.109  1.00  0.00    -0.463 OA
BRANCH   5   6
ATOM      6  C   UNL A   1      33.047  26.871  23.223  1.00  0.00     0.310 C 
ATOM      7  O   UNL A   1      33.695  26.370  22.306  1.00  0.00    -0.252 OA
BRANCH   6   8
ATOM      8  C   UNL A   1      31.633  26.395  23.564  1.00  0.00     0.118 C 
BRANCH   8   9
ATOM      9  C   UNL A   1      31.510  24.877  23.371  1.00  0.00     0.129 C 
BRANCH   9  10
ATOM     10  N   UNL A   1      32.692  24.157  23.761  1.00  0.00    -0.368 N 
ATOM     11  H   UNL A   1      33.537  24.590  23.501  1.00  0.00     0.162 HD
BRANCH  10  12
ATOM     12  C   UNL A   1      32.847  22.978  24.427  1.00  0.00     0.144 A 
ATOM     13  C   UNL A   1      33.912  22.553  27.928  1.00  0.00     0.067 C 
ATOM     14  C   UNL A   1      33.522  22.191  26.528  1.00  0.00     0.040 A 
ATOM     15  C   UNL A   1      33.460  20.872  26.115  1.00  0.00     0.028 A 
ATOM     16  N   UNL A   1      33.237  23.222  25.702  1.00  0.00    -0.235 NA
ATOM     17  C   UNL A   1      33.052  20.598  24.808  1.00  0.00    -0.028 A 
ATOM     18  C   UNL A   1      33.028  19.172  24.322  1.00  0.00     0.046 C 
ATOM     19  C   UNL A   1      32.697  21.669  23.959  1.00  0.00     0.097 A 
BRANCH  19  20
ATOM     20  C   UNL A   1      32.213  21.349  22.645  1.00  0.00     0.103 C 
ATOM     21  N   UNL A   1      31.761  21.078  21.614  1.00  0.00    -0.192 NA
ENDBRANCH  19  20
ENDBRANCH  10  12
ENDBRANCH   9  10
ENDBRANCH   8   9
BRANCH   8  22
ATOM     22  C   UNL A   1      30.352  27.144  23.133  1.00  0.00     0.020 C 
BRANCH  22  23
ATOM     23  C   UNL A   1      30.318  28.666  22.958  1.00  0.00    -0.017 C 
ATOM     24  C   UNL A   1      28.983  29.191  22.452  1.00  0.00     0.007 C 
ATOM     25  C   UNL A   1      30.675  29.325  24.299  1.00  0.00     0.007 C 
ENDBRANCH  22  23
ENDBRANCH   8  22
ENDBRANCH   6   8
ENDBRANCH   5   6
ENDBRANCH   4   5
ENDBRANCH   3   4
ENDBRANCH   2   3
ENDBRANCH   1   2
BRANCH   1  26
ATOM     26  C   UNL A   1      34.125  31.593  27.717  1.00  0.00     0.188 C 
BRANCH  26  27
ATOM     27  O   UNL A   1      33.721  32.928  27.903  1.00  0.00    -0.376 OA
BRANCH  27  28
ATOM     28  C   UNL A   1      34.369  33.748  28.870  1.00  0.00     0.202 C 
BRANCH  28  29
ATOM     29  C   UNL A   1      34.156  33.645  30.402  1.00  0.00     0.261 C 
BRANCH  29  30
ATOM     30  O   UNL A   1      34.507  32.436  31.093  1.00  0.00    -0.460 OA
BRANCH  30  31
ATOM     31  C   UNL A   1      35.479  32.481  32.034  1.00  0.00     0.338 C 
ATOM     32  O   UNL A   1      35.348  32.826  33.194  1.00  0.00    -0.246 OA
BRANCH  31  33
ATOM     33  C   UNL A   1      36.663  31.749  31.483  1.00  0.00     0.060 A 
ATOM     34  C   UNL A   1      37.431  30.960  32.356  1.00  0.00     0.016 A 
ATOM     35  C   UNL A   1      36.948  31.735  30.114  1.00  0.00     0.016 A 
ATOM     36  C   UNL A   1      38.485  30.175  31.873  1.00  0.00     0.010 A 
ATOM     37  C   UNL A   1      38.021  30.975  29.636  1.00  0.00     0.010 A 
ATOM     38  C   UNL A   1      38.814  30.211  30.514  1.00  0.00    -0.014 A 
BRANCH  38  39
ATOM     39  C   UNL A   1      40.098  29.653  30.015  1.00  0.00     0.031 A 
ATOM     40  C   UNL A   1      41.256  30.599  29.860  1.00  0.00     0.074 A 
ATOM     41  C   UNL A   1      40.237  28.367  29.647  1.00  0.00     0.049 A 
ATOM     42  N   UNL A   1      42.405  30.427  29.260  1.00  0.00    -0.248 NA
ATOM     43  C   UNL A   1      41.074  31.934  30.451  1.00  0.00     0.031 C 
ATOM     44  C   UNL A   1      39.221  27.329  29.791  1.00  0.00     0.029 A 
ATOM     45  N   UNL A   1      41.291  27.730  29.035  1.00  0.00    -0.354 N 
ATOM     46  C   UNL A   1      43.069  31.643  29.371  1.00  0.00     0.074 A 
ATOM     47  C   UNL A   1      42.183  32.547  30.071  1.00  0.00     0.031 C 
ATOM     48  C   UNL A   1      39.685  26.192  29.241  1.00  0.00     0.029 A 
ATOM     49  C   UNL A   1      41.007  26.438  28.663  1.00  0.00     0.049 A 
ATOM     50  H   UNL A   1      42.165  28.158  28.879  1.00  0.00     0.167 HD
ATOM     51  C   UNL A   1      44.305  31.977  28.928  1.00  0.00     0.037 A 
ATOM     52  C   UNL A   1      41.707  25.574  27.900  1.00  0.00     0.037 A 
ATOM     53  C   UNL A   1      45.175  31.077  28.218  1.00  0.00     0.049 A 
ATOM     54  C   UNL A   1      43.045  25.983  27.338  1.00  0.00     0.074 A 
ATOM     55  C   UNL A   1      46.455  31.311  27.745  1.00  0.00     0.029 A 
ATOM     56  N   UNL A   1      44.847  29.777  27.859  1.00  0.00    -0.354 N 
ATOM     57  N   UNL A   1      43.678  27.125  27.456  1.00  0.00    -0.248 NA
ATOM     58  C   UNL A   1      43.768  24.982  26.537  1.00  0.00     0.031 C 
ATOM     59  C   UNL A   1      46.868  30.181  27.033  1.00  0.00     0.029 A 
ATOM     60  C   UNL A   1      45.885  29.210  27.138  1.00  0.00     0.049 A 
ATOM     61  H   UNL A   1      44.003  29.325  28.085  1.00  0.00     0.167 HD
ATOM     62  C   UNL A   1      44.884  26.971  26.778  1.00  0.00     0.074 A 
ATOM     63  C   UNL A   1      44.894  25.623  26.249  1.00  0.00     0.031 C 
ATOM     64  C   UNL A   1      45.892  27.863  26.618  1.00  0.00     0.037 A 
BRANCH  51  65
ATOM     65  C   UNL A   1      44.750  33.397  29.146  1.00  0.00     0.057 A 
ATOM     66  C   UNL A   1      45.457  33.795  30.289  1.00  0.00     0.134 A 
ATOM     67  C   UNL A   1      44.446  34.387  28.202  1.00  0.00     0.134 A 
ATOM     68  F   UNL A   1      45.773  32.902  31.241  1.00  0.00    -0.206 F 
ATOM     69  C   UNL A   1      45.797  35.131  30.511  1.00  0.00     0.040 A 
ATOM     70  C   UNL A   1      44.816  35.719  28.394  1.00  0.00     0.040 A 
ATOM     71  F   UNL A   1      43.780  34.079  27.080  1.00  0.00    -0.206 F 
ATOM     72  C   UNL A   1      45.478  36.098  29.559  1.00  0.00     0.006 A 
ENDBRANCH  51  65
BRANCH  52  73
ATOM     73  C   UNL A   1      41.129  24.238  27.591  1.00  0.00     0.057 A 
ATOM     74  C   UNL A   1      41.571  23.082  28.241  1.00  0.00     0.134 A 
ATOM     75  C   UNL A   1      40.106  24.093  26.643  1.00  0.00     0.134 A 
ATOM     76  F   UNL A   1      42.569  23.150  29.134  1.00  0.00    -0.206 F 
ATOM     77  C   UNL A   1      41.020  21.830  27.963  1.00  0.00     0.040 A 
ATOM     78  C   UNL A   1      39.526  22.852  26.377  1.00  0.00     0.040 A 
ATOM     79  F   UNL A   1      39.641  25.161  25.979  1.00  0.00    -0.206 F 
ATOM     80  C   UNL A   1      39.985  21.714  27.036  1.00  0.00     0.006 A 
ENDBRANCH  52  73
BRANCH  64  81
ATOM     81  C   UNL A   1      47.130  27.409  25.893  1.00  0.00     0.057 A 
ATOM     82  C   UNL A   1      48.200  26.790  26.548  1.00  0.00     0.134 A 
ATOM     83  C   UNL A   1      47.213  27.528  24.498  1.00  0.00     0.134 A 
ATOM     84  F   UNL A   1      48.194  26.650  27.883  1.00  0.00    -0.206 F 
ATOM     85  C   UNL A   1      49.314  26.318  25.846  1.00  0.00     0.040 A 
ATOM     86  C   UNL A   1      48.303  27.031  23.782  1.00  0.00     0.040 A 
ATOM     87  F   UNL A   1      46.218  28.101  23.803  1.00  0.00    -0.206 F 
ATOM     88  C   UNL A   1      49.361  26.429  24.457  1.00  0.00     0.006 A 
ENDBRANCH  64  81
ENDBRANCH  38  39
ENDBRANCH  31  33
ENDBRANCH  30  31
ENDBRANCH  29  30
ENDBRANCH  28  29
ENDBRANCH  27  28
ENDBRANCH  26  27
ENDBRANCH   1  26
TORSDOF 23
ENDMDL
