MODEL 1
REMARK VINA RESULT:     -10.8      0.000      0.000
REMARK SMILES Cn1c(=O)c(=O)n(C)c2cc(S(=O)(=O)N3CCC[C@H]3C(=O)OCCOCCOCCOC(=O)c3ccc(-c4c5nc(c(-c6c(F)cccc6F)c6ccc([nH]6)c(-c6c(F)cccc6F)c6nc(c(-c7c(F)cccc7F)c7ccc4[nH]7)C=C6)C=C5)cc3)ccc21
REMARK SMILES IDX 26 1 25 2 24 3 23 4 22 5 20 6 21 7 19 8 15 9 16 10 17 11
REMARK SMILES IDX 18 12 12 13 13 14 14 15 11 16 1 17 2 18 3 19 90 20 4 21 5 22
REMARK SMILES IDX 9 23 89 24 6 25 7 26 10 27 88 28 8 29 27 30 28 31 29 32
REMARK SMILES IDX 30 33 31 34 32 35 33 36 34 37 35 38 87 39 36 40 86 41 37 42
REMARK SMILES IDX 38 43 39 44 80 45 40 46 85 47 79 48 81 49 41 50 84 51 78 52
REMARK SMILES IDX 77 53 42 55 68 56 51 57 67 58 52 59 55 60 66 61 82 62 53 63
REMARK SMILES IDX 54 64 65 66 83 67 56 68 43 69 44 70 49 71 45 72 46 73 48 74
REMARK SMILES IDX 50 75 47 76 69 77 70 78 75 79 71 80 72 81 74 82 76 83 73 84
REMARK SMILES IDX 57 85 58 86 63 87 59 88 60 89 62 90 64 91 61 92
REMARK H PARENT 81 54 55 65
REMARK Flexibility Score: inf
ROOT
ATOM      1  C   UNL A   1      34.271  30.990  28.135  1.00  0.00     0.188 C 
ENDROOT
BRANCH   1   2
ATOM      2  O   UNL A   1      33.743  30.093  27.170  1.00  0.00    -0.376 OA
BRANCH   2   3
ATOM      3  C   UNL A   1      32.377  29.693  27.249  1.00  0.00     0.202 C 
BRANCH   3   4
ATOM      4  C   UNL A   1      31.782  28.746  26.192  1.00  0.00     0.261 C 
BRANCH   4   5
ATOM      5  O   UNL A   1      31.519  29.408  24.948  1.00  0.00    -0.462 OA
BRANCH   5   6
ATOM      6  C   UNL A   1      32.302  29.057  23.889  1.00  0.00     0.324 C 
ATOM      7  O   UNL A   1      33.507  29.260  23.804  1.00  0.00    -0.250 OA
BRANCH   6   8
ATOM      8  C   UNL A   1      31.506  28.202  22.914  1.00  0.00     0.183 C 
ATOM      9  N   UNL A   1      31.700  26.758  23.039  1.00  0.00    -0.184 NA
ATOM     10  C   UNL A   1      30.594  26.175  23.795  1.00  0.00     0.103 C 
ATOM     11  C   UNL A   1      29.410  27.088  23.513  1.00  0.00     0.019 C 
ATOM     12  C   UNL A   1      30.002  28.439  23.126  1.00  0.00     0.034 C 
BRANCH   9  13
ATOM     13  S   UNL A   1      32.599  25.916  21.902  1.00  0.00     0.243 S 
ATOM     14  O   UNL A   1      33.913  26.525  21.855  1.00  0.00    -0.207 OA
ATOM     15  O   UNL A   1      31.783  25.781  20.719  1.00  0.00    -0.207 OA
BRANCH  13  16
ATOM     16  C   UNL A   1      32.864  24.242  22.491  1.00  0.00     0.084 A 
ATOM     17  C   UNL A   1      32.513  19.394  24.276  1.00  0.00     0.154 C 
ATOM     18  N   UNL A   1      33.542  20.419  24.221  1.00  0.00    -0.305 N 
ATOM     19  C   UNL A   1      34.749  20.090  24.839  1.00  0.00     0.316 A 
ATOM     20  C   UNL A   1      33.348  21.678  23.590  1.00  0.00     0.068 A 
ATOM     21  O   UNL A   1      34.951  19.003  25.377  1.00  0.00    -0.263 OA
ATOM     22  C   UNL A   1      35.867  21.135  24.839  1.00  0.00     0.316 A 
ATOM     23  C   UNL A   1      34.350  22.667  23.645  1.00  0.00     0.069 A 
ATOM     24  C   UNL A   1      32.157  21.973  22.912  1.00  0.00     0.030 A 
ATOM     25  O   UNL A   1      36.940  20.840  25.360  1.00  0.00    -0.263 OA
ATOM     26  N   UNL A   1      35.603  22.373  24.255  1.00  0.00    -0.305 N 
ATOM     27  C   UNL A   1      34.092  23.945  23.096  1.00  0.00     0.050 A 
ATOM     28  C   UNL A   1      31.918  23.239  22.373  1.00  0.00     0.024 A 
ATOM     29  C   UNL A   1      36.675  23.357  24.254  1.00  0.00     0.154 C 
ENDBRANCH  13  16
ENDBRANCH   9  13
ENDBRANCH   6   8
ENDBRANCH   5   6
ENDBRANCH   4   5
ENDBRANCH   3   4
ENDBRANCH   2   3
ENDBRANCH   1   2
BRANCH   1  30
ATOM     30  C   UNL A   1      35.152  32.183  27.703  1.00  0.00     0.188 C 
BRANCH  30  31
ATOM     31  O   UNL A   1      34.737  33.449  28.133  1.00  0.00    -0.376 OA
BRANCH  31  32
ATOM     32  C   UNL A   1      34.014  33.577  29.344  1.00  0.00     0.202 C 
BRANCH  32  33
ATOM     33  C   UNL A   1      34.594  34.047  30.700  1.00  0.00     0.261 C 
BRANCH  33  34
ATOM     34  O   UNL A   1      35.963  33.755  31.006  1.00  0.00    -0.460 OA
BRANCH  34  35
ATOM     35  C   UNL A   1      36.182  32.642  31.757  1.00  0.00     0.338 C 
ATOM     36  O   UNL A   1      35.468  32.189  32.633  1.00  0.00    -0.246 OA
BRANCH  35  37
ATOM     37  C   UNL A   1      37.327  31.908  31.177  1.00  0.00     0.060 A 
ATOM     38  C   UNL A   1      37.538  31.914  29.801  1.00  0.00     0.016 A 
ATOM     39  C   UNL A   1      38.191  31.200  32.028  1.00  0.00     0.016 A 
ATOM     40  C   UNL A   1      38.630  31.219  29.273  1.00  0.00     0.010 A 
ATOM     41  C   UNL A   1      39.271  30.488  31.495  1.00  0.00     0.010 A 
ATOM     42  C   UNL A   1      39.510  30.511  30.114  1.00  0.00    -0.014 A 
BRANCH  42  43
ATOM     43  C   UNL A   1      40.763  29.952  29.548  1.00  0.00     0.031 A 
ATOM     44  C   UNL A   1      40.870  28.531  29.081  1.00  0.00     0.074 A 
ATOM     45  C   UNL A   1      41.823  30.775  29.437  1.00  0.00     0.049 A 
ATOM     46  N   UNL A   1      41.855  27.949  28.443  1.00  0.00    -0.248 NA
ATOM     47  C   UNL A   1      39.735  27.648  29.376  1.00  0.00     0.031 C 
ATOM     48  C   UNL A   1      41.853  32.166  29.891  1.00  0.00     0.029 A 
ATOM     49  N   UNL A   1      43.066  30.572  28.895  1.00  0.00    -0.354 N 
ATOM     50  C   UNL A   1      41.451  26.638  28.231  1.00  0.00     0.074 A 
ATOM     51  C   UNL A   1      40.153  26.497  28.862  1.00  0.00     0.031 C 
ATOM     52  C   UNL A   1      43.039  32.706  29.570  1.00  0.00     0.029 A 
ATOM     53  C   UNL A   1      43.859  31.693  28.914  1.00  0.00     0.049 A 
ATOM     54  H   UNL A   1      43.360  29.707  28.528  1.00  0.00     0.167 HD
ATOM     55  C   UNL A   1      42.096  25.653  27.555  1.00  0.00     0.037 A 
ATOM     56  C   UNL A   1      45.105  31.887  28.443  1.00  0.00     0.037 A 
ATOM     57  C   UNL A   1      43.400  25.793  26.951  1.00  0.00     0.049 A 
ATOM     58  C   UNL A   1      45.815  30.760  27.749  1.00  0.00     0.074 A 
ATOM     59  C   UNL A   1      44.113  24.864  26.210  1.00  0.00     0.029 A 
ATOM     60  N   UNL A   1      44.199  26.925  27.035  1.00  0.00    -0.354 N 
ATOM     61  N   UNL A   1      45.383  29.555  27.469  1.00  0.00    -0.248 NA
ATOM     62  C   UNL A   1      47.189  31.026  27.299  1.00  0.00     0.031 C 
ATOM     63  C   UNL A   1      45.365  25.410  25.902  1.00  0.00     0.029 A 
ATOM     64  C   UNL A   1      45.410  26.703  26.395  1.00  0.00     0.049 A 
ATOM     65  H   UNL A   1      43.943  27.763  27.484  1.00  0.00     0.167 HD
ATOM     66  C   UNL A   1      46.419  28.930  26.785  1.00  0.00     0.074 A 
ATOM     67  C   UNL A   1      47.489  29.899  26.673  1.00  0.00     0.031 C 
ATOM     68  C   UNL A   1      46.478  27.667  26.294  1.00  0.00     0.037 A 
BRANCH  55  69
ATOM     69  C   UNL A   1      41.401  24.325  27.434  1.00  0.00     0.057 A 
ATOM     70  C   UNL A   1      40.317  24.154  26.563  1.00  0.00     0.134 A 
ATOM     71  C   UNL A   1      41.774  23.225  28.220  1.00  0.00     0.134 A 
ATOM     72  F   UNL A   1      39.896  25.168  25.792  1.00  0.00    -0.206 F 
ATOM     73  C   UNL A   1      39.632  22.941  26.477  1.00  0.00     0.040 A 
ATOM     74  C   UNL A   1      41.114  21.997  28.121  1.00  0.00     0.040 A 
ATOM     75  F   UNL A   1      42.804  23.317  29.075  1.00  0.00    -0.206 F 
ATOM     76  C   UNL A   1      40.036  21.855  27.250  1.00  0.00     0.006 A 
ENDBRANCH  55  69
BRANCH  56  77
ATOM     77  C   UNL A   1      45.759  33.211  28.592  1.00  0.00     0.057 A 
ATOM     78  C   UNL A   1      46.579  33.499  29.689  1.00  0.00     0.134 A 
ATOM     79  C   UNL A   1      45.612  34.205  27.616  1.00  0.00     0.134 A 
ATOM     80  F   UNL A   1      46.753  32.591  30.661  1.00  0.00    -0.206 F 
ATOM     81  C   UNL A   1      47.230  34.726  29.811  1.00  0.00     0.040 A 
ATOM     82  C   UNL A   1      46.282  35.425  27.710  1.00  0.00     0.040 A 
ATOM     83  F   UNL A   1      44.853  33.981  26.534  1.00  0.00    -0.206 F 
ATOM     84  C   UNL A   1      47.094  35.688  28.813  1.00  0.00     0.006 A 
ENDBRANCH  56  77
BRANCH  68  85
ATOM     85  C   UNL A   1      47.736  27.276  25.569  1.00  0.00     0.057 A 
ATOM     86  C   UNL A   1      47.846  27.453  24.183  1.00  0.00     0.134 A 
ATOM     87  C   UNL A   1      48.838  26.726  26.237  1.00  0.00     0.134 A 
ATOM     88  F   UNL A   1      46.828  27.967  23.478  1.00  0.00    -0.206 F 
ATOM     89  C   UNL A   1      49.008  27.104  23.491  1.00  0.00     0.040 A 
ATOM     90  C   UNL A   1      50.017  26.403  25.560  1.00  0.00     0.040 A 
ATOM     91  F   UNL A   1      48.807  26.544  27.566  1.00  0.00    -0.206 F 
ATOM     92  C   UNL A   1      50.102  26.589  24.183  1.00  0.00     0.006 A 
ENDBRANCH  68  85
ENDBRANCH  42  43
ENDBRANCH  35  37
ENDBRANCH  34  35
ENDBRANCH  33  34
ENDBRANCH  32  33
ENDBRANCH  31  32
ENDBRANCH  30  31
ENDBRANCH   1  30
TORSDOF 19
ENDMDL
MODEL 2
REMARK VINA RESULT:     -10.7      5.086      8.245
REMARK SMILES Cn1c(=O)c(=O)n(C)c2cc(S(=O)(=O)N3CCC[C@H]3C(=O)OCCOCCOCCOC(=O)c3ccc(-c4c5nc(c(-c6c(F)cccc6F)c6ccc([nH]6)c(-c6c(F)cccc6F)c6nc(c(-c7c(F)cccc7F)c7ccc4[nH]7)C=C6)C=C5)cc3)ccc21
REMARK SMILES IDX 26 1 25 2 24 3 23 4 22 5 20 6 21 7 19 8 15 9 16 10 17 11
REMARK SMILES IDX 18 12 12 13 13 14 14 15 11 16 1 17 2 18 3 19 90 20 4 21 5 22
REMARK SMILES IDX 9 23 89 24 6 25 7 26 10 27 88 28 8 29 27 30 28 31 29 32
REMARK SMILES IDX 30 33 31 34 32 35 33 36 34 37 35 38 87 39 36 40 86 41 37 42
REMARK SMILES IDX 38 43 39 44 80 45 40 46 85 47 79 48 81 49 41 50 84 51 78 52
REMARK SMILES IDX 77 53 42 55 68 56 51 57 67 58 52 59 55 60 66 61 82 62 53 63
REMARK SMILES IDX 54 64 65 66 83 67 56 68 43 69 44 70 49 71 45 72 46 73 48 74
REMARK SMILES IDX 50 75 47 76 69 77 70 78 75 79 71 80 72 81 74 82 76 83 73 84
REMARK SMILES IDX 57 85 58 86 63 87 59 88 60 89 62 90 64 91 61 92
REMARK H PARENT 81 54 55 65
REMARK Flexibility Score: inf
ROOT
ATOM      1  C   UNL A   1      37.734  32.356  29.281  1.00  0.00     0.188 C 
ENDROOT
BRANCH   1   2
ATOM      2  O   UNL A   1      38.307  31.142  29.740  1.00  0.00    -0.376 OA
BRANCH   2   3
ATOM      3  C   UNL A   1      38.453  30.044  28.841  1.00  0.00     0.202 C 
BRANCH   3   4
ATOM      4  C   UNL A   1      39.633  29.068  28.991  1.00  0.00     0.261 C 
BRANCH   4   5
ATOM      5  O   UNL A   1      39.538  27.952  28.097  1.00  0.00    -0.462 OA
BRANCH   5   6
ATOM      6  C   UNL A   1      40.406  27.933  27.047  1.00  0.00     0.324 C 
ATOM      7  O   UNL A   1      40.836  28.923  26.467  1.00  0.00    -0.250 OA
BRANCH   6   8
ATOM      8  C   UNL A   1      40.919  26.518  26.822  1.00  0.00     0.183 C 
ATOM      9  N   UNL A   1      42.338  26.309  27.110  1.00  0.00    -0.184 NA
ATOM     10  C   UNL A   1      42.488  25.700  28.429  1.00  0.00     0.103 C 
ATOM     11  C   UNL A   1      41.213  24.896  28.632  1.00  0.00     0.019 C 
ATOM     12  C   UNL A   1      40.161  25.540  27.735  1.00  0.00     0.034 C 
BRANCH   9  13
ATOM     13  S   UNL A   1      43.443  26.122  25.865  1.00  0.00     0.243 S 
ATOM     14  O   UNL A   1      44.633  26.865  26.229  1.00  0.00    -0.207 OA
ATOM     15  O   UNL A   1      42.745  26.369  24.625  1.00  0.00    -0.207 OA
BRANCH  13  16
ATOM     16  C   UNL A   1      43.952  24.403  25.788  1.00  0.00     0.084 A 
ATOM     17  C   UNL A   1      46.288  19.851  24.992  1.00  0.00     0.154 C 
ATOM     18  N   UNL A   1      44.941  20.297  25.309  1.00  0.00    -0.305 N 
ATOM     19  C   UNL A   1      43.977  19.291  25.375  1.00  0.00     0.316 A 
ATOM     20  C   UNL A   1      44.610  21.661  25.533  1.00  0.00     0.068 A 
ATOM     21  O   UNL A   1      44.238  18.101  25.203  1.00  0.00    -0.263 OA
ATOM     22  C   UNL A   1      42.533  19.695  25.680  1.00  0.00     0.316 A 
ATOM     23  C   UNL A   1      43.272  22.046  25.749  1.00  0.00     0.069 A 
ATOM     24  C   UNL A   1      45.597  22.656  25.533  1.00  0.00     0.030 A 
ATOM     25  O   UNL A   1      41.686  18.809  25.764  1.00  0.00    -0.263 OA
ATOM     26  N   UNL A   1      42.255  21.053  25.836  1.00  0.00    -0.305 N 
ATOM     27  C   UNL A   1      42.957  23.420  25.869  1.00  0.00     0.050 A 
ATOM     28  C   UNL A   1      45.271  24.009  25.655  1.00  0.00     0.024 A 
ATOM     29  C   UNL A   1      40.880  21.425  26.132  1.00  0.00     0.154 C 
ENDBRANCH  13  16
ENDBRANCH   9  13
ENDBRANCH   6   8
ENDBRANCH   5   6
ENDBRANCH   4   5
ENDBRANCH   3   4
ENDBRANCH   2   3
ENDBRANCH   1   2
BRANCH   1  30
ATOM     30  C   UNL A   1      36.656  33.083  30.114  1.00  0.00     0.188 C 
BRANCH  30  31
ATOM     31  O   UNL A   1      37.077  33.634  31.330  1.00  0.00    -0.376 OA
BRANCH  31  32
ATOM     32  C   UNL A   1      36.153  34.342  32.138  1.00  0.00     0.202 C 
BRANCH  32  33
ATOM     33  C   UNL A   1      35.767  33.989  33.594  1.00  0.00     0.261 C 
BRANCH  33  34
ATOM     34  O   UNL A   1      36.090  32.688  34.101  1.00  0.00    -0.460 OA
BRANCH  34  35
ATOM     35  C   UNL A   1      37.092  32.637  35.019  1.00  0.00     0.338 C 
ATOM     36  O   UNL A   1      37.028  32.927  36.201  1.00  0.00    -0.246 OA
BRANCH  35  37
ATOM     37  C   UNL A   1      38.242  31.932  34.414  1.00  0.00     0.060 A 
ATOM     38  C   UNL A   1      38.032  30.937  33.463  1.00  0.00     0.016 A 
ATOM     39  C   UNL A   1      39.544  32.272  34.815  1.00  0.00     0.016 A 
ATOM     40  C   UNL A   1      39.133  30.287  32.898  1.00  0.00     0.010 A 
ATOM     41  C   UNL A   1      40.643  31.605  34.263  1.00  0.00     0.010 A 
ATOM     42  C   UNL A   1      40.445  30.623  33.283  1.00  0.00    -0.014 A 
BRANCH  42  43
ATOM     43  C   UNL A   1      41.591  30.058  32.527  1.00  0.00     0.031 A 
ATOM     44  C   UNL A   1      42.186  30.748  31.336  1.00  0.00     0.074 A 
ATOM     45  C   UNL A   1      42.114  28.895  32.958  1.00  0.00     0.049 A 
ATOM     46  N   UNL A   1      43.270  30.441  30.667  1.00  0.00    -0.248 NA
ATOM     47  C   UNL A   1      41.472  31.924  30.825  1.00  0.00     0.031 C 
ATOM     48  C   UNL A   1      41.599  28.111  34.082  1.00  0.00     0.029 A 
ATOM     49  N   UNL A   1      43.200  28.181  32.521  1.00  0.00    -0.354 N 
ATOM     50  C   UNL A   1      43.388  31.400  29.670  1.00  0.00     0.074 A 
ATOM     51  C   UNL A   1      42.232  32.267  29.790  1.00  0.00     0.031 C 
ATOM     52  C   UNL A   1      42.392  27.046  34.273  1.00  0.00     0.029 A 
ATOM     53  C   UNL A   1      43.455  27.060  33.272  1.00  0.00     0.049 A 
ATOM     54  H   UNL A   1      43.744  28.447  31.745  1.00  0.00     0.167 HD
ATOM     55  C   UNL A   1      44.381  31.553  28.758  1.00  0.00     0.037 A 
ATOM     56  C   UNL A   1      44.441  26.150  33.174  1.00  0.00     0.037 A 
ATOM     57  C   UNL A   1      45.517  30.671  28.628  1.00  0.00     0.049 A 
ATOM     58  C   UNL A   1      45.494  26.316  32.115  1.00  0.00     0.074 A 
ATOM     59  C   UNL A   1      46.593  30.772  27.761  1.00  0.00     0.029 A 
ATOM     60  N   UNL A   1      45.715  29.515  29.368  1.00  0.00    -0.354 N 
ATOM     61  N   UNL A   1      45.649  27.281  31.243  1.00  0.00    -0.248 NA
ATOM     62  C   UNL A   1      46.516  25.263  32.035  1.00  0.00     0.031 C 
ATOM     63  C   UNL A   1      47.407  29.645  27.933  1.00  0.00     0.029 A 
ATOM     64  C   UNL A   1      46.873  28.874  28.952  1.00  0.00     0.049 A 
ATOM     65  H   UNL A   1      45.121  29.196  30.085  1.00  0.00     0.167 HD
ATOM     66  C   UNL A   1      46.800  26.968  30.530  1.00  0.00     0.074 A 
ATOM     67  C   UNL A   1      47.315  25.736  31.091  1.00  0.00     0.031 C 
ATOM     68  C   UNL A   1      47.378  27.641  29.505  1.00  0.00     0.037 A 
BRANCH  55  69
ATOM     69  C   UNL A   1      44.282  32.720  27.814  1.00  0.00     0.057 A 
ATOM     70  C   UNL A   1      43.840  32.546  26.496  1.00  0.00     0.134 A 
ATOM     71  C   UNL A   1      44.674  34.011  28.196  1.00  0.00     0.134 A 
ATOM     72  F   UNL A   1      43.463  31.336  26.058  1.00  0.00    -0.206 F 
ATOM     73  C   UNL A   1      43.790  33.611  25.595  1.00  0.00     0.040 A 
ATOM     74  C   UNL A   1      44.601  35.090  27.311  1.00  0.00     0.040 A 
ATOM     75  F   UNL A   1      45.107  34.250  29.443  1.00  0.00    -0.206 F 
ATOM     76  C   UNL A   1      44.162  34.890  26.004  1.00  0.00     0.006 A 
ENDBRANCH  55  69
BRANCH  56  77
ATOM     77  C   UNL A   1      44.496  25.006  34.118  1.00  0.00     0.057 A 
ATOM     78  C   UNL A   1      44.056  23.731  33.744  1.00  0.00     0.134 A 
ATOM     79  C   UNL A   1      45.030  25.153  35.404  1.00  0.00     0.134 A 
ATOM     80  F   UNL A   1      43.527  23.527  32.528  1.00  0.00    -0.206 F 
ATOM     81  C   UNL A   1      44.145  22.644  34.612  1.00  0.00     0.040 A 
ATOM     82  C   UNL A   1      45.154  24.068  36.272  1.00  0.00     0.040 A 
ATOM     83  F   UNL A   1      45.482  26.347  35.814  1.00  0.00    -0.206 F 
ATOM     84  C   UNL A   1      44.709  22.807  35.876  1.00  0.00     0.006 A 
ENDBRANCH  56  77
BRANCH  68  85
ATOM     85  C   UNL A   1      48.649  27.066  28.943  1.00  0.00     0.057 A 
ATOM     86  C   UNL A   1      49.887  27.356  29.534  1.00  0.00     0.134 A 
ATOM     87  C   UNL A   1      48.653  26.226  27.822  1.00  0.00     0.134 A 
ATOM     88  F   UNL A   1      49.960  28.159  30.606  1.00  0.00    -0.206 F 
ATOM     89  C   UNL A   1      51.078  26.827  29.033  1.00  0.00     0.040 A 
ATOM     90  C   UNL A   1      49.835  25.664  27.332  1.00  0.00     0.040 A 
ATOM     91  F   UNL A   1      47.502  25.894  27.217  1.00  0.00    -0.206 F 
ATOM     92  C   UNL A   1      51.052  25.968  27.936  1.00  0.00     0.006 A 
ENDBRANCH  68  85
ENDBRANCH  42  43
ENDBRANCH  35  37
ENDBRANCH  34  35
ENDBRANCH  33  34
ENDBRANCH  32  33
ENDBRANCH  31  32
ENDBRANCH  30  31
ENDBRANCH   1  30
TORSDOF 19
ENDMDL
MODEL 3
REMARK VINA RESULT:     -10.6      4.734      7.169
REMARK SMILES Cn1c(=O)c(=O)n(C)c2cc(S(=O)(=O)N3CCC[C@H]3C(=O)OCCOCCOCCOC(=O)c3ccc(-c4c5nc(c(-c6c(F)cccc6F)c6ccc([nH]6)c(-c6c(F)cccc6F)c6nc(c(-c7c(F)cccc7F)c7ccc4[nH]7)C=C6)C=C5)cc3)ccc21
REMARK SMILES IDX 26 1 25 2 24 3 23 4 22 5 20 6 21 7 19 8 15 9 16 10 17 11
REMARK SMILES IDX 18 12 12 13 13 14 14 15 11 16 1 17 2 18 3 19 90 20 4 21 5 22
REMARK SMILES IDX 9 23 89 24 6 25 7 26 10 27 88 28 8 29 27 30 28 31 29 32
REMARK SMILES IDX 30 33 31 34 32 35 33 36 34 37 35 38 87 39 36 40 86 41 37 42
REMARK SMILES IDX 38 43 39 44 80 45 40 46 85 47 79 48 81 49 41 50 84 51 78 52
REMARK SMILES IDX 77 53 42 55 68 56 51 57 67 58 52 59 55 60 66 61 82 62 53 63
REMARK SMILES IDX 54 64 65 66 83 67 56 68 43 69 44 70 49 71 45 72 46 73 48 74
REMARK SMILES IDX 50 75 47 76 69 77 70 78 75 79 71 80 72 81 74 82 76 83 73 84
REMARK SMILES IDX 57 85 58 86 63 87 59 88 60 89 62 90 64 91 61 92
REMARK H PARENT 81 54 55 65
REMARK Flexibility Score: inf
ROOT
ATOM      1  C   UNL A   1      33.334  32.407  27.656  1.00  0.00     0.188 C 
ENDROOT
BRANCH   1   2
ATOM      2  O   UNL A   1      33.041  31.087  27.225  1.00  0.00    -0.376 OA
BRANCH   2   3
ATOM      3  C   UNL A   1      34.059  30.088  27.264  1.00  0.00     0.202 C 
BRANCH   3   4
ATOM      4  C   UNL A   1      33.733  28.632  26.886  1.00  0.00     0.261 C 
BRANCH   4   5
ATOM      5  O   UNL A   1      32.377  28.279  27.185  1.00  0.00    -0.462 OA
BRANCH   5   6
ATOM      6  C   UNL A   1      31.725  27.516  26.263  1.00  0.00     0.324 C 
ATOM      7  O   UNL A   1      30.984  26.575  26.522  1.00  0.00    -0.250 OA
BRANCH   6   8
ATOM      8  C   UNL A   1      31.891  28.120  24.877  1.00  0.00     0.183 C 
ATOM      9  N   UNL A   1      31.602  27.222  23.759  1.00  0.00    -0.184 NA
ATOM     10  C   UNL A   1      30.258  27.486  23.250  1.00  0.00     0.103 C 
ATOM     11  C   UNL A   1      30.014  28.958  23.547  1.00  0.00     0.019 C 
ATOM     12  C   UNL A   1      30.933  29.311  24.712  1.00  0.00     0.034 C 
BRANCH   9  13
ATOM     13  S   UNL A   1      32.843  26.588  22.830  1.00  0.00     0.243 S 
ATOM     14  O   UNL A   1      34.080  27.179  23.302  1.00  0.00    -0.207 OA
ATOM     15  O   UNL A   1      32.439  26.679  21.447  1.00  0.00    -0.207 OA
BRANCH  13  16
ATOM     16  C   UNL A   1      32.988  24.833  23.168  1.00  0.00     0.084 A 
ATOM     17  C   UNL A   1      32.304  19.833  24.333  1.00  0.00     0.154 C 
ATOM     18  N   UNL A   1      33.423  20.762  24.315  1.00  0.00    -0.305 N 
ATOM     19  C   UNL A   1      34.637  20.247  24.769  1.00  0.00     0.316 A 
ATOM     20  C   UNL A   1      33.303  22.108  23.874  1.00  0.00     0.068 A 
ATOM     21  O   UNL A   1      34.773  19.082  25.139  1.00  0.00    -0.263 OA
ATOM     22  C   UNL A   1      35.849  21.180  24.800  1.00  0.00     0.316 A 
ATOM     23  C   UNL A   1      34.400  22.989  23.963  1.00  0.00     0.069 A 
ATOM     24  C   UNL A   1      32.096  22.598  23.355  1.00  0.00     0.030 A 
ATOM     25  O   UNL A   1      36.926  20.723  25.175  1.00  0.00    -0.263 OA
ATOM     26  N   UNL A   1      35.663  22.506  24.409  1.00  0.00    -0.305 N 
ATOM     27  C   UNL A   1      34.226  24.349  23.612  1.00  0.00     0.050 A 
ATOM     28  C   UNL A   1      31.941  23.942  23.010  1.00  0.00     0.024 A 
ATOM     29  C   UNL A   1      36.824  23.382  24.436  1.00  0.00     0.154 C 
ENDBRANCH  13  16
ENDBRANCH   9  13
ENDBRANCH   6   8
ENDBRANCH   5   6
ENDBRANCH   4   5
ENDBRANCH   3   4
ENDBRANCH   2   3
ENDBRANCH   1   2
BRANCH   1  30
ATOM     30  C   UNL A   1      34.413  32.665  28.729  1.00  0.00     0.188 C 
BRANCH  30  31
ATOM     31  O   UNL A   1      35.002  33.935  28.726  1.00  0.00    -0.376 OA
BRANCH  31  32
ATOM     32  C   UNL A   1      34.182  35.089  28.770  1.00  0.00     0.202 C 
BRANCH  32  33
ATOM     33  C   UNL A   1      32.931  35.279  29.660  1.00  0.00     0.261 C 
BRANCH  33  34
ATOM     34  O   UNL A   1      33.006  36.171  30.779  1.00  0.00    -0.460 OA
BRANCH  34  35
ATOM     35  C   UNL A   1      32.682  35.639  31.989  1.00  0.00     0.338 C 
ATOM     36  O   UNL A   1      31.574  35.550  32.485  1.00  0.00    -0.246 OA
BRANCH  35  37
ATOM     37  C   UNL A   1      33.874  34.948  32.526  1.00  0.00     0.060 A 
ATOM     38  C   UNL A   1      33.748  33.698  33.126  1.00  0.00     0.016 A 
ATOM     39  C   UNL A   1      35.129  35.571  32.432  1.00  0.00     0.016 A 
ATOM     40  C   UNL A   1      34.888  33.059  33.621  1.00  0.00     0.010 A 
ATOM     41  C   UNL A   1      36.265  34.938  32.947  1.00  0.00     0.010 A 
ATOM     42  C   UNL A   1      36.155  33.667  33.526  1.00  0.00    -0.014 A 
BRANCH  42  43
ATOM     43  C   UNL A   1      37.365  32.883  33.881  1.00  0.00     0.031 A 
ATOM     44  C   UNL A   1      37.939  31.837  32.973  1.00  0.00     0.074 A 
ATOM     45  C   UNL A   1      37.966  33.155  35.054  1.00  0.00     0.049 A 
ATOM     46  N   UNL A   1      39.063  31.174  33.092  1.00  0.00    -0.248 NA
ATOM     47  C   UNL A   1      37.148  31.479  31.788  1.00  0.00     0.031 C 
ATOM     48  C   UNL A   1      37.482  34.124  36.038  1.00  0.00     0.029 A 
ATOM     49  N   UNL A   1      39.119  32.661  35.609  1.00  0.00    -0.354 N 
ATOM     50  C   UNL A   1      39.134  30.341  31.984  1.00  0.00     0.074 A 
ATOM     51  C   UNL A   1      37.909  30.541  31.235  1.00  0.00     0.031 C 
ATOM     52  C   UNL A   1      38.352  34.185  37.057  1.00  0.00     0.029 A 
ATOM     53  C   UNL A   1      39.439  33.244  36.810  1.00  0.00     0.049 A 
ATOM     54  H   UNL A   1      39.663  31.958  35.187  1.00  0.00     0.167 HD
ATOM     55  C   UNL A   1      40.139  29.504  31.619  1.00  0.00     0.037 A 
ATOM     56  C   UNL A   1      40.498  33.051  37.618  1.00  0.00     0.037 A 
ATOM     57  C   UNL A   1      41.345  29.291  32.383  1.00  0.00     0.049 A 
ATOM     58  C   UNL A   1      41.566  32.075  37.213  1.00  0.00     0.074 A 
ATOM     59  C   UNL A   1      42.436  28.495  32.070  1.00  0.00     0.029 A 
ATOM     60  N   UNL A   1      41.613  29.855  33.621  1.00  0.00    -0.354 N 
ATOM     61  N   UNL A   1      41.669  31.366  36.116  1.00  0.00    -0.248 NA
ATOM     62  C   UNL A   1      42.672  31.879  38.162  1.00  0.00     0.031 C 
ATOM     63  C   UNL A   1      43.332  28.529  33.146  1.00  0.00     0.029 A 
ATOM     64  C   UNL A   1      42.831  29.396  34.102  1.00  0.00     0.049 A 
ATOM     65  H   UNL A   1      41.025  30.490  34.090  1.00  0.00     0.167 HD
ATOM     66  C   UNL A   1      42.863  30.663  36.229  1.00  0.00     0.074 A 
ATOM     67  C   UNL A   1      43.458  31.052  37.491  1.00  0.00     0.031 C 
ATOM     68  C   UNL A   1      43.416  29.777  35.364  1.00  0.00     0.037 A 
BRANCH  55  69
ATOM     69  C   UNL A   1      39.976  28.745  30.331  1.00  0.00     0.057 A 
ATOM     70  C   UNL A   1      40.480  29.253  29.126  1.00  0.00     0.134 A 
ATOM     71  C   UNL A   1      39.273  27.534  30.273  1.00  0.00     0.134 A 
ATOM     72  F   UNL A   1      41.150  30.415  29.104  1.00  0.00    -0.206 F 
ATOM     73  C   UNL A   1      40.294  28.584  27.915  1.00  0.00     0.040 A 
ATOM     74  C   UNL A   1      39.106  26.840  29.072  1.00  0.00     0.040 A 
ATOM     75  F   UNL A   1      38.764  26.989  31.389  1.00  0.00    -0.206 F 
ATOM     76  C   UNL A   1      39.613  27.369  27.887  1.00  0.00     0.006 A 
ENDBRANCH  55  69
BRANCH  56  77
ATOM     77  C   UNL A   1      40.616  33.812  38.887  1.00  0.00     0.057 A 
ATOM     78  C   UNL A   1      41.263  35.053  38.935  1.00  0.00     0.134 A 
ATOM     79  C   UNL A   1      40.048  33.333  40.074  1.00  0.00     0.134 A 
ATOM     80  F   UNL A   1      41.834  35.561  37.832  1.00  0.00    -0.206 F 
ATOM     81  C   UNL A   1      41.339  35.791  40.114  1.00  0.00     0.040 A 
ATOM     82  C   UNL A   1      40.090  34.076  41.254  1.00  0.00     0.040 A 
ATOM     83  F   UNL A   1      39.402  32.159  40.087  1.00  0.00    -0.206 F 
ATOM     84  C   UNL A   1      40.739  35.310  41.277  1.00  0.00     0.006 A 
ENDBRANCH  56  77
BRANCH  68  85
ATOM     85  C   UNL A   1      44.745  29.189  35.749  1.00  0.00     0.057 A 
ATOM     86  C   UNL A   1      45.940  29.776  35.312  1.00  0.00     0.134 A 
ATOM     87  C   UNL A   1      44.848  28.046  36.553  1.00  0.00     0.134 A 
ATOM     88  F   UNL A   1      45.919  30.868  34.533  1.00  0.00    -0.206 F 
ATOM     89  C   UNL A   1      47.186  29.251  35.663  1.00  0.00     0.040 A 
ATOM     90  C   UNL A   1      46.088  27.530  36.939  1.00  0.00     0.040 A 
ATOM     91  F   UNL A   1      43.744  27.442  37.021  1.00  0.00    -0.206 F 
ATOM     92  C   UNL A   1      47.261  28.132  36.490  1.00  0.00     0.006 A 
ENDBRANCH  68  85
ENDBRANCH  42  43
ENDBRANCH  35  37
ENDBRANCH  34  35
ENDBRANCH  33  34
ENDBRANCH  32  33
ENDBRANCH  31  32
ENDBRANCH  30  31
ENDBRANCH   1  30
TORSDOF 19
ENDMDL
