MODEL 1
REMARK VINA RESULT:     -11.2      0.000      0.000
REMARK SMILES Cc1nc(NC(=O)[C@@H]2CCC[C@@H](C(=O)OCCOCCOCCOC(=O)c3ccc(-c4c5nc(c(-c6c(F)cccc6F)c6ccc([nH]6)c(-c6c(F)cccc6F)c6nc(c(-c7c(F)cccc7F)c7ccc4[nH]7)C=C6)C=C5)cc3)C2)ccc1Br
REMARK SMILES IDX 19 1 18 2 17 3 16 4 15 5 13 6 14 7 12 8 8 9 9 10 81 11 10 12
REMARK SMILES IDX 11 13 6 14 5 15 7 17 4 18 1 19 2 20 3 21 84 22 83 23 85 24
REMARK SMILES IDX 82 25 20 26 21 27 22 28 23 29 24 30 25 31 26 32 27 33 28 34
REMARK SMILES IDX 80 35 29 36 79 37 30 38 31 39 32 40 73 41 33 42 78 43 72 44
REMARK SMILES IDX 74 45 34 46 77 47 71 48 70 49 35 51 61 52 44 53 60 54 45 55
REMARK SMILES IDX 48 56 59 57 75 58 46 59 47 60 58 62 76 63 49 64 36 65 37 66
REMARK SMILES IDX 42 67 38 68 39 69 41 70 43 71 40 72 62 73 63 74 68 75 64 76
REMARK SMILES IDX 65 77 67 78 69 79 66 80 50 81 51 82 56 83 52 84 53 85 55 86
REMARK SMILES IDX 57 87 54 88
REMARK H PARENT 5 16 74 50 48 61
REMARK Flexibility Score: inf
ROOT
ATOM      1  C   UNL A   1      40.386  19.921  26.297  1.00  0.00     0.188 C 
ENDROOT
BRANCH   1   2
ATOM      2  O   UNL A   1      39.531  19.180  25.447  1.00  0.00    -0.376 OA
BRANCH   2   3
ATOM      3  C   UNL A   1      38.473  19.917  24.851  1.00  0.00     0.202 C 
BRANCH   3   4
ATOM      4  C   UNL A   1      37.901  21.038  25.725  1.00  0.00     0.261 C 
BRANCH   4   5
ATOM      5  O   UNL A   1      37.395  22.174  25.002  1.00  0.00    -0.463 OA
BRANCH   5   6
ATOM      6  C   UNL A   1      36.110  22.139  24.566  1.00  0.00     0.309 C 
ATOM      7  O   UNL A   1      35.721  22.575  23.493  1.00  0.00    -0.252 OA
BRANCH   6   8
ATOM      8  C   UNL A   1      35.243  21.405  25.585  1.00  0.00     0.100 C 
ATOM      9  C   UNL A   1      33.163  22.914  25.816  1.00  0.00     0.080 C 
ATOM     10  C   UNL A   1      32.394  22.008  24.843  1.00  0.00     0.013 C 
ATOM     11  C   UNL A   1      34.474  22.408  26.437  1.00  0.00     0.028 C 
ATOM     12  C   UNL A   1      33.207  20.940  24.122  1.00  0.00     0.002 C 
ATOM     13  C   UNL A   1      34.342  20.348  24.940  1.00  0.00     0.015 C 
BRANCH   9  14
ATOM     14  C   UNL A   1      32.221  23.508  26.871  1.00  0.00     0.228 C 
ATOM     15  N   UNL A   1      31.452  24.619  26.712  1.00  0.00    -0.310 N 
ATOM     16  H   UNL A   1      30.926  24.809  27.523  1.00  0.00     0.171 HD
ATOM     17  O   UNL A   1      32.138  22.932  27.965  1.00  0.00    -0.274 OA
BRANCH  15  18
ATOM     18  C   UNL A   1      31.204  25.564  25.716  1.00  0.00     0.132 A 
ATOM     19  C   UNL A   1      33.367  27.958  23.964  1.00  0.00     0.068 C 
ATOM     20  C   UNL A   1      32.104  27.311  24.449  1.00  0.00     0.054 A 
ATOM     21  N   UNL A   1      32.273  26.301  25.357  1.00  0.00    -0.235 NA
ATOM     22  C   UNL A   1      30.862  27.643  23.914  1.00  0.00     0.039 A 
ATOM     23  C   UNL A   1      29.785  26.846  24.250  1.00  0.00     0.021 A 
ATOM     24  Br  UNL A   1      30.563  29.087  22.732  1.00  0.00    -0.049 Br
ATOM     25  C   UNL A   1      29.986  25.777  25.116  1.00  0.00     0.048 A 
ENDBRANCH  15  18
ENDBRANCH   9  14
ENDBRANCH   6   8
ENDBRANCH   5   6
ENDBRANCH   4   5
ENDBRANCH   3   4
ENDBRANCH   2   3
ENDBRANCH   1   2
BRANCH   1  26
ATOM     26  C   UNL A   1      41.858  19.438  26.300  1.00  0.00     0.188 C 
BRANCH  26  27
ATOM     27  O   UNL A   1      42.612  19.390  25.099  1.00  0.00    -0.376 OA
BRANCH  27  28
ATOM     28  C   UNL A   1      43.906  19.965  25.084  1.00  0.00     0.202 C 
BRANCH  28  29
ATOM     29  C   UNL A   1      44.089  21.365  25.694  1.00  0.00     0.261 C 
BRANCH  29  30
ATOM     30  O   UNL A   1      43.189  22.386  25.219  1.00  0.00    -0.460 OA
BRANCH  30  31
ATOM     31  C   UNL A   1      43.717  23.626  25.054  1.00  0.00     0.338 C 
ATOM     32  O   UNL A   1      44.621  23.946  24.303  1.00  0.00    -0.246 OA
BRANCH  31  33
ATOM     33  C   UNL A   1      42.928  24.629  25.812  1.00  0.00     0.060 A 
ATOM     34  C   UNL A   1      43.243  25.989  25.660  1.00  0.00     0.016 A 
ATOM     35  C   UNL A   1      41.969  24.239  26.747  1.00  0.00     0.016 A 
ATOM     36  C   UNL A   1      42.625  26.957  26.456  1.00  0.00     0.010 A 
ATOM     37  C   UNL A   1      41.383  25.206  27.579  1.00  0.00     0.010 A 
ATOM     38  C   UNL A   1      41.737  26.564  27.465  1.00  0.00    -0.014 A 
BRANCH  38  39
ATOM     39  C   UNL A   1      41.413  27.508  28.568  1.00  0.00     0.031 A 
ATOM     40  C   UNL A   1      42.257  27.445  29.816  1.00  0.00     0.074 A 
ATOM     41  C   UNL A   1      40.412  28.402  28.489  1.00  0.00     0.049 A 
ATOM     42  N   UNL A   1      42.123  28.083  30.949  1.00  0.00    -0.248 NA
ATOM     43  C   UNL A   1      43.417  26.538  29.769  1.00  0.00     0.031 C 
ATOM     44  C   UNL A   1      39.569  28.636  27.320  1.00  0.00     0.029 A 
ATOM     45  N   UNL A   1      39.927  29.274  29.436  1.00  0.00    -0.354 N 
ATOM     46  C   UNL A   1      43.179  27.660  31.748  1.00  0.00     0.074 A 
ATOM     47  C   UNL A   1      43.934  26.695  30.977  1.00  0.00     0.031 C 
ATOM     48  C   UNL A   1      38.651  29.573  27.627  1.00  0.00     0.029 A 
ATOM     49  C   UNL A   1      38.816  29.971  29.026  1.00  0.00     0.049 A 
ATOM     50  H   UNL A   1      40.337  29.388  30.323  1.00  0.00     0.167 HD
ATOM     51  C   UNL A   1      43.495  28.030  33.011  1.00  0.00     0.037 A 
ATOM     52  C   UNL A   1      38.006  30.803  29.714  1.00  0.00     0.037 A 
ATOM     53  C   UNL A   1      42.723  28.947  33.803  1.00  0.00     0.049 A 
ATOM     54  C   UNL A   1      38.289  31.085  31.173  1.00  0.00     0.074 A 
ATOM     55  C   UNL A   1      42.941  29.359  35.106  1.00  0.00     0.029 A 
ATOM     56  N   UNL A   1      41.568  29.581  33.371  1.00  0.00    -0.354 N 
ATOM     57  N   UNL A   1      39.287  30.678  31.919  1.00  0.00    -0.248 NA
ATOM     58  C   UNL A   1      37.322  31.936  31.885  1.00  0.00     0.031 C 
ATOM     59  C   UNL A   1      41.885  30.195  35.482  1.00  0.00     0.029 A 
ATOM     60  C   UNL A   1      41.048  30.359  34.390  1.00  0.00     0.049 A 
ATOM     61  H   UNL A   1      41.176  29.491  32.471  1.00  0.00     0.167 HD
ATOM     62  C   UNL A   1      39.093  31.260  33.169  1.00  0.00     0.074 A 
ATOM     63  C   UNL A   1      37.882  32.047  33.081  1.00  0.00     0.031 C 
ATOM     64  C   UNL A   1      39.856  31.159  34.285  1.00  0.00     0.037 A 
BRANCH  51  65
ATOM     65  C   UNL A   1      44.705  27.391  33.628  1.00  0.00     0.057 A 
ATOM     66  C   UNL A   1      44.587  26.203  34.362  1.00  0.00     0.134 A 
ATOM     67  C   UNL A   1      45.984  27.944  33.493  1.00  0.00     0.134 A 
ATOM     68  F   UNL A   1      43.390  25.622  34.530  1.00  0.00    -0.206 F 
ATOM     69  C   UNL A   1      45.699  25.589  34.938  1.00  0.00     0.040 A 
ATOM     70  C   UNL A   1      47.109  27.323  34.041  1.00  0.00     0.040 A 
ATOM     71  F   UNL A   1      46.168  29.070  32.786  1.00  0.00    -0.206 F 
ATOM     72  C   UNL A   1      46.966  26.144  34.769  1.00  0.00     0.006 A 
ENDBRANCH  51  65
BRANCH  52  73
ATOM     73  C   UNL A   1      36.814  31.412  29.064  1.00  0.00     0.057 A 
ATOM     74  C   UNL A   1      36.821  32.743  28.628  1.00  0.00     0.134 A 
ATOM     75  C   UNL A   1      35.668  30.654  28.793  1.00  0.00     0.134 A 
ATOM     76  F   UNL A   1      37.890  33.523  28.847  1.00  0.00    -0.206 F 
ATOM     77  C   UNL A   1      35.734  33.298  27.949  1.00  0.00     0.040 A 
ATOM     78  C   UNL A   1      34.586  31.187  28.089  1.00  0.00     0.040 A 
ATOM     79  F   UNL A   1      35.612  29.364  29.155  1.00  0.00    -0.206 F 
ATOM     80  C   UNL A   1      34.617  32.514  27.667  1.00  0.00     0.006 A 
ENDBRANCH  52  73
BRANCH  64  81
ATOM     81  C   UNL A   1      39.456  31.970  35.487  1.00  0.00     0.057 A 
ATOM     82  C   UNL A   1      38.567  31.437  36.431  1.00  0.00     0.134 A 
ATOM     83  C   UNL A   1      39.885  33.288  35.680  1.00  0.00     0.134 A 
ATOM     84  F   UNL A   1      38.107  30.182  36.302  1.00  0.00    -0.206 F 
ATOM     85  C   UNL A   1      38.109  32.188  37.514  1.00  0.00     0.040 A 
ATOM     86  C   UNL A   1      39.457  34.041  36.775  1.00  0.00     0.040 A 
ATOM     87  F   UNL A   1      40.745  33.856  34.820  1.00  0.00    -0.206 F 
ATOM     88  C   UNL A   1      38.559  33.494  37.690  1.00  0.00     0.006 A 
ENDBRANCH  64  81
ENDBRANCH  38  39
ENDBRANCH  31  33
ENDBRANCH  30  31
ENDBRANCH  29  30
ENDBRANCH  28  29
ENDBRANCH  27  28
ENDBRANCH  26  27
ENDBRANCH   1  26
TORSDOF 19
ENDMDL
MODEL 2
REMARK VINA RESULT:     -11.1      4.747     10.000
REMARK SMILES Cc1nc(NC(=O)[C@@H]2CCC[C@@H](C(=O)OCCOCCOCCOC(=O)c3ccc(-c4c5nc(c(-c6c(F)cccc6F)c6ccc([nH]6)c(-c6c(F)cccc6F)c6nc(c(-c7c(F)cccc7F)c7ccc4[nH]7)C=C6)C=C5)cc3)C2)ccc1Br
REMARK SMILES IDX 19 1 18 2 17 3 16 4 15 5 13 6 14 7 12 8 8 9 9 10 81 11 10 12
REMARK SMILES IDX 11 13 6 14 5 15 7 17 4 18 1 19 2 20 3 21 84 22 83 23 85 24
REMARK SMILES IDX 82 25 20 26 21 27 22 28 23 29 24 30 25 31 26 32 27 33 28 34
REMARK SMILES IDX 80 35 29 36 79 37 30 38 31 39 32 40 73 41 33 42 78 43 72 44
REMARK SMILES IDX 74 45 34 46 77 47 71 48 70 49 35 51 61 52 44 53 60 54 45 55
REMARK SMILES IDX 48 56 59 57 75 58 46 59 47 60 58 62 76 63 49 64 36 65 37 66
REMARK SMILES IDX 42 67 38 68 39 69 41 70 43 71 40 72 62 73 63 74 68 75 64 76
REMARK SMILES IDX 65 77 67 78 69 79 66 80 50 81 51 82 56 83 52 84 53 85 55 86
REMARK SMILES IDX 57 87 54 88
REMARK H PARENT 5 16 74 50 48 61
REMARK Flexibility Score: inf
ROOT
ATOM      1  C   UNL A   1      34.294  34.308  28.393  1.00  0.00     0.188 C 
ENDROOT
BRANCH   1   2
ATOM      2  O   UNL A   1      33.589  33.111  28.119  1.00  0.00    -0.376 OA
BRANCH   2   3
ATOM      3  C   UNL A   1      34.387  31.938  28.032  1.00  0.00     0.202 C 
BRANCH   3   4
ATOM      4  C   UNL A   1      33.880  30.890  27.036  1.00  0.00     0.261 C 
BRANCH   4   5
ATOM      5  O   UNL A   1      33.831  29.545  27.543  1.00  0.00    -0.463 OA
BRANCH   5   6
ATOM      6  C   UNL A   1      32.755  28.778  27.234  1.00  0.00     0.309 C 
ATOM      7  O   UNL A   1      31.600  29.035  27.534  1.00  0.00    -0.252 OA
BRANCH   6   8
ATOM      8  C   UNL A   1      33.201  27.588  26.387  1.00  0.00     0.100 C 
ATOM      9  C   UNL A   1      31.051  26.188  26.122  1.00  0.00     0.080 C 
ATOM     10  C   UNL A   1      30.818  26.803  24.734  1.00  0.00     0.013 C 
ATOM     11  C   UNL A   1      32.425  26.340  26.790  1.00  0.00     0.028 C 
ATOM     12  C   UNL A   1      31.721  27.967  24.346  1.00  0.00     0.002 C 
ATOM     13  C   UNL A   1      33.139  27.877  24.885  1.00  0.00     0.015 C 
BRANCH   9  14
ATOM     14  C   UNL A   1      30.546  24.741  26.172  1.00  0.00     0.228 C 
ATOM     15  N   UNL A   1      31.208  23.652  25.694  1.00  0.00    -0.310 N 
ATOM     16  H   UNL A   1      30.691  22.827  25.839  1.00  0.00     0.171 HD
ATOM     17  O   UNL A   1      29.443  24.529  26.695  1.00  0.00    -0.274 OA
BRANCH  15  18
ATOM     18  C   UNL A   1      32.420  23.384  25.056  1.00  0.00     0.132 A 
ATOM     19  C   UNL A   1      35.853  22.998  26.296  1.00  0.00     0.068 C 
ATOM     20  C   UNL A   1      34.736  23.196  25.317  1.00  0.00     0.054 A 
ATOM     21  N   UNL A   1      33.494  23.364  25.868  1.00  0.00    -0.235 NA
ATOM     22  C   UNL A   1      34.942  23.091  23.943  1.00  0.00     0.039 A 
ATOM     23  C   UNL A   1      33.828  23.060  23.127  1.00  0.00     0.021 A 
ATOM     24  Br  UNL A   1      36.642  22.953  23.129  1.00  0.00    -0.049 Br
ATOM     25  C   UNL A   1      32.568  23.158  23.708  1.00  0.00     0.048 A 
ENDBRANCH  15  18
ENDBRANCH   9  14
ENDBRANCH   6   8
ENDBRANCH   5   6
ENDBRANCH   4   5
ENDBRANCH   3   4
ENDBRANCH   2   3
ENDBRANCH   1   2
BRANCH   1  26
ATOM     26  C   UNL A   1      33.485  35.352  29.203  1.00  0.00     0.188 C 
BRANCH  26  27
ATOM     27  O   UNL A   1      32.935  35.026  30.469  1.00  0.00    -0.376 OA
BRANCH  27  28
ATOM     28  C   UNL A   1      33.734  35.199  31.624  1.00  0.00     0.202 C 
BRANCH  28  29
ATOM     29  C   UNL A   1      34.027  33.970  32.500  1.00  0.00     0.261 C 
BRANCH  29  30
ATOM     30  O   UNL A   1      34.851  32.947  31.904  1.00  0.00    -0.460 OA
BRANCH  30  31
ATOM     31  C   UNL A   1      35.887  32.494  32.655  1.00  0.00     0.338 C 
ATOM     32  O   UNL A   1      36.069  32.679  33.845  1.00  0.00    -0.246 OA
BRANCH  31  33
ATOM     33  C   UNL A   1      36.735  31.570  31.861  1.00  0.00     0.060 A 
ATOM     34  C   UNL A   1      37.413  30.537  32.528  1.00  0.00     0.016 A 
ATOM     35  C   UNL A   1      36.956  31.780  30.499  1.00  0.00     0.016 A 
ATOM     36  C   UNL A   1      38.330  29.731  31.848  1.00  0.00     0.010 A 
ATOM     37  C   UNL A   1      37.913  31.002  29.828  1.00  0.00     0.010 A 
ATOM     38  C   UNL A   1      38.632  30.001  30.507  1.00  0.00    -0.014 A 
BRANCH  38  39
ATOM     39  C   UNL A   1      39.879  29.452  29.910  1.00  0.00     0.031 A 
ATOM     40  C   UNL A   1      41.052  30.388  29.751  1.00  0.00     0.074 A 
ATOM     41  C   UNL A   1      39.994  28.172  29.516  1.00  0.00     0.049 A 
ATOM     42  N   UNL A   1      42.209  30.188  29.175  1.00  0.00    -0.248 NA
ATOM     43  C   UNL A   1      40.893  31.732  30.332  1.00  0.00     0.031 C 
ATOM     44  C   UNL A   1      38.981  27.135  29.684  1.00  0.00     0.029 A 
ATOM     45  N   UNL A   1      41.029  27.533  28.873  1.00  0.00    -0.354 N 
ATOM     46  C   UNL A   1      42.915  31.376  29.326  1.00  0.00     0.074 A 
ATOM     47  C   UNL A   1      42.049  32.298  30.030  1.00  0.00     0.031 C 
ATOM     48  C   UNL A   1      39.432  25.992  29.132  1.00  0.00     0.029 A 
ATOM     49  C   UNL A   1      40.748  26.231  28.536  1.00  0.00     0.049 A 
ATOM     50  H   UNL A   1      41.889  27.967  28.673  1.00  0.00     0.167 HD
ATOM     51  C   UNL A   1      44.167  31.681  28.913  1.00  0.00     0.037 A 
ATOM     52  C   UNL A   1      41.456  25.350  27.799  1.00  0.00     0.037 A 
ATOM     53  C   UNL A   1      45.014  30.791  28.168  1.00  0.00     0.049 A 
ATOM     54  C   UNL A   1      42.788  25.763  27.215  1.00  0.00     0.074 A 
ATOM     55  C   UNL A   1      46.286  31.021  27.673  1.00  0.00     0.029 A 
ATOM     56  N   UNL A   1      44.665  29.504  27.792  1.00  0.00    -0.354 N 
ATOM     57  N   UNL A   1      43.446  26.887  27.360  1.00  0.00    -0.248 NA
ATOM     58  C   UNL A   1      43.471  24.782  26.355  1.00  0.00     0.031 C 
ATOM     59  C   UNL A   1      46.681  29.894  26.947  1.00  0.00     0.029 A 
ATOM     60  C   UNL A   1      45.685  28.936  27.048  1.00  0.00     0.049 A 
ATOM     61  H   UNL A   1      43.816  29.058  28.021  1.00  0.00     0.167 HD
ATOM     62  C   UNL A   1      44.634  26.730  26.653  1.00  0.00     0.074 A 
ATOM     63  C   UNL A   1      44.607  25.404  26.076  1.00  0.00     0.031 C 
ATOM     64  C   UNL A   1      45.660  27.605  26.502  1.00  0.00     0.037 A 
BRANCH  51  65
ATOM     65  C   UNL A   1      44.668  33.063  29.216  1.00  0.00     0.057 A 
ATOM     66  C   UNL A   1      44.424  34.120  28.329  1.00  0.00     0.134 A 
ATOM     67  C   UNL A   1      45.385  33.351  30.384  1.00  0.00     0.134 A 
ATOM     68  F   UNL A   1      43.744  33.912  27.191  1.00  0.00    -0.206 F 
ATOM     69  C   UNL A   1      44.875  35.413  28.594  1.00  0.00     0.040 A 
ATOM     70  C   UNL A   1      45.816  34.648  30.673  1.00  0.00     0.040 A 
ATOM     71  F   UNL A   1      45.635  32.388  31.284  1.00  0.00    -0.206 F 
ATOM     72  C   UNL A   1      45.565  35.682  29.775  1.00  0.00     0.006 A 
ENDBRANCH  51  65
BRANCH  52  73
ATOM     73  C   UNL A   1      40.920  23.990  27.519  1.00  0.00     0.057 A 
ATOM     74  C   UNL A   1      39.896  23.786  26.587  1.00  0.00     0.134 A 
ATOM     75  C   UNL A   1      41.474  22.854  28.123  1.00  0.00     0.134 A 
ATOM     76  F   UNL A   1      39.327  24.830  25.965  1.00  0.00    -0.206 F 
ATOM     77  C   UNL A   1      39.442  22.505  26.265  1.00  0.00     0.040 A 
ATOM     78  C   UNL A   1      41.050  21.565  27.789  1.00  0.00     0.040 A 
ATOM     79  F   UNL A   1      42.480  22.979  29.000  1.00  0.00    -0.206 F 
ATOM     80  C   UNL A   1      40.028  21.389  26.858  1.00  0.00     0.006 A 
ENDBRANCH  52  73
BRANCH  64  81
ATOM     81  C   UNL A   1      46.875  27.142  25.746  1.00  0.00     0.057 A 
ATOM     82  C   UNL A   1      47.865  26.392  26.397  1.00  0.00     0.134 A 
ATOM     83  C   UNL A   1      47.104  27.488  24.409  1.00  0.00     0.134 A 
ATOM     84  F   UNL A   1      47.714  26.034  27.682  1.00  0.00    -0.206 F 
ATOM     85  C   UNL A   1      49.043  26.016  25.751  1.00  0.00     0.040 A 
ATOM     86  C   UNL A   1      48.267  27.093  23.744  1.00  0.00     0.040 A 
ATOM     87  F   UNL A   1      46.193  28.196  23.724  1.00  0.00    -0.206 F 
ATOM     88  C   UNL A   1      49.244  26.363  24.418  1.00  0.00     0.006 A 
ENDBRANCH  64  81
ENDBRANCH  38  39
ENDBRANCH  31  33
ENDBRANCH  30  31
ENDBRANCH  29  30
ENDBRANCH  28  29
ENDBRANCH  27  28
ENDBRANCH  26  27
ENDBRANCH   1  26
TORSDOF 19
ENDMDL
MODEL 3
REMARK VINA RESULT:     -11.0      4.861     10.099
REMARK SMILES Cc1nc(NC(=O)[C@@H]2CCC[C@@H](C(=O)OCCOCCOCCOC(=O)c3ccc(-c4c5nc(c(-c6c(F)cccc6F)c6ccc([nH]6)c(-c6c(F)cccc6F)c6nc(c(-c7c(F)cccc7F)c7ccc4[nH]7)C=C6)C=C5)cc3)C2)ccc1Br
REMARK SMILES IDX 19 1 18 2 17 3 16 4 15 5 13 6 14 7 12 8 8 9 9 10 81 11 10 12
REMARK SMILES IDX 11 13 6 14 5 15 7 17 4 18 1 19 2 20 3 21 84 22 83 23 85 24
REMARK SMILES IDX 82 25 20 26 21 27 22 28 23 29 24 30 25 31 26 32 27 33 28 34
REMARK SMILES IDX 80 35 29 36 79 37 30 38 31 39 32 40 73 41 33 42 78 43 72 44
REMARK SMILES IDX 74 45 34 46 77 47 71 48 70 49 35 51 61 52 44 53 60 54 45 55
REMARK SMILES IDX 48 56 59 57 75 58 46 59 47 60 58 62 76 63 49 64 36 65 37 66
REMARK SMILES IDX 42 67 38 68 39 69 41 70 43 71 40 72 62 73 63 74 68 75 64 76
REMARK SMILES IDX 65 77 67 78 69 79 66 80 50 81 51 82 56 83 52 84 53 85 55 86
REMARK SMILES IDX 57 87 54 88
REMARK H PARENT 5 16 74 50 48 61
REMARK Flexibility Score: inf
ROOT
ATOM      1  C   UNL A   1      34.993  33.618  29.204  1.00  0.00     0.188 C 
ENDROOT
BRANCH   1   2
ATOM      2  O   UNL A   1      34.393  32.336  29.189  1.00  0.00    -0.376 OA
BRANCH   2   3
ATOM      3  C   UNL A   1      34.876  31.447  28.191  1.00  0.00     0.202 C 
BRANCH   3   4
ATOM      4  C   UNL A   1      33.790  30.827  27.305  1.00  0.00     0.261 C 
BRANCH   4   5
ATOM      5  O   UNL A   1      33.767  29.389  27.291  1.00  0.00    -0.463 OA
BRANCH   5   6
ATOM      6  C   UNL A   1      32.578  28.765  27.093  1.00  0.00     0.309 C 
ATOM      7  O   UNL A   1      31.482  29.264  27.296  1.00  0.00    -0.252 OA
BRANCH   6   8
ATOM      8  C   UNL A   1      32.819  27.377  26.506  1.00  0.00     0.100 C 
ATOM      9  C   UNL A   1      30.926  27.109  24.774  1.00  0.00     0.080 C 
ATOM     10  C   UNL A   1      31.895  27.507  23.650  1.00  0.00     0.013 C 
ATOM     11  C   UNL A   1      31.490  26.722  26.149  1.00  0.00     0.028 C 
ATOM     12  C   UNL A   1      33.258  28.033  24.082  1.00  0.00     0.002 C 
ATOM     13  C   UNL A   1      33.814  27.393  25.343  1.00  0.00     0.015 C 
BRANCH   9  14
ATOM     14  C   UNL A   1      29.893  26.094  24.272  1.00  0.00     0.228 C 
ATOM     15  N   UNL A   1      30.074  24.747  24.197  1.00  0.00    -0.310 N 
ATOM     16  H   UNL A   1      29.271  24.297  23.847  1.00  0.00     0.171 HD
ATOM     17  O   UNL A   1      28.790  26.523  23.904  1.00  0.00    -0.274 OA
BRANCH  15  18
ATOM     18  C   UNL A   1      31.085  23.829  24.482  1.00  0.00     0.132 A 
ATOM     19  C   UNL A   1      34.460  23.344  23.124  1.00  0.00     0.068 C 
ATOM     20  C   UNL A   1      33.197  23.035  23.869  1.00  0.00     0.054 A 
ATOM     21  N   UNL A   1      32.188  23.948  23.720  1.00  0.00    -0.235 NA
ATOM     22  C   UNL A   1      33.112  21.956  24.745  1.00  0.00     0.039 A 
ATOM     23  C   UNL A   1      31.998  21.875  25.558  1.00  0.00     0.021 A 
ATOM     24  Br  UNL A   1      34.435  20.617  24.917  1.00  0.00    -0.049 Br
ATOM     25  C   UNL A   1      31.014  22.852  25.447  1.00  0.00     0.048 A 
ENDBRANCH  15  18
ENDBRANCH   9  14
ENDBRANCH   6   8
ENDBRANCH   5   6
ENDBRANCH   4   5
ENDBRANCH   3   4
ENDBRANCH   2   3
ENDBRANCH   1   2
BRANCH   1  26
ATOM     26  C   UNL A   1      34.391  34.592  30.248  1.00  0.00     0.188 C 
BRANCH  26  27
ATOM     27  O   UNL A   1      33.660  34.105  31.362  1.00  0.00    -0.376 OA
BRANCH  27  28
ATOM     28  C   UNL A   1      34.178  34.319  32.662  1.00  0.00     0.202 C 
BRANCH  28  29
ATOM     29  C   UNL A   1      34.570  33.093  33.503  1.00  0.00     0.261 C 
BRANCH  29  30
ATOM     30  O   UNL A   1      35.453  32.146  32.869  1.00  0.00    -0.460 OA
BRANCH  30  31
ATOM     31  C   UNL A   1      36.718  32.081  33.357  1.00  0.00     0.338 C 
ATOM     32  O   UNL A   1      37.110  32.477  34.440  1.00  0.00    -0.246 OA
BRANCH  31  33
ATOM     33  C   UNL A   1      37.584  31.294  32.444  1.00  0.00     0.060 A 
ATOM     34  C   UNL A   1      38.696  30.623  32.981  1.00  0.00     0.016 A 
ATOM     35  C   UNL A   1      37.380  31.305  31.064  1.00  0.00     0.016 A 
ATOM     36  C   UNL A   1      39.617  29.988  32.144  1.00  0.00     0.010 A 
ATOM     37  C   UNL A   1      38.331  30.708  30.221  1.00  0.00     0.010 A 
ATOM     38  C   UNL A   1      39.473  30.082  30.754  1.00  0.00    -0.014 A 
BRANCH  38  39
ATOM     39  C   UNL A   1      40.637  29.793  29.873  1.00  0.00     0.031 A 
ATOM     40  C   UNL A   1      40.743  28.410  29.282  1.00  0.00     0.074 A 
ATOM     41  C   UNL A   1      41.579  30.710  29.590  1.00  0.00     0.049 A 
ATOM     42  N   UNL A   1      41.701  27.877  28.569  1.00  0.00    -0.248 NA
ATOM     43  C   UNL A   1      39.603  27.510  29.527  1.00  0.00     0.031 C 
ATOM     44  C   UNL A   1      41.564  32.105  30.017  1.00  0.00     0.029 A 
ATOM     45  N   UNL A   1      42.749  30.586  28.878  1.00  0.00    -0.354 N 
ATOM     46  C   UNL A   1      41.280  26.584  28.279  1.00  0.00     0.074 A 
ATOM     47  C   UNL A   1      39.990  26.406  28.909  1.00  0.00     0.031 C 
ATOM     48  C   UNL A   1      42.689  32.705  29.581  1.00  0.00     0.029 A 
ATOM     49  C   UNL A   1      43.520  31.723  28.881  1.00  0.00     0.049 A 
ATOM     50  H   UNL A   1      43.010  29.760  28.410  1.00  0.00     0.167 HD
ATOM     51  C   UNL A   1      41.908  25.624  27.560  1.00  0.00     0.037 A 
ATOM     52  C   UNL A   1      44.766  31.933  28.408  1.00  0.00     0.037 A 
ATOM     53  C   UNL A   1      43.212  25.773  26.975  1.00  0.00     0.049 A 
ATOM     54  C   UNL A   1      45.513  30.800  27.741  1.00  0.00     0.074 A 
ATOM     55  C   UNL A   1      43.948  24.846  26.258  1.00  0.00     0.029 A 
ATOM     56  N   UNL A   1      43.985  26.921  27.058  1.00  0.00    -0.354 N 
ATOM     57  N   UNL A   1      45.109  29.581  27.474  1.00  0.00    -0.248 NA
ATOM     58  C   UNL A   1      46.898  31.072  27.320  1.00  0.00     0.031 C 
ATOM     59  C   UNL A   1      45.191  25.413  25.959  1.00  0.00     0.029 A 
ATOM     60  C   UNL A   1      45.201  26.717  26.429  1.00  0.00     0.049 A 
ATOM     61  H   UNL A   1      43.710  27.758  27.498  1.00  0.00     0.167 HD
ATOM     62  C   UNL A   1      46.167  28.963  26.814  1.00  0.00     0.074 A 
ATOM     63  C   UNL A   1      47.232  29.937  26.724  1.00  0.00     0.031 C 
ATOM     64  C   UNL A   1      46.245  27.702  26.320  1.00  0.00     0.037 A 
BRANCH  51  65
ATOM     65  C   UNL A   1      41.204  24.306  27.419  1.00  0.00     0.057 A 
ATOM     66  C   UNL A   1      40.116  24.169  26.548  1.00  0.00     0.134 A 
ATOM     67  C   UNL A   1      41.605  23.173  28.139  1.00  0.00     0.134 A 
ATOM     68  F   UNL A   1      39.681  25.215  25.830  1.00  0.00    -0.206 F 
ATOM     69  C   UNL A   1      39.452  22.951  26.397  1.00  0.00     0.040 A 
ATOM     70  C   UNL A   1      40.965  21.942  27.974  1.00  0.00     0.040 A 
ATOM     71  F   UNL A   1      42.652  23.233  28.975  1.00  0.00    -0.206 F 
ATOM     72  C   UNL A   1      39.883  21.831  27.104  1.00  0.00     0.006 A 
ENDBRANCH  51  65
BRANCH  52  73
ATOM     73  C   UNL A   1      45.428  33.255  28.572  1.00  0.00     0.057 A 
ATOM     74  C   UNL A   1      46.233  33.535  29.683  1.00  0.00     0.134 A 
ATOM     75  C   UNL A   1      45.334  34.241  27.582  1.00  0.00     0.134 A 
ATOM     76  F   UNL A   1      46.374  32.632  30.664  1.00  0.00    -0.206 F 
ATOM     77  C   UNL A   1      46.918  34.746  29.805  1.00  0.00     0.040 A 
ATOM     78  C   UNL A   1      46.037  35.445  27.677  1.00  0.00     0.040 A 
ATOM     79  F   UNL A   1      44.607  34.022  26.478  1.00  0.00    -0.206 F 
ATOM     80  C   UNL A   1      46.831  35.701  28.794  1.00  0.00     0.006 A 
ENDBRANCH  52  73
BRANCH  64  81
ATOM     81  C   UNL A   1      47.490  27.315  25.571  1.00  0.00     0.057 A 
ATOM     82  C   UNL A   1      48.585  26.774  26.258  1.00  0.00     0.134 A 
ATOM     83  C   UNL A   1      47.637  27.537  24.197  1.00  0.00     0.134 A 
ATOM     84  F   UNL A   1      48.516  26.546  27.579  1.00  0.00    -0.206 F 
ATOM     85  C   UNL A   1      49.785  26.480  25.610  1.00  0.00     0.040 A 
ATOM     86  C   UNL A   1      48.823  27.220  23.531  1.00  0.00     0.040 A 
ATOM     87  F   UNL A   1      46.624  28.042  23.476  1.00  0.00    -0.206 F 
ATOM     88  C   UNL A   1      49.904  26.700  24.240  1.00  0.00     0.006 A 
ENDBRANCH  64  81
ENDBRANCH  38  39
ENDBRANCH  31  33
ENDBRANCH  30  31
ENDBRANCH  29  30
ENDBRANCH  28  29
ENDBRANCH  27  28
ENDBRANCH  26  27
ENDBRANCH   1  26
TORSDOF 19
ENDMDL
