MODEL 1
REMARK VINA RESULT:     -10.0      0.000      0.000
REMARK SMILES O=C(C[C@H]1CN(S(=O)(=O)N2CCCCC2)CCO1)OCCOCCOCCOC(=O)c1ccc(-c2c3nc(c(-c4c(F)cccc4F)c4ccc([nH]4)c(-c4c(F)cccc4F)c4nc(c(-c5c(F)cccc5F)c5ccc2[nH]5)C=C4)C=C3)cc1
REMARK SMILES IDX 23 1 22 2 21 3 20 4 19 5 2 6 1 7 3 8 4 9 5 10 18 11 6 12
REMARK SMILES IDX 17 13 16 14 7 15 8 16 9 17 10 18 11 19 15 20 12 21 14 22
REMARK SMILES IDX 13 23 24 24 25 25 26 26 27 27 28 28 29 29 30 30 31 31 32 32
REMARK SMILES IDX 84 33 33 34 83 35 34 36 35 37 36 38 77 39 37 40 82 41 76 42
REMARK SMILES IDX 78 43 38 44 81 45 75 46 74 47 39 49 65 50 48 51 64 52 49 53
REMARK SMILES IDX 52 54 63 55 79 56 50 57 51 58 62 60 80 61 53 62 40 63 41 64
REMARK SMILES IDX 46 65 42 66 43 67 45 68 47 69 44 70 66 71 67 72 72 73 68 74
REMARK SMILES IDX 69 75 71 76 73 77 70 78 54 79 55 80 60 81 56 82 57 83 59 84
REMARK SMILES IDX 61 85 58 86
REMARK H PARENT 78 48 52 59
REMARK Flexibility Score: inf
ROOT
ATOM      1  C   UNL A   1      35.337  33.713  28.231  1.00  0.00     0.188 C 
ENDROOT
BRANCH   1   2
ATOM      2  O   UNL A   1      34.788  32.608  27.538  1.00  0.00    -0.376 OA
BRANCH   2   3
ATOM      3  C   UNL A   1      34.110  31.650  28.333  1.00  0.00     0.202 C 
BRANCH   3   4
ATOM      4  C   UNL A   1      33.897  30.301  27.654  1.00  0.00     0.261 C 
BRANCH   4   5
ATOM      5  O   UNL A   1      33.617  30.419  26.240  1.00  0.00    -0.463 OA
BRANCH   5   6
ATOM      6  C   UNL A   1      32.604  29.819  25.585  1.00  0.00     0.308 C 
ATOM      7  O   UNL A   1      31.488  30.334  25.560  1.00  0.00    -0.252 OA
BRANCH   6   8
ATOM      8  C   UNL A   1      32.879  28.562  24.815  1.00  0.00     0.156 C 
BRANCH   8   9
ATOM      9  C   UNL A   1      31.717  28.063  23.941  1.00  0.00     0.144 C 
ATOM     10  C   UNL A   1      32.006  26.939  22.924  1.00  0.00     0.136 C 
ATOM     11  O   UNL A   1      30.591  27.681  24.757  1.00  0.00    -0.375 OA
ATOM     12  N   UNL A   1      32.475  25.739  23.666  1.00  0.00    -0.184 NA
ATOM     13  C   UNL A   1      30.789  26.441  25.447  1.00  0.00     0.177 C 
ATOM     14  C   UNL A   1      31.316  25.297  24.556  1.00  0.00     0.132 C 
BRANCH  12  15
ATOM     15  S   UNL A   1      33.096  24.412  22.811  1.00  0.00     0.282 S 
ATOM     16  O   UNL A   1      32.039  23.422  22.784  1.00  0.00    -0.195 OA
ATOM     17  O   UNL A   1      33.605  24.950  21.568  1.00  0.00    -0.195 OA
BRANCH  15  18
ATOM     18  N   UNL A   1      34.396  23.682  23.637  1.00  0.00    -0.189 NA
ATOM     19  C   UNL A   1      34.854  24.592  24.752  1.00  0.00     0.103 C 
ATOM     20  C   UNL A   1      34.313  22.277  24.070  1.00  0.00     0.103 C 
ATOM     21  C   UNL A   1      36.072  24.072  25.510  1.00  0.00     0.017 C 
ATOM     22  C   UNL A   1      35.586  21.790  24.751  1.00  0.00     0.017 C 
ATOM     23  C   UNL A   1      35.880  22.637  25.971  1.00  0.00     0.003 C 
ENDBRANCH  15  18
ENDBRANCH  12  15
ENDBRANCH   8   9
ENDBRANCH   6   8
ENDBRANCH   5   6
ENDBRANCH   4   5
ENDBRANCH   3   4
ENDBRANCH   2   3
ENDBRANCH   1   2
BRANCH   1  24
ATOM     24  C   UNL A   1      34.371  34.892  28.407  1.00  0.00     0.188 C 
BRANCH  24  25
ATOM     25  O   UNL A   1      33.868  35.201  29.699  1.00  0.00    -0.376 OA
BRANCH  25  26
ATOM     26  C   UNL A   1      34.034  34.285  30.781  1.00  0.00     0.202 C 
BRANCH  26  27
ATOM     27  C   UNL A   1      34.797  34.716  32.044  1.00  0.00     0.261 C 
BRANCH  27  28
ATOM     28  O   UNL A   1      36.126  34.168  32.104  1.00  0.00    -0.460 OA
BRANCH  28  29
ATOM     29  C   UNL A   1      36.265  32.983  32.753  1.00  0.00     0.338 C 
ATOM     30  O   UNL A   1      35.620  32.587  33.695  1.00  0.00    -0.246 OA
BRANCH  29  31
ATOM     31  C   UNL A   1      37.187  32.111  31.976  1.00  0.00     0.060 A 
ATOM     32  C   UNL A   1      38.090  31.320  32.704  1.00  0.00     0.016 A 
ATOM     33  C   UNL A   1      37.121  31.994  30.584  1.00  0.00     0.016 A 
ATOM     34  C   UNL A   1      38.910  30.399  32.049  1.00  0.00     0.010 A 
ATOM     35  C   UNL A   1      37.991  31.119  29.919  1.00  0.00     0.010 A 
ATOM     36  C   UNL A   1      38.906  30.338  30.648  1.00  0.00    -0.014 A 
BRANCH  36  37
ATOM     37  C   UNL A   1      40.091  29.759  29.967  1.00  0.00     0.031 A 
ATOM     38  C   UNL A   1      41.260  30.688  29.764  1.00  0.00     0.074 A 
ATOM     39  C   UNL A   1      40.163  28.481  29.555  1.00  0.00     0.049 A 
ATOM     40  N   UNL A   1      42.424  30.460  29.216  1.00  0.00    -0.248 NA
ATOM     41  C   UNL A   1      41.087  32.065  30.262  1.00  0.00     0.031 C 
ATOM     42  C   UNL A   1      39.128  27.464  29.727  1.00  0.00     0.029 A 
ATOM     43  N   UNL A   1      41.174  27.823  28.895  1.00  0.00    -0.354 N 
ATOM     44  C   UNL A   1      43.124  31.655  29.328  1.00  0.00     0.074 A 
ATOM     45  C   UNL A   1      42.251  32.613  29.964  1.00  0.00     0.031 C 
ATOM     46  C   UNL A   1      39.553  26.313  29.172  1.00  0.00     0.029 A 
ATOM     47  C   UNL A   1      40.880  26.516  28.588  1.00  0.00     0.049 A 
ATOM     48  H   UNL A   1      42.030  28.249  28.663  1.00  0.00     0.167 HD
ATOM     49  C   UNL A   1      44.387  31.939  28.940  1.00  0.00     0.037 A 
ATOM     50  C   UNL A   1      41.599  25.603  27.902  1.00  0.00     0.037 A 
ATOM     51  C   UNL A   1      45.242  31.015  28.252  1.00  0.00     0.049 A 
ATOM     52  C   UNL A   1      42.963  25.979  27.370  1.00  0.00     0.074 A 
ATOM     53  C   UNL A   1      46.527  31.217  27.784  1.00  0.00     0.029 A 
ATOM     54  N   UNL A   1      44.883  29.720  27.913  1.00  0.00    -0.354 N 
ATOM     55  N   UNL A   1      43.629  27.100  27.508  1.00  0.00    -0.248 NA
ATOM     56  C   UNL A   1      43.675  24.958  26.584  1.00  0.00     0.031 C 
ATOM     57  C   UNL A   1      46.929  30.056  27.116  1.00  0.00     0.029 A 
ATOM     58  C   UNL A   1      45.914  29.116  27.220  1.00  0.00     0.049 A 
ATOM     59  H   UNL A   1      44.023  29.295  28.133  1.00  0.00     0.167 HD
ATOM     60  C   UNL A   1      44.846  26.907  26.862  1.00  0.00     0.074 A 
ATOM     61  C   UNL A   1      44.830  25.559  26.336  1.00  0.00     0.031 C 
ATOM     62  C   UNL A   1      45.887  27.766  26.719  1.00  0.00     0.037 A 
BRANCH  49  63
ATOM     63  C   UNL A   1      44.884  33.323  29.220  1.00  0.00     0.057 A 
ATOM     64  C   UNL A   1      44.713  34.365  28.298  1.00  0.00     0.134 A 
ATOM     65  C   UNL A   1      45.561  33.613  30.408  1.00  0.00     0.134 A 
ATOM     66  F   UNL A   1      44.101  34.141  27.124  1.00  0.00    -0.206 F 
ATOM     67  C   UNL A   1      45.220  35.642  28.540  1.00  0.00     0.040 A 
ATOM     68  C   UNL A   1      46.049  34.892  30.674  1.00  0.00     0.040 A 
ATOM     69  F   UNL A   1      45.768  32.655  31.326  1.00  0.00    -0.206 F 
ATOM     70  C   UNL A   1      45.885  35.909  29.735  1.00  0.00     0.006 A 
ENDBRANCH  49  63
BRANCH  50  71
ATOM     71  C   UNL A   1      41.058  24.240  27.655  1.00  0.00     0.057 A 
ATOM     72  C   UNL A   1      41.573  23.121  28.320  1.00  0.00     0.134 A 
ATOM     73  C   UNL A   1      40.060  24.014  26.699  1.00  0.00     0.134 A 
ATOM     74  F   UNL A   1      42.554  23.264  29.223  1.00  0.00    -0.206 F 
ATOM     75  C   UNL A   1      41.132  21.826  28.030  1.00  0.00     0.040 A 
ATOM     76  C   UNL A   1      39.593  22.727  26.416  1.00  0.00     0.040 A 
ATOM     77  F   UNL A   1      39.529  25.040  26.017  1.00  0.00    -0.206 F 
ATOM     78  C   UNL A   1      40.136  21.629  27.077  1.00  0.00     0.006 A 
ENDBRANCH  50  71
BRANCH  62  79
ATOM     79  C   UNL A   1      47.111  27.268  26.008  1.00  0.00     0.057 A 
ATOM     80  C   UNL A   1      48.178  26.673  26.693  1.00  0.00     0.134 A 
ATOM     81  C   UNL A   1      47.189  27.322  24.609  1.00  0.00     0.134 A 
ATOM     82  F   UNL A   1      48.168  26.596  28.031  1.00  0.00    -0.206 F 
ATOM     83  C   UNL A   1      49.286  26.166  26.012  1.00  0.00     0.040 A 
ATOM     84  C   UNL A   1      48.279  26.794  23.918  1.00  0.00     0.040 A 
ATOM     85  F   UNL A   1      46.194  27.866  23.892  1.00  0.00    -0.206 F 
ATOM     86  C   UNL A   1      49.335  26.217  24.620  1.00  0.00     0.006 A 
ENDBRANCH  62  79
ENDBRANCH  36  37
ENDBRANCH  29  31
ENDBRANCH  28  29
ENDBRANCH  27  28
ENDBRANCH  26  27
ENDBRANCH  25  26
ENDBRANCH  24  25
ENDBRANCH   1  24
TORSDOF 20
ENDMDL
MODEL 2
REMARK VINA RESULT:     -10.0      4.166      7.241
REMARK SMILES O=C(C[C@H]1CN(S(=O)(=O)N2CCCCC2)CCO1)OCCOCCOCCOC(=O)c1ccc(-c2c3nc(c(-c4c(F)cccc4F)c4ccc([nH]4)c(-c4c(F)cccc4F)c4nc(c(-c5c(F)cccc5F)c5ccc2[nH]5)C=C4)C=C3)cc1
REMARK SMILES IDX 23 1 22 2 21 3 20 4 19 5 2 6 1 7 3 8 4 9 5 10 18 11 6 12
REMARK SMILES IDX 17 13 16 14 7 15 8 16 9 17 10 18 11 19 15 20 12 21 14 22
REMARK SMILES IDX 13 23 24 24 25 25 26 26 27 27 28 28 29 29 30 30 31 31 32 32
REMARK SMILES IDX 84 33 33 34 83 35 34 36 35 37 36 38 77 39 37 40 82 41 76 42
REMARK SMILES IDX 78 43 38 44 81 45 75 46 74 47 39 49 65 50 48 51 64 52 49 53
REMARK SMILES IDX 52 54 63 55 79 56 50 57 51 58 62 60 80 61 53 62 40 63 41 64
REMARK SMILES IDX 46 65 42 66 43 67 45 68 47 69 44 70 66 71 67 72 72 73 68 74
REMARK SMILES IDX 69 75 71 76 73 77 70 78 54 79 55 80 60 81 56 82 57 83 59 84
REMARK SMILES IDX 61 85 58 86
REMARK H PARENT 78 48 52 59
REMARK Flexibility Score: inf
ROOT
ATOM      1  C   UNL A   1      33.329  35.065  32.413  1.00  0.00     0.188 C 
ENDROOT
BRANCH   1   2
ATOM      2  O   UNL A   1      34.420  34.193  32.638  1.00  0.00    -0.376 OA
BRANCH   2   3
ATOM      3  C   UNL A   1      35.682  34.810  32.829  1.00  0.00     0.202 C 
BRANCH   3   4
ATOM      4  C   UNL A   1      36.813  34.208  32.002  1.00  0.00     0.261 C 
BRANCH   4   5
ATOM      5  O   UNL A   1      38.115  34.719  32.369  1.00  0.00    -0.463 OA
BRANCH   5   6
ATOM      6  C   UNL A   1      38.751  34.492  33.535  1.00  0.00     0.308 C 
ATOM      7  O   UNL A   1      38.535  35.208  34.511  1.00  0.00    -0.252 OA
BRANCH   6   8
ATOM      8  C   UNL A   1      39.659  33.305  33.649  1.00  0.00     0.156 C 
BRANCH   8   9
ATOM      9  C   UNL A   1      38.965  31.937  33.539  1.00  0.00     0.144 C 
ATOM     10  C   UNL A   1      39.805  30.673  33.811  1.00  0.00     0.136 C 
ATOM     11  O   UNL A   1      37.779  31.900  34.361  1.00  0.00    -0.375 OA
ATOM     12  N   UNL A   1      40.318  30.737  35.205  1.00  0.00    -0.184 NA
ATOM     13  C   UNL A   1      38.067  31.799  35.761  1.00  0.00     0.177 C 
ATOM     14  C   UNL A   1      39.095  30.708  36.120  1.00  0.00     0.132 C 
BRANCH  12  15
ATOM     15  S   UNL A   1      41.468  29.606  35.730  1.00  0.00     0.282 S 
ATOM     16  O   UNL A   1      42.351  30.320  36.629  1.00  0.00    -0.195 OA
ATOM     17  O   UNL A   1      40.711  28.474  36.217  1.00  0.00    -0.195 OA
BRANCH  15  18
ATOM     18  N   UNL A   1      42.451  29.065  34.446  1.00  0.00    -0.189 NA
ATOM     19  C   UNL A   1      43.893  29.044  34.894  1.00  0.00     0.103 C 
ATOM     20  C   UNL A   1      42.090  27.855  33.687  1.00  0.00     0.103 C 
ATOM     21  C   UNL A   1      44.874  28.651  33.793  1.00  0.00     0.017 C 
ATOM     22  C   UNL A   1      43.062  27.556  32.552  1.00  0.00     0.017 C 
ATOM     23  C   UNL A   1      44.460  27.363  33.101  1.00  0.00     0.003 C 
ENDBRANCH  15  18
ENDBRANCH  12  15
ENDBRANCH   8   9
ENDBRANCH   6   8
ENDBRANCH   5   6
ENDBRANCH   4   5
ENDBRANCH   3   4
ENDBRANCH   2   3
ENDBRANCH   1   2
BRANCH   1  24
ATOM     24  C   UNL A   1      33.309  35.705  31.019  1.00  0.00     0.188 C 
BRANCH  24  25
ATOM     25  O   UNL A   1      32.594  35.071  29.966  1.00  0.00    -0.376 OA
BRANCH  25  26
ATOM     26  C   UNL A   1      33.290  34.476  28.872  1.00  0.00     0.202 C 
BRANCH  26  27
ATOM     27  C   UNL A   1      34.680  33.857  29.091  1.00  0.00     0.261 C 
BRANCH  27  28
ATOM     28  O   UNL A   1      34.617  32.526  29.635  1.00  0.00    -0.460 OA
BRANCH  28  29
ATOM     29  C   UNL A   1      34.532  31.508  28.741  1.00  0.00     0.338 C 
ATOM     30  O   UNL A   1      33.653  31.317  27.934  1.00  0.00    -0.246 OA
BRANCH  29  31
ATOM     31  C   UNL A   1      35.824  30.769  28.726  1.00  0.00     0.060 A 
ATOM     32  C   UNL A   1      36.296  30.275  29.952  1.00  0.00     0.016 A 
ATOM     33  C   UNL A   1      36.517  30.484  27.545  1.00  0.00     0.016 A 
ATOM     34  C   UNL A   1      37.444  29.481  29.999  1.00  0.00     0.010 A 
ATOM     35  C   UNL A   1      37.705  29.744  27.599  1.00  0.00     0.010 A 
ATOM     36  C   UNL A   1      38.187  29.263  28.830  1.00  0.00    -0.014 A 
BRANCH  36  37
ATOM     37  C   UNL A   1      39.613  28.875  28.965  1.00  0.00     0.031 A 
ATOM     38  C   UNL A   1      40.532  29.918  29.546  1.00  0.00     0.074 A 
ATOM     39  C   UNL A   1      40.093  27.668  28.618  1.00  0.00     0.049 A 
ATOM     40  N   UNL A   1      41.814  29.860  29.792  1.00  0.00    -0.248 NA
ATOM     41  C   UNL A   1      39.908  31.204  29.906  1.00  0.00     0.031 C 
ATOM     42  C   UNL A   1      39.311  26.553  28.090  1.00  0.00     0.029 A 
ATOM     43  N   UNL A   1      41.380  27.184  28.664  1.00  0.00    -0.354 N 
ATOM     44  C   UNL A   1      42.137  31.088  30.357  1.00  0.00     0.074 A 
ATOM     45  C   UNL A   1      40.932  31.883  30.389  1.00  0.00     0.031 C 
ATOM     46  C   UNL A   1      40.139  25.518  27.845  1.00  0.00     0.029 A 
ATOM     47  C   UNL A   1      41.510  25.904  28.181  1.00  0.00     0.049 A 
ATOM     48  H   UNL A   1      42.138  27.707  29.011  1.00  0.00     0.167 HD
ATOM     49  C   UNL A   1      43.332  31.524  30.815  1.00  0.00     0.037 A 
ATOM     50  C   UNL A   1      42.615  25.147  28.020  1.00  0.00     0.037 A 
ATOM     51  C   UNL A   1      44.547  30.767  30.731  1.00  0.00     0.049 A 
ATOM     52  C   UNL A   1      43.961  25.700  28.427  1.00  0.00     0.074 A 
ATOM     53  C   UNL A   1      45.818  31.134  31.135  1.00  0.00     0.029 A 
ATOM     54  N   UNL A   1      44.644  29.498  30.185  1.00  0.00    -0.354 N 
ATOM     55  N   UNL A   1      44.253  26.849  28.988  1.00  0.00    -0.248 NA
ATOM     56  C   UNL A   1      45.135  24.848  28.175  1.00  0.00     0.031 C 
ATOM     57  C   UNL A   1      46.695  30.102  30.787  1.00  0.00     0.029 A 
ATOM     58  C   UNL A   1      45.958  29.073  30.218  1.00  0.00     0.049 A 
ATOM     59  H   UNL A   1      43.889  28.977  29.827  1.00  0.00     0.167 HD
ATOM     60  C   UNL A   1      45.629  26.841  29.190  1.00  0.00     0.074 A 
ATOM     61  C   UNL A   1      46.116  25.571  28.695  1.00  0.00     0.031 C 
ATOM     62  C   UNL A   1      46.422  27.797  29.737  1.00  0.00     0.037 A 
BRANCH  49  63
ATOM     63  C   UNL A   1      43.368  32.901  31.400  1.00  0.00     0.057 A 
ATOM     64  C   UNL A   1      43.208  33.119  32.776  1.00  0.00     0.134 A 
ATOM     65  C   UNL A   1      43.537  34.022  30.581  1.00  0.00     0.134 A 
ATOM     66  F   UNL A   1      43.007  32.085  33.609  1.00  0.00    -0.206 F 
ATOM     67  C   UNL A   1      43.193  34.405  33.313  1.00  0.00     0.040 A 
ATOM     68  C   UNL A   1      43.551  35.313  31.109  1.00  0.00     0.040 A 
ATOM     69  F   UNL A   1      43.682  33.880  29.255  1.00  0.00    -0.206 F 
ATOM     70  C   UNL A   1      43.372  35.507  32.477  1.00  0.00     0.006 A 
ENDBRANCH  49  63
BRANCH  50  71
ATOM     71  C   UNL A   1      42.522  23.783  27.434  1.00  0.00     0.057 A 
ATOM     72  C   UNL A   1      42.364  22.652  28.244  1.00  0.00     0.134 A 
ATOM     73  C   UNL A   1      42.656  23.569  26.056  1.00  0.00     0.134 A 
ATOM     74  F   UNL A   1      42.263  22.784  29.575  1.00  0.00    -0.206 F 
ATOM     75  C   UNL A   1      42.363  21.360  27.711  1.00  0.00     0.040 A 
ATOM     76  C   UNL A   1      42.634  22.285  25.507  1.00  0.00     0.040 A 
ATOM     77  F   UNL A   1      42.821  24.607  25.222  1.00  0.00    -0.206 F 
ATOM     78  C   UNL A   1      42.496  21.175  26.337  1.00  0.00     0.006 A 
ENDBRANCH  50  71
BRANCH  62  79
ATOM     79  C   UNL A   1      47.885  27.496  29.878  1.00  0.00     0.057 A 
ATOM     80  C   UNL A   1      48.816  27.858  28.896  1.00  0.00     0.134 A 
ATOM     81  C   UNL A   1      48.376  26.902  31.049  1.00  0.00     0.134 A 
ATOM     82  F   UNL A   1      48.410  28.426  27.751  1.00  0.00    -0.206 F 
ATOM     83  C   UNL A   1      50.181  27.621  29.066  1.00  0.00     0.040 A 
ATOM     84  C   UNL A   1      49.741  26.685  31.240  1.00  0.00     0.040 A 
ATOM     85  F   UNL A   1      47.540  26.545  32.034  1.00  0.00    -0.206 F 
ATOM     86  C   UNL A   1      50.648  27.041  30.245  1.00  0.00     0.006 A 
ENDBRANCH  62  79
ENDBRANCH  36  37
ENDBRANCH  29  31
ENDBRANCH  28  29
ENDBRANCH  27  28
ENDBRANCH  26  27
ENDBRANCH  25  26
ENDBRANCH  24  25
ENDBRANCH   1  24
TORSDOF 20
ENDMDL
MODEL 3
REMARK VINA RESULT:     -10.0      1.009      6.152
REMARK SMILES O=C(C[C@H]1CN(S(=O)(=O)N2CCCCC2)CCO1)OCCOCCOCCOC(=O)c1ccc(-c2c3nc(c(-c4c(F)cccc4F)c4ccc([nH]4)c(-c4c(F)cccc4F)c4nc(c(-c5c(F)cccc5F)c5ccc2[nH]5)C=C4)C=C3)cc1
REMARK SMILES IDX 23 1 22 2 21 3 20 4 19 5 2 6 1 7 3 8 4 9 5 10 18 11 6 12
REMARK SMILES IDX 17 13 16 14 7 15 8 16 9 17 10 18 11 19 15 20 12 21 14 22
REMARK SMILES IDX 13 23 24 24 25 25 26 26 27 27 28 28 29 29 30 30 31 31 32 32
REMARK SMILES IDX 84 33 33 34 83 35 34 36 35 37 36 38 77 39 37 40 82 41 76 42
REMARK SMILES IDX 78 43 38 44 81 45 75 46 74 47 39 49 65 50 48 51 64 52 49 53
REMARK SMILES IDX 52 54 63 55 79 56 50 57 51 58 62 60 80 61 53 62 40 63 41 64
REMARK SMILES IDX 46 65 42 66 43 67 45 68 47 69 44 70 66 71 67 72 72 73 68 74
REMARK SMILES IDX 69 75 71 76 73 77 70 78 54 79 55 80 60 81 56 82 57 83 59 84
REMARK SMILES IDX 61 85 58 86
REMARK H PARENT 78 48 52 59
REMARK Flexibility Score: inf
ROOT
ATOM      1  C   UNL A   1      34.035  35.079  28.654  1.00  0.00     0.188 C 
ENDROOT
BRANCH   1   2
ATOM      2  O   UNL A   1      34.434  33.964  27.880  1.00  0.00    -0.376 OA
BRANCH   2   3
ATOM      3  C   UNL A   1      34.264  32.693  28.484  1.00  0.00     0.202 C 
BRANCH   3   4
ATOM      4  C   UNL A   1      34.657  31.514  27.600  1.00  0.00     0.261 C 
BRANCH   4   5
ATOM      5  O   UNL A   1      33.976  30.290  27.957  1.00  0.00    -0.463 OA
BRANCH   5   6
ATOM      6  C   UNL A   1      33.017  29.680  27.233  1.00  0.00     0.308 C 
ATOM      7  O   UNL A   1      31.857  30.085  27.271  1.00  0.00    -0.252 OA
BRANCH   6   8
ATOM      8  C   UNL A   1      33.401  28.558  26.316  1.00  0.00     0.156 C 
BRANCH   8   9
ATOM      9  C   UNL A   1      33.522  28.938  24.831  1.00  0.00     0.144 C 
ATOM     10  C   UNL A   1      34.013  27.860  23.844  1.00  0.00     0.136 C 
ATOM     11  O   UNL A   1      32.283  29.493  24.344  1.00  0.00    -0.375 OA
ATOM     12  N   UNL A   1      33.058  26.720  23.876  1.00  0.00    -0.184 NA
ATOM     13  C   UNL A   1      31.260  28.508  24.153  1.00  0.00     0.177 C 
ATOM     14  C   UNL A   1      31.721  27.259  23.374  1.00  0.00     0.132 C 
BRANCH  12  15
ATOM     15  S   UNL A   1      33.446  25.277  23.073  1.00  0.00     0.282 S 
ATOM     16  O   UNL A   1      32.299  24.408  23.233  1.00  0.00    -0.195 OA
ATOM     17  O   UNL A   1      33.870  25.668  21.746  1.00  0.00    -0.195 OA
BRANCH  15  18
ATOM     18  N   UNL A   1      34.749  24.470  23.821  1.00  0.00    -0.189 NA
ATOM     19  C   UNL A   1      34.424  24.241  25.278  1.00  0.00     0.103 C 
ATOM     20  C   UNL A   1      35.351  23.281  23.194  1.00  0.00     0.103 C 
ATOM     21  C   UNL A   1      35.560  23.595  26.067  1.00  0.00     0.017 C 
ATOM     22  C   UNL A   1      36.529  22.726  23.986  1.00  0.00     0.017 C 
ATOM     23  C   UNL A   1      36.083  22.343  25.382  1.00  0.00     0.003 C 
ENDBRANCH  15  18
ENDBRANCH  12  15
ENDBRANCH   8   9
ENDBRANCH   6   8
ENDBRANCH   5   6
ENDBRANCH   4   5
ENDBRANCH   3   4
ENDBRANCH   2   3
ENDBRANCH   1   2
BRANCH   1  24
ATOM     24  C   UNL A   1      33.509  34.722  30.050  1.00  0.00     0.188 C 
BRANCH  24  25
ATOM     25  O   UNL A   1      34.169  35.231  31.201  1.00  0.00    -0.376 OA
BRANCH  25  26
ATOM     26  C   UNL A   1      34.037  34.577  32.462  1.00  0.00     0.202 C 
BRANCH  26  27
ATOM     27  C   UNL A   1      34.389  33.086  32.597  1.00  0.00     0.261 C 
BRANCH  27  28
ATOM     28  O   UNL A   1      35.649  32.756  31.985  1.00  0.00    -0.460 OA
BRANCH  28  29
ATOM     29  C   UNL A   1      36.580  32.178  32.787  1.00  0.00     0.338 C 
ATOM     30  O   UNL A   1      36.515  32.020  33.983  1.00  0.00    -0.246 OA
BRANCH  29  31
ATOM     31  C   UNL A   1      37.618  31.533  31.938  1.00  0.00     0.060 A 
ATOM     32  C   UNL A   1      38.695  30.917  32.595  1.00  0.00     0.016 A 
ATOM     33  C   UNL A   1      37.508  31.447  30.546  1.00  0.00     0.016 A 
ATOM     34  C   UNL A   1      39.648  30.200  31.869  1.00  0.00     0.010 A 
ATOM     35  C   UNL A   1      38.500  30.786  29.811  1.00  0.00     0.010 A 
ATOM     36  C   UNL A   1      39.588  30.183  30.469  1.00  0.00    -0.014 A 
BRANCH  36  37
ATOM     37  C   UNL A   1      40.828  29.874  29.715  1.00  0.00     0.031 A 
ATOM     38  C   UNL A   1      40.951  28.469  29.185  1.00  0.00     0.074 A 
ATOM     39  C   UNL A   1      41.801  30.773  29.482  1.00  0.00     0.049 A 
ATOM     40  N   UNL A   1      41.908  27.919  28.486  1.00  0.00    -0.248 NA
ATOM     41  C   UNL A   1      39.826  27.563  29.483  1.00  0.00     0.031 C 
ATOM     42  C   UNL A   1      41.792  32.174  29.894  1.00  0.00     0.029 A 
ATOM     43  N   UNL A   1      43.003  30.622  28.829  1.00  0.00    -0.354 N 
ATOM     44  C   UNL A   1      41.485  26.618  28.242  1.00  0.00     0.074 A 
ATOM     45  C   UNL A   1      40.207  26.446  28.891  1.00  0.00     0.031 C 
ATOM     46  C   UNL A   1      42.943  32.752  29.497  1.00  0.00     0.029 A 
ATOM     47  C   UNL A   1      43.777  31.758  28.820  1.00  0.00     0.049 A 
ATOM     48  H   UNL A   1      43.282  29.778  28.407  1.00  0.00     0.167 HD
ATOM     49  C   UNL A   1      42.102  25.643  27.537  1.00  0.00     0.037 A 
ATOM     50  C   UNL A   1      45.020  31.955  28.333  1.00  0.00     0.037 A 
ATOM     51  C   UNL A   1      43.399  25.782  26.942  1.00  0.00     0.049 A 
ATOM     52  C   UNL A   1      45.742  30.815  27.654  1.00  0.00     0.074 A 
ATOM     53  C   UNL A   1      44.126  24.842  26.236  1.00  0.00     0.029 A 
ATOM     54  N   UNL A   1      44.171  26.931  27.005  1.00  0.00    -0.354 N 
ATOM     55  N   UNL A   1      45.323  29.598  27.400  1.00  0.00    -0.248 NA
ATOM     56  C   UNL A   1      47.115  31.078  27.192  1.00  0.00     0.031 C 
ATOM     57  C   UNL A   1      45.364  25.407  25.913  1.00  0.00     0.029 A 
ATOM     58  C   UNL A   1      45.380  26.717  26.370  1.00  0.00     0.049 A 
ATOM     59  H   UNL A   1      43.899  27.772  27.436  1.00  0.00     0.167 HD
ATOM     60  C   UNL A   1      46.360  28.967  26.721  1.00  0.00     0.074 A 
ATOM     61  C   UNL A   1      47.428  29.936  26.597  1.00  0.00     0.031 C 
ATOM     62  C   UNL A   1      46.425  27.700  26.240  1.00  0.00     0.037 A 
BRANCH  49  63
ATOM     63  C   UNL A   1      41.383  24.335  27.424  1.00  0.00     0.057 A 
ATOM     64  C   UNL A   1      41.766  23.218  28.180  1.00  0.00     0.134 A 
ATOM     65  C   UNL A   1      40.314  24.182  26.535  1.00  0.00     0.134 A 
ATOM     66  F   UNL A   1      42.805  23.294  29.026  1.00  0.00    -0.206 F 
ATOM     67  C   UNL A   1      41.125  21.988  28.037  1.00  0.00     0.040 A 
ATOM     68  C   UNL A   1      39.648  22.963  26.402  1.00  0.00     0.040 A 
ATOM     69  F   UNL A   1      39.908  25.210  25.774  1.00  0.00    -0.206 F 
ATOM     70  C   UNL A   1      40.058  21.861  27.149  1.00  0.00     0.006 A 
ENDBRANCH  49  63
BRANCH  50  71
ATOM     71  C   UNL A   1      45.688  33.277  28.471  1.00  0.00     0.057 A 
ATOM     72  C   UNL A   1      46.456  33.590  29.600  1.00  0.00     0.134 A 
ATOM     73  C   UNL A   1      45.520  34.284  27.512  1.00  0.00     0.134 A 
ATOM     74  F   UNL A   1      46.628  32.682  30.572  1.00  0.00    -0.206 F 
ATOM     75  C   UNL A   1      47.014  34.858  29.780  1.00  0.00     0.040 A 
ATOM     76  C   UNL A   1      46.091  35.549  27.669  1.00  0.00     0.040 A 
ATOM     77  F   UNL A   1      44.787  34.056  26.412  1.00  0.00    -0.206 F 
ATOM     78  C   UNL A   1      46.834  35.841  28.810  1.00  0.00     0.006 A 
ENDBRANCH  50  71
BRANCH  62  79
ATOM     79  C   UNL A   1      47.663  27.296  25.495  1.00  0.00     0.057 A 
ATOM     80  C   UNL A   1      48.750  26.688  26.134  1.00  0.00     0.134 A 
ATOM     81  C   UNL A   1      47.735  27.455  24.104  1.00  0.00     0.134 A 
ATOM     82  F   UNL A   1      48.746  26.512  27.464  1.00  0.00    -0.206 F 
ATOM     83  C   UNL A   1      49.873  26.268  25.418  1.00  0.00     0.040 A 
ATOM     84  C   UNL A   1      48.840  27.014  23.375  1.00  0.00     0.040 A 
ATOM     85  F   UNL A   1      46.722  28.016  23.429  1.00  0.00    -0.206 F 
ATOM     86  C   UNL A   1      49.916  26.423  24.033  1.00  0.00     0.006 A 
ENDBRANCH  62  79
ENDBRANCH  36  37
ENDBRANCH  29  31
ENDBRANCH  28  29
ENDBRANCH  27  28
ENDBRANCH  26  27
ENDBRANCH  25  26
ENDBRANCH  24  25
ENDBRANCH   1  24
TORSDOF 20
ENDMDL
