MODEL 1
REMARK VINA RESULT:     -10.5      0.000      0.000
REMARK SMILES O=C(COC1(Cc2ccccc2)CCCCC1)OCCOCCOCCOC(=O)c1ccc(-c2c3nc(c(-c4c(F)cccc4F)c4ccc([nH]4)c(-c4c(F)cccc4F)c4nc(c(-c5c(F)cccc5F)c5ccc2[nH]5)C=C4)C=C3)cc1
REMARK SMILES IDX 22 1 21 2 20 3 19 4 18 5 2 6 1 7 3 8 4 9 5 10 13 11 17 12
REMARK SMILES IDX 14 13 16 14 15 15 6 16 7 17 8 18 12 19 9 20 11 21 10 22
REMARK SMILES IDX 23 23 24 24 25 25 26 26 27 27 28 28 29 29 30 30 31 31 83 32
REMARK SMILES IDX 32 33 82 34 33 35 34 36 35 37 76 38 36 39 81 40 75 41 77 42
REMARK SMILES IDX 37 43 80 44 74 45 73 46 38 48 64 49 47 50 63 51 48 52 51 53
REMARK SMILES IDX 62 54 78 55 49 56 50 57 61 59 79 60 52 61 39 62 40 63 45 64
REMARK SMILES IDX 41 65 42 66 44 67 46 68 43 69 65 70 66 71 71 72 67 73 68 74
REMARK SMILES IDX 70 75 72 76 69 77 53 78 54 79 59 80 55 81 56 82 58 83 60 84
REMARK SMILES IDX 57 85
REMARK H PARENT 77 47 51 58
REMARK Flexibility Score: inf
ROOT
ATOM      1  C   UNL A   1      33.551  23.567  25.456  1.00  0.00     0.188 C 
ENDROOT
BRANCH   1   2
ATOM      2  O   UNL A   1      34.372  24.363  24.609  1.00  0.00    -0.376 OA
BRANCH   2   3
ATOM      3  C   UNL A   1      34.574  23.822  23.309  1.00  0.00     0.202 C 
BRANCH   3   4
ATOM      4  C   UNL A   1      33.218  23.501  22.675  1.00  0.00     0.261 C 
BRANCH   4   5
ATOM      5  O   UNL A   1      33.017  24.082  21.368  1.00  0.00    -0.462 OA
BRANCH   5   6
ATOM      6  C   UNL A   1      32.659  25.358  21.128  1.00  0.00     0.332 C 
ATOM      7  O   UNL A   1      33.223  26.016  20.254  1.00  0.00    -0.250 OA
BRANCH   6   8
ATOM      8  C   UNL A   1      31.545  25.970  21.963  1.00  0.00     0.283 C 
BRANCH   8   9
ATOM      9  O   UNL A   1      31.553  27.349  22.254  1.00  0.00    -0.363 OA
BRANCH   9  10
ATOM     10  C   UNL A   1      30.943  27.768  23.493  1.00  0.00     0.073 C 
ATOM     11  C   UNL A   1      31.254  26.679  24.548  1.00  0.00     0.036 C 
ATOM     12  C   UNL A   1      31.694  29.060  23.895  1.00  0.00     0.036 C 
ATOM     13  C   UNL A   1      30.988  27.109  25.985  1.00  0.00     0.003 C 
ATOM     14  C   UNL A   1      31.393  29.516  25.321  1.00  0.00     0.003 C 
ATOM     15  C   UNL A   1      31.694  28.413  26.329  1.00  0.00     0.000 C 
BRANCH  10  16
ATOM     16  C   UNL A   1      29.398  28.025  23.401  1.00  0.00     0.071 C 
BRANCH  16  17
ATOM     17  C   UNL A   1      28.880  29.367  22.914  1.00  0.00    -0.045 A 
ATOM     18  C   UNL A   1      29.269  29.818  21.641  1.00  0.00     0.004 A 
ATOM     19  C   UNL A   1      28.121  30.232  23.706  1.00  0.00     0.004 A 
ATOM     20  C   UNL A   1      28.915  31.092  21.183  1.00  0.00     0.000 A 
ATOM     21  C   UNL A   1      27.791  31.507  23.258  1.00  0.00     0.000 A 
ATOM     22  C   UNL A   1      28.184  31.945  21.999  1.00  0.00     0.000 A 
ENDBRANCH  16  17
ENDBRANCH  10  16
ENDBRANCH   9  10
ENDBRANCH   8   9
ENDBRANCH   6   8
ENDBRANCH   5   6
ENDBRANCH   4   5
ENDBRANCH   3   4
ENDBRANCH   2   3
ENDBRANCH   1   2
BRANCH   1  23
ATOM     23  C   UNL A   1      34.315  23.037  26.675  1.00  0.00     0.188 C 
BRANCH  23  24
ATOM     24  O   UNL A   1      35.323  22.050  26.500  1.00  0.00    -0.376 OA
BRANCH  24  25
ATOM     25  C   UNL A   1      35.125  21.017  25.550  1.00  0.00     0.202 C 
BRANCH  25  26
ATOM     26  C   UNL A   1      36.387  20.377  24.970  1.00  0.00     0.261 C 
BRANCH  26  27
ATOM     27  O   UNL A   1      37.511  21.271  24.844  1.00  0.00    -0.460 OA
BRANCH  27  28
ATOM     28  C   UNL A   1      38.585  20.954  25.607  1.00  0.00     0.338 C 
ATOM     29  O   UNL A   1      39.102  19.861  25.747  1.00  0.00    -0.246 OA
BRANCH  28  30
ATOM     30  C   UNL A   1      39.113  22.154  26.280  1.00  0.00     0.060 A 
ATOM     31  C   UNL A   1      38.538  23.402  26.014  1.00  0.00     0.016 A 
ATOM     32  C   UNL A   1      40.291  22.063  27.025  1.00  0.00     0.016 A 
ATOM     33  C   UNL A   1      39.163  24.568  26.469  1.00  0.00     0.010 A 
ATOM     34  C   UNL A   1      40.925  23.232  27.462  1.00  0.00     0.010 A 
ATOM     35  C   UNL A   1      40.382  24.493  27.162  1.00  0.00    -0.014 A 
BRANCH  35  36
ATOM     36  C   UNL A   1      41.136  25.726  27.504  1.00  0.00     0.031 A 
ATOM     37  C   UNL A   1      40.543  26.729  28.450  1.00  0.00     0.074 A 
ATOM     38  C   UNL A   1      42.329  25.978  26.938  1.00  0.00     0.049 A 
ATOM     39  N   UNL A   1      41.008  27.901  28.801  1.00  0.00    -0.248 NA
ATOM     40  C   UNL A   1      39.239  26.394  29.041  1.00  0.00     0.031 C 
ATOM     41  C   UNL A   1      42.977  25.117  25.958  1.00  0.00     0.029 A 
ATOM     42  N   UNL A   1      43.218  27.009  27.117  1.00  0.00    -0.354 N 
ATOM     43  C   UNL A   1      40.011  28.486  29.569  1.00  0.00     0.074 A 
ATOM     44  C   UNL A   1      38.948  27.510  29.695  1.00  0.00     0.031 C 
ATOM     45  C   UNL A   1      44.201  25.605  25.692  1.00  0.00     0.029 A 
ATOM     46  C   UNL A   1      44.407  26.832  26.451  1.00  0.00     0.049 A 
ATOM     47  H   UNL A   1      43.022  27.800  27.672  1.00  0.00     0.167 HD
ATOM     48  C   UNL A   1      39.968  29.744  30.066  1.00  0.00     0.037 A 
ATOM     49  C   UNL A   1      45.535  27.569  26.463  1.00  0.00     0.037 A 
ATOM     50  C   UNL A   1      41.039  30.701  29.963  1.00  0.00     0.049 A 
ATOM     51  C   UNL A   1      45.526  28.896  27.171  1.00  0.00     0.074 A 
ATOM     52  C   UNL A   1      41.087  31.996  30.452  1.00  0.00     0.029 A 
ATOM     53  N   UNL A   1      42.251  30.468  29.333  1.00  0.00    -0.354 N 
ATOM     54  N   UNL A   1      44.575  29.440  27.891  1.00  0.00    -0.248 NA
ATOM     55  C   UNL A   1      46.718  29.743  27.010  1.00  0.00     0.031 C 
ATOM     56  C   UNL A   1      42.313  32.560  30.082  1.00  0.00     0.029 A 
ATOM     57  C   UNL A   1      43.044  31.603  29.399  1.00  0.00     0.049 A 
ATOM     58  H   UNL A   1      42.510  29.621  28.902  1.00  0.00     0.167 HD
ATOM     59  C   UNL A   1      45.029  30.710  28.217  1.00  0.00     0.074 A 
ATOM     60  C   UNL A   1      46.373  30.827  27.692  1.00  0.00     0.031 C 
ATOM     61  C   UNL A   1      44.369  31.710  28.850  1.00  0.00     0.037 A 
BRANCH  48  62
ATOM     62  C   UNL A   1      38.681  30.198  30.684  1.00  0.00     0.057 A 
ATOM     63  C   UNL A   1      37.657  30.792  29.943  1.00  0.00     0.134 A 
ATOM     64  C   UNL A   1      38.456  29.985  32.052  1.00  0.00     0.134 A 
ATOM     65  F   UNL A   1      37.818  31.036  28.634  1.00  0.00    -0.206 F 
ATOM     66  C   UNL A   1      36.453  31.170  30.542  1.00  0.00     0.040 A 
ATOM     67  C   UNL A   1      37.251  30.339  32.658  1.00  0.00     0.040 A 
ATOM     68  F   UNL A   1      39.401  29.418  32.818  1.00  0.00    -0.206 F 
ATOM     69  C   UNL A   1      36.246  30.936  31.901  1.00  0.00     0.006 A 
ENDBRANCH  48  62
BRANCH  49  70
ATOM     70  C   UNL A   1      46.772  27.089  25.793  1.00  0.00     0.057 A 
ATOM     71  C   UNL A   1      47.699  26.309  26.499  1.00  0.00     0.134 A 
ATOM     72  C   UNL A   1      47.082  27.405  24.466  1.00  0.00     0.134 A 
ATOM     73  F   UNL A   1      47.475  25.993  27.783  1.00  0.00    -0.206 F 
ATOM     74  C   UNL A   1      48.892  25.877  25.917  1.00  0.00     0.040 A 
ATOM     75  C   UNL A   1      48.256  26.953  23.860  1.00  0.00     0.040 A 
ATOM     76  F   UNL A   1      46.243  28.150  23.733  1.00  0.00    -0.206 F 
ATOM     77  C   UNL A   1      49.170  26.194  24.590  1.00  0.00     0.006 A 
ENDBRANCH  49  70
BRANCH  61  78
ATOM     78  C   UNL A   1      45.067  33.034  28.945  1.00  0.00     0.057 A 
ATOM     79  C   UNL A   1      44.877  34.020  27.966  1.00  0.00     0.134 A 
ATOM     80  C   UNL A   1      45.884  33.349  30.034  1.00  0.00     0.134 A 
ATOM     81  F   UNL A   1      44.113  33.774  26.892  1.00  0.00    -0.206 F 
ATOM     82  C   UNL A   1      45.489  35.269  28.063  1.00  0.00     0.040 A 
ATOM     83  C   UNL A   1      46.486  34.603  30.153  1.00  0.00     0.040 A 
ATOM     84  F   UNL A   1      46.099  32.451  31.007  1.00  0.00    -0.206 F 
ATOM     85  C   UNL A   1      46.291  35.567  29.164  1.00  0.00     0.006 A 
ENDBRANCH  61  78
ENDBRANCH  35  36
ENDBRANCH  28  30
ENDBRANCH  27  28
ENDBRANCH  26  27
ENDBRANCH  25  26
ENDBRANCH  24  25
ENDBRANCH  23  24
ENDBRANCH   1  23
TORSDOF 21
ENDMDL
MODEL 2
REMARK VINA RESULT:     -10.5      4.238      6.681
REMARK SMILES O=C(COC1(Cc2ccccc2)CCCCC1)OCCOCCOCCOC(=O)c1ccc(-c2c3nc(c(-c4c(F)cccc4F)c4ccc([nH]4)c(-c4c(F)cccc4F)c4nc(c(-c5c(F)cccc5F)c5ccc2[nH]5)C=C4)C=C3)cc1
REMARK SMILES IDX 22 1 21 2 20 3 19 4 18 5 2 6 1 7 3 8 4 9 5 10 13 11 17 12
REMARK SMILES IDX 14 13 16 14 15 15 6 16 7 17 8 18 12 19 9 20 11 21 10 22
REMARK SMILES IDX 23 23 24 24 25 25 26 26 27 27 28 28 29 29 30 30 31 31 83 32
REMARK SMILES IDX 32 33 82 34 33 35 34 36 35 37 76 38 36 39 81 40 75 41 77 42
REMARK SMILES IDX 37 43 80 44 74 45 73 46 38 48 64 49 47 50 63 51 48 52 51 53
REMARK SMILES IDX 62 54 78 55 49 56 50 57 61 59 79 60 52 61 39 62 40 63 45 64
REMARK SMILES IDX 41 65 42 66 44 67 46 68 43 69 65 70 66 71 71 72 67 73 68 74
REMARK SMILES IDX 70 75 72 76 69 77 53 78 54 79 59 80 55 81 56 82 58 83 60 84
REMARK SMILES IDX 57 85
REMARK H PARENT 77 47 51 58
REMARK Flexibility Score: inf
ROOT
ATOM      1  C   UNL A   1      35.581  21.215  25.213  1.00  0.00     0.188 C 
ENDROOT
BRANCH   1   2
ATOM      2  O   UNL A   1      35.281  21.647  26.535  1.00  0.00    -0.376 OA
BRANCH   2   3
ATOM      3  C   UNL A   1      33.894  21.822  26.795  1.00  0.00     0.202 C 
BRANCH   3   4
ATOM      4  C   UNL A   1      33.200  22.336  25.531  1.00  0.00     0.261 C 
BRANCH   4   5
ATOM      5  O   UNL A   1      31.832  22.756  25.728  1.00  0.00    -0.462 OA
BRANCH   5   6
ATOM      6  C   UNL A   1      31.439  23.817  26.460  1.00  0.00     0.332 C 
ATOM      7  O   UNL A   1      30.526  23.714  27.278  1.00  0.00    -0.250 OA
BRANCH   6   8
ATOM      8  C   UNL A   1      32.147  25.146  26.250  1.00  0.00     0.283 C 
BRANCH   8   9
ATOM      9  O   UNL A   1      31.508  26.353  26.599  1.00  0.00    -0.363 OA
BRANCH   9  10
ATOM     10  C   UNL A   1      32.136  27.582  26.178  1.00  0.00     0.073 C 
ATOM     11  C   UNL A   1      31.497  28.728  26.998  1.00  0.00     0.036 C 
ATOM     12  C   UNL A   1      33.617  27.447  26.609  1.00  0.00     0.036 C 
ATOM     13  C   UNL A   1      32.265  30.042  26.939  1.00  0.00     0.003 C 
ATOM     14  C   UNL A   1      34.399  28.753  26.508  1.00  0.00     0.003 C 
ATOM     15  C   UNL A   1      33.730  29.861  27.313  1.00  0.00     0.000 C 
BRANCH  10  16
ATOM     16  C   UNL A   1      32.027  27.873  24.641  1.00  0.00     0.071 C 
BRANCH  16  17
ATOM     17  C   UNL A   1      30.668  28.125  24.011  1.00  0.00    -0.045 A 
ATOM     18  C   UNL A   1      30.342  29.432  23.611  1.00  0.00     0.004 A 
ATOM     19  C   UNL A   1      29.676  27.147  23.904  1.00  0.00     0.004 A 
ATOM     20  C   UNL A   1      29.068  29.747  23.127  1.00  0.00     0.000 A 
ATOM     21  C   UNL A   1      28.402  27.468  23.446  1.00  0.00     0.000 A 
ATOM     22  C   UNL A   1      28.089  28.764  23.057  1.00  0.00     0.000 A 
ENDBRANCH  16  17
ENDBRANCH  10  16
ENDBRANCH   9  10
ENDBRANCH   8   9
ENDBRANCH   6   8
ENDBRANCH   5   6
ENDBRANCH   4   5
ENDBRANCH   3   4
ENDBRANCH   2   3
ENDBRANCH   1   2
BRANCH   1  23
ATOM     23  C   UNL A   1      36.837  21.891  24.652  1.00  0.00     0.188 C 
BRANCH  23  24
ATOM     24  O   UNL A   1      38.118  21.518  25.143  1.00  0.00    -0.376 OA
BRANCH  24  25
ATOM     25  C   UNL A   1      38.751  22.331  26.117  1.00  0.00     0.202 C 
BRANCH  25  26
ATOM     26  C   UNL A   1      40.218  22.016  26.414  1.00  0.00     0.261 C 
BRANCH  26  27
ATOM     27  O   UNL A   1      40.880  22.977  27.260  1.00  0.00    -0.460 OA
BRANCH  27  28
ATOM     28  C   UNL A   1      41.252  24.125  26.643  1.00  0.00     0.338 C 
ATOM     29  O   UNL A   1      41.815  24.245  25.570  1.00  0.00    -0.246 OA
BRANCH  28  30
ATOM     30  C   UNL A   1      40.862  25.295  27.450  1.00  0.00     0.060 A 
ATOM     31  C   UNL A   1      41.705  26.412  27.497  1.00  0.00     0.016 A 
ATOM     32  C   UNL A   1      39.759  25.207  28.302  1.00  0.00     0.016 A 
ATOM     33  C   UNL A   1      41.461  27.431  28.424  1.00  0.00     0.010 A 
ATOM     34  C   UNL A   1      39.527  26.218  29.242  1.00  0.00     0.010 A 
ATOM     35  C   UNL A   1      40.393  27.322  29.329  1.00  0.00    -0.014 A 
BRANCH  35  36
ATOM     36  C   UNL A   1      40.222  28.313  30.422  1.00  0.00     0.031 A 
ATOM     37  C   UNL A   1      39.109  29.317  30.357  1.00  0.00     0.074 A 
ATOM     38  C   UNL A   1      41.086  28.351  31.452  1.00  0.00     0.049 A 
ATOM     39  N   UNL A   1      38.852  30.312  31.168  1.00  0.00    -0.248 NA
ATOM     40  C   UNL A   1      38.195  29.219  29.210  1.00  0.00     0.031 C 
ATOM     41  C   UNL A   1      42.243  27.478  31.594  1.00  0.00     0.029 A 
ATOM     42  N   UNL A   1      41.118  29.134  32.579  1.00  0.00    -0.354 N 
ATOM     43  C   UNL A   1      37.815  31.020  30.576  1.00  0.00     0.074 A 
ATOM     44  C   UNL A   1      37.439  30.296  29.379  1.00  0.00     0.031 C 
ATOM     45  C   UNL A   1      42.817  27.706  32.787  1.00  0.00     0.029 A 
ATOM     46  C   UNL A   1      42.095  28.770  33.475  1.00  0.00     0.049 A 
ATOM     47  H   UNL A   1      40.499  29.886  32.732  1.00  0.00     0.167 HD
ATOM     48  C   UNL A   1      37.273  32.196  30.971  1.00  0.00     0.037 A 
ATOM     49  C   UNL A   1      42.365  29.231  34.712  1.00  0.00     0.037 A 
ATOM     50  C   UNL A   1      37.630  32.896  32.178  1.00  0.00     0.049 A 
ATOM     51  C   UNL A   1      41.628  30.445  35.209  1.00  0.00     0.074 A 
ATOM     52  C   UNL A   1      37.120  34.088  32.664  1.00  0.00     0.029 A 
ATOM     53  N   UNL A   1      38.580  32.467  33.090  1.00  0.00    -0.354 N 
ATOM     54  N   UNL A   1      40.651  31.107  34.639  1.00  0.00    -0.248 NA
ATOM     55  C   UNL A   1      42.078  31.018  36.487  1.00  0.00     0.031 C 
ATOM     56  C   UNL A   1      37.792  34.402  33.851  1.00  0.00     0.029 A 
ATOM     57  C   UNL A   1      38.690  33.383  34.124  1.00  0.00     0.049 A 
ATOM     58  H   UNL A   1      39.101  31.635  33.015  1.00  0.00     0.167 HD
ATOM     59  C   UNL A   1      40.411  32.203  35.456  1.00  0.00     0.074 A 
ATOM     60  C   UNL A   1      41.283  32.072  36.604  1.00  0.00     0.031 C 
ATOM     61  C   UNL A   1      39.580  33.251  35.246  1.00  0.00     0.037 A 
BRANCH  48  62
ATOM     62  C   UNL A   1      36.305  32.856  30.039  1.00  0.00     0.057 A 
ATOM     63  C   UNL A   1      36.710  33.525  28.881  1.00  0.00     0.134 A 
ATOM     64  C   UNL A   1      34.929  32.772  30.294  1.00  0.00     0.134 A 
ATOM     65  F   UNL A   1      38.013  33.654  28.589  1.00  0.00    -0.206 F 
ATOM     66  C   UNL A   1      35.778  34.098  28.011  1.00  0.00     0.040 A 
ATOM     67  C   UNL A   1      33.988  33.322  29.424  1.00  0.00     0.040 A 
ATOM     68  F   UNL A   1      34.477  32.141  31.390  1.00  0.00    -0.206 F 
ATOM     69  C   UNL A   1      34.414  33.990  28.279  1.00  0.00     0.006 A 
ENDBRANCH  48  62
BRANCH  49  70
ATOM     70  C   UNL A   1      43.371  28.562  35.578  1.00  0.00     0.057 A 
ATOM     71  C   UNL A   1      42.976  27.549  36.464  1.00  0.00     0.134 A 
ATOM     72  C   UNL A   1      44.724  28.917  35.575  1.00  0.00     0.134 A 
ATOM     73  F   UNL A   1      41.689  27.180  36.535  1.00  0.00    -0.206 F 
ATOM     74  C   UNL A   1      43.885  26.928  37.323  1.00  0.00     0.040 A 
ATOM     75  C   UNL A   1      45.650  28.283  36.406  1.00  0.00     0.040 A 
ATOM     76  F   UNL A   1      45.171  29.879  34.755  1.00  0.00    -0.206 F 
ATOM     77  C   UNL A   1      45.229  27.291  37.290  1.00  0.00     0.006 A 
ENDBRANCH  49  70
BRANCH  61  78
ATOM     78  C   UNL A   1      39.627  34.369  36.245  1.00  0.00     0.057 A 
ATOM     79  C   UNL A   1      38.944  34.274  37.465  1.00  0.00     0.134 A 
ATOM     80  C   UNL A   1      40.396  35.515  36.018  1.00  0.00     0.134 A 
ATOM     81  F   UNL A   1      38.181  33.205  37.736  1.00  0.00    -0.206 F 
ATOM     82  C   UNL A   1      39.011  35.289  38.419  1.00  0.00     0.040 A 
ATOM     83  C   UNL A   1      40.489  36.528  36.973  1.00  0.00     0.040 A 
ATOM     84  F   UNL A   1      41.080  35.661  34.873  1.00  0.00    -0.206 F 
ATOM     85  C   UNL A   1      39.793  36.418  38.177  1.00  0.00     0.006 A 
ENDBRANCH  61  78
ENDBRANCH  35  36
ENDBRANCH  28  30
ENDBRANCH  27  28
ENDBRANCH  26  27
ENDBRANCH  25  26
ENDBRANCH  24  25
ENDBRANCH  23  24
ENDBRANCH   1  23
TORSDOF 21
ENDMDL
MODEL 3
REMARK VINA RESULT:     -10.4      3.874      7.898
REMARK SMILES O=C(COC1(Cc2ccccc2)CCCCC1)OCCOCCOCCOC(=O)c1ccc(-c2c3nc(c(-c4c(F)cccc4F)c4ccc([nH]4)c(-c4c(F)cccc4F)c4nc(c(-c5c(F)cccc5F)c5ccc2[nH]5)C=C4)C=C3)cc1
REMARK SMILES IDX 22 1 21 2 20 3 19 4 18 5 2 6 1 7 3 8 4 9 5 10 13 11 17 12
REMARK SMILES IDX 14 13 16 14 15 15 6 16 7 17 8 18 12 19 9 20 11 21 10 22
REMARK SMILES IDX 23 23 24 24 25 25 26 26 27 27 28 28 29 29 30 30 31 31 83 32
REMARK SMILES IDX 32 33 82 34 33 35 34 36 35 37 76 38 36 39 81 40 75 41 77 42
REMARK SMILES IDX 37 43 80 44 74 45 73 46 38 48 64 49 47 50 63 51 48 52 51 53
REMARK SMILES IDX 62 54 78 55 49 56 50 57 61 59 79 60 52 61 39 62 40 63 45 64
REMARK SMILES IDX 41 65 42 66 44 67 46 68 43 69 65 70 66 71 71 72 67 73 68 74
REMARK SMILES IDX 70 75 72 76 69 77 53 78 54 79 59 80 55 81 56 82 58 83 60 84
REMARK SMILES IDX 57 85
REMARK H PARENT 77 47 51 58
REMARK Flexibility Score: inf
ROOT
ATOM      1  C   UNL A   1      33.582  28.955  25.711  1.00  0.00     0.188 C 
ENDROOT
BRANCH   1   2
ATOM      2  O   UNL A   1      33.548  28.025  24.635  1.00  0.00    -0.376 OA
BRANCH   2   3
ATOM      3  C   UNL A   1      33.309  28.609  23.361  1.00  0.00     0.202 C 
BRANCH   3   4
ATOM      4  C   UNL A   1      32.054  27.988  22.744  1.00  0.00     0.261 C 
BRANCH   4   5
ATOM      5  O   UNL A   1      32.075  26.546  22.667  1.00  0.00    -0.462 OA
BRANCH   5   6
ATOM      6  C   UNL A   1      33.069  25.808  22.136  1.00  0.00     0.332 C 
ATOM      7  O   UNL A   1      33.227  25.749  20.918  1.00  0.00    -0.250 OA
BRANCH   6   8
ATOM      8  C   UNL A   1      33.990  25.045  23.076  1.00  0.00     0.283 C 
BRANCH   8   9
ATOM      9  O   UNL A   1      33.585  23.808  23.616  1.00  0.00    -0.363 OA
BRANCH   9  10
ATOM     10  C   UNL A   1      34.542  23.095  24.428  1.00  0.00     0.073 C 
ATOM     11  C   UNL A   1      35.671  22.610  23.486  1.00  0.00     0.036 C 
ATOM     12  C   UNL A   1      35.133  24.158  25.384  1.00  0.00     0.036 C 
ATOM     13  C   UNL A   1      36.928  22.141  24.209  1.00  0.00     0.003 C 
ATOM     14  C   UNL A   1      36.367  23.674  26.141  1.00  0.00     0.003 C 
ATOM     15  C   UNL A   1      37.448  23.189  25.183  1.00  0.00     0.000 C 
BRANCH  10  16
ATOM     16  C   UNL A   1      33.939  21.892  25.234  1.00  0.00     0.071 C 
BRANCH  16  17
ATOM     17  C   UNL A   1      33.676  20.568  24.538  1.00  0.00    -0.045 A 
ATOM     18  C   UNL A   1      32.552  20.458  23.701  1.00  0.00     0.004 A 
ATOM     19  C   UNL A   1      34.430  19.415  24.767  1.00  0.00     0.004 A 
ATOM     20  C   UNL A   1      32.196  19.236  23.121  1.00  0.00     0.000 A 
ATOM     21  C   UNL A   1      34.060  18.196  24.208  1.00  0.00     0.000 A 
ATOM     22  C   UNL A   1      32.945  18.097  23.386  1.00  0.00     0.000 A 
ENDBRANCH  16  17
ENDBRANCH  10  16
ENDBRANCH   9  10
ENDBRANCH   8   9
ENDBRANCH   6   8
ENDBRANCH   5   6
ENDBRANCH   4   5
ENDBRANCH   3   4
ENDBRANCH   2   3
ENDBRANCH   1   2
BRANCH   1  23
ATOM     23  C   UNL A   1      32.400  28.777  26.670  1.00  0.00     0.188 C 
BRANCH  23  24
ATOM     24  O   UNL A   1      31.620  29.905  27.045  1.00  0.00    -0.376 OA
BRANCH  24  25
ATOM     25  C   UNL A   1      31.561  31.026  26.178  1.00  0.00     0.202 C 
BRANCH  25  26
ATOM     26  C   UNL A   1      31.400  32.392  26.845  1.00  0.00     0.261 C 
BRANCH  26  27
ATOM     27  O   UNL A   1      32.543  33.261  26.722  1.00  0.00    -0.460 OA
BRANCH  27  28
ATOM     28  C   UNL A   1      33.055  33.706  27.895  1.00  0.00     0.338 C 
ATOM     29  O   UNL A   1      32.598  34.561  28.631  1.00  0.00    -0.246 OA
BRANCH  28  30
ATOM     30  C   UNL A   1      34.299  32.985  28.223  1.00  0.00     0.060 A 
ATOM     31  C   UNL A   1      34.264  31.596  28.395  1.00  0.00     0.016 A 
ATOM     32  C   UNL A   1      35.450  33.708  28.542  1.00  0.00     0.016 A 
ATOM     33  C   UNL A   1      35.379  30.932  28.919  1.00  0.00     0.010 A 
ATOM     34  C   UNL A   1      36.557  33.044  29.084  1.00  0.00     0.010 A 
ATOM     35  C   UNL A   1      36.518  31.657  29.303  1.00  0.00    -0.014 A 
BRANCH  35  36
ATOM     36  C   UNL A   1      37.639  30.987  30.012  1.00  0.00     0.031 A 
ATOM     37  C   UNL A   1      37.803  31.165  31.493  1.00  0.00     0.074 A 
ATOM     38  C   UNL A   1      38.539  30.256  29.331  1.00  0.00     0.049 A 
ATOM     39  N   UNL A   1      38.764  30.734  32.269  1.00  0.00    -0.248 NA
ATOM     40  C   UNL A   1      36.784  31.971  32.181  1.00  0.00     0.031 C 
ATOM     41  C   UNL A   1      38.526  30.063  27.887  1.00  0.00     0.029 A 
ATOM     42  N   UNL A   1      39.619  29.523  29.757  1.00  0.00    -0.354 N 
ATOM     43  C   UNL A   1      38.523  31.300  33.514  1.00  0.00     0.074 A 
ATOM     44  C   UNL A   1      37.284  32.042  33.407  1.00  0.00     0.031 C 
ATOM     45  C   UNL A   1      39.492  29.189  27.556  1.00  0.00     0.029 A 
ATOM     46  C   UNL A   1      40.216  28.792  28.757  1.00  0.00     0.049 A 
ATOM     47  H   UNL A   1      39.936  29.521  30.690  1.00  0.00     0.167 HD
ATOM     48  C   UNL A   1      39.300  31.249  34.621  1.00  0.00     0.037 A 
ATOM     49  C   UNL A   1      41.222  27.896  28.809  1.00  0.00     0.037 A 
ATOM     50  C   UNL A   1      40.517  30.485  34.731  1.00  0.00     0.049 A 
ATOM     51  C   UNL A   1      41.972  27.723  30.101  1.00  0.00     0.074 A 
ATOM     52  C   UNL A   1      41.361  30.364  35.822  1.00  0.00     0.029 A 
ATOM     53  N   UNL A   1      41.059  29.710  33.719  1.00  0.00    -0.354 N 
ATOM     54  N   UNL A   1      41.736  28.266  31.270  1.00  0.00    -0.248 NA
ATOM     55  C   UNL A   1      43.169  26.870  30.065  1.00  0.00     0.031 C 
ATOM     56  C   UNL A   1      42.437  29.548  35.456  1.00  0.00     0.029 A 
ATOM     57  C   UNL A   1      42.240  29.127  34.151  1.00  0.00     0.049 A 
ATOM     58  H   UNL A   1      40.664  29.591  32.825  1.00  0.00     0.167 HD
ATOM     59  C   UNL A   1      42.783  27.869  32.089  1.00  0.00     0.074 A 
ATOM     60  C   UNL A   1      43.610  26.971  31.311  1.00  0.00     0.031 C 
ATOM     61  C   UNL A   1      43.064  28.256  33.357  1.00  0.00     0.037 A 
BRANCH  48  62
ATOM     62  C   UNL A   1      38.915  32.121  35.775  1.00  0.00     0.057 A 
ATOM     63  C   UNL A   1      38.159  31.653  36.854  1.00  0.00     0.134 A 
ATOM     64  C   UNL A   1      39.358  33.450  35.819  1.00  0.00     0.134 A 
ATOM     65  F   UNL A   1      37.693  30.396  36.864  1.00  0.00    -0.206 F 
ATOM     66  C   UNL A   1      37.848  32.482  37.935  1.00  0.00     0.040 A 
ATOM     67  C   UNL A   1      39.072  34.282  36.902  1.00  0.00     0.040 A 
ATOM     68  F   UNL A   1      40.088  33.958  34.814  1.00  0.00    -0.206 F 
ATOM     69  C   UNL A   1      38.312  33.797  37.963  1.00  0.00     0.006 A 
ENDBRANCH  48  62
BRANCH  49  70
ATOM     70  C   UNL A   1      41.592  27.089  27.617  1.00  0.00     0.057 A 
ATOM     71  C   UNL A   1      42.473  27.611  26.658  1.00  0.00     0.134 A 
ATOM     72  C   UNL A   1      41.074  25.811  27.381  1.00  0.00     0.134 A 
ATOM     73  F   UNL A   1      42.985  28.841  26.812  1.00  0.00    -0.206 F 
ATOM     74  C   UNL A   1      42.809  26.900  25.505  1.00  0.00     0.040 A 
ATOM     75  C   UNL A   1      41.427  25.076  26.247  1.00  0.00     0.040 A 
ATOM     76  F   UNL A   1      40.224  25.253  28.254  1.00  0.00    -0.206 F 
ATOM     77  C   UNL A   1      42.290  25.624  25.300  1.00  0.00     0.006 A 
ENDBRANCH  49  70
BRANCH  61  78
ATOM     78  C   UNL A   1      44.349  27.765  33.951  1.00  0.00     0.057 A 
ATOM     79  C   UNL A   1      45.526  28.521  33.848  1.00  0.00     0.134 A 
ATOM     80  C   UNL A   1      44.408  26.569  34.671  1.00  0.00     0.134 A 
ATOM     81  F   UNL A   1      45.536  29.673  33.160  1.00  0.00    -0.206 F 
ATOM     82  C   UNL A   1      46.719  28.095  34.429  1.00  0.00     0.040 A 
ATOM     83  C   UNL A   1      45.591  26.141  35.275  1.00  0.00     0.040 A 
ATOM     84  F   UNL A   1      43.315  25.804  34.812  1.00  0.00    -0.206 F 
ATOM     85  C   UNL A   1      46.753  26.904  35.153  1.00  0.00     0.006 A 
ENDBRANCH  61  78
ENDBRANCH  35  36
ENDBRANCH  28  30
ENDBRANCH  27  28
ENDBRANCH  26  27
ENDBRANCH  25  26
ENDBRANCH  24  25
ENDBRANCH  23  24
ENDBRANCH   1  23
TORSDOF 21
ENDMDL
