MODEL 1
REMARK VINA RESULT:     -12.4      0.000      0.000
REMARK SMILES O=C(OCCOCCOCCOC(=O)c1ccc(-c2c3nc(c(-c4c(F)cccc4F)c4ccc([nH]4)c(-c4c(F)cccc4F)c4nc(c(-c5c(F)cccc5F)c5ccc2[nH]5)C=C4)C=C3)cc1)c1ccc(NC(=O)[C@@H]2CC=CC[C@H]2C(=O)Nc2cccc([N+](=O)[O-])c2)cc1
REMARK SMILES IDX 6 1 5 2 4 3 3 4 2 5 1 6 69 7 70 8 95 9 71 10 94 11 72 12
REMARK SMILES IDX 73 13 74 14 75 16 76 17 77 18 81 19 78 20 80 21 79 22 82 23
REMARK SMILES IDX 83 24 84 25 85 27 86 28 93 29 87 30 89 31 88 32 90 33 91 34
REMARK SMILES IDX 92 35 7 36 8 37 9 38 10 39 11 40 12 41 13 42 14 43 15 44
REMARK SMILES IDX 16 45 68 46 17 47 67 48 18 49 19 50 20 51 61 52 21 53 66 54
REMARK SMILES IDX 60 55 62 56 22 57 65 58 59 59 58 60 23 62 49 63 32 64 48 65
REMARK SMILES IDX 33 66 36 67 47 68 63 69 34 70 35 71 46 73 64 74 37 75 24 76
REMARK SMILES IDX 25 77 30 78 26 79 27 80 29 81 31 82 28 83 50 84 51 85 56 86
REMARK SMILES IDX 52 87 53 88 55 89 57 90 54 91 38 92 39 93 44 94 40 95 41 96
REMARK SMILES IDX 43 97 45 98 42 99
REMARK H PARENT 73 15 84 26 62 61 36 72
REMARK Flexibility Score: inf
ROOT
ATOM      1  O   UNL A   1      34.671  31.487  27.257  1.00  0.00    -0.376 OA
ENDROOT
BRANCH   1   2
ATOM      2  C   UNL A   1      33.312  31.175  27.556  1.00  0.00     0.202 C 
BRANCH   2   3
ATOM      3  C   UNL A   1      32.551  30.447  26.440  1.00  0.00     0.261 C 
BRANCH   3   4
ATOM      4  O   UNL A   1      31.529  29.533  26.875  1.00  0.00    -0.460 OA
BRANCH   4   5
ATOM      5  C   UNL A   1      31.529  28.192  27.043  1.00  0.00     0.338 C 
ATOM      6  O   UNL A   1      31.523  27.762  28.198  1.00  0.00    -0.246 OA
BRANCH   5   7
ATOM      7  C   UNL A   1      31.578  27.182  25.937  1.00  0.00     0.060 A 
ATOM      8  C   UNL A   1      32.343  27.268  24.779  1.00  0.00     0.018 A 
ATOM      9  C   UNL A   1      30.765  26.039  26.084  1.00  0.00     0.018 A 
ATOM     10  C   UNL A   1      32.395  26.210  23.865  1.00  0.00     0.027 A 
ATOM     11  C   UNL A   1      30.797  24.989  25.156  1.00  0.00     0.027 A 
ATOM     12  C   UNL A   1      31.683  25.038  24.083  1.00  0.00     0.041 A 
BRANCH  12  13
ATOM     13  N   UNL A   1      31.818  23.893  23.293  1.00  0.00    -0.326 N 
ATOM     14  C   UNL A   1      32.848  23.027  23.091  1.00  0.00     0.228 C 
ATOM     15  H   UNL A   1      31.007  23.668  22.781  1.00  0.00     0.169 HD
ATOM     16  O   UNL A   1      32.693  22.181  22.201  1.00  0.00    -0.274 OA
BRANCH  14  17
ATOM     17  C   UNL A   1      34.140  22.980  23.911  1.00  0.00     0.095 C 
ATOM     18  C   UNL A   1      35.365  23.694  23.316  1.00  0.00     0.041 C 
ATOM     19  C   UNL A   1      34.336  21.610  24.578  1.00  0.00     0.095 C 
ATOM     20  C   UNL A   1      36.693  23.122  23.692  1.00  0.00    -0.030 C 
ATOM     21  C   UNL A   1      35.743  21.312  25.128  1.00  0.00     0.041 C 
ATOM     22  C   UNL A   1      36.863  22.070  24.496  1.00  0.00    -0.030 C 
BRANCH  19  23
ATOM     23  C   UNL A   1      33.269  21.216  25.626  1.00  0.00     0.228 C 
ATOM     24  O   UNL A   1      32.886  22.077  26.430  1.00  0.00    -0.274 OA
ATOM     25  N   UNL A   1      32.584  20.030  25.621  1.00  0.00    -0.326 N 
ATOM     26  H   UNL A   1      31.819  19.995  26.242  1.00  0.00     0.169 HD
BRANCH  25  27
ATOM     27  C   UNL A   1      32.786  18.858  24.886  1.00  0.00     0.048 A 
ATOM     28  C   UNL A   1      32.433  18.838  23.535  1.00  0.00     0.026 A 
ATOM     29  C   UNL A   1      33.289  17.703  25.475  1.00  0.00     0.111 A 
ATOM     30  C   UNL A   1      32.742  17.727  22.744  1.00  0.00     0.009 A 
ATOM     31  C   UNL A   1      33.657  16.618  24.675  1.00  0.00     0.271 A 
ATOM     32  C   UNL A   1      33.393  16.626  23.303  1.00  0.00     0.086 A 
BRANCH  31  33
ATOM     33  N   UNL A   1      34.392  15.502  25.276  1.00  0.00     0.062 N 
ATOM     34  O   UNL A   1      35.549  15.717  25.666  1.00  0.00    -0.258 OA
ATOM     35  O   UNL A   1      33.797  14.424  25.410  1.00  0.00    -0.258 OA
ENDBRANCH  31  33
ENDBRANCH  25  27
ENDBRANCH  19  23
ENDBRANCH  14  17
ENDBRANCH  12  13
ENDBRANCH   5   7
ENDBRANCH   4   5
ENDBRANCH   3   4
ENDBRANCH   2   3
ENDBRANCH   1   2
BRANCH   1  36
ATOM     36  C   UNL A   1      35.205  32.507  28.110  1.00  0.00     0.188 C 
BRANCH  36  37
ATOM     37  C   UNL A   1      34.178  32.986  29.138  1.00  0.00     0.188 C 
BRANCH  37  38
ATOM     38  O   UNL A   1      34.189  34.394  29.371  1.00  0.00    -0.376 OA
BRANCH  38  39
ATOM     39  C   UNL A   1      34.154  34.820  30.734  1.00  0.00     0.202 C 
BRANCH  39  40
ATOM     40  C   UNL A   1      34.516  33.746  31.765  1.00  0.00     0.261 C 
BRANCH  40  41
ATOM     41  O   UNL A   1      35.941  33.647  31.959  1.00  0.00    -0.460 OA
BRANCH  41  42
ATOM     42  C   UNL A   1      36.340  32.671  32.807  1.00  0.00     0.338 C 
ATOM     43  O   UNL A   1      36.013  32.513  33.969  1.00  0.00    -0.246 OA
BRANCH  42  44
ATOM     44  C   UNL A   1      37.226  31.727  32.108  1.00  0.00     0.060 A 
ATOM     45  C   UNL A   1      38.180  31.019  32.848  1.00  0.00     0.016 A 
ATOM     46  C   UNL A   1      37.243  31.700  30.713  1.00  0.00     0.016 A 
ATOM     47  C   UNL A   1      39.197  30.326  32.187  1.00  0.00     0.010 A 
ATOM     48  C   UNL A   1      38.256  30.997  30.056  1.00  0.00     0.010 A 
ATOM     49  C   UNL A   1      39.267  30.349  30.787  1.00  0.00    -0.014 A 
BRANCH  49  50
ATOM     50  C   UNL A   1      40.475  29.849  30.083  1.00  0.00     0.031 A 
ATOM     51  C   UNL A   1      41.630  30.789  29.847  1.00  0.00     0.074 A 
ATOM     52  C   UNL A   1      40.551  28.579  29.647  1.00  0.00     0.049 A 
ATOM     53  N   UNL A   1      42.744  30.591  29.187  1.00  0.00    -0.248 NA
ATOM     54  C   UNL A   1      41.509  32.135  30.432  1.00  0.00     0.031 C 
ATOM     55  C   UNL A   1      39.522  27.557  29.827  1.00  0.00     0.029 A 
ATOM     56  N   UNL A   1      41.543  27.941  28.944  1.00  0.00    -0.354 N 
ATOM     57  C   UNL A   1      43.444  31.788  29.260  1.00  0.00     0.074 A 
ATOM     58  C   UNL A   1      42.623  32.715  30.009  1.00  0.00     0.031 C 
ATOM     59  C   UNL A   1      39.931  26.421  29.238  1.00  0.00     0.029 A 
ATOM     60  C   UNL A   1      41.235  26.646  28.613  1.00  0.00     0.049 A 
ATOM     61  H   UNL A   1      42.395  28.370  28.703  1.00  0.00     0.167 HD
ATOM     62  C   UNL A   1      44.665  32.090  28.758  1.00  0.00     0.037 A 
ATOM     63  C   UNL A   1      41.914  25.751  27.869  1.00  0.00     0.037 A 
ATOM     64  C   UNL A   1      45.496  31.173  28.025  1.00  0.00     0.049 A 
ATOM     65  C   UNL A   1      43.244  26.126  27.274  1.00  0.00     0.074 A 
ATOM     66  C   UNL A   1      46.765  31.380  27.510  1.00  0.00     0.029 A 
ATOM     67  N   UNL A   1      45.139  29.875  27.698  1.00  0.00    -0.354 N 
ATOM     68  N   UNL A   1      43.912  27.249  27.377  1.00  0.00    -0.248 NA
ATOM     69  C   UNL A   1      43.919  25.104  26.458  1.00  0.00     0.031 C 
ATOM     70  C   UNL A   1      47.160  30.218  26.839  1.00  0.00     0.029 A 
ATOM     71  C   UNL A   1      46.153  29.275  26.971  1.00  0.00     0.049 A 
ATOM     72  H   UNL A   1      44.289  29.443  27.945  1.00  0.00     0.167 HD
ATOM     73  C   UNL A   1      45.089  27.062  26.663  1.00  0.00     0.074 A 
ATOM     74  C   UNL A   1      45.052  25.713  26.139  1.00  0.00     0.031 C 
ATOM     75  C   UNL A   1      46.112  27.929  26.463  1.00  0.00     0.037 A 
BRANCH  62  76
ATOM     76  C   UNL A   1      45.174  33.484  28.975  1.00  0.00     0.057 A 
ATOM     77  C   UNL A   1      44.864  34.528  28.096  1.00  0.00     0.134 A 
ATOM     78  C   UNL A   1      45.954  33.791  30.097  1.00  0.00     0.134 A 
ATOM     79  F   UNL A   1      44.130  34.296  26.997  1.00  0.00    -0.206 F 
ATOM     80  C   UNL A   1      45.327  35.827  28.315  1.00  0.00     0.040 A 
ATOM     81  C   UNL A   1      46.405  35.090  30.338  1.00  0.00     0.040 A 
ATOM     82  F   UNL A   1      46.281  32.837  30.982  1.00  0.00    -0.206 F 
ATOM     83  C   UNL A   1      46.095  36.112  29.442  1.00  0.00     0.006 A 
ENDBRANCH  62  76
BRANCH  63  84
ATOM     84  C   UNL A   1      41.342  24.404  27.627  1.00  0.00     0.057 A 
ATOM     85  C   UNL A   1      40.306  24.213  26.707  1.00  0.00     0.134 A 
ATOM     86  C   UNL A   1      41.802  23.282  28.326  1.00  0.00     0.134 A 
ATOM     87  F   UNL A   1      39.808  25.256  26.026  1.00  0.00    -0.206 F 
ATOM     88  C   UNL A   1      39.735  22.956  26.501  1.00  0.00     0.040 A 
ATOM     89  C   UNL A   1      41.255  22.017  28.116  1.00  0.00     0.040 A 
ATOM     90  F   UNL A   1      42.795  23.402  29.219  1.00  0.00    -0.206 F 
ATOM     91  C   UNL A   1      40.214  21.852  27.205  1.00  0.00     0.006 A 
ENDBRANCH  63  84
BRANCH  75  92
ATOM     92  C   UNL A   1      47.290  27.439  25.677  1.00  0.00     0.057 A 
ATOM     93  C   UNL A   1      48.367  26.786  26.291  1.00  0.00     0.134 A 
ATOM     94  C   UNL A   1      47.328  27.580  24.284  1.00  0.00     0.134 A 
ATOM     95  F   UNL A   1      48.397  26.630  27.624  1.00  0.00    -0.206 F 
ATOM     96  C   UNL A   1      49.447  26.307  25.548  1.00  0.00     0.040 A 
ATOM     97  C   UNL A   1      48.393  27.085  23.529  1.00  0.00     0.040 A 
ATOM     98  F   UNL A   1      46.324  28.187  23.634  1.00  0.00    -0.206 F 
ATOM     99  C   UNL A   1      49.458  26.450  24.162  1.00  0.00     0.006 A 
ENDBRANCH  75  92
ENDBRANCH  49  50
ENDBRANCH  42  44
ENDBRANCH  41  42
ENDBRANCH  40  41
ENDBRANCH  39  40
ENDBRANCH  38  39
ENDBRANCH  37  38
ENDBRANCH  36  37
ENDBRANCH   1  36
TORSDOF 22
ENDMDL
MODEL 2
REMARK VINA RESULT:     -11.8      4.124      6.404
REMARK SMILES O=C(OCCOCCOCCOC(=O)c1ccc(-c2c3nc(c(-c4c(F)cccc4F)c4ccc([nH]4)c(-c4c(F)cccc4F)c4nc(c(-c5c(F)cccc5F)c5ccc2[nH]5)C=C4)C=C3)cc1)c1ccc(NC(=O)[C@@H]2CC=CC[C@H]2C(=O)Nc2cccc([N+](=O)[O-])c2)cc1
REMARK SMILES IDX 6 1 5 2 4 3 3 4 2 5 1 6 69 7 70 8 95 9 71 10 94 11 72 12
REMARK SMILES IDX 73 13 74 14 75 16 76 17 77 18 81 19 78 20 80 21 79 22 82 23
REMARK SMILES IDX 83 24 84 25 85 27 86 28 93 29 87 30 89 31 88 32 90 33 91 34
REMARK SMILES IDX 92 35 7 36 8 37 9 38 10 39 11 40 12 41 13 42 14 43 15 44
REMARK SMILES IDX 16 45 68 46 17 47 67 48 18 49 19 50 20 51 61 52 21 53 66 54
REMARK SMILES IDX 60 55 62 56 22 57 65 58 59 59 58 60 23 62 49 63 32 64 48 65
REMARK SMILES IDX 33 66 36 67 47 68 63 69 34 70 35 71 46 73 64 74 37 75 24 76
REMARK SMILES IDX 25 77 30 78 26 79 27 80 29 81 31 82 28 83 50 84 51 85 56 86
REMARK SMILES IDX 52 87 53 88 55 89 57 90 54 91 38 92 39 93 44 94 40 95 41 96
REMARK SMILES IDX 43 97 45 98 42 99
REMARK H PARENT 73 15 84 26 62 61 36 72
REMARK Flexibility Score: inf
ROOT
ATOM      1  O   UNL A   1      34.972  30.394  27.522  1.00  0.00    -0.376 OA
ENDROOT
BRANCH   1   2
ATOM      2  C   UNL A   1      33.628  30.853  27.645  1.00  0.00     0.202 C 
BRANCH   2   3
ATOM      3  C   UNL A   1      32.745  30.615  26.413  1.00  0.00     0.261 C 
BRANCH   3   4
ATOM      4  O   UNL A   1      31.598  29.773  26.621  1.00  0.00    -0.460 OA
BRANCH   4   5
ATOM      5  C   UNL A   1      31.484  28.472  26.971  1.00  0.00     0.338 C 
ATOM      6  O   UNL A   1      31.106  28.221  28.117  1.00  0.00    -0.246 OA
BRANCH   5   7
ATOM      7  C   UNL A   1      31.821  27.307  26.091  1.00  0.00     0.060 A 
ATOM      8  C   UNL A   1      32.714  26.283  26.388  1.00  0.00     0.018 A 
ATOM      9  C   UNL A   1      31.174  27.249  24.839  1.00  0.00     0.018 A 
ATOM     10  C   UNL A   1      32.866  25.185  25.535  1.00  0.00     0.027 A 
ATOM     11  C   UNL A   1      31.345  26.161  23.972  1.00  0.00     0.027 A 
ATOM     12  C   UNL A   1      32.132  25.080  24.362  1.00  0.00     0.041 A 
BRANCH  12  13
ATOM     13  N   UNL A   1      32.123  23.939  23.555  1.00  0.00    -0.326 N 
ATOM     14  C   UNL A   1      33.058  22.987  23.291  1.00  0.00     0.228 C 
ATOM     15  H   UNL A   1      31.270  23.795  23.084  1.00  0.00     0.169 HD
ATOM     16  O   UNL A   1      32.782  22.171  22.403  1.00  0.00    -0.274 OA
BRANCH  14  17
ATOM     17  C   UNL A   1      34.381  22.813  24.043  1.00  0.00     0.095 C 
ATOM     18  C   UNL A   1      35.623  23.471  23.421  1.00  0.00     0.041 C 
ATOM     19  C   UNL A   1      34.513  21.401  24.635  1.00  0.00     0.095 C 
ATOM     20  C   UNL A   1      36.924  22.794  23.703  1.00  0.00    -0.030 C 
ATOM     21  C   UNL A   1      35.919  20.983  25.099  1.00  0.00     0.041 C 
ATOM     22  C   UNL A   1      37.058  21.694  24.448  1.00  0.00    -0.030 C 
BRANCH  19  23
ATOM     23  C   UNL A   1      33.471  21.028  25.715  1.00  0.00     0.228 C 
ATOM     24  O   UNL A   1      33.169  21.879  26.562  1.00  0.00    -0.274 OA
ATOM     25  N   UNL A   1      32.724  19.880  25.704  1.00  0.00    -0.326 N 
ATOM     26  H   UNL A   1      31.985  19.864  26.355  1.00  0.00     0.169 HD
BRANCH  25  27
ATOM     27  C   UNL A   1      32.832  18.724  24.923  1.00  0.00     0.048 A 
ATOM     28  C   UNL A   1      32.553  18.802  23.557  1.00  0.00     0.026 A 
ATOM     29  C   UNL A   1      33.169  17.496  25.480  1.00  0.00     0.111 A 
ATOM     30  C   UNL A   1      32.776  17.697  22.730  1.00  0.00     0.009 A 
ATOM     31  C   UNL A   1      33.455  16.410  24.648  1.00  0.00     0.271 A 
ATOM     32  C   UNL A   1      33.268  16.506  23.266  1.00  0.00     0.086 A 
BRANCH  31  33
ATOM     33  N   UNL A   1      34.027  15.193  25.230  1.00  0.00     0.062 N 
ATOM     34  O   UNL A   1      33.248  14.274  25.525  1.00  0.00    -0.258 OA
ATOM     35  O   UNL A   1      35.259  15.130  25.344  1.00  0.00    -0.258 OA
ENDBRANCH  31  33
ENDBRANCH  25  27
ENDBRANCH  19  23
ENDBRANCH  14  17
ENDBRANCH  12  13
ENDBRANCH   5   7
ENDBRANCH   4   5
ENDBRANCH   3   4
ENDBRANCH   2   3
ENDBRANCH   1   2
BRANCH   1  36
ATOM     36  C   UNL A   1      35.935  31.413  27.822  1.00  0.00     0.188 C 
BRANCH  36  37
ATOM     37  C   UNL A   1      35.287  32.632  28.480  1.00  0.00     0.188 C 
BRANCH  37  38
ATOM     38  O   UNL A   1      35.270  33.803  27.663  1.00  0.00    -0.376 OA
BRANCH  38  39
ATOM     39  C   UNL A   1      34.365  34.840  28.046  1.00  0.00     0.202 C 
BRANCH  39  40
ATOM     40  C   UNL A   1      33.542  34.559  29.307  1.00  0.00     0.261 C 
BRANCH  40  41
ATOM     41  O   UNL A   1      33.395  35.736  30.126  1.00  0.00    -0.460 OA
BRANCH  41  42
ATOM     42  C   UNL A   1      32.971  35.508  31.390  1.00  0.00     0.338 C 
ATOM     43  O   UNL A   1      31.861  35.704  31.851  1.00  0.00    -0.246 OA
BRANCH  42  44
ATOM     44  C   UNL A   1      34.053  34.906  32.185  1.00  0.00     0.060 A 
ATOM     45  C   UNL A   1      35.279  35.573  32.275  1.00  0.00     0.016 A 
ATOM     46  C   UNL A   1      33.914  33.602  32.662  1.00  0.00     0.016 A 
ATOM     47  C   UNL A   1      36.395  34.909  32.791  1.00  0.00     0.010 A 
ATOM     48  C   UNL A   1      35.030  32.945  33.189  1.00  0.00     0.010 A 
ATOM     49  C   UNL A   1      36.286  33.576  33.210  1.00  0.00    -0.014 A 
BRANCH  49  50
ATOM     50  C   UNL A   1      37.501  32.776  33.510  1.00  0.00     0.031 A 
ATOM     51  C   UNL A   1      38.251  33.033  34.793  1.00  0.00     0.074 A 
ATOM     52  C   UNL A   1      37.945  31.837  32.656  1.00  0.00     0.049 A 
ATOM     53  N   UNL A   1      39.375  32.512  35.218  1.00  0.00    -0.248 NA
ATOM     54  C   UNL A   1      37.654  34.012  35.717  1.00  0.00     0.031 C 
ATOM     55  C   UNL A   1      37.306  31.468  31.394  1.00  0.00     0.029 A 
ATOM     56  N   UNL A   1      39.056  31.032  32.722  1.00  0.00    -0.354 N 
ATOM     57  C   UNL A   1      39.629  33.112  36.445  1.00  0.00     0.074 A 
ATOM     58  C   UNL A   1      38.555  34.051  36.688  1.00  0.00     0.031 C 
ATOM     59  C   UNL A   1      38.043  30.517  30.797  1.00  0.00     0.029 A 
ATOM     60  C   UNL A   1      39.221  30.234  31.618  1.00  0.00     0.049 A 
ATOM     61  H   UNL A   1      39.674  31.028  33.487  1.00  0.00     0.167 HD
ATOM     62  C   UNL A   1      40.657  32.897  37.300  1.00  0.00     0.037 A 
ATOM     63  C   UNL A   1      40.220  29.391  31.295  1.00  0.00     0.037 A 
ATOM     64  C   UNL A   1      41.722  31.956  37.076  1.00  0.00     0.049 A 
ATOM     65  C   UNL A   1      41.381  29.208  32.235  1.00  0.00     0.074 A 
ATOM     66  C   UNL A   1      42.786  31.644  37.904  1.00  0.00     0.029 A 
ATOM     67  N   UNL A   1      41.859  31.178  35.937  1.00  0.00    -0.354 N 
ATOM     68  N   UNL A   1      41.595  29.756  33.406  1.00  0.00    -0.248 NA
ATOM     69  C   UNL A   1      42.444  28.284  31.805  1.00  0.00     0.031 C 
ATOM     70  C   UNL A   1      43.589  30.703  37.250  1.00  0.00     0.029 A 
ATOM     71  C   UNL A   1      43.002  30.401  36.032  1.00  0.00     0.049 A 
ATOM     72  H   UNL A   1      41.237  31.178  35.174  1.00  0.00     0.167 HD
ATOM     73  C   UNL A   1      42.796  29.228  33.863  1.00  0.00     0.074 A 
ATOM     74  C   UNL A   1      43.263  28.307  32.848  1.00  0.00     0.031 C 
ATOM     75  C   UNL A   1      43.452  29.481  35.022  1.00  0.00     0.037 A 
BRANCH  62  76
ATOM     76  C   UNL A   1      40.688  33.710  38.560  1.00  0.00     0.057 A 
ATOM     77  C   UNL A   1      41.423  34.897  38.655  1.00  0.00     0.134 A 
ATOM     78  C   UNL A   1      39.942  33.317  39.679  1.00  0.00     0.134 A 
ATOM     79  F   UNL A   1      42.166  35.320  37.621  1.00  0.00    -0.206 F 
ATOM     80  C   UNL A   1      41.432  35.657  39.826  1.00  0.00     0.040 A 
ATOM     81  C   UNL A   1      39.926  34.080  40.848  1.00  0.00     0.040 A 
ATOM     82  F   UNL A   1      39.210  32.193  39.651  1.00  0.00    -0.206 F 
ATOM     83  C   UNL A   1      40.677  35.251  40.925  1.00  0.00     0.006 A 
ENDBRANCH  62  76
BRANCH  63  84
ATOM     84  C   UNL A   1      40.180  28.655  30.007  1.00  0.00     0.057 A 
ATOM     85  C   UNL A   1      40.875  29.121  28.887  1.00  0.00     0.134 A 
ATOM     86  C   UNL A   1      39.427  27.484  29.862  1.00  0.00     0.134 A 
ATOM     87  F   UNL A   1      41.593  30.251  28.960  1.00  0.00    -0.206 F 
ATOM     88  C   UNL A   1      40.812  28.456  27.661  1.00  0.00     0.040 A 
ATOM     89  C   UNL A   1      39.372  26.798  28.649  1.00  0.00     0.040 A 
ATOM     90  F   UNL A   1      38.742  26.987  30.902  1.00  0.00    -0.206 F 
ATOM     91  C   UNL A   1      40.061  27.288  27.542  1.00  0.00     0.006 A 
ENDBRANCH  63  84
BRANCH  75  92
ATOM     92  C   UNL A   1      44.724  28.728  35.275  1.00  0.00     0.057 A 
ATOM     93  C   UNL A   1      44.736  27.514  35.973  1.00  0.00     0.134 A 
ATOM     94  C   UNL A   1      45.944  29.199  34.774  1.00  0.00     0.134 A 
ATOM     95  F   UNL A   1      43.603  27.014  36.489  1.00  0.00    -0.206 F 
ATOM     96  C   UNL A   1      45.921  26.805  36.179  1.00  0.00     0.040 A 
ATOM     97  C   UNL A   1      47.131  28.488  34.955  1.00  0.00     0.040 A 
ATOM     98  F   UNL A   1      45.999  30.351  34.088  1.00  0.00    -0.206 F 
ATOM     99  C   UNL A   1      47.122  27.289  35.664  1.00  0.00     0.006 A 
ENDBRANCH  75  92
ENDBRANCH  49  50
ENDBRANCH  42  44
ENDBRANCH  41  42
ENDBRANCH  40  41
ENDBRANCH  39  40
ENDBRANCH  38  39
ENDBRANCH  37  38
ENDBRANCH  36  37
ENDBRANCH   1  36
TORSDOF 22
ENDMDL
MODEL 3
REMARK VINA RESULT:     -11.3      4.540      9.920
REMARK SMILES O=C(OCCOCCOCCOC(=O)c1ccc(-c2c3nc(c(-c4c(F)cccc4F)c4ccc([nH]4)c(-c4c(F)cccc4F)c4nc(c(-c5c(F)cccc5F)c5ccc2[nH]5)C=C4)C=C3)cc1)c1ccc(NC(=O)[C@@H]2CC=CC[C@H]2C(=O)Nc2cccc([N+](=O)[O-])c2)cc1
REMARK SMILES IDX 6 1 5 2 4 3 3 4 2 5 1 6 69 7 70 8 95 9 71 10 94 11 72 12
REMARK SMILES IDX 73 13 74 14 75 16 76 17 77 18 81 19 78 20 80 21 79 22 82 23
REMARK SMILES IDX 83 24 84 25 85 27 86 28 93 29 87 30 89 31 88 32 90 33 91 34
REMARK SMILES IDX 92 35 7 36 8 37 9 38 10 39 11 40 12 41 13 42 14 43 15 44
REMARK SMILES IDX 16 45 68 46 17 47 67 48 18 49 19 50 20 51 61 52 21 53 66 54
REMARK SMILES IDX 60 55 62 56 22 57 65 58 59 59 58 60 23 62 49 63 32 64 48 65
REMARK SMILES IDX 33 66 36 67 47 68 63 69 34 70 35 71 46 73 64 74 37 75 24 76
REMARK SMILES IDX 25 77 30 78 26 79 27 80 29 81 31 82 28 83 50 84 51 85 56 86
REMARK SMILES IDX 52 87 53 88 55 89 57 90 54 91 38 92 39 93 44 94 40 95 41 96
REMARK SMILES IDX 43 97 45 98 42 99
REMARK H PARENT 73 15 84 26 62 61 36 72
REMARK Flexibility Score: inf
ROOT
ATOM      1  O   UNL A   1      38.920  20.926  25.514  1.00  0.00    -0.376 OA
ENDROOT
BRANCH   1   2
ATOM      2  C   UNL A   1      37.511  21.132  25.461  1.00  0.00     0.202 C 
BRANCH   2   3
ATOM      3  C   UNL A   1      36.693  19.921  24.991  1.00  0.00     0.261 C 
BRANCH   3   4
ATOM      4  O   UNL A   1      35.265  20.050  25.103  1.00  0.00    -0.460 OA
BRANCH   4   5
ATOM      5  C   UNL A   1      34.475  21.104  25.407  1.00  0.00     0.338 C 
ATOM      6  O   UNL A   1      34.047  21.182  26.559  1.00  0.00    -0.246 OA
BRANCH   5   7
ATOM      7  C   UNL A   1      34.042  22.166  24.442  1.00  0.00     0.060 A 
ATOM      8  C   UNL A   1      34.718  23.349  24.165  1.00  0.00     0.018 A 
ATOM      9  C   UNL A   1      32.830  21.944  23.756  1.00  0.00     0.018 A 
ATOM     10  C   UNL A   1      34.276  24.217  23.161  1.00  0.00     0.027 A 
ATOM     11  C   UNL A   1      32.373  22.826  22.766  1.00  0.00     0.027 A 
ATOM     12  C   UNL A   1      33.147  23.927  22.407  1.00  0.00     0.041 A 
BRANCH  12  13
ATOM     13  N   UNL A   1      32.750  24.670  21.292  1.00  0.00    -0.326 N 
ATOM     14  C   UNL A   1      31.942  25.755  21.145  1.00  0.00     0.228 C 
ATOM     15  H   UNL A   1      33.131  24.344  20.444  1.00  0.00     0.169 HD
ATOM     16  O   UNL A   1      31.673  26.092  19.984  1.00  0.00    -0.274 OA
BRANCH  14  17
ATOM     17  C   UNL A   1      31.400  26.617  22.289  1.00  0.00     0.095 C 
ATOM     18  C   UNL A   1      29.887  26.544  22.554  1.00  0.00     0.041 C 
ATOM     19  C   UNL A   1      32.093  27.988  22.341  1.00  0.00     0.095 C 
ATOM     20  C   UNL A   1      29.270  27.779  23.123  1.00  0.00    -0.030 C 
ATOM     21  C   UNL A   1      31.409  29.067  23.198  1.00  0.00     0.041 C 
ATOM     22  C   UNL A   1      29.942  28.896  23.413  1.00  0.00    -0.030 C 
BRANCH  19  23
ATOM     23  C   UNL A   1      33.609  27.960  22.643  1.00  0.00     0.228 C 
ATOM     24  O   UNL A   1      34.399  28.204  21.720  1.00  0.00    -0.274 OA
ATOM     25  N   UNL A   1      34.145  27.858  23.900  1.00  0.00    -0.326 N 
ATOM     26  H   UNL A   1      35.113  28.029  23.948  1.00  0.00     0.169 HD
BRANCH  25  27
ATOM     27  C   UNL A   1      33.548  27.551  25.127  1.00  0.00     0.048 A 
ATOM     28  C   UNL A   1      33.545  28.515  26.137  1.00  0.00     0.026 A 
ATOM     29  C   UNL A   1      32.998  26.299  25.379  1.00  0.00     0.111 A 
ATOM     30  C   UNL A   1      32.846  28.285  27.326  1.00  0.00     0.009 A 
ATOM     31  C   UNL A   1      32.245  26.091  26.537  1.00  0.00     0.271 A 
ATOM     32  C   UNL A   1      32.157  27.085  27.515  1.00  0.00     0.086 A 
BRANCH  31  33
ATOM     33  N   UNL A   1      31.484  24.847  26.683  1.00  0.00     0.062 N 
ATOM     34  O   UNL A   1      31.841  24.053  27.565  1.00  0.00    -0.258 OA
ATOM     35  O   UNL A   1      30.497  24.685  25.952  1.00  0.00    -0.258 OA
ENDBRANCH  31  33
ENDBRANCH  25  27
ENDBRANCH  19  23
ENDBRANCH  14  17
ENDBRANCH  12  13
ENDBRANCH   5   7
ENDBRANCH   4   5
ENDBRANCH   3   4
ENDBRANCH   2   3
ENDBRANCH   1   2
BRANCH   1  36
ATOM     36  C   UNL A   1      39.598  21.931  26.280  1.00  0.00     0.188 C 
BRANCH  36  37
ATOM     37  C   UNL A   1      40.784  21.354  27.054  1.00  0.00     0.188 C 
BRANCH  37  38
ATOM     38  O   UNL A   1      41.380  20.207  26.449  1.00  0.00    -0.376 OA
BRANCH  38  39
ATOM     39  C   UNL A   1      42.572  20.425  25.692  1.00  0.00     0.202 C 
BRANCH  39  40
ATOM     40  C   UNL A   1      43.332  21.713  26.026  1.00  0.00     0.261 C 
BRANCH  40  41
ATOM     41  O   UNL A   1      43.011  22.779  25.111  1.00  0.00    -0.460 OA
BRANCH  41  42
ATOM     42  C   UNL A   1      43.728  23.914  25.275  1.00  0.00     0.338 C 
ATOM     43  O   UNL A   1      44.839  24.163  24.845  1.00  0.00    -0.246 OA
BRANCH  42  44
ATOM     44  C   UNL A   1      42.942  24.902  26.031  1.00  0.00     0.060 A 
ATOM     45  C   UNL A   1      43.289  26.255  25.943  1.00  0.00     0.016 A 
ATOM     46  C   UNL A   1      42.005  24.467  26.969  1.00  0.00     0.016 A 
ATOM     47  C   UNL A   1      42.741  27.172  26.843  1.00  0.00     0.010 A 
ATOM     48  C   UNL A   1      41.450  25.390  27.859  1.00  0.00     0.010 A 
ATOM     49  C   UNL A   1      41.852  26.737  27.835  1.00  0.00    -0.014 A 
BRANCH  49  50
ATOM     50  C   UNL A   1      41.468  27.636  28.953  1.00  0.00     0.031 A 
ATOM     51  C   UNL A   1      42.225  27.553  30.255  1.00  0.00     0.074 A 
ATOM     52  C   UNL A   1      40.456  28.512  28.826  1.00  0.00     0.049 A 
ATOM     53  N   UNL A   1      42.010  28.182  31.384  1.00  0.00    -0.248 NA
ATOM     54  C   UNL A   1      43.375  26.635  30.287  1.00  0.00     0.031 C 
ATOM     55  C   UNL A   1      39.657  28.715  27.620  1.00  0.00     0.029 A 
ATOM     56  N   UNL A   1      39.920  29.387  29.739  1.00  0.00    -0.354 N 
ATOM     57  C   UNL A   1      42.982  27.722  32.263  1.00  0.00     0.074 A 
ATOM     58  C   UNL A   1      43.775  26.746  31.546  1.00  0.00     0.031 C 
ATOM     59  C   UNL A   1      38.722  29.647  27.871  1.00  0.00     0.029 A 
ATOM     60  C   UNL A   1      38.837  30.081  29.263  1.00  0.00     0.049 A 
ATOM     61  H   UNL A   1      40.279  29.505  30.648  1.00  0.00     0.167 HD
ATOM     62  C   UNL A   1      43.204  28.083  33.549  1.00  0.00     0.037 A 
ATOM     63  C   UNL A   1      38.017  30.949  29.886  1.00  0.00     0.037 A 
ATOM     64  C   UNL A   1      42.433  29.062  34.267  1.00  0.00     0.049 A 
ATOM     65  C   UNL A   1      38.249  31.296  31.332  1.00  0.00     0.074 A 
ATOM     66  C   UNL A   1      42.609  29.520  35.562  1.00  0.00     0.029 A 
ATOM     67  N   UNL A   1      41.334  29.731  33.752  1.00  0.00    -0.354 N 
ATOM     68  N   UNL A   1      39.190  30.880  32.144  1.00  0.00    -0.248 NA
ATOM     69  C   UNL A   1      37.301  32.237  31.951  1.00  0.00     0.031 C 
ATOM     70  C   UNL A   1      41.593  30.440  35.843  1.00  0.00     0.029 A 
ATOM     71  C   UNL A   1      40.810  30.583  34.710  1.00  0.00     0.049 A 
ATOM     72  H   UNL A   1      40.979  29.618  32.841  1.00  0.00     0.167 HD
ATOM     73  C   UNL A   1      38.964  31.524  33.354  1.00  0.00     0.074 A 
ATOM     74  C   UNL A   1      37.802  32.367  33.171  1.00  0.00     0.031 C 
ATOM     75  C   UNL A   1      39.660  31.426  34.514  1.00  0.00     0.037 A 
BRANCH  62  76
ATOM     76  C   UNL A   1      44.328  27.402  34.273  1.00  0.00     0.057 A 
ATOM     77  C   UNL A   1      44.109  26.291  35.096  1.00  0.00     0.134 A 
ATOM     78  C   UNL A   1      45.648  27.841  34.113  1.00  0.00     0.134 A 
ATOM     79  F   UNL A   1      42.865  25.829  35.297  1.00  0.00    -0.206 F 
ATOM     80  C   UNL A   1      45.162  25.652  35.752  1.00  0.00     0.040 A 
ATOM     81  C   UNL A   1      46.712  27.196  34.747  1.00  0.00     0.040 A 
ATOM     82  F   UNL A   1      45.927  28.896  33.332  1.00  0.00    -0.206 F 
ATOM     83  C   UNL A   1      46.469  26.101  35.573  1.00  0.00     0.006 A 
ENDBRANCH  62  76
BRANCH  63  84
ATOM     84  C   UNL A   1      36.879  31.552  29.148  1.00  0.00     0.057 A 
ATOM     85  C   UNL A   1      36.941  32.867  28.674  1.00  0.00     0.134 A 
ATOM     86  C   UNL A   1      35.699  30.836  28.921  1.00  0.00     0.134 A 
ATOM     87  F   UNL A   1      38.038  33.609  28.884  1.00  0.00    -0.206 F 
ATOM     88  C   UNL A   1      35.862  33.455  28.013  1.00  0.00     0.040 A 
ATOM     89  C   UNL A   1      34.620  31.404  28.245  1.00  0.00     0.040 A 
ATOM     90  F   UNL A   1      35.582  29.571  29.350  1.00  0.00    -0.206 F 
ATOM     91  C   UNL A   1      34.698  32.720  27.794  1.00  0.00     0.006 A 
ENDBRANCH  63  84
BRANCH  75  92
ATOM     92  C   UNL A   1      39.210  32.278  35.663  1.00  0.00     0.057 A 
ATOM     93  C   UNL A   1      38.310  31.803  36.625  1.00  0.00     0.134 A 
ATOM     94  C   UNL A   1      39.718  33.572  35.834  1.00  0.00     0.134 A 
ATOM     95  F   UNL A   1      37.778  30.577  36.513  1.00  0.00    -0.206 F 
ATOM     96  C   UNL A   1      37.919  32.593  37.708  1.00  0.00     0.040 A 
ATOM     97  C   UNL A   1      39.351  34.363  36.924  1.00  0.00     0.040 A 
ATOM     98  F   UNL A   1      40.591  34.082  34.952  1.00  0.00    -0.206 F 
ATOM     99  C   UNL A   1      38.445  33.875  37.863  1.00  0.00     0.006 A 
ENDBRANCH  75  92
ENDBRANCH  49  50
ENDBRANCH  42  44
ENDBRANCH  41  42
ENDBRANCH  40  41
ENDBRANCH  39  40
ENDBRANCH  38  39
ENDBRANCH  37  38
ENDBRANCH  36  37
ENDBRANCH   1  36
TORSDOF 22
ENDMDL
