MODEL 1
REMARK VINA RESULT:     -10.5      0.000      0.000
REMARK SMILES CCCOc1ccc(Nc2snc(C)c2C(=O)OCCOCCOCCOC(=O)c2ccc(-c3c4nc(c(-c5c(F)cccc5F)c5ccc([nH]5)c(-c5c(F)cccc5F)c5nc(c(-c6c(F)cccc6F)c6ccc3[nH]6)C=C5)C=C4)cc2)cc1
REMARK SMILES IDX 21 1 20 2 19 3 18 4 16 5 17 6 15 7 10 8 11 9 12 10 13 11
REMARK SMILES IDX 14 12 9 13 8 15 5 16 6 17 85 18 7 19 84 20 4 21 3 22 2 23
REMARK SMILES IDX 1 24 22 25 23 26 24 27 25 28 26 29 27 30 28 31 29 32 30 33
REMARK SMILES IDX 31 34 83 35 32 36 82 37 33 38 34 39 35 40 76 41 36 42 81 43
REMARK SMILES IDX 75 44 77 45 37 46 80 47 74 48 73 49 38 51 64 52 47 53 63 54
REMARK SMILES IDX 48 55 51 56 62 57 78 58 49 59 50 60 61 62 79 63 52 64 39 65
REMARK SMILES IDX 40 66 45 67 41 68 42 69 44 70 46 71 43 72 65 73 66 74 71 75
REMARK SMILES IDX 67 76 68 77 70 78 72 79 69 80 53 81 54 82 59 83 55 84 56 85
REMARK SMILES IDX 58 86 60 87 57 88
REMARK H PARENT 9 14 77 50 51 61
REMARK Flexibility Score: inf
ROOT
ATOM      1  O   UNL A   1      38.373  22.726  25.907  1.00  0.00    -0.376 OA
ENDROOT
BRANCH   1   2
ATOM      2  C   UNL A   1      36.962  22.832  25.776  1.00  0.00     0.202 C 
BRANCH   2   3
ATOM      3  C   UNL A   1      36.275  23.408  24.521  1.00  0.00     0.261 C 
BRANCH   3   4
ATOM      4  O   UNL A   1      35.357  24.480  24.736  1.00  0.00    -0.460 OA
BRANCH   4   5
ATOM      5  C   UNL A   1      34.403  24.727  23.791  1.00  0.00     0.343 C 
ATOM      6  O   UNL A   1      34.353  24.179  22.707  1.00  0.00    -0.246 OA
BRANCH   5   7
ATOM      7  C   UNL A   1      33.337  25.585  24.308  1.00  0.00     0.117 A 
ATOM      8  C   UNL A   1      32.496  25.295  25.380  1.00  0.00     0.128 A 
ATOM      9  S   UNL A   1      31.299  26.530  25.462  1.00  0.00    -0.017 S 
ATOM     10  N   UNL A   1      31.855  27.420  24.194  1.00  0.00    -0.195 NA
ATOM     11  C   UNL A   1      32.911  26.807  23.662  1.00  0.00     0.068 A 
ATOM     12  C   UNL A   1      33.473  27.398  22.413  1.00  0.00     0.069 C 
BRANCH   8  13
ATOM     13  N   UNL A   1      32.442  24.247  26.244  1.00  0.00    -0.345 N 
ATOM     14  H   UNL A   1      32.218  24.453  27.180  1.00  0.00     0.167 HD
BRANCH  13  15
ATOM     15  C   UNL A   1      32.673  22.900  25.933  1.00  0.00     0.039 A 
ATOM     16  C   UNL A   1      33.022  20.141  25.501  1.00  0.00     0.119 A 
ATOM     17  C   UNL A   1      32.143  20.877  24.707  1.00  0.00     0.048 A 
ATOM     18  C   UNL A   1      33.689  20.781  26.541  1.00  0.00     0.048 A 
ATOM     19  C   UNL A   1      31.961  22.242  24.927  1.00  0.00     0.030 A 
ATOM     20  C   UNL A   1      33.545  22.157  26.733  1.00  0.00     0.030 A 
BRANCH  16  21
ATOM     21  O   UNL A   1      33.136  18.829  25.151  1.00  0.00    -0.494 OA
BRANCH  21  22
ATOM     22  C   UNL A   1      32.333  18.301  24.097  1.00  0.00     0.229 C 
BRANCH  22  23
ATOM     23  C   UNL A   1      33.161  17.621  23.001  1.00  0.00     0.038 C 
ATOM     24  C   UNL A   1      34.092  16.527  23.506  1.00  0.00     0.007 C 
ENDBRANCH  22  23
ENDBRANCH  21  22
ENDBRANCH  16  21
ENDBRANCH  13  15
ENDBRANCH   8  13
ENDBRANCH   5   7
ENDBRANCH   4   5
ENDBRANCH   3   4
ENDBRANCH   2   3
ENDBRANCH   1   2
BRANCH   1  25
ATOM     25  C   UNL A   1      38.975  21.455  25.790  1.00  0.00     0.188 C 
BRANCH  25  26
ATOM     26  C   UNL A   1      40.327  21.324  26.531  1.00  0.00     0.188 C 
BRANCH  26  27
ATOM     27  O   UNL A   1      40.658  20.186  27.320  1.00  0.00    -0.376 OA
BRANCH  27  28
ATOM     28  C   UNL A   1      41.962  19.624  27.330  1.00  0.00     0.202 C 
BRANCH  28  29
ATOM     29  C   UNL A   1      42.479  18.794  26.157  1.00  0.00     0.261 C 
BRANCH  29  30
ATOM     30  O   UNL A   1      42.808  19.552  25.011  1.00  0.00    -0.460 OA
BRANCH  30  31
ATOM     31  C   UNL A   1      44.134  19.637  24.779  1.00  0.00     0.338 C 
ATOM     32  O   UNL A   1      44.920  18.729  24.601  1.00  0.00    -0.246 OA
BRANCH  31  33
ATOM     33  C   UNL A   1      44.523  21.048  24.850  1.00  0.00     0.060 A 
ATOM     34  C   UNL A   1      45.609  21.350  25.674  1.00  0.00     0.016 A 
ATOM     35  C   UNL A   1      43.625  22.021  24.392  1.00  0.00     0.016 A 
ATOM     36  C   UNL A   1      45.633  22.586  26.270  1.00  0.00     0.010 A 
ATOM     37  C   UNL A   1      43.637  23.246  25.005  1.00  0.00     0.010 A 
ATOM     38  C   UNL A   1      44.575  23.462  26.010  1.00  0.00    -0.014 A 
BRANCH  38  39
ATOM     39  C   UNL A   1      44.459  24.636  26.840  1.00  0.00     0.031 A 
ATOM     40  C   UNL A   1      45.618  25.540  26.736  1.00  0.00     0.074 A 
ATOM     41  C   UNL A   1      43.337  24.885  27.540  1.00  0.00     0.049 A 
ATOM     42  N   UNL A   1      46.469  25.841  27.657  1.00  0.00    -0.248 NA
ATOM     43  C   UNL A   1      45.968  26.041  25.397  1.00  0.00     0.031 C 
ATOM     44  C   UNL A   1      42.051  24.184  27.471  1.00  0.00     0.029 A 
ATOM     45  N   UNL A   1      43.080  25.907  28.395  1.00  0.00    -0.354 N 
ATOM     46  C   UNL A   1      47.344  26.743  27.065  1.00  0.00     0.074 A 
ATOM     47  C   UNL A   1      47.113  26.673  25.646  1.00  0.00     0.031 C 
ATOM     48  C   UNL A   1      41.101  24.940  28.067  1.00  0.00     0.029 A 
ATOM     49  C   UNL A   1      41.733  26.108  28.657  1.00  0.00     0.049 A 
ATOM     50  H   UNL A   1      43.790  26.459  28.796  1.00  0.00     0.167 HD
ATOM     51  C   UNL A   1      47.987  27.678  27.809  1.00  0.00     0.037 A 
ATOM     52  C   UNL A   1      41.195  27.212  29.233  1.00  0.00     0.037 A 
ATOM     53  C   UNL A   1      48.016  27.314  29.203  1.00  0.00     0.049 A 
ATOM     54  C   UNL A   1      42.297  27.933  29.926  1.00  0.00     0.074 A 
ATOM     55  C   UNL A   1      48.512  26.236  29.911  1.00  0.00     0.029 A 
ATOM     56  N   UNL A   1      47.142  27.949  30.050  1.00  0.00    -0.354 N 
ATOM     57  N   UNL A   1      42.900  27.492  30.994  1.00  0.00    -0.248 NA
ATOM     58  C   UNL A   1      43.036  28.931  29.164  1.00  0.00     0.031 C 
ATOM     59  C   UNL A   1      47.570  26.013  30.957  1.00  0.00     0.029 A 
ATOM     60  C   UNL A   1      46.583  26.994  30.859  1.00  0.00     0.049 A 
ATOM     61  H   UNL A   1      46.951  28.915  30.072  1.00  0.00     0.167 HD
ATOM     62  C   UNL A   1      44.236  27.815  30.807  1.00  0.00     0.074 A 
ATOM     63  C   UNL A   1      44.245  28.782  29.711  1.00  0.00     0.031 C 
ATOM     64  C   UNL A   1      45.228  27.054  31.355  1.00  0.00     0.037 A 
BRANCH  51  65
ATOM     65  C   UNL A   1      48.221  29.088  27.333  1.00  0.00     0.057 A 
ATOM     66  C   UNL A   1      49.514  29.630  27.421  1.00  0.00     0.134 A 
ATOM     67  C   UNL A   1      47.195  30.023  27.073  1.00  0.00     0.134 A 
ATOM     68  F   UNL A   1      50.570  28.846  27.684  1.00  0.00    -0.206 F 
ATOM     69  C   UNL A   1      49.756  31.006  27.335  1.00  0.00     0.040 A 
ATOM     70  C   UNL A   1      47.434  31.391  26.928  1.00  0.00     0.040 A 
ATOM     71  F   UNL A   1      45.900  29.689  27.049  1.00  0.00    -0.206 F 
ATOM     72  C   UNL A   1      48.713  31.891  27.094  1.00  0.00     0.006 A 
ENDBRANCH  51  65
BRANCH  52  73
ATOM     73  C   UNL A   1      39.888  27.854  28.955  1.00  0.00     0.057 A 
ATOM     74  C   UNL A   1      38.916  27.973  29.959  1.00  0.00     0.134 A 
ATOM     75  C   UNL A   1      39.662  28.608  27.790  1.00  0.00     0.134 A 
ATOM     76  F   UNL A   1      39.059  27.325  31.124  1.00  0.00    -0.206 F 
ATOM     77  C   UNL A   1      37.803  28.814  29.825  1.00  0.00     0.040 A 
ATOM     78  C   UNL A   1      38.550  29.442  27.639  1.00  0.00     0.040 A 
ATOM     79  F   UNL A   1      40.557  28.634  26.792  1.00  0.00    -0.206 F 
ATOM     80  C   UNL A   1      37.623  29.561  28.665  1.00  0.00     0.006 A 
ENDBRANCH  52  73
BRANCH  64  81
ATOM     81  C   UNL A   1      44.835  26.021  32.374  1.00  0.00     0.057 A 
ATOM     82  C   UNL A   1      44.492  24.698  32.059  1.00  0.00     0.134 A 
ATOM     83  C   UNL A   1      44.952  26.336  33.732  1.00  0.00     0.134 A 
ATOM     84  F   UNL A   1      44.456  24.274  30.789  1.00  0.00    -0.206 F 
ATOM     85  C   UNL A   1      44.233  23.745  33.049  1.00  0.00     0.040 A 
ATOM     86  C   UNL A   1      44.731  25.387  34.732  1.00  0.00     0.040 A 
ATOM     87  F   UNL A   1      45.333  27.568  34.109  1.00  0.00    -0.206 F 
ATOM     88  C   UNL A   1      44.359  24.089  34.392  1.00  0.00     0.006 A 
ENDBRANCH  64  81
ENDBRANCH  38  39
ENDBRANCH  31  33
ENDBRANCH  30  31
ENDBRANCH  29  30
ENDBRANCH  28  29
ENDBRANCH  27  28
ENDBRANCH  26  27
ENDBRANCH  25  26
ENDBRANCH   1  25
TORSDOF 22
ENDMDL
MODEL 2
REMARK VINA RESULT:     -10.2      1.510      3.518
REMARK SMILES CCCOc1ccc(Nc2snc(C)c2C(=O)OCCOCCOCCOC(=O)c2ccc(-c3c4nc(c(-c5c(F)cccc5F)c5ccc([nH]5)c(-c5c(F)cccc5F)c5nc(c(-c6c(F)cccc6F)c6ccc3[nH]6)C=C5)C=C4)cc2)cc1
REMARK SMILES IDX 21 1 20 2 19 3 18 4 16 5 17 6 15 7 10 8 11 9 12 10 13 11
REMARK SMILES IDX 14 12 9 13 8 15 5 16 6 17 85 18 7 19 84 20 4 21 3 22 2 23
REMARK SMILES IDX 1 24 22 25 23 26 24 27 25 28 26 29 27 30 28 31 29 32 30 33
REMARK SMILES IDX 31 34 83 35 32 36 82 37 33 38 34 39 35 40 76 41 36 42 81 43
REMARK SMILES IDX 75 44 77 45 37 46 80 47 74 48 73 49 38 51 64 52 47 53 63 54
REMARK SMILES IDX 48 55 51 56 62 57 78 58 49 59 50 60 61 62 79 63 52 64 39 65
REMARK SMILES IDX 40 66 45 67 41 68 42 69 44 70 46 71 43 72 65 73 66 74 71 75
REMARK SMILES IDX 67 76 68 77 70 78 72 79 69 80 53 81 54 82 59 83 55 84 56 85
REMARK SMILES IDX 58 86 60 87 57 88
REMARK H PARENT 9 14 77 50 51 61
REMARK Flexibility Score: inf
ROOT
ATOM      1  O   UNL A   1      38.788  22.444  26.191  1.00  0.00    -0.376 OA
ENDROOT
BRANCH   1   2
ATOM      2  C   UNL A   1      37.622  22.297  25.393  1.00  0.00     0.202 C 
BRANCH   2   3
ATOM      3  C   UNL A   1      36.198  22.542  25.932  1.00  0.00     0.261 C 
BRANCH   3   4
ATOM      4  O   UNL A   1      35.399  21.382  26.165  1.00  0.00    -0.460 OA
BRANCH   4   5
ATOM      5  C   UNL A   1      34.061  21.540  26.390  1.00  0.00     0.343 C 
ATOM      6  O   UNL A   1      33.542  21.508  27.488  1.00  0.00    -0.246 OA
BRANCH   5   7
ATOM      7  C   UNL A   1      33.352  21.946  25.177  1.00  0.00     0.117 A 
ATOM      8  C   UNL A   1      32.926  23.236  24.867  1.00  0.00     0.128 A 
ATOM      9  S   UNL A   1      31.980  23.149  23.431  1.00  0.00    -0.017 S 
ATOM     10  N   UNL A   1      32.137  21.527  23.195  1.00  0.00    -0.195 NA
ATOM     11  C   UNL A   1      32.858  21.012  24.189  1.00  0.00     0.068 A 
ATOM     12  C   UNL A   1      32.994  19.526  24.221  1.00  0.00     0.069 C 
BRANCH   8  13
ATOM     13  N   UNL A   1      33.072  24.427  25.505  1.00  0.00    -0.345 N 
ATOM     14  H   UNL A   1      33.578  24.420  26.348  1.00  0.00     0.167 HD
BRANCH  13  15
ATOM     15  C   UNL A   1      32.572  25.666  25.079  1.00  0.00     0.039 A 
ATOM     16  C   UNL A   1      31.552  28.062  24.014  1.00  0.00     0.119 A 
ATOM     17  C   UNL A   1      30.764  27.263  24.842  1.00  0.00     0.048 A 
ATOM     18  C   UNL A   1      32.834  27.634  23.684  1.00  0.00     0.048 A 
ATOM     19  C   UNL A   1      31.264  26.069  25.362  1.00  0.00     0.030 A 
ATOM     20  C   UNL A   1      33.354  26.463  24.242  1.00  0.00     0.030 A 
BRANCH  16  21
ATOM     21  O   UNL A   1      30.955  29.219  23.611  1.00  0.00    -0.494 OA
BRANCH  21  22
ATOM     22  C   UNL A   1      30.100  29.219  22.471  1.00  0.00     0.229 C 
BRANCH  22  23
ATOM     23  C   UNL A   1      28.710  29.792  22.768  1.00  0.00     0.038 C 
ATOM     24  C   UNL A   1      27.630  28.738  22.981  1.00  0.00     0.007 C 
ENDBRANCH  22  23
ENDBRANCH  21  22
ENDBRANCH  16  21
ENDBRANCH  13  15
ENDBRANCH   8  13
ENDBRANCH   5   7
ENDBRANCH   4   5
ENDBRANCH   3   4
ENDBRANCH   2   3
ENDBRANCH   1   2
BRANCH   1  25
ATOM     25  C   UNL A   1      39.855  21.539  26.012  1.00  0.00     0.188 C 
BRANCH  25  26
ATOM     26  C   UNL A   1      40.611  21.185  27.315  1.00  0.00     0.188 C 
BRANCH  26  27
ATOM     27  O   UNL A   1      40.987  19.850  27.640  1.00  0.00    -0.376 OA
BRANCH  27  28
ATOM     28  C   UNL A   1      42.315  19.375  27.472  1.00  0.00     0.202 C 
BRANCH  28  29
ATOM     29  C   UNL A   1      42.763  18.711  26.172  1.00  0.00     0.261 C 
BRANCH  29  30
ATOM     30  O   UNL A   1      42.955  19.609  25.098  1.00  0.00    -0.460 OA
BRANCH  30  31
ATOM     31  C   UNL A   1      44.243  19.727  24.714  1.00  0.00     0.338 C 
ATOM     32  O   UNL A   1      45.015  18.841  24.410  1.00  0.00    -0.246 OA
BRANCH  31  33
ATOM     33  C   UNL A   1      44.617  21.142  24.792  1.00  0.00     0.060 A 
ATOM     34  C   UNL A   1      45.694  21.453  25.624  1.00  0.00     0.016 A 
ATOM     35  C   UNL A   1      43.713  22.107  24.331  1.00  0.00     0.016 A 
ATOM     36  C   UNL A   1      45.702  22.688  26.224  1.00  0.00     0.010 A 
ATOM     37  C   UNL A   1      43.708  23.330  24.946  1.00  0.00     0.010 A 
ATOM     38  C   UNL A   1      44.637  23.553  25.959  1.00  0.00    -0.014 A 
BRANCH  38  39
ATOM     39  C   UNL A   1      44.503  24.724  26.791  1.00  0.00     0.031 A 
ATOM     40  C   UNL A   1      45.652  25.641  26.696  1.00  0.00     0.074 A 
ATOM     41  C   UNL A   1      43.374  24.958  27.484  1.00  0.00     0.049 A 
ATOM     42  N   UNL A   1      46.494  25.949  27.623  1.00  0.00    -0.248 NA
ATOM     43  C   UNL A   1      46.004  26.149  25.360  1.00  0.00     0.031 C 
ATOM     44  C   UNL A   1      42.096  24.243  27.407  1.00  0.00     0.029 A 
ATOM     45  N   UNL A   1      43.100  25.976  28.341  1.00  0.00    -0.354 N 
ATOM     46  C   UNL A   1      47.362  26.863  27.037  1.00  0.00     0.074 A 
ATOM     47  C   UNL A   1      47.141  26.793  25.618  1.00  0.00     0.031 C 
ATOM     48  C   UNL A   1      41.134  24.987  27.999  1.00  0.00     0.029 A 
ATOM     49  C   UNL A   1      41.750  26.161  28.595  1.00  0.00     0.049 A 
ATOM     50  H   UNL A   1      43.802  26.534  28.747  1.00  0.00     0.167 HD
ATOM     51  C   UNL A   1      47.991  27.803  27.787  1.00  0.00     0.037 A 
ATOM     52  C   UNL A   1      41.196  27.257  29.172  1.00  0.00     0.037 A 
ATOM     53  C   UNL A   1      48.016  27.435  29.181  1.00  0.00     0.049 A 
ATOM     54  C   UNL A   1      42.286  27.989  29.872  1.00  0.00     0.074 A 
ATOM     55  C   UNL A   1      48.519  26.361  29.889  1.00  0.00     0.029 A 
ATOM     56  N   UNL A   1      47.129  28.058  30.024  1.00  0.00    -0.354 N 
ATOM     57  N   UNL A   1      42.887  27.551  30.942  1.00  0.00    -0.248 NA
ATOM     58  C   UNL A   1      43.018  28.997  29.117  1.00  0.00     0.031 C 
ATOM     59  C   UNL A   1      47.574  26.125  30.930  1.00  0.00     0.029 A 
ATOM     60  C   UNL A   1      46.577  27.095  30.828  1.00  0.00     0.049 A 
ATOM     61  H   UNL A   1      46.928  29.022  30.048  1.00  0.00     0.167 HD
ATOM     62  C   UNL A   1      44.221  27.891  30.764  1.00  0.00     0.074 A 
ATOM     63  C   UNL A   1      44.226  28.860  29.671  1.00  0.00     0.031 C 
ATOM     64  C   UNL A   1      45.218  27.139  31.316  1.00  0.00     0.037 A 
BRANCH  51  65
ATOM     65  C   UNL A   1      48.212  29.217  27.316  1.00  0.00     0.057 A 
ATOM     66  C   UNL A   1      49.495  29.776  27.423  1.00  0.00     0.134 A 
ATOM     67  C   UNL A   1      47.176  30.137  27.043  1.00  0.00     0.134 A 
ATOM     68  F   UNL A   1      50.559  29.007  27.700  1.00  0.00    -0.206 F 
ATOM     69  C   UNL A   1      49.719  31.155  27.341  1.00  0.00     0.040 A 
ATOM     70  C   UNL A   1      47.398  31.508  26.903  1.00  0.00     0.040 A 
ATOM     71  F   UNL A   1      45.886  29.785  27.001  1.00  0.00    -0.206 F 
ATOM     72  C   UNL A   1      48.668  32.026  27.087  1.00  0.00     0.006 A 
ENDBRANCH  51  65
BRANCH  52  73
ATOM     73  C   UNL A   1      39.884  27.885  28.887  1.00  0.00     0.057 A 
ATOM     74  C   UNL A   1      38.900  27.979  29.882  1.00  0.00     0.134 A 
ATOM     75  C   UNL A   1      39.660  28.650  27.729  1.00  0.00     0.134 A 
ATOM     76  F   UNL A   1      39.039  27.320  31.041  1.00  0.00    -0.206 F 
ATOM     77  C   UNL A   1      37.777  28.807  29.747  1.00  0.00     0.040 A 
ATOM     78  C   UNL A   1      38.538  29.471  27.576  1.00  0.00     0.040 A 
ATOM     79  F   UNL A   1      40.564  28.700  26.740  1.00  0.00    -0.206 F 
ATOM     80  C   UNL A   1      37.600  29.566  28.594  1.00  0.00     0.006 A 
ENDBRANCH  52  73
BRANCH  64  81
ATOM     81  C   UNL A   1      44.831  26.099  32.331  1.00  0.00     0.057 A 
ATOM     82  C   UNL A   1      44.516  24.770  32.011  1.00  0.00     0.134 A 
ATOM     83  C   UNL A   1      44.925  26.417  33.690  1.00  0.00     0.134 A 
ATOM     84  F   UNL A   1      44.504  24.345  30.741  1.00  0.00    -0.206 F 
ATOM     85  C   UNL A   1      44.262  23.813  32.999  1.00  0.00     0.040 A 
ATOM     86  C   UNL A   1      44.708  25.463  34.687  1.00  0.00     0.040 A 
ATOM     87  F   UNL A   1      45.278  27.655  34.071  1.00  0.00    -0.206 F 
ATOM     88  C   UNL A   1      44.365  24.159  34.343  1.00  0.00     0.006 A 
ENDBRANCH  64  81
ENDBRANCH  38  39
ENDBRANCH  31  33
ENDBRANCH  30  31
ENDBRANCH  29  30
ENDBRANCH  28  29
ENDBRANCH  27  28
ENDBRANCH  26  27
ENDBRANCH  25  26
ENDBRANCH   1  25
TORSDOF 22
ENDMDL
MODEL 3
REMARK VINA RESULT:     -10.1      1.774      2.271
REMARK SMILES CCCOc1ccc(Nc2snc(C)c2C(=O)OCCOCCOCCOC(=O)c2ccc(-c3c4nc(c(-c5c(F)cccc5F)c5ccc([nH]5)c(-c5c(F)cccc5F)c5nc(c(-c6c(F)cccc6F)c6ccc3[nH]6)C=C5)C=C4)cc2)cc1
REMARK SMILES IDX 21 1 20 2 19 3 18 4 16 5 17 6 15 7 10 8 11 9 12 10 13 11
REMARK SMILES IDX 14 12 9 13 8 15 5 16 6 17 85 18 7 19 84 20 4 21 3 22 2 23
REMARK SMILES IDX 1 24 22 25 23 26 24 27 25 28 26 29 27 30 28 31 29 32 30 33
REMARK SMILES IDX 31 34 83 35 32 36 82 37 33 38 34 39 35 40 76 41 36 42 81 43
REMARK SMILES IDX 75 44 77 45 37 46 80 47 74 48 73 49 38 51 64 52 47 53 63 54
REMARK SMILES IDX 48 55 51 56 62 57 78 58 49 59 50 60 61 62 79 63 52 64 39 65
REMARK SMILES IDX 40 66 45 67 41 68 42 69 44 70 46 71 43 72 65 73 66 74 71 75
REMARK SMILES IDX 67 76 68 77 70 78 72 79 69 80 53 81 54 82 59 83 55 84 56 85
REMARK SMILES IDX 58 86 60 87 57 88
REMARK H PARENT 9 14 77 50 51 61
REMARK Flexibility Score: inf
ROOT
ATOM      1  O   UNL A   1      35.695  22.461  25.041  1.00  0.00    -0.376 OA
ENDROOT
BRANCH   1   2
ATOM      2  C   UNL A   1      34.871  23.558  25.409  1.00  0.00     0.202 C 
BRANCH   2   3
ATOM      3  C   UNL A   1      34.767  24.849  24.571  1.00  0.00     0.261 C 
BRANCH   3   4
ATOM      4  O   UNL A   1      34.210  24.715  23.264  1.00  0.00    -0.460 OA
BRANCH   4   5
ATOM      5  C   UNL A   1      33.561  25.782  22.713  1.00  0.00     0.343 C 
ATOM      6  O   UNL A   1      33.893  26.328  21.679  1.00  0.00    -0.246 OA
BRANCH   5   7
ATOM      7  C   UNL A   1      32.307  26.072  23.407  1.00  0.00     0.117 A 
ATOM      8  C   UNL A   1      31.191  25.239  23.471  1.00  0.00     0.128 A 
ATOM      9  S   UNL A   1      29.921  26.115  24.235  1.00  0.00    -0.017 S 
ATOM     10  N   UNL A   1      30.776  27.495  24.506  1.00  0.00    -0.195 NA
ATOM     11  C   UNL A   1      32.002  27.353  24.007  1.00  0.00     0.068 A 
ATOM     12  C   UNL A   1      32.884  28.555  24.037  1.00  0.00     0.069 C 
BRANCH   8  13
ATOM     13  N   UNL A   1      30.957  23.985  23.001  1.00  0.00    -0.345 N 
ATOM     14  H   UNL A   1      30.347  23.906  22.232  1.00  0.00     0.167 HD
BRANCH  13  15
ATOM     15  C   UNL A   1      31.497  22.794  23.504  1.00  0.00     0.039 A 
ATOM     16  C   UNL A   1      32.367  20.337  24.564  1.00  0.00     0.119 A 
ATOM     17  C   UNL A   1      32.388  20.561  23.188  1.00  0.00     0.048 A 
ATOM     18  C   UNL A   1      31.866  21.328  25.402  1.00  0.00     0.048 A 
ATOM     19  C   UNL A   1      31.947  21.774  22.660  1.00  0.00     0.030 A 
ATOM     20  C   UNL A   1      31.469  22.561  24.880  1.00  0.00     0.030 A 
BRANCH  16  21
ATOM     21  O   UNL A   1      32.865  19.128  24.947  1.00  0.00    -0.494 OA
BRANCH  21  22
ATOM     22  C   UNL A   1      34.216  18.785  24.643  1.00  0.00     0.229 C 
BRANCH  22  23
ATOM     23  C   UNL A   1      34.429  17.275  24.496  1.00  0.00     0.038 C 
ATOM     24  C   UNL A   1      34.119  16.730  23.107  1.00  0.00     0.007 C 
ENDBRANCH  22  23
ENDBRANCH  21  22
ENDBRANCH  16  21
ENDBRANCH  13  15
ENDBRANCH   8  13
ENDBRANCH   5   7
ENDBRANCH   4   5
ENDBRANCH   3   4
ENDBRANCH   2   3
ENDBRANCH   1   2
BRANCH   1  25
ATOM     25  C   UNL A   1      36.798  22.133  25.857  1.00  0.00     0.188 C 
BRANCH  25  26
ATOM     26  C   UNL A   1      38.027  23.053  25.663  1.00  0.00     0.188 C 
BRANCH  26  27
ATOM     27  O   UNL A   1      39.163  23.000  26.519  1.00  0.00    -0.376 OA
BRANCH  27  28
ATOM     28  C   UNL A   1      39.803  21.776  26.853  1.00  0.00     0.202 C 
BRANCH  28  29
ATOM     29  C   UNL A   1      40.802  21.117  25.904  1.00  0.00     0.261 C 
BRANCH  29  30
ATOM     30  O   UNL A   1      42.053  20.823  26.491  1.00  0.00    -0.460 OA
BRANCH  30  31
ATOM     31  C   UNL A   1      43.094  20.954  25.643  1.00  0.00     0.338 C 
ATOM     32  O   UNL A   1      43.573  20.110  24.914  1.00  0.00    -0.246 OA
BRANCH  31  33
ATOM     33  C   UNL A   1      43.637  22.307  25.789  1.00  0.00     0.060 A 
ATOM     34  C   UNL A   1      44.353  22.564  26.960  1.00  0.00     0.016 A 
ATOM     35  C   UNL A   1      43.147  23.326  24.962  1.00  0.00     0.016 A 
ATOM     36  C   UNL A   1      44.335  23.846  27.451  1.00  0.00     0.010 A 
ATOM     37  C   UNL A   1      43.109  24.600  25.463  1.00  0.00     0.010 A 
ATOM     38  C   UNL A   1      43.608  24.809  26.746  1.00  0.00    -0.014 A 
BRANCH  38  39
ATOM     39  C   UNL A   1      43.363  26.072  27.399  1.00  0.00     0.031 A 
ATOM     40  C   UNL A   1      44.375  27.095  27.087  1.00  0.00     0.074 A 
ATOM     41  C   UNL A   1      42.248  26.274  28.125  1.00  0.00     0.049 A 
ATOM     42  N   UNL A   1      45.214  27.647  27.896  1.00  0.00    -0.248 NA
ATOM     43  C   UNL A   1      44.592  27.424  25.668  1.00  0.00     0.031 C 
ATOM     44  C   UNL A   1      41.073  25.405  28.245  1.00  0.00     0.029 A 
ATOM     45  N   UNL A   1      41.886  27.374  28.834  1.00  0.00    -0.354 N 
ATOM     46  C   UNL A   1      45.925  28.555  27.120  1.00  0.00     0.074 A 
ATOM     47  C   UNL A   1      45.645  28.235  25.746  1.00  0.00     0.031 C 
ATOM     48  C   UNL A   1      40.053  26.111  28.784  1.00  0.00     0.029 A 
ATOM     49  C   UNL A   1      40.537  27.431  29.151  1.00  0.00     0.049 A 
ATOM     50  H   UNL A   1      42.527  28.071  29.102  1.00  0.00     0.167 HD
ATOM     51  C   UNL A   1      46.461  29.673  27.674  1.00  0.00     0.037 A 
ATOM     52  C   UNL A   1      39.873  28.528  29.592  1.00  0.00     0.037 A 
ATOM     53  C   UNL A   1      46.602  29.537  29.102  1.00  0.00     0.049 A 
ATOM     54  C   UNL A   1      40.890  29.489  30.096  1.00  0.00     0.074 A 
ATOM     55  C   UNL A   1      47.277  28.659  29.928  1.00  0.00     0.029 A 
ATOM     56  N   UNL A   1      45.684  30.173  29.901  1.00  0.00    -0.354 N 
ATOM     57  N   UNL A   1      41.596  29.305  31.176  1.00  0.00    -0.248 NA
ATOM     58  C   UNL A   1      41.446  30.447  29.148  1.00  0.00     0.031 C 
ATOM     59  C   UNL A   1      46.424  28.478  31.055  1.00  0.00     0.029 A 
ATOM     60  C   UNL A   1      45.303  29.290  30.877  1.00  0.00     0.049 A 
ATOM     61  H   UNL A   1      45.359  31.097  29.792  1.00  0.00     0.167 HD
ATOM     62  C   UNL A   1      42.863  29.771  30.857  1.00  0.00     0.074 A 
ATOM     63  C   UNL A   1      42.687  30.548  29.632  1.00  0.00     0.031 C 
ATOM     64  C   UNL A   1      43.977  29.245  31.446  1.00  0.00     0.037 A 
BRANCH  51  65
ATOM     65  C   UNL A   1      46.471  31.010  26.980  1.00  0.00     0.057 A 
ATOM     66  C   UNL A   1      47.667  31.743  26.935  1.00  0.00     0.134 A 
ATOM     67  C   UNL A   1      45.310  31.731  26.621  1.00  0.00     0.134 A 
ATOM     68  F   UNL A   1      48.834  31.175  27.272  1.00  0.00    -0.206 F 
ATOM     69  C   UNL A   1      47.696  33.109  26.630  1.00  0.00     0.040 A 
ATOM     70  C   UNL A   1      45.336  33.079  26.261  1.00  0.00     0.040 A 
ATOM     71  F   UNL A   1      44.081  31.210  26.699  1.00  0.00    -0.206 F 
ATOM     72  C   UNL A   1      46.528  33.782  26.298  1.00  0.00     0.006 A 
ENDBRANCH  51  65
BRANCH  52  73
ATOM     73  C   UNL A   1      38.477  28.938  29.307  1.00  0.00     0.057 A 
ATOM     74  C   UNL A   1      37.536  29.052  30.340  1.00  0.00     0.134 A 
ATOM     75  C   UNL A   1      38.101  29.492  28.071  1.00  0.00     0.134 A 
ATOM     76  F   UNL A   1      37.813  28.590  31.568  1.00  0.00    -0.206 F 
ATOM     77  C   UNL A   1      36.307  29.703  30.163  1.00  0.00     0.040 A 
ATOM     78  C   UNL A   1      36.874  30.135  27.877  1.00  0.00     0.040 A 
ATOM     79  F   UNL A   1      38.946  29.512  27.029  1.00  0.00    -0.206 F 
ATOM     80  C   UNL A   1      35.978  30.257  28.930  1.00  0.00     0.006 A 
ENDBRANCH  52  73
BRANCH  64  81
ATOM     81  C   UNL A   1      43.780  28.340  32.630  1.00  0.00     0.057 A 
ATOM     82  C   UNL A   1      43.641  26.947  32.539  1.00  0.00     0.134 A 
ATOM     83  C   UNL A   1      43.884  28.881  33.916  1.00  0.00     0.134 A 
ATOM     84  F   UNL A   1      43.635  26.326  31.353  1.00  0.00    -0.206 F 
ATOM     85  C   UNL A   1      43.563  26.136  33.676  1.00  0.00     0.040 A 
ATOM     86  C   UNL A   1      43.843  28.081  35.060  1.00  0.00     0.040 A 
ATOM     87  F   UNL A   1      44.077  30.200  34.080  1.00  0.00    -0.206 F 
ATOM     88  C   UNL A   1      43.671  26.704  34.942  1.00  0.00     0.006 A 
ENDBRANCH  64  81
ENDBRANCH  38  39
ENDBRANCH  31  33
ENDBRANCH  30  31
ENDBRANCH  29  30
ENDBRANCH  28  29
ENDBRANCH  27  28
ENDBRANCH  26  27
ENDBRANCH  25  26
ENDBRANCH   1  25
TORSDOF 22
ENDMDL
