MODEL 1
REMARK VINA RESULT:      -9.0      0.000      0.000
REMARK SMILES COc1cc(C=O)cc(OC)c1O[C@H](C)C(=O)OCCOCCOCCOC(=O)c1ccc(-c2c3nc(c(-c4c(F)cccc4F)c4ccc([nH]4)c(-c4c(F)cccc4F)c4nc(c(-c5c(F)cccc5F)c5ccc2[nH]5)C=C4)C=C3)cc1
REMARK SMILES IDX 22 1 21 2 20 3 19 4 18 5 16 6 17 7 14 8 15 9 13 10 12 11
REMARK SMILES IDX 3 12 4 13 5 14 9 15 8 16 2 17 1 18 6 19 7 20 10 21 11 22
REMARK SMILES IDX 23 23 24 24 25 25 26 26 27 27 28 28 29 29 30 30 31 31 83 32
REMARK SMILES IDX 32 33 82 34 33 35 34 36 35 37 76 38 36 39 81 40 75 41 77 42
REMARK SMILES IDX 37 43 80 44 74 45 73 46 38 48 64 49 47 50 63 51 48 52 51 53
REMARK SMILES IDX 62 54 78 55 49 56 50 57 61 59 79 60 52 61 39 62 40 63 45 64
REMARK SMILES IDX 41 65 42 66 44 67 46 68 43 69 65 70 66 71 71 72 67 73 68 74
REMARK SMILES IDX 70 75 72 76 69 77 53 78 54 79 59 80 55 81 56 82 58 83 60 84
REMARK SMILES IDX 57 85
REMARK H PARENT 77 47 51 58
REMARK Flexibility Score: inf
ROOT
ATOM      1  C   UNL A   1      38.945  21.598  26.194  1.00  0.00     0.188 C 
ENDROOT
BRANCH   1   2
ATOM      2  O   UNL A   1      38.199  21.379  25.011  1.00  0.00    -0.376 OA
BRANCH   2   3
ATOM      3  C   UNL A   1      36.831  21.770  25.059  1.00  0.00     0.202 C 
BRANCH   3   4
ATOM      4  C   UNL A   1      36.397  22.955  24.175  1.00  0.00     0.261 C 
BRANCH   4   5
ATOM      5  O   UNL A   1      35.477  23.906  24.769  1.00  0.00    -0.461 OA
BRANCH   5   6
ATOM      6  C   UNL A   1      34.293  23.377  25.191  1.00  0.00     0.347 C 
ATOM      7  O   UNL A   1      34.111  22.948  26.329  1.00  0.00    -0.248 OA
BRANCH   6   8
ATOM      8  C   UNL A   1      33.151  23.376  24.139  1.00  0.00     0.279 C 
ATOM      9  C   UNL A   1      32.583  22.040  23.647  1.00  0.00     0.066 C 
BRANCH   8  10
ATOM     10  O   UNL A   1      32.163  24.389  24.086  1.00  0.00    -0.471 OA
BRANCH  10  11
ATOM     11  C   UNL A   1      32.286  25.560  24.771  1.00  0.00     0.204 A 
ATOM     12  C   UNL A   1      32.979  26.606  24.128  1.00  0.00     0.165 A 
ATOM     13  C   UNL A   1      32.862  27.916  24.611  1.00  0.00     0.062 A 
ATOM     14  C   UNL A   1      32.044  28.199  25.703  1.00  0.00     0.022 A 
ATOM     15  C   UNL A   1      31.538  25.848  25.929  1.00  0.00     0.165 A 
ATOM     16  C   UNL A   1      31.405  27.166  26.386  1.00  0.00     0.062 A 
BRANCH  12  17
ATOM     17  O   UNL A   1      33.771  26.548  23.009  1.00  0.00    -0.493 OA
ATOM     18  C   UNL A   1      33.536  27.449  21.938  1.00  0.00     0.278 C 
ENDBRANCH  12  17
BRANCH  14  19
ATOM     19  C   UNL A   1      31.781  29.601  26.084  1.00  0.00     0.260 C 
ATOM     20  O   UNL A   1      31.868  29.992  27.241  1.00  0.00    -0.298 OA
ENDBRANCH  14  19
BRANCH  15  21
ATOM     21  O   UNL A   1      30.737  24.899  26.504  1.00  0.00    -0.493 OA
ATOM     22  C   UNL A   1      29.345  25.209  26.437  1.00  0.00     0.278 C 
ENDBRANCH  15  21
ENDBRANCH  10  11
ENDBRANCH   8  10
ENDBRANCH   6   8
ENDBRANCH   5   6
ENDBRANCH   4   5
ENDBRANCH   3   4
ENDBRANCH   2   3
ENDBRANCH   1   2
BRANCH   1  23
ATOM     23  C   UNL A   1      40.459  21.714  26.048  1.00  0.00     0.188 C 
BRANCH  23  24
ATOM     24  O   UNL A   1      41.188  20.501  25.954  1.00  0.00    -0.376 OA
BRANCH  24  25
ATOM     25  C   UNL A   1      42.546  20.549  26.409  1.00  0.00     0.202 C 
BRANCH  25  26
ATOM     26  C   UNL A   1      43.574  21.387  25.616  1.00  0.00     0.261 C 
BRANCH  26  27
ATOM     27  O   UNL A   1      44.113  22.550  26.281  1.00  0.00    -0.460 OA
BRANCH  27  28
ATOM     28  C   UNL A   1      44.029  23.750  25.652  1.00  0.00     0.338 C 
ATOM     29  O   UNL A   1      44.238  23.959  24.475  1.00  0.00    -0.246 OA
BRANCH  28  30
ATOM     30  C   UNL A   1      43.354  24.713  26.580  1.00  0.00     0.060 A 
ATOM     31  C   UNL A   1      43.837  26.030  26.636  1.00  0.00     0.016 A 
ATOM     32  C   UNL A   1      42.210  24.373  27.311  1.00  0.00     0.016 A 
ATOM     33  C   UNL A   1      43.214  26.984  27.450  1.00  0.00     0.010 A 
ATOM     34  C   UNL A   1      41.593  25.326  28.134  1.00  0.00     0.010 A 
ATOM     35  C   UNL A   1      42.112  26.630  28.239  1.00  0.00    -0.014 A 
BRANCH  35  36
ATOM     36  C   UNL A   1      41.642  27.545  29.318  1.00  0.00     0.031 A 
ATOM     37  C   UNL A   1      42.361  27.509  30.643  1.00  0.00     0.074 A 
ATOM     38  C   UNL A   1      40.628  28.414  29.142  1.00  0.00     0.049 A 
ATOM     39  N   UNL A   1      42.126  28.183  31.740  1.00  0.00    -0.248 NA
ATOM     40  C   UNL A   1      43.503  26.584  30.741  1.00  0.00     0.031 C 
ATOM     41  C   UNL A   1      39.861  28.589  27.913  1.00  0.00     0.029 A 
ATOM     42  N   UNL A   1      40.065  29.312  30.020  1.00  0.00    -0.354 N 
ATOM     43  C   UNL A   1      43.080  27.757  32.658  1.00  0.00     0.074 A 
ATOM     44  C   UNL A   1      43.878  26.747  31.999  1.00  0.00     0.031 C 
ATOM     45  C   UNL A   1      38.917  29.527  28.117  1.00  0.00     0.029 A 
ATOM     46  C   UNL A   1      38.994  30.000  29.500  1.00  0.00     0.049 A 
ATOM     47  H   UNL A   1      40.399  29.452  30.936  1.00  0.00     0.167 HD
ATOM     48  C   UNL A   1      43.283  28.173  33.930  1.00  0.00     0.037 A 
ATOM     49  C   UNL A   1      38.157  30.886  30.078  1.00  0.00     0.037 A 
ATOM     50  C   UNL A   1      42.501  29.181  34.595  1.00  0.00     0.049 A 
ATOM     51  C   UNL A   1      38.362  31.285  31.521  1.00  0.00     0.074 A 
ATOM     52  C   UNL A   1      42.659  29.687  35.874  1.00  0.00     0.029 A 
ATOM     53  N   UNL A   1      41.409  29.829  34.042  1.00  0.00    -0.354 N 
ATOM     54  N   UNL A   1      39.293  30.905  32.363  1.00  0.00    -0.248 NA
ATOM     55  C   UNL A   1      37.400  32.241  32.091  1.00  0.00     0.031 C 
ATOM     56  C   UNL A   1      41.624  30.594  36.118  1.00  0.00     0.029 A 
ATOM     57  C   UNL A   1      40.862  30.704  34.967  1.00  0.00     0.049 A 
ATOM     58  H   UNL A   1      41.071  29.688  33.128  1.00  0.00     0.167 HD
ATOM     59  C   UNL A   1      39.046  31.596  33.546  1.00  0.00     0.074 A 
ATOM     60  C   UNL A   1      37.891  32.433  33.307  1.00  0.00     0.031 C 
ATOM     61  C   UNL A   1      39.715  31.542  34.724  1.00  0.00     0.037 A 
BRANCH  48  62
ATOM     62  C   UNL A   1      44.384  27.512  34.709  1.00  0.00     0.057 A 
ATOM     63  C   UNL A   1      45.716  27.936  34.620  1.00  0.00     0.134 A 
ATOM     64  C   UNL A   1      44.095  26.469  35.597  1.00  0.00     0.134 A 
ATOM     65  F   UNL A   1      46.062  28.919  33.775  1.00  0.00    -0.206 F 
ATOM     66  C   UNL A   1      46.724  27.333  35.374  1.00  0.00     0.040 A 
ATOM     67  C   UNL A   1      45.089  25.878  36.378  1.00  0.00     0.040 A 
ATOM     68  F   UNL A   1      42.839  26.017  35.732  1.00  0.00    -0.206 F 
ATOM     69  C   UNL A   1      46.409  26.308  36.264  1.00  0.00     0.006 A 
ENDBRANCH  48  62
BRANCH  49  70
ATOM     70  C   UNL A   1      37.011  31.450  29.313  1.00  0.00     0.057 A 
ATOM     71  C   UNL A   1      35.858  30.697  29.058  1.00  0.00     0.134 A 
ATOM     72  C   UNL A   1      37.070  32.737  28.762  1.00  0.00     0.134 A 
ATOM     73  F   UNL A   1      35.752  29.444  29.527  1.00  0.00    -0.206 F 
ATOM     74  C   UNL A   1      34.821  31.190  28.263  1.00  0.00     0.040 A 
ATOM     75  C   UNL A   1      36.027  33.254  27.993  1.00  0.00     0.040 A 
ATOM     76  F   UNL A   1      38.149  33.508  28.960  1.00  0.00    -0.206 F 
ATOM     77  C   UNL A   1      34.902  32.475  27.731  1.00  0.00     0.006 A 
ENDBRANCH  49  70
BRANCH  61  78
ATOM     78  C   UNL A   1      39.247  32.441  35.836  1.00  0.00     0.057 A 
ATOM     79  C   UNL A   1      38.327  32.014  36.801  1.00  0.00     0.134 A 
ATOM     80  C   UNL A   1      39.753  33.742  35.960  1.00  0.00     0.134 A 
ATOM     81  F   UNL A   1      37.797  30.782  36.740  1.00  0.00    -0.206 F 
ATOM     82  C   UNL A   1      37.903  32.858  37.830  1.00  0.00     0.040 A 
ATOM     83  C   UNL A   1      39.360  34.583  37.002  1.00  0.00     0.040 A 
ATOM     84  F   UNL A   1      40.649  34.213  35.080  1.00  0.00    -0.206 F 
ATOM     85  C   UNL A   1      38.424  34.146  37.936  1.00  0.00     0.006 A 
ENDBRANCH  61  78
ENDBRANCH  35  36
ENDBRANCH  28  30
ENDBRANCH  27  28
ENDBRANCH  26  27
ENDBRANCH  25  26
ENDBRANCH  24  25
ENDBRANCH  23  24
ENDBRANCH   1  23
TORSDOF 22
ENDMDL
MODEL 2
REMARK VINA RESULT:      -9.0      1.031      2.037
REMARK SMILES COc1cc(C=O)cc(OC)c1O[C@H](C)C(=O)OCCOCCOCCOC(=O)c1ccc(-c2c3nc(c(-c4c(F)cccc4F)c4ccc([nH]4)c(-c4c(F)cccc4F)c4nc(c(-c5c(F)cccc5F)c5ccc2[nH]5)C=C4)C=C3)cc1
REMARK SMILES IDX 22 1 21 2 20 3 19 4 18 5 16 6 17 7 14 8 15 9 13 10 12 11
REMARK SMILES IDX 3 12 4 13 5 14 9 15 8 16 2 17 1 18 6 19 7 20 10 21 11 22
REMARK SMILES IDX 23 23 24 24 25 25 26 26 27 27 28 28 29 29 30 30 31 31 83 32
REMARK SMILES IDX 32 33 82 34 33 35 34 36 35 37 76 38 36 39 81 40 75 41 77 42
REMARK SMILES IDX 37 43 80 44 74 45 73 46 38 48 64 49 47 50 63 51 48 52 51 53
REMARK SMILES IDX 62 54 78 55 49 56 50 57 61 59 79 60 52 61 39 62 40 63 45 64
REMARK SMILES IDX 41 65 42 66 44 67 46 68 43 69 65 70 66 71 71 72 67 73 68 74
REMARK SMILES IDX 70 75 72 76 69 77 53 78 54 79 59 80 55 81 56 82 58 83 60 84
REMARK SMILES IDX 57 85
REMARK H PARENT 77 47 51 58
REMARK Flexibility Score: inf
ROOT
ATOM      1  C   UNL A   1      38.709  21.641  26.057  1.00  0.00     0.188 C 
ENDROOT
BRANCH   1   2
ATOM      2  O   UNL A   1      38.182  21.364  24.772  1.00  0.00    -0.376 OA
BRANCH   2   3
ATOM      3  C   UNL A   1      36.868  21.852  24.523  1.00  0.00     0.202 C 
BRANCH   3   4
ATOM      4  C   UNL A   1      36.633  22.632  23.215  1.00  0.00     0.261 C 
BRANCH   4   5
ATOM      5  O   UNL A   1      35.684  23.726  23.273  1.00  0.00    -0.461 OA
BRANCH   5   6
ATOM      6  C   UNL A   1      34.559  23.479  24.004  1.00  0.00     0.347 C 
ATOM      7  O   UNL A   1      34.385  23.907  25.143  1.00  0.00    -0.248 OA
BRANCH   6   8
ATOM      8  C   UNL A   1      33.473  22.631  23.288  1.00  0.00     0.279 C 
ATOM      9  C   UNL A   1      33.097  21.258  23.856  1.00  0.00     0.066 C 
BRANCH   8  10
ATOM     10  O   UNL A   1      32.371  23.213  22.618  1.00  0.00    -0.471 OA
BRANCH  10  11
ATOM     11  C   UNL A   1      31.923  24.466  22.911  1.00  0.00     0.204 A 
ATOM     12  C   UNL A   1      31.174  24.615  24.095  1.00  0.00     0.165 A 
ATOM     13  C   UNL A   1      30.967  25.894  24.629  1.00  0.00     0.062 A 
ATOM     14  C   UNL A   1      31.521  27.017  24.017  1.00  0.00     0.022 A 
ATOM     15  C   UNL A   1      32.396  25.619  22.253  1.00  0.00     0.165 A 
ATOM     16  C   UNL A   1      32.209  26.890  22.812  1.00  0.00     0.062 A 
BRANCH  12  17
ATOM     17  O   UNL A   1      30.610  23.642  24.881  1.00  0.00    -0.493 OA
ATOM     18  C   UNL A   1      31.021  23.508  26.232  1.00  0.00     0.278 C 
ENDBRANCH  12  17
BRANCH  14  19
ATOM     19  C   UNL A   1      31.457  28.331  24.688  1.00  0.00     0.260 C 
ATOM     20  O   UNL A   1      31.535  29.385  24.071  1.00  0.00    -0.298 OA
ENDBRANCH  14  19
BRANCH  15  21
ATOM     21  O   UNL A   1      33.244  25.520  21.184  1.00  0.00    -0.493 OA
ATOM     22  C   UNL A   1      32.575  25.501  19.922  1.00  0.00     0.278 C 
ENDBRANCH  15  21
ENDBRANCH  10  11
ENDBRANCH   8  10
ENDBRANCH   6   8
ENDBRANCH   5   6
ENDBRANCH   4   5
ENDBRANCH   3   4
ENDBRANCH   2   3
ENDBRANCH   1   2
BRANCH   1  23
ATOM     23  C   UNL A   1      40.228  21.703  26.184  1.00  0.00     0.188 C 
BRANCH  23  24
ATOM     24  O   UNL A   1      40.922  20.467  26.180  1.00  0.00    -0.376 OA
BRANCH  24  25
ATOM     25  C   UNL A   1      42.304  20.521  26.555  1.00  0.00     0.202 C 
BRANCH  25  26
ATOM     26  C   UNL A   1      43.300  21.273  25.642  1.00  0.00     0.261 C 
BRANCH  26  27
ATOM     27  O   UNL A   1      43.844  22.509  26.156  1.00  0.00    -0.460 OA
BRANCH  27  28
ATOM     28  C   UNL A   1      43.427  23.676  25.602  1.00  0.00     0.338 C 
ATOM     29  O   UNL A   1      43.102  23.846  24.446  1.00  0.00    -0.246 OA
BRANCH  28  30
ATOM     30  C   UNL A   1      43.154  24.644  26.713  1.00  0.00     0.060 A 
ATOM     31  C   UNL A   1      42.358  24.215  27.787  1.00  0.00     0.016 A 
ATOM     32  C   UNL A   1      43.740  25.914  26.761  1.00  0.00     0.016 A 
ATOM     33  C   UNL A   1      42.111  25.062  28.874  1.00  0.00     0.010 A 
ATOM     34  C   UNL A   1      43.484  26.766  27.846  1.00  0.00     0.010 A 
ATOM     35  C   UNL A   1      42.636  26.360  28.894  1.00  0.00    -0.014 A 
BRANCH  35  36
ATOM     36  C   UNL A   1      42.134  27.354  29.885  1.00  0.00     0.031 A 
ATOM     37  C   UNL A   1      42.815  27.423  31.229  1.00  0.00     0.074 A 
ATOM     38  C   UNL A   1      41.125  28.204  29.613  1.00  0.00     0.049 A 
ATOM     39  N   UNL A   1      42.547  28.179  32.264  1.00  0.00    -0.248 NA
ATOM     40  C   UNL A   1      43.953  26.512  31.431  1.00  0.00     0.031 C 
ATOM     41  C   UNL A   1      40.394  28.281  28.352  1.00  0.00     0.029 A 
ATOM     42  N   UNL A   1      40.536  29.165  30.402  1.00  0.00    -0.354 N 
ATOM     43  C   UNL A   1      43.474  27.828  33.239  1.00  0.00     0.074 A 
ATOM     44  C   UNL A   1      44.292  26.772  32.683  1.00  0.00     0.031 C 
ATOM     45  C   UNL A   1      39.443  29.229  28.456  1.00  0.00     0.029 A 
ATOM     46  C   UNL A   1      39.479  29.807  29.800  1.00  0.00     0.049 A 
ATOM     47  H   UNL A   1      40.843  29.376  31.314  1.00  0.00     0.167 HD
ATOM     48  C   UNL A   1      43.639  28.341  34.481  1.00  0.00     0.037 A 
ATOM     49  C   UNL A   1      38.625  30.733  30.284  1.00  0.00     0.037 A 
ATOM     50  C   UNL A   1      42.837  29.395  35.043  1.00  0.00     0.049 A 
ATOM     51  C   UNL A   1      38.788  31.242  31.697  1.00  0.00     0.074 A 
ATOM     52  C   UNL A   1      42.958  29.998  36.283  1.00  0.00     0.029 A 
ATOM     53  N   UNL A   1      41.761  29.995  34.410  1.00  0.00    -0.354 N 
ATOM     54  N   UNL A   1      39.694  30.931  32.593  1.00  0.00    -0.248 NA
ATOM     55  C   UNL A   1      37.809  32.237  32.163  1.00  0.00     0.031 C 
ATOM     56  C   UNL A   1      41.915  30.918  36.425  1.00  0.00     0.029 A 
ATOM     57  C   UNL A   1      41.187  30.937  35.248  1.00  0.00     0.049 A 
ATOM     58  H   UNL A   1      41.450  29.783  33.500  1.00  0.00     0.167 HD
ATOM     59  C   UNL A   1      39.412  31.711  33.710  1.00  0.00     0.074 A 
ATOM     60  C   UNL A   1      38.264  32.524  33.375  1.00  0.00     0.031 C 
ATOM     61  C   UNL A   1      40.047  31.750  34.908  1.00  0.00     0.037 A 
BRANCH  48  62
ATOM     62  C   UNL A   1      44.718  27.746  35.339  1.00  0.00     0.057 A 
ATOM     63  C   UNL A   1      46.017  28.267  35.369  1.00  0.00     0.134 A 
ATOM     64  C   UNL A   1      44.435  26.666  36.184  1.00  0.00     0.134 A 
ATOM     65  F   UNL A   1      46.358  29.291  34.572  1.00  0.00    -0.206 F 
ATOM     66  C   UNL A   1      47.001  27.724  36.197  1.00  0.00     0.040 A 
ATOM     67  C   UNL A   1      45.401  26.132  37.037  1.00  0.00     0.040 A 
ATOM     68  F   UNL A   1      43.208  26.121  36.206  1.00  0.00    -0.206 F 
ATOM     69  C   UNL A   1      46.690  26.659  37.041  1.00  0.00     0.006 A 
ENDBRANCH  48  62
BRANCH  49  70
ATOM     70  C   UNL A   1      37.502  31.232  29.445  1.00  0.00     0.057 A 
ATOM     71  C   UNL A   1      37.516  32.518  28.890  1.00  0.00     0.134 A 
ATOM     72  C   UNL A   1      36.354  30.456  29.232  1.00  0.00     0.134 A 
ATOM     73  F   UNL A   1      38.569  33.327  29.085  1.00  0.00    -0.206 F 
ATOM     74  C   UNL A   1      36.424  33.023  28.179  1.00  0.00     0.040 A 
ATOM     75  C   UNL A   1      35.270  30.936  28.497  1.00  0.00     0.040 A 
ATOM     76  F   UNL A   1      36.271  29.219  29.743  1.00  0.00    -0.206 F 
ATOM     77  C   UNL A   1      35.297  32.229  27.978  1.00  0.00     0.006 A 
ENDBRANCH  49  70
BRANCH  61  78
ATOM     78  C   UNL A   1      39.546  32.731  35.933  1.00  0.00     0.057 A 
ATOM     79  C   UNL A   1      38.495  32.424  36.806  1.00  0.00     0.134 A 
ATOM     80  C   UNL A   1      40.150  33.988  36.071  1.00  0.00     0.134 A 
ATOM     81  F   UNL A   1      37.867  31.240  36.726  1.00  0.00    -0.206 F 
ATOM     82  C   UNL A   1      38.041  33.343  37.755  1.00  0.00     0.040 A 
ATOM     83  C   UNL A   1      39.725  34.902  37.036  1.00  0.00     0.040 A 
ATOM     84  F   UNL A   1      41.172  34.345  35.279  1.00  0.00    -0.206 F 
ATOM     85  C   UNL A   1      38.661  34.585  37.876  1.00  0.00     0.006 A 
ENDBRANCH  61  78
ENDBRANCH  35  36
ENDBRANCH  28  30
ENDBRANCH  27  28
ENDBRANCH  26  27
ENDBRANCH  25  26
ENDBRANCH  24  25
ENDBRANCH  23  24
ENDBRANCH   1  23
TORSDOF 22
ENDMDL
MODEL 3
REMARK VINA RESULT:      -8.9      2.698      8.553
REMARK SMILES COc1cc(C=O)cc(OC)c1O[C@H](C)C(=O)OCCOCCOCCOC(=O)c1ccc(-c2c3nc(c(-c4c(F)cccc4F)c4ccc([nH]4)c(-c4c(F)cccc4F)c4nc(c(-c5c(F)cccc5F)c5ccc2[nH]5)C=C4)C=C3)cc1
REMARK SMILES IDX 22 1 21 2 20 3 19 4 18 5 16 6 17 7 14 8 15 9 13 10 12 11
REMARK SMILES IDX 3 12 4 13 5 14 9 15 8 16 2 17 1 18 6 19 7 20 10 21 11 22
REMARK SMILES IDX 23 23 24 24 25 25 26 26 27 27 28 28 29 29 30 30 31 31 83 32
REMARK SMILES IDX 32 33 82 34 33 35 34 36 35 37 76 38 36 39 81 40 75 41 77 42
REMARK SMILES IDX 37 43 80 44 74 45 73 46 38 48 64 49 47 50 63 51 48 52 51 53
REMARK SMILES IDX 62 54 78 55 49 56 50 57 61 59 79 60 52 61 39 62 40 63 45 64
REMARK SMILES IDX 41 65 42 66 44 67 46 68 43 69 65 70 66 71 71 72 67 73 68 74
REMARK SMILES IDX 70 75 72 76 69 77 53 78 54 79 59 80 55 81 56 82 58 83 60 84
REMARK SMILES IDX 57 85
REMARK H PARENT 77 47 51 58
REMARK Flexibility Score: inf
ROOT
ATOM      1  C   UNL A   1      30.101  31.965  24.631  1.00  0.00     0.188 C 
ENDROOT
BRANCH   1   2
ATOM      2  O   UNL A   1      29.011  31.482  23.866  1.00  0.00    -0.376 OA
BRANCH   2   3
ATOM      3  C   UNL A   1      29.130  31.632  22.455  1.00  0.00     0.202 C 
BRANCH   3   4
ATOM      4  C   UNL A   1      28.877  30.386  21.583  1.00  0.00     0.261 C 
BRANCH   4   5
ATOM      5  O   UNL A   1      29.774  29.264  21.778  1.00  0.00    -0.461 OA
BRANCH   5   6
ATOM      6  C   UNL A   1      29.397  28.385  22.750  1.00  0.00     0.347 C 
ATOM      7  O   UNL A   1      28.239  28.273  23.150  1.00  0.00    -0.248 OA
BRANCH   6   8
ATOM      8  C   UNL A   1      30.533  27.490  23.316  1.00  0.00     0.279 C 
ATOM      9  C   UNL A   1      30.290  25.987  23.490  1.00  0.00     0.066 C 
BRANCH   8  10
ATOM     10  O   UNL A   1      31.902  27.749  23.068  1.00  0.00    -0.471 OA
BRANCH  10  11
ATOM     11  C   UNL A   1      32.896  27.028  23.658  1.00  0.00     0.204 A 
ATOM     12  C   UNL A   1      32.978  27.085  25.063  1.00  0.00     0.165 A 
ATOM     13  C   UNL A   1      33.740  26.133  25.753  1.00  0.00     0.062 A 
ATOM     14  C   UNL A   1      34.393  25.112  25.065  1.00  0.00     0.022 A 
ATOM     15  C   UNL A   1      33.637  26.047  22.970  1.00  0.00     0.165 A 
ATOM     16  C   UNL A   1      34.371  25.082  23.673  1.00  0.00     0.062 A 
BRANCH  12  17
ATOM     17  O   UNL A   1      32.361  27.958  25.923  1.00  0.00    -0.493 OA
ATOM     18  C   UNL A   1      31.695  27.457  27.072  1.00  0.00     0.278 C 
ENDBRANCH  12  17
BRANCH  14  19
ATOM     19  C   UNL A   1      35.032  24.010  25.812  1.00  0.00     0.260 C 
ATOM     20  O   UNL A   1      34.383  23.167  26.418  1.00  0.00    -0.298 OA
ENDBRANCH  14  19
BRANCH  15  21
ATOM     21  O   UNL A   1      33.479  25.861  21.624  1.00  0.00    -0.493 OA
ATOM     22  C   UNL A   1      32.902  24.600  21.284  1.00  0.00     0.278 C 
ENDBRANCH  15  21
ENDBRANCH  10  11
ENDBRANCH   8  10
ENDBRANCH   6   8
ENDBRANCH   5   6
ENDBRANCH   4   5
ENDBRANCH   3   4
ENDBRANCH   2   3
ENDBRANCH   1   2
BRANCH   1  23
ATOM     23  C   UNL A   1      30.946  30.928  25.364  1.00  0.00     0.188 C 
BRANCH  23  24
ATOM     24  O   UNL A   1      31.569  31.345  26.568  1.00  0.00    -0.376 OA
BRANCH  24  25
ATOM     25  C   UNL A   1      31.536  32.753  26.837  1.00  0.00     0.202 C 
BRANCH  25  26
ATOM     26  C   UNL A   1      32.693  33.391  27.638  1.00  0.00     0.261 C 
BRANCH  26  27
ATOM     27  O   UNL A   1      32.552  34.787  27.981  1.00  0.00    -0.460 OA
BRANCH  27  28
ATOM     28  C   UNL A   1      33.122  35.230  29.130  1.00  0.00     0.338 C 
ATOM     29  O   UNL A   1      32.660  36.056  29.888  1.00  0.00    -0.246 OA
BRANCH  28  30
ATOM     30  C   UNL A   1      34.268  34.322  29.458  1.00  0.00     0.060 A 
ATOM     31  C   UNL A   1      34.028  33.228  30.304  1.00  0.00     0.016 A 
ATOM     32  C   UNL A   1      35.533  34.473  28.878  1.00  0.00     0.016 A 
ATOM     33  C   UNL A   1      35.051  32.321  30.605  1.00  0.00     0.010 A 
ATOM     34  C   UNL A   1      36.560  33.569  29.187  1.00  0.00     0.010 A 
ATOM     35  C   UNL A   1      36.338  32.507  30.084  1.00  0.00    -0.014 A 
BRANCH  35  36
ATOM     36  C   UNL A   1      37.486  31.732  30.635  1.00  0.00     0.031 A 
ATOM     37  C   UNL A   1      37.936  32.033  32.042  1.00  0.00     0.074 A 
ATOM     38  C   UNL A   1      38.108  30.762  29.938  1.00  0.00     0.049 A 
ATOM     39  N   UNL A   1      38.922  31.518  32.733  1.00  0.00    -0.248 NA
ATOM     40  C   UNL A   1      37.167  33.057  32.768  1.00  0.00     0.031 C 
ATOM     41  C   UNL A   1      37.767  30.335  28.584  1.00  0.00     0.029 A 
ATOM     42  N   UNL A   1      39.175  29.964  30.282  1.00  0.00    -0.354 N 
ATOM     43  C   UNL A   1      38.897  32.161  33.965  1.00  0.00     0.074 A 
ATOM     44  C   UNL A   1      37.818  33.123  33.918  1.00  0.00     0.031 C 
ATOM     45  C   UNL A   1      38.617  29.362  28.206  1.00  0.00     0.029 A 
ATOM     46  C   UNL A   1      39.581  29.115  29.279  1.00  0.00     0.049 A 
ATOM     47  H   UNL A   1      39.608  29.997  31.166  1.00  0.00     0.167 HD
ATOM     48  C   UNL A   1      39.691  31.965  35.044  1.00  0.00     0.037 A 
ATOM     49  C   UNL A   1      40.623  28.259  29.223  1.00  0.00     0.037 A 
ATOM     50  C   UNL A   1      40.763  31.007  35.107  1.00  0.00     0.049 A 
ATOM     51  C   UNL A   1      41.536  28.107  30.417  1.00  0.00     0.074 A 
ATOM     52  C   UNL A   1      41.598  30.719  36.173  1.00  0.00     0.029 A 
ATOM     53  N   UNL A   1      41.157  30.190  34.060  1.00  0.00    -0.354 N 
ATOM     54  N   UNL A   1      41.476  28.690  31.590  1.00  0.00    -0.248 NA
ATOM     55  C   UNL A   1      42.663  27.169  30.278  1.00  0.00     0.031 C 
ATOM     56  C   UNL A   1      42.537  29.774  35.752  1.00  0.00     0.029 A 
ATOM     57  C   UNL A   1      42.246  29.423  34.444  1.00  0.00     0.049 A 
ATOM     58  H   UNL A   1      40.728  30.159  33.174  1.00  0.00     0.167 HD
ATOM     59  C   UNL A   1      42.531  28.171  32.332  1.00  0.00     0.074 A 
ATOM     60  C   UNL A   1      43.205  27.210  31.486  1.00  0.00     0.031 C 
ATOM     61  C   UNL A   1      42.910  28.462  33.601  1.00  0.00     0.037 A 
BRANCH  48  62
ATOM     62  C   UNL A   1      39.452  32.829  36.248  1.00  0.00     0.057 A 
ATOM     63  C   UNL A   1      40.097  34.061  36.420  1.00  0.00     0.134 A 
ATOM     64  C   UNL A   1      38.524  32.444  37.224  1.00  0.00     0.134 A 
ATOM     65  F   UNL A   1      41.009  34.481  35.530  1.00  0.00    -0.206 F 
ATOM     66  C   UNL A   1      39.841  34.869  37.529  1.00  0.00     0.040 A 
ATOM     67  C   UNL A   1      38.238  33.256  38.321  1.00  0.00     0.040 A 
ATOM     68  F   UNL A   1      37.869  31.277  37.118  1.00  0.00    -0.206 F 
ATOM     69  C   UNL A   1      38.901  34.471  38.478  1.00  0.00     0.006 A 
ENDBRANCH  48  62
BRANCH  49  70
ATOM     70  C   UNL A   1      40.897  27.488  27.980  1.00  0.00     0.057 A 
ATOM     71  C   UNL A   1      41.715  28.000  26.965  1.00  0.00     0.134 A 
ATOM     72  C   UNL A   1      40.295  26.244  27.750  1.00  0.00     0.134 A 
ATOM     73  F   UNL A   1      42.295  29.202  27.106  1.00  0.00    -0.206 F 
ATOM     74  C   UNL A   1      41.900  27.320  25.759  1.00  0.00     0.040 A 
ATOM     75  C   UNL A   1      40.497  25.539  26.564  1.00  0.00     0.040 A 
ATOM     76  F   UNL A   1      39.493  25.700  28.678  1.00  0.00    -0.206 F 
ATOM     77  C   UNL A   1      41.293  26.082  25.558  1.00  0.00     0.006 A 
ENDBRANCH  49  70
BRANCH  61  78
ATOM     78  C   UNL A   1      44.079  27.708  34.173  1.00  0.00     0.057 A 
ATOM     79  C   UNL A   1      43.929  26.466  34.802  1.00  0.00     0.134 A 
ATOM     80  C   UNL A   1      45.380  28.220  34.062  1.00  0.00     0.134 A 
ATOM     81  F   UNL A   1      42.712  25.919  34.949  1.00  0.00    -0.206 F 
ATOM     82  C   UNL A   1      45.024  25.775  35.327  1.00  0.00     0.040 A 
ATOM     83  C   UNL A   1      46.485  27.524  34.555  1.00  0.00     0.040 A 
ATOM     84  F   UNL A   1      45.600  29.397  33.459  1.00  0.00    -0.206 F 
ATOM     85  C   UNL A   1      46.308  26.302  35.199  1.00  0.00     0.006 A 
ENDBRANCH  61  78
ENDBRANCH  35  36
ENDBRANCH  28  30
ENDBRANCH  27  28
ENDBRANCH  26  27
ENDBRANCH  25  26
ENDBRANCH  24  25
ENDBRANCH  23  24
ENDBRANCH   1  23
TORSDOF 22
ENDMDL
