MODEL 1
REMARK VINA RESULT:     -11.4      0.000      0.000
REMARK SMILES O=C(OCCOCCOCCOC(=O)[C@@H]1CCCC[C@@H]1NS(=O)(=O)c1ccc2ccccc2c1)c1ccc(-c2c3nc(c(-c4c(F)cccc4F)c4ccc([nH]4)c(-c4c(F)cccc4F)c4nc(c(-c5c(F)cccc5F)c5ccc2[nH]5)C=C4)C=C3)cc1
REMARK SMILES IDX 8 1 7 2 6 3 5 4 4 5 3 6 2 7 1 8 35 9 36 10 88 11 37 12 87 13
REMARK SMILES IDX 38 14 39 15 40 16 81 17 41 18 86 19 80 20 82 21 42 22 85 23
REMARK SMILES IDX 79 24 78 25 43 27 69 28 52 29 68 30 53 31 56 32 67 33 83 34
REMARK SMILES IDX 54 35 55 36 66 38 84 39 57 40 44 41 45 42 50 43 46 44 47 45
REMARK SMILES IDX 49 46 51 47 48 48 70 49 71 50 76 51 72 52 73 53 75 54 77 55
REMARK SMILES IDX 74 56 58 57 59 58 64 59 60 60 61 61 63 62 65 63 62 64 9 65
REMARK SMILES IDX 10 66 11 67 12 68 13 69 14 70 15 71 16 72 20 73 17 74 19 75
REMARK SMILES IDX 18 76 21 77 22 79 23 80 24 81 25 82 26 83 34 84 27 85 33 86
REMARK SMILES IDX 28 87 32 88 29 89 31 90 30 91
REMARK H PARENT 82 26 56 37 21 78
REMARK Flexibility Score: inf
ROOT
ATOM      1  C   UNL A   1      32.570  30.988  26.888  1.00  0.00     0.188 C 
ENDROOT
BRANCH   1   2
ATOM      2  C   UNL A   1      33.732  31.636  27.645  1.00  0.00     0.188 C 
BRANCH   2   3
ATOM      3  O   UNL A   1      33.493  32.902  28.242  1.00  0.00    -0.376 OA
BRANCH   3   4
ATOM      4  C   UNL A   1      34.653  33.602  28.714  1.00  0.00     0.202 C 
BRANCH   4   5
ATOM      5  C   UNL A   1      34.786  33.702  30.243  1.00  0.00     0.261 C 
BRANCH   5   6
ATOM      6  O   UNL A   1      34.507  32.442  30.863  1.00  0.00    -0.460 OA
BRANCH   6   7
ATOM      7  C   UNL A   1      35.324  32.049  31.877  1.00  0.00     0.338 C 
ATOM      8  O   UNL A   1      35.310  32.415  33.032  1.00  0.00    -0.246 OA
BRANCH   7   9
ATOM      9  C   UNL A   1      36.271  31.100  31.254  1.00  0.00     0.060 A 
ATOM     10  C   UNL A   1      37.322  30.643  32.055  1.00  0.00     0.016 A 
ATOM     11  C   UNL A   1      36.217  30.765  29.904  1.00  0.00     0.016 A 
ATOM     12  C   UNL A   1      38.412  30.030  31.504  1.00  0.00     0.010 A 
ATOM     13  C   UNL A   1      37.302  30.076  29.347  1.00  0.00     0.010 A 
ATOM     14  C   UNL A   1      38.422  29.759  30.143  1.00  0.00    -0.014 A 
BRANCH  14  15
ATOM     15  C   UNL A   1      39.715  29.339  29.583  1.00  0.00     0.031 A 
ATOM     16  C   UNL A   1      40.835  30.325  29.572  1.00  0.00     0.074 A 
ATOM     17  C   UNL A   1      39.970  28.040  29.344  1.00  0.00     0.049 A 
ATOM     18  N   UNL A   1      42.039  30.190  29.088  1.00  0.00    -0.248 NA
ATOM     19  C   UNL A   1      40.596  31.604  30.264  1.00  0.00     0.031 C 
ATOM     20  C   UNL A   1      39.072  26.937  29.675  1.00  0.00     0.029 A 
ATOM     21  N   UNL A   1      41.058  27.418  28.796  1.00  0.00    -0.354 N 
ATOM     22  C   UNL A   1      42.705  31.353  29.432  1.00  0.00     0.074 A 
ATOM     23  C   UNL A   1      41.768  32.205  30.129  1.00  0.00     0.031 C 
ATOM     24  C   UNL A   1      39.613  25.785  29.257  1.00  0.00     0.029 A 
ATOM     25  C   UNL A   1      40.831  26.087  28.544  1.00  0.00     0.049 A 
ATOM     26  H   UNL A   1      41.909  27.874  28.605  1.00  0.00     0.167 HD
ATOM     27  C   UNL A   1      44.000  31.658  29.197  1.00  0.00     0.037 A 
ATOM     28  C   UNL A   1      41.485  25.228  27.748  1.00  0.00     0.037 A 
ATOM     29  C   UNL A   1      44.898  30.781  28.494  1.00  0.00     0.049 A 
ATOM     30  C   UNL A   1      42.792  25.690  27.201  1.00  0.00     0.074 A 
ATOM     31  C   UNL A   1      46.206  31.004  28.116  1.00  0.00     0.029 A 
ATOM     32  N   UNL A   1      44.563  29.504  28.059  1.00  0.00    -0.354 N 
ATOM     33  N   UNL A   1      43.392  26.837  27.405  1.00  0.00    -0.248 NA
ATOM     34  C   UNL A   1      43.540  24.745  26.369  1.00  0.00     0.031 C 
ATOM     35  C   UNL A   1      46.642  29.886  27.396  1.00  0.00     0.029 A 
ATOM     36  C   UNL A   1      45.627  28.941  27.377  1.00  0.00     0.049 A 
ATOM     37  H   UNL A   1      43.695  29.064  28.213  1.00  0.00     0.167 HD
ATOM     38  C   UNL A   1      44.625  26.731  26.793  1.00  0.00     0.074 A 
ATOM     39  C   UNL A   1      44.669  25.414  26.182  1.00  0.00     0.031 C 
ATOM     40  C   UNL A   1      45.639  27.629  26.777  1.00  0.00     0.037 A 
BRANCH  27  41
ATOM     41  C   UNL A   1      44.458  33.015  29.630  1.00  0.00     0.057 A 
ATOM     42  C   UNL A   1      44.345  34.145  28.807  1.00  0.00     0.134 A 
ATOM     43  C   UNL A   1      45.080  33.178  30.872  1.00  0.00     0.134 A 
ATOM     44  F   UNL A   1      43.795  34.047  27.587  1.00  0.00    -0.206 F 
ATOM     45  C   UNL A   1      44.857  35.383  29.200  1.00  0.00     0.040 A 
ATOM     46  C   UNL A   1      45.576  34.416  31.284  1.00  0.00     0.040 A 
ATOM     47  F   UNL A   1      45.237  32.132  31.697  1.00  0.00    -0.206 F 
ATOM     48  C   UNL A   1      45.471  35.521  30.443  1.00  0.00     0.006 A 
ENDBRANCH  27  41
BRANCH  28  49
ATOM     49  C   UNL A   1      40.875  23.929  27.372  1.00  0.00     0.057 A 
ATOM     50  C   UNL A   1      39.783  23.839  26.506  1.00  0.00     0.134 A 
ATOM     51  C   UNL A   1      41.370  22.729  27.908  1.00  0.00     0.134 A 
ATOM     52  F   UNL A   1      39.262  24.949  25.964  1.00  0.00    -0.206 F 
ATOM     53  C   UNL A   1      39.187  22.611  26.207  1.00  0.00     0.040 A 
ATOM     54  C   UNL A   1      40.795  21.494  27.607  1.00  0.00     0.040 A 
ATOM     55  F   UNL A   1      42.429  22.741  28.733  1.00  0.00    -0.206 F 
ATOM     56  C   UNL A   1      39.691  21.434  26.760  1.00  0.00     0.006 A 
ENDBRANCH  28  49
BRANCH  40  57
ATOM     57  C   UNL A   1      46.904  27.174  26.126  1.00  0.00     0.057 A 
ATOM     58  C   UNL A   1      47.181  27.440  24.781  1.00  0.00     0.134 A 
ATOM     59  C   UNL A   1      47.858  26.468  26.868  1.00  0.00     0.134 A 
ATOM     60  F   UNL A   1      46.289  28.088  24.017  1.00  0.00    -0.206 F 
ATOM     61  C   UNL A   1      48.362  26.997  24.188  1.00  0.00     0.040 A 
ATOM     62  C   UNL A   1      49.054  26.049  26.294  1.00  0.00     0.040 A 
ATOM     63  F   UNL A   1      47.641  26.183  28.161  1.00  0.00    -0.206 F 
ATOM     64  C   UNL A   1      49.306  26.308  24.948  1.00  0.00     0.006 A 
ENDBRANCH  40  57
ENDBRANCH  14  15
ENDBRANCH   7   9
ENDBRANCH   6   7
ENDBRANCH   5   6
ENDBRANCH   4   5
ENDBRANCH   3   4
ENDBRANCH   2   3
ENDBRANCH   1   2
BRANCH   1  65
ATOM     65  O   UNL A   1      32.010  29.750  27.282  1.00  0.00    -0.376 OA
BRANCH  65  66
ATOM     66  C   UNL A   1      32.815  28.591  27.339  1.00  0.00     0.202 C 
BRANCH  66  67
ATOM     67  C   UNL A   1      32.294  27.231  26.840  1.00  0.00     0.261 C 
BRANCH  67  68
ATOM     68  O   UNL A   1      33.119  26.260  26.168  1.00  0.00    -0.463 OA
BRANCH  68  69
ATOM     69  C   UNL A   1      32.639  24.990  26.213  1.00  0.00     0.310 C 
ATOM     70  O   UNL A   1      31.676  24.667  26.887  1.00  0.00    -0.252 OA
BRANCH  69  71
ATOM     71  C   UNL A   1      33.390  23.999  25.342  1.00  0.00     0.117 C 
ATOM     72  C   UNL A   1      34.904  24.014  25.663  1.00  0.00     0.017 C 
ATOM     73  C   UNL A   1      33.149  24.164  23.830  1.00  0.00     0.084 C 
ATOM     74  C   UNL A   1      35.746  23.030  24.856  1.00  0.00     0.001 C 
ATOM     75  C   UNL A   1      33.924  23.008  23.138  1.00  0.00     0.021 C 
ATOM     76  C   UNL A   1      35.428  23.055  23.370  1.00  0.00     0.002 C 
BRANCH  73  77
ATOM     77  N   UNL A   1      33.674  25.413  23.197  1.00  0.00    -0.207 NA
ATOM     78  H   UNL A   1      34.559  25.151  22.764  1.00  0.00     0.141 HD
BRANCH  77  79
ATOM     79  S   UNL A   1      32.845  26.311  22.027  1.00  0.00     0.240 S 
ATOM     80  O   UNL A   1      33.852  27.108  21.380  1.00  0.00    -0.207 OA
ATOM     81  O   UNL A   1      32.009  25.387  21.280  1.00  0.00    -0.207 OA
BRANCH  79  82
ATOM     82  C   UNL A   1      31.809  27.431  22.943  1.00  0.00     0.083 A 
ATOM     83  C   UNL A   1      32.374  28.576  23.505  1.00  0.00     0.022 A 
ATOM     84  C   UNL A   1      30.423  27.277  22.904  1.00  0.00     0.030 A 
ATOM     85  C   UNL A   1      31.540  29.629  23.899  1.00  0.00     0.010 A 
ATOM     86  C   UNL A   1      29.590  28.376  23.164  1.00  0.00    -0.017 A 
ATOM     87  C   UNL A   1      30.156  29.572  23.662  1.00  0.00    -0.018 A 
ATOM     88  C   UNL A   1      28.233  28.363  22.792  1.00  0.00     0.009 A 
ATOM     89  C   UNL A   1      29.337  30.703  23.819  1.00  0.00     0.009 A 
ATOM     90  C   UNL A   1      27.458  29.520  22.872  1.00  0.00     0.001 A 
ATOM     91  C   UNL A   1      28.004  30.684  23.403  1.00  0.00     0.001 A 
ENDBRANCH  79  82
ENDBRANCH  77  79
ENDBRANCH  73  77
ENDBRANCH  69  71
ENDBRANCH  68  69
ENDBRANCH  67  68
ENDBRANCH  66  67
ENDBRANCH  65  66
ENDBRANCH   1  65
TORSDOF 20
ENDMDL
MODEL 2
REMARK VINA RESULT:     -11.3      5.697     11.345
REMARK SMILES O=C(OCCOCCOCCOC(=O)[C@@H]1CCCC[C@@H]1NS(=O)(=O)c1ccc2ccccc2c1)c1ccc(-c2c3nc(c(-c4c(F)cccc4F)c4ccc([nH]4)c(-c4c(F)cccc4F)c4nc(c(-c5c(F)cccc5F)c5ccc2[nH]5)C=C4)C=C3)cc1
REMARK SMILES IDX 8 1 7 2 6 3 5 4 4 5 3 6 2 7 1 8 35 9 36 10 88 11 37 12 87 13
REMARK SMILES IDX 38 14 39 15 40 16 81 17 41 18 86 19 80 20 82 21 42 22 85 23
REMARK SMILES IDX 79 24 78 25 43 27 69 28 52 29 68 30 53 31 56 32 67 33 83 34
REMARK SMILES IDX 54 35 55 36 66 38 84 39 57 40 44 41 45 42 50 43 46 44 47 45
REMARK SMILES IDX 49 46 51 47 48 48 70 49 71 50 76 51 72 52 73 53 75 54 77 55
REMARK SMILES IDX 74 56 58 57 59 58 64 59 60 60 61 61 63 62 65 63 62 64 9 65
REMARK SMILES IDX 10 66 11 67 12 68 13 69 14 70 15 71 16 72 20 73 17 74 19 75
REMARK SMILES IDX 18 76 21 77 22 79 23 80 24 81 25 82 26 83 34 84 27 85 33 86
REMARK SMILES IDX 28 87 32 88 29 89 31 90 30 91
REMARK H PARENT 82 26 56 37 21 78
REMARK Flexibility Score: inf
ROOT
ATOM      1  C   UNL A   1      46.422  23.460  24.640  1.00  0.00     0.188 C 
ENDROOT
BRANCH   1   2
ATOM      2  C   UNL A   1      45.926  22.062  24.257  1.00  0.00     0.188 C 
BRANCH   2   3
ATOM      3  O   UNL A   1      46.345  20.978  25.072  1.00  0.00    -0.376 OA
BRANCH   3   4
ATOM      4  C   UNL A   1      45.995  19.669  24.603  1.00  0.00     0.202 C 
BRANCH   4   5
ATOM      5  C   UNL A   1      44.538  19.246  24.853  1.00  0.00     0.261 C 
BRANCH   5   6
ATOM      6  O   UNL A   1      43.897  20.142  25.769  1.00  0.00    -0.460 OA
BRANCH   6   7
ATOM      7  C   UNL A   1      42.538  20.121  25.816  1.00  0.00     0.338 C 
ATOM      8  O   UNL A   1      41.787  19.277  25.376  1.00  0.00    -0.246 OA
BRANCH   7   9
ATOM      9  C   UNL A   1      42.164  21.383  26.490  1.00  0.00     0.060 A 
ATOM     10  C   UNL A   1      42.704  22.561  25.964  1.00  0.00     0.016 A 
ATOM     11  C   UNL A   1      41.421  21.413  27.666  1.00  0.00     0.016 A 
ATOM     12  C   UNL A   1      42.686  23.724  26.680  1.00  0.00     0.010 A 
ATOM     13  C   UNL A   1      41.343  22.621  28.372  1.00  0.00     0.010 A 
ATOM     14  C   UNL A   1      42.025  23.761  27.899  1.00  0.00    -0.014 A 
BRANCH  14  15
ATOM     15  C   UNL A   1      42.264  24.956  28.723  1.00  0.00     0.031 A 
ATOM     16  C   UNL A   1      41.226  26.027  28.733  1.00  0.00     0.074 A 
ATOM     17  C   UNL A   1      43.243  24.967  29.646  1.00  0.00     0.049 A 
ATOM     18  N   UNL A   1      41.247  27.180  29.343  1.00  0.00    -0.248 NA
ATOM     19  C   UNL A   1      39.967  25.733  28.026  1.00  0.00     0.031 C 
ATOM     20  C   UNL A   1      44.086  23.825  29.987  1.00  0.00     0.029 A 
ATOM     21  N   UNL A   1      43.680  25.954  30.487  1.00  0.00    -0.354 N 
ATOM     22  C   UNL A   1      40.002  27.739  29.113  1.00  0.00     0.074 A 
ATOM     23  C   UNL A   1      39.261  26.826  28.273  1.00  0.00     0.031 C 
ATOM     24  C   UNL A   1      44.984  24.196  30.908  1.00  0.00     0.029 A 
ATOM     25  C   UNL A   1      44.842  25.615  31.135  1.00  0.00     0.049 A 
ATOM     26  H   UNL A   1      43.213  26.811  30.613  1.00  0.00     0.167 HD
ATOM     27  C   UNL A   1      39.527  28.910  29.589  1.00  0.00     0.037 A 
ATOM     28  C   UNL A   1      45.743  26.383  31.766  1.00  0.00     0.037 A 
ATOM     29  C   UNL A   1      40.302  29.792  30.419  1.00  0.00     0.049 A 
ATOM     30  C   UNL A   1      45.355  27.801  32.011  1.00  0.00     0.074 A 
ATOM     31  C   UNL A   1      39.972  31.044  30.897  1.00  0.00     0.029 A 
ATOM     32  N   UNL A   1      41.579  29.504  30.887  1.00  0.00    -0.354 N 
ATOM     33  N   UNL A   1      44.232  28.397  31.690  1.00  0.00    -0.248 NA
ATOM     34  C   UNL A   1      46.308  28.638  32.741  1.00  0.00     0.031 C 
ATOM     35  C   UNL A   1      41.074  31.540  31.603  1.00  0.00     0.029 A 
ATOM     36  C   UNL A   1      42.069  30.574  31.616  1.00  0.00     0.049 A 
ATOM     37  H   UNL A   1      42.064  28.663  30.725  1.00  0.00     0.167 HD
ATOM     38  C   UNL A   1      44.305  29.659  32.245  1.00  0.00     0.074 A 
ATOM     39  C   UNL A   1      45.601  29.749  32.894  1.00  0.00     0.031 C 
ATOM     40  C   UNL A   1      43.366  30.635  32.247  1.00  0.00     0.037 A 
BRANCH  27  41
ATOM     41  C   UNL A   1      38.156  29.310  29.140  1.00  0.00     0.057 A 
ATOM     42  C   UNL A   1      37.047  29.281  29.997  1.00  0.00     0.134 A 
ATOM     43  C   UNL A   1      37.936  29.670  27.807  1.00  0.00     0.134 A 
ATOM     44  F   UNL A   1      37.184  28.904  31.277  1.00  0.00    -0.206 F 
ATOM     45  C   UNL A   1      35.763  29.576  29.533  1.00  0.00     0.040 A 
ATOM     46  C   UNL A   1      36.661  29.988  27.337  1.00  0.00     0.040 A 
ATOM     47  F   UNL A   1      38.953  29.697  26.933  1.00  0.00    -0.206 F 
ATOM     48  C   UNL A   1      35.569  29.934  28.200  1.00  0.00     0.006 A 
ENDBRANCH  27  41
BRANCH  28  49
ATOM     49  C   UNL A   1      47.085  25.851  32.108  1.00  0.00     0.057 A 
ATOM     50  C   UNL A   1      47.347  25.204  33.317  1.00  0.00     0.134 A 
ATOM     51  C   UNL A   1      48.160  26.009  31.217  1.00  0.00     0.134 A 
ATOM     52  F   UNL A   1      46.364  25.025  34.211  1.00  0.00    -0.206 F 
ATOM     53  C   UNL A   1      48.631  24.759  33.645  1.00  0.00     0.040 A 
ATOM     54  C   UNL A   1      49.444  25.557  31.524  1.00  0.00     0.040 A 
ATOM     55  F   UNL A   1      47.974  26.605  30.029  1.00  0.00    -0.206 F 
ATOM     56  C   UNL A   1      49.684  24.938  32.748  1.00  0.00     0.006 A 
ENDBRANCH  28  49
BRANCH  40  57
ATOM     57  C   UNL A   1      43.697  31.858  33.038  1.00  0.00     0.057 A 
ATOM     58  C   UNL A   1      43.370  31.975  34.393  1.00  0.00     0.134 A 
ATOM     59  C   UNL A   1      44.362  32.927  32.427  1.00  0.00     0.134 A 
ATOM     60  F   UNL A   1      42.706  30.992  35.020  1.00  0.00    -0.206 F 
ATOM     61  C   UNL A   1      43.676  33.128  35.111  1.00  0.00     0.040 A 
ATOM     62  C   UNL A   1      44.702  34.071  33.143  1.00  0.00     0.040 A 
ATOM     63  F   UNL A   1      44.697  32.870  31.128  1.00  0.00    -0.206 F 
ATOM     64  C   UNL A   1      44.352  34.177  34.487  1.00  0.00     0.006 A 
ENDBRANCH  40  57
ENDBRANCH  14  15
ENDBRANCH   7   9
ENDBRANCH   6   7
ENDBRANCH   5   6
ENDBRANCH   4   5
ENDBRANCH   3   4
ENDBRANCH   2   3
ENDBRANCH   1   2
BRANCH   1  65
ATOM     65  O   UNL A   1      47.062  23.721  25.874  1.00  0.00    -0.376 OA
BRANCH  65  66
ATOM     66  C   UNL A   1      46.298  24.043  27.018  1.00  0.00     0.202 C 
BRANCH  66  67
ATOM     67  C   UNL A   1      46.205  25.489  27.536  1.00  0.00     0.261 C 
BRANCH  67  68
ATOM     68  O   UNL A   1      46.603  26.639  26.765  1.00  0.00    -0.463 OA
BRANCH  68  69
ATOM     69  C   UNL A   1      45.738  26.974  25.773  1.00  0.00     0.310 C 
ATOM     70  O   UNL A   1      46.026  26.916  24.590  1.00  0.00    -0.252 OA
BRANCH  69  71
ATOM     71  C   UNL A   1      44.368  27.417  26.255  1.00  0.00     0.117 C 
ATOM     72  C   UNL A   1      43.366  27.502  25.079  1.00  0.00     0.017 C 
ATOM     73  C   UNL A   1      44.367  28.722  27.071  1.00  0.00     0.084 C 
ATOM     74  C   UNL A   1      41.948  27.915  25.464  1.00  0.00     0.001 C 
ATOM     75  C   UNL A   1      42.901  28.941  27.541  1.00  0.00     0.021 C 
ATOM     76  C   UNL A   1      41.912  29.114  26.397  1.00  0.00     0.002 C 
BRANCH  73  77
ATOM     77  N   UNL A   1      44.727  29.976  26.337  1.00  0.00    -0.207 NA
ATOM     78  H   UNL A   1      43.872  30.532  26.307  1.00  0.00     0.141 HD
BRANCH  77  79
ATOM     79  S   UNL A   1      45.948  31.044  26.815  1.00  0.00     0.240 S 
ATOM     80  O   UNL A   1      46.130  30.802  28.222  1.00  0.00    -0.207 OA
ATOM     81  O   UNL A   1      47.044  30.905  25.872  1.00  0.00    -0.207 OA
BRANCH  79  82
ATOM     82  C   UNL A   1      45.239  32.668  26.659  1.00  0.00     0.083 A 
ATOM     83  C   UNL A   1      44.687  33.056  25.438  1.00  0.00     0.022 A 
ATOM     84  C   UNL A   1      45.041  33.447  27.799  1.00  0.00     0.030 A 
ATOM     85  C   UNL A   1      43.819  34.153  25.396  1.00  0.00     0.010 A 
ATOM     86  C   UNL A   1      44.067  34.457  27.796  1.00  0.00    -0.017 A 
ATOM     87  C   UNL A   1      43.442  34.812  26.579  1.00  0.00    -0.018 A 
ATOM     88  C   UNL A   1      43.591  35.011  28.999  1.00  0.00     0.009 A 
ATOM     89  C   UNL A   1      42.392  35.746  26.597  1.00  0.00     0.009 A 
ATOM     90  C   UNL A   1      42.491  35.869  29.005  1.00  0.00     0.001 A 
ATOM     91  C   UNL A   1      41.905  36.252  27.803  1.00  0.00     0.001 A 
ENDBRANCH  79  82
ENDBRANCH  77  79
ENDBRANCH  73  77
ENDBRANCH  69  71
ENDBRANCH  68  69
ENDBRANCH  67  68
ENDBRANCH  66  67
ENDBRANCH  65  66
ENDBRANCH   1  65
TORSDOF 20
ENDMDL
MODEL 3
REMARK VINA RESULT:     -11.3      3.498      7.040
REMARK SMILES O=C(OCCOCCOCCOC(=O)[C@@H]1CCCC[C@@H]1NS(=O)(=O)c1ccc2ccccc2c1)c1ccc(-c2c3nc(c(-c4c(F)cccc4F)c4ccc([nH]4)c(-c4c(F)cccc4F)c4nc(c(-c5c(F)cccc5F)c5ccc2[nH]5)C=C4)C=C3)cc1
REMARK SMILES IDX 8 1 7 2 6 3 5 4 4 5 3 6 2 7 1 8 35 9 36 10 88 11 37 12 87 13
REMARK SMILES IDX 38 14 39 15 40 16 81 17 41 18 86 19 80 20 82 21 42 22 85 23
REMARK SMILES IDX 79 24 78 25 43 27 69 28 52 29 68 30 53 31 56 32 67 33 83 34
REMARK SMILES IDX 54 35 55 36 66 38 84 39 57 40 44 41 45 42 50 43 46 44 47 45
REMARK SMILES IDX 49 46 51 47 48 48 70 49 71 50 76 51 72 52 73 53 75 54 77 55
REMARK SMILES IDX 74 56 58 57 59 58 64 59 60 60 61 61 63 62 65 63 62 64 9 65
REMARK SMILES IDX 10 66 11 67 12 68 13 69 14 70 15 71 16 72 20 73 17 74 19 75
REMARK SMILES IDX 18 76 21 77 22 79 23 80 24 81 25 82 26 83 34 84 27 85 33 86
REMARK SMILES IDX 28 87 32 88 29 89 31 90 30 91
REMARK H PARENT 82 26 56 37 21 78
REMARK Flexibility Score: inf
ROOT
ATOM      1  C   UNL A   1      34.008  28.336  25.813  1.00  0.00     0.188 C 
ENDROOT
BRANCH   1   2
ATOM      2  C   UNL A   1      33.711  29.805  26.129  1.00  0.00     0.188 C 
BRANCH   2   3
ATOM      3  O   UNL A   1      32.429  30.300  25.775  1.00  0.00    -0.376 OA
BRANCH   3   4
ATOM      4  C   UNL A   1      31.648  30.844  26.847  1.00  0.00     0.202 C 
BRANCH   4   5
ATOM      5  C   UNL A   1      31.507  32.375  26.852  1.00  0.00     0.261 C 
BRANCH   5   6
ATOM      6  O   UNL A   1      32.793  33.005  26.893  1.00  0.00    -0.460 OA
BRANCH   6   7
ATOM      7  C   UNL A   1      33.232  33.453  28.100  1.00  0.00     0.338 C 
ATOM      8  O   UNL A   1      32.688  34.235  28.849  1.00  0.00    -0.246 OA
BRANCH   7   9
ATOM      9  C   UNL A   1      34.548  32.808  28.287  1.00  0.00     0.060 A 
ATOM     10  C   UNL A   1      34.543  31.500  28.784  1.00  0.00     0.016 A 
ATOM     11  C   UNL A   1      35.749  33.488  28.109  1.00  0.00     0.016 A 
ATOM     12  C   UNL A   1      35.680  30.934  29.287  1.00  0.00     0.010 A 
ATOM     13  C   UNL A   1      36.929  32.884  28.562  1.00  0.00     0.010 A 
ATOM     14  C   UNL A   1      36.879  31.628  29.201  1.00  0.00    -0.014 A 
BRANCH  14  15
ATOM     15  C   UNL A   1      37.996  31.077  29.983  1.00  0.00     0.031 A 
ATOM     16  C   UNL A   1      38.878  30.061  29.338  1.00  0.00     0.074 A 
ATOM     17  C   UNL A   1      38.382  31.660  31.132  1.00  0.00     0.049 A 
ATOM     18  N   UNL A   1      39.885  29.409  29.850  1.00  0.00    -0.248 NA
ATOM     19  C   UNL A   1      38.645  29.798  27.907  1.00  0.00     0.031 C 
ATOM     20  C   UNL A   1      37.825  32.898  31.670  1.00  0.00     0.029 A 
ATOM     21  N   UNL A   1      39.345  31.317  32.041  1.00  0.00    -0.354 N 
ATOM     22  C   UNL A   1      40.418  28.677  28.803  1.00  0.00     0.074 A 
ATOM     23  C   UNL A   1      39.603  28.925  27.636  1.00  0.00     0.031 C 
ATOM     24  C   UNL A   1      38.402  33.168  32.849  1.00  0.00     0.029 A 
ATOM     25  C   UNL A   1      39.281  32.073  33.186  1.00  0.00     0.049 A 
ATOM     26  H   UNL A   1      40.010  30.606  31.891  1.00  0.00     0.167 HD
ATOM     27  C   UNL A   1      41.511  27.884  28.829  1.00  0.00     0.037 A 
ATOM     28  C   UNL A   1      39.801  31.856  34.402  1.00  0.00     0.037 A 
ATOM     29  C   UNL A   1      42.291  27.661  30.016  1.00  0.00     0.049 A 
ATOM     30  C   UNL A   1      40.785  30.743  34.517  1.00  0.00     0.074 A 
ATOM     31  C   UNL A   1      43.368  26.817  30.198  1.00  0.00     0.029 A 
ATOM     32  N   UNL A   1      42.062  28.292  31.233  1.00  0.00    -0.354 N 
ATOM     33  N   UNL A   1      41.217  29.945  33.570  1.00  0.00    -0.248 NA
ATOM     34  C   UNL A   1      41.398  30.525  35.829  1.00  0.00     0.031 C 
ATOM     35  C   UNL A   1      43.750  26.892  31.543  1.00  0.00     0.029 A 
ATOM     36  C   UNL A   1      42.951  27.826  32.185  1.00  0.00     0.049 A 
ATOM     37  H   UNL A   1      41.368  28.973  31.395  1.00  0.00     0.167 HD
ATOM     38  C   UNL A   1      42.209  29.178  34.147  1.00  0.00     0.074 A 
ATOM     39  C   UNL A   1      42.289  29.587  35.538  1.00  0.00     0.031 C 
ATOM     40  C   UNL A   1      43.004  28.250  33.563  1.00  0.00     0.037 A 
BRANCH  27  41
ATOM     41  C   UNL A   1      41.842  27.158  27.562  1.00  0.00     0.057 A 
ATOM     42  C   UNL A   1      41.367  25.868  27.290  1.00  0.00     0.134 A 
ATOM     43  C   UNL A   1      42.705  27.742  26.628  1.00  0.00     0.134 A 
ATOM     44  F   UNL A   1      40.569  25.236  28.165  1.00  0.00    -0.206 F 
ATOM     45  C   UNL A   1      41.758  25.177  26.141  1.00  0.00     0.040 A 
ATOM     46  C   UNL A   1      43.085  27.069  25.466  1.00  0.00     0.040 A 
ATOM     47  F   UNL A   1      43.209  28.966  26.841  1.00  0.00    -0.206 F 
ATOM     48  C   UNL A   1      42.617  25.780  25.224  1.00  0.00     0.006 A 
ENDBRANCH  27  41
BRANCH  28  49
ATOM     49  C   UNL A   1      39.334  32.635  35.576  1.00  0.00     0.057 A 
ATOM     50  C   UNL A   1      39.883  33.872  35.918  1.00  0.00     0.134 A 
ATOM     51  C   UNL A   1      38.324  32.127  36.409  1.00  0.00     0.134 A 
ATOM     52  F   UNL A   1      40.854  34.409  35.165  1.00  0.00    -0.206 F 
ATOM     53  C   UNL A   1      39.469  34.564  37.059  1.00  0.00     0.040 A 
ATOM     54  C   UNL A   1      37.889  32.814  37.543  1.00  0.00     0.040 A 
ATOM     55  F   UNL A   1      37.739  30.952  36.128  1.00  0.00    -0.206 F 
ATOM     56  C   UNL A   1      38.470  34.034  37.877  1.00  0.00     0.006 A 
ENDBRANCH  28  49
BRANCH  40  57
ATOM     57  C   UNL A   1      44.072  27.668  34.429  1.00  0.00     0.057 A 
ATOM     58  C   UNL A   1      43.881  26.483  35.146  1.00  0.00     0.134 A 
ATOM     59  C   UNL A   1      45.314  28.307  34.532  1.00  0.00     0.134 A 
ATOM     60  F   UNL A   1      42.701  25.846  35.106  1.00  0.00    -0.206 F 
ATOM     61  C   UNL A   1      44.886  25.961  35.958  1.00  0.00     0.040 A 
ATOM     62  C   UNL A   1      46.336  27.777  35.315  1.00  0.00     0.040 A 
ATOM     63  F   UNL A   1      45.551  29.449  33.868  1.00  0.00    -0.206 F 
ATOM     64  C   UNL A   1      46.121  26.605  36.036  1.00  0.00     0.006 A 
ENDBRANCH  40  57
ENDBRANCH  14  15
ENDBRANCH   7   9
ENDBRANCH   6   7
ENDBRANCH   5   6
ENDBRANCH   4   5
ENDBRANCH   3   4
ENDBRANCH   2   3
ENDBRANCH   1   2
BRANCH   1  65
ATOM     65  O   UNL A   1      32.980  27.385  25.614  1.00  0.00    -0.376 OA
BRANCH  65  66
ATOM     66  C   UNL A   1      32.129  27.024  26.682  1.00  0.00     0.202 C 
BRANCH  66  67
ATOM     67  C   UNL A   1      30.959  26.045  26.477  1.00  0.00     0.261 C 
BRANCH  67  68
ATOM     68  O   UNL A   1      31.089  24.780  25.797  1.00  0.00    -0.463 OA
BRANCH  68  69
ATOM     69  C   UNL A   1      31.830  23.860  26.466  1.00  0.00     0.310 C 
ATOM     70  O   UNL A   1      31.539  23.449  27.576  1.00  0.00    -0.252 OA
BRANCH  69  71
ATOM     71  C   UNL A   1      33.052  23.365  25.712  1.00  0.00     0.117 C 
ATOM     72  C   UNL A   1      34.355  23.889  26.361  1.00  0.00     0.017 C 
ATOM     73  C   UNL A   1      33.035  23.661  24.201  1.00  0.00     0.084 C 
ATOM     74  C   UNL A   1      35.644  23.425  25.691  1.00  0.00     0.001 C 
ATOM     75  C   UNL A   1      34.312  22.997  23.614  1.00  0.00     0.021 C 
ATOM     76  C   UNL A   1      35.609  23.560  24.177  1.00  0.00     0.002 C 
BRANCH  73  77
ATOM     77  N   UNL A   1      33.128  25.099  23.796  1.00  0.00    -0.207 NA
ATOM     78  H   UNL A   1      34.123  25.322  23.799  1.00  0.00     0.141 HD
BRANCH  77  79
ATOM     79  S   UNL A   1      32.527  25.720  22.342  1.00  0.00     0.240 S 
ATOM     80  O   UNL A   1      33.687  26.157  21.611  1.00  0.00    -0.207 OA
ATOM     81  O   UNL A   1      31.608  24.738  21.793  1.00  0.00    -0.207 OA
BRANCH  79  82
ATOM     82  C   UNL A   1      31.622  27.183  22.795  1.00  0.00     0.083 A 
ATOM     83  C   UNL A   1      32.141  28.435  22.463  1.00  0.00     0.022 A 
ATOM     84  C   UNL A   1      30.316  27.067  23.271  1.00  0.00     0.030 A 
ATOM     85  C   UNL A   1      31.298  29.552  22.477  1.00  0.00     0.010 A 
ATOM     86  C   UNL A   1      29.430  28.149  23.154  1.00  0.00    -0.017 A 
ATOM     87  C   UNL A   1      29.926  29.409  22.745  1.00  0.00    -0.018 A 
ATOM     88  C   UNL A   1      28.041  27.968  23.282  1.00  0.00     0.009 A 
ATOM     89  C   UNL A   1      29.020  30.460  22.524  1.00  0.00     0.009 A 
ATOM     90  C   UNL A   1      27.153  28.999  22.974  1.00  0.00     0.001 A 
ATOM     91  C   UNL A   1      27.643  30.250  22.615  1.00  0.00     0.001 A 
ENDBRANCH  79  82
ENDBRANCH  77  79
ENDBRANCH  73  77
ENDBRANCH  69  71
ENDBRANCH  68  69
ENDBRANCH  67  68
ENDBRANCH  66  67
ENDBRANCH  65  66
ENDBRANCH   1  65
TORSDOF 20
ENDMDL
