MODEL 1
REMARK VINA RESULT:      -8.9      0.000      0.000
REMARK SMILES C[C@H]([C@@H]1CCCO1)n1c(SCC(=O)OCCOCCOCCOC(=O)c2ccc(-c3c4nc(c(-c5c(F)cccc5F)c5ccc([nH]5)c(-c5c(F)cccc5F)c5nc(c(-c6c(F)cccc6F)c6ccc3[nH]6)C=C5)C=C4)cc2)nc2cnccc21
REMARK SMILES IDX 18 1 17 2 16 3 15 4 14 5 12 6 13 7 11 8 10 9 9 10 8 11 86 12
REMARK SMILES IDX 80 13 81 14 85 15 82 16 84 17 83 18 2 19 1 20 3 21 4 22 7 23
REMARK SMILES IDX 5 24 6 25 19 26 20 27 21 28 22 29 23 30 24 31 25 32 26 33
REMARK SMILES IDX 27 34 79 35 28 36 78 37 29 38 30 39 31 40 72 41 32 42 77 43
REMARK SMILES IDX 71 44 73 45 33 46 76 47 70 48 69 49 34 51 60 52 43 53 59 54
REMARK SMILES IDX 44 55 47 56 58 57 74 58 45 59 46 60 57 62 75 63 48 64 35 65
REMARK SMILES IDX 36 66 41 67 37 68 38 69 40 70 42 71 39 72 61 73 62 74 67 75
REMARK SMILES IDX 63 76 64 77 66 78 68 79 65 80 49 81 50 82 55 83 51 84 52 85
REMARK SMILES IDX 54 86 56 87 53 88
REMARK H PARENT 73 50 47 61
REMARK Flexibility Score: inf
ROOT
ATOM      1  C   UNL A   1      33.148  33.949  28.474  1.00  0.00     0.188 C 
ENDROOT
BRANCH   1   2
ATOM      2  O   UNL A   1      32.655  35.032  29.263  1.00  0.00    -0.376 OA
BRANCH   2   3
ATOM      3  C   UNL A   1      33.709  35.700  29.958  1.00  0.00     0.202 C 
BRANCH   3   4
ATOM      4  C   UNL A   1      33.535  35.799  31.488  1.00  0.00     0.261 C 
BRANCH   4   5
ATOM      5  O   UNL A   1      33.303  34.510  32.114  1.00  0.00    -0.463 OA
BRANCH   5   6
ATOM      6  C   UNL A   1      34.363  33.667  32.154  1.00  0.00     0.316 C 
ATOM      7  O   UNL A   1      34.344  32.537  31.665  1.00  0.00    -0.251 OA
BRANCH   6   8
ATOM      8  C   UNL A   1      35.668  34.228  32.714  1.00  0.00     0.200 C 
BRANCH   8   9
ATOM      9  S   UNL A   1      36.649  33.304  33.900  1.00  0.00    -0.076 SA
BRANCH   9  10
ATOM     10  C   UNL A   1      37.530  31.928  33.234  1.00  0.00     0.170 A 
ATOM     11  N   UNL A   1      38.860  31.763  32.913  1.00  0.00    -0.313 N 
ATOM     12  C   UNL A   1      39.139  30.397  32.922  1.00  0.00     0.072 A 
ATOM     13  N   UNL A   1      36.919  30.756  33.160  1.00  0.00    -0.221 NA
ATOM     14  C   UNL A   1      37.894  29.797  32.973  1.00  0.00     0.108 A 
ATOM     15  C   UNL A   1      40.316  29.638  32.875  1.00  0.00     0.049 A 
ATOM     16  C   UNL A   1      37.829  28.402  32.883  1.00  0.00     0.141 A 
ATOM     17  C   UNL A   1      40.161  28.266  32.836  1.00  0.00     0.113 A 
ATOM     18  N   UNL A   1      38.965  27.648  32.813  1.00  0.00    -0.262 NA
BRANCH  11  19
ATOM     19  C   UNL A   1      39.854  32.707  32.463  1.00  0.00     0.116 C 
ATOM     20  C   UNL A   1      40.402  33.606  33.559  1.00  0.00     0.034 C 
BRANCH  19  21
ATOM     21  C   UNL A   1      39.605  33.302  31.066  1.00  0.00     0.141 C 
ATOM     22  C   UNL A   1      38.888  34.616  30.840  1.00  0.00     0.036 C 
ATOM     23  O   UNL A   1      38.915  32.353  30.215  1.00  0.00    -0.376 OA
ATOM     24  C   UNL A   1      38.617  34.546  29.358  1.00  0.00     0.031 C 
ATOM     25  C   UNL A   1      38.256  33.091  29.173  1.00  0.00     0.160 C 
ENDBRANCH  19  21
ENDBRANCH  11  19
ENDBRANCH   9  10
ENDBRANCH   8   9
ENDBRANCH   6   8
ENDBRANCH   5   6
ENDBRANCH   4   5
ENDBRANCH   3   4
ENDBRANCH   2   3
ENDBRANCH   1   2
BRANCH   1  26
ATOM     26  C   UNL A   1      34.655  33.795  28.422  1.00  0.00     0.188 C 
BRANCH  26  27
ATOM     27  O   UNL A   1      35.083  32.728  27.597  1.00  0.00    -0.376 OA
BRANCH  27  28
ATOM     28  C   UNL A   1      34.138  31.661  27.472  1.00  0.00     0.202 C 
BRANCH  28  29
ATOM     29  C   UNL A   1      34.689  30.239  27.738  1.00  0.00     0.261 C 
BRANCH  29  30
ATOM     30  O   UNL A   1      36.141  30.112  27.646  1.00  0.00    -0.460 OA
BRANCH  30  31
ATOM     31  C   UNL A   1      36.739  29.651  28.799  1.00  0.00     0.338 C 
ATOM     32  O   UNL A   1      36.223  29.640  29.892  1.00  0.00    -0.246 OA
BRANCH  31  33
ATOM     33  C   UNL A   1      38.033  28.938  28.514  1.00  0.00     0.060 A 
ATOM     34  C   UNL A   1      38.609  27.972  29.347  1.00  0.00     0.016 A 
ATOM     35  C   UNL A   1      38.765  29.347  27.401  1.00  0.00     0.016 A 
ATOM     36  C   UNL A   1      39.981  27.618  29.212  1.00  0.00     0.010 A 
ATOM     37  C   UNL A   1      40.138  29.061  27.323  1.00  0.00     0.010 A 
ATOM     38  C   UNL A   1      40.810  28.287  28.301  1.00  0.00    -0.014 A 
BRANCH  38  39
ATOM     39  C   UNL A   1      42.297  28.040  28.146  1.00  0.00     0.031 A 
ATOM     40  C   UNL A   1      42.411  26.934  27.185  1.00  0.00     0.074 A 
ATOM     41  C   UNL A   1      43.485  28.569  28.605  1.00  0.00     0.049 A 
ATOM     42  N   UNL A   1      42.071  25.728  27.510  1.00  0.00    -0.248 NA
ATOM     43  C   UNL A   1      42.598  27.138  25.740  1.00  0.00     0.031 C 
ATOM     44  C   UNL A   1      43.742  29.766  29.427  1.00  0.00     0.029 A 
ATOM     45  N   UNL A   1      44.799  28.173  28.343  1.00  0.00    -0.354 N 
ATOM     46  C   UNL A   1      42.486  24.992  26.433  1.00  0.00     0.074 A 
ATOM     47  C   UNL A   1      42.397  25.885  25.305  1.00  0.00     0.031 C 
ATOM     48  C   UNL A   1      45.049  30.141  29.364  1.00  0.00     0.029 A 
ATOM     49  C   UNL A   1      45.808  29.090  28.709  1.00  0.00     0.049 A 
ATOM     50  H   UNL A   1      45.009  27.305  27.928  1.00  0.00     0.167 HD
ATOM     51  C   UNL A   1      43.385  24.000  26.673  1.00  0.00     0.037 A 
ATOM     52  C   UNL A   1      47.170  28.939  28.705  1.00  0.00     0.037 A 
ATOM     53  C   UNL A   1      43.571  23.794  28.106  1.00  0.00     0.049 A 
ATOM     54  C   UNL A   1      47.407  27.536  29.092  1.00  0.00     0.074 A 
ATOM     55  C   UNL A   1      42.801  23.426  29.193  1.00  0.00     0.029 A 
ATOM     56  N   UNL A   1      44.657  24.451  28.618  1.00  0.00    -0.354 N 
ATOM     57  N   UNL A   1      47.168  27.083  30.288  1.00  0.00    -0.248 NA
ATOM     58  C   UNL A   1      47.693  26.532  28.078  1.00  0.00     0.031 C 
ATOM     59  C   UNL A   1      43.457  23.918  30.365  1.00  0.00     0.029 A 
ATOM     60  C   UNL A   1      44.640  24.534  29.987  1.00  0.00     0.049 A 
ATOM     61  H   UNL A   1      45.377  24.824  28.060  1.00  0.00     0.167 HD
ATOM     62  C   UNL A   1      46.738  25.802  30.045  1.00  0.00     0.074 A 
ATOM     63  C   UNL A   1      47.296  25.448  28.747  1.00  0.00     0.031 C 
ATOM     64  C   UNL A   1      45.618  25.348  30.675  1.00  0.00     0.037 A 
BRANCH  51  65
ATOM     65  C   UNL A   1      44.463  23.593  25.703  1.00  0.00     0.057 A 
ATOM     66  C   UNL A   1      45.543  24.398  25.282  1.00  0.00     0.134 A 
ATOM     67  C   UNL A   1      44.559  22.237  25.368  1.00  0.00     0.134 A 
ATOM     68  F   UNL A   1      45.684  25.677  25.647  1.00  0.00    -0.206 F 
ATOM     69  C   UNL A   1      46.616  23.902  24.544  1.00  0.00     0.040 A 
ATOM     70  C   UNL A   1      45.659  21.715  24.679  1.00  0.00     0.040 A 
ATOM     71  F   UNL A   1      43.617  21.367  25.760  1.00  0.00    -0.206 F 
ATOM     72  C   UNL A   1      46.688  22.550  24.257  1.00  0.00     0.006 A 
ENDBRANCH  51  65
BRANCH  52  73
ATOM     73  C   UNL A   1      48.372  29.824  28.571  1.00  0.00     0.057 A 
ATOM     74  C   UNL A   1      48.644  30.807  29.531  1.00  0.00     0.134 A 
ATOM     75  C   UNL A   1      49.043  29.992  27.336  1.00  0.00     0.134 A 
ATOM     76  F   UNL A   1      48.039  30.770  30.727  1.00  0.00    -0.206 F 
ATOM     77  C   UNL A   1      49.464  31.921  29.259  1.00  0.00     0.040 A 
ATOM     78  C   UNL A   1      49.860  31.098  27.050  1.00  0.00     0.040 A 
ATOM     79  F   UNL A   1      48.859  29.125  26.328  1.00  0.00    -0.206 F 
ATOM     80  C   UNL A   1      50.053  32.083  28.007  1.00  0.00     0.006 A 
ENDBRANCH  52  73
BRANCH  64  81
ATOM     81  C   UNL A   1      45.396  25.814  32.086  1.00  0.00     0.057 A 
ATOM     82  C   UNL A   1      46.292  25.367  33.064  1.00  0.00     0.134 A 
ATOM     83  C   UNL A   1      44.395  26.699  32.516  1.00  0.00     0.134 A 
ATOM     84  F   UNL A   1      47.274  24.511  32.739  1.00  0.00    -0.206 F 
ATOM     85  C   UNL A   1      46.213  25.784  34.396  1.00  0.00     0.040 A 
ATOM     86  C   UNL A   1      44.322  27.150  33.841  1.00  0.00     0.040 A 
ATOM     87  F   UNL A   1      43.451  27.147  31.679  1.00  0.00    -0.206 F 
ATOM     88  C   UNL A   1      45.234  26.692  34.786  1.00  0.00     0.006 A 
ENDBRANCH  64  81
ENDBRANCH  38  39
ENDBRANCH  31  33
ENDBRANCH  30  31
ENDBRANCH  29  30
ENDBRANCH  28  29
ENDBRANCH  27  28
ENDBRANCH  26  27
ENDBRANCH   1  26
TORSDOF 21
ENDMDL
MODEL 2
REMARK VINA RESULT:      -8.9      5.140     10.319
REMARK SMILES C[C@H]([C@@H]1CCCO1)n1c(SCC(=O)OCCOCCOCCOC(=O)c2ccc(-c3c4nc(c(-c5c(F)cccc5F)c5ccc([nH]5)c(-c5c(F)cccc5F)c5nc(c(-c6c(F)cccc6F)c6ccc3[nH]6)C=C5)C=C4)cc2)nc2cnccc21
REMARK SMILES IDX 18 1 17 2 16 3 15 4 14 5 12 6 13 7 11 8 10 9 9 10 8 11 86 12
REMARK SMILES IDX 80 13 81 14 85 15 82 16 84 17 83 18 2 19 1 20 3 21 4 22 7 23
REMARK SMILES IDX 5 24 6 25 19 26 20 27 21 28 22 29 23 30 24 31 25 32 26 33
REMARK SMILES IDX 27 34 79 35 28 36 78 37 29 38 30 39 31 40 72 41 32 42 77 43
REMARK SMILES IDX 71 44 73 45 33 46 76 47 70 48 69 49 34 51 60 52 43 53 59 54
REMARK SMILES IDX 44 55 47 56 58 57 74 58 45 59 46 60 57 62 75 63 48 64 35 65
REMARK SMILES IDX 36 66 41 67 37 68 38 69 40 70 42 71 39 72 61 73 62 74 67 75
REMARK SMILES IDX 63 76 64 77 66 78 68 79 65 80 49 81 50 82 55 83 51 84 52 85
REMARK SMILES IDX 54 86 56 87 53 88
REMARK H PARENT 73 50 47 61
REMARK Flexibility Score: inf
ROOT
ATOM      1  C   UNL A   1      33.745  31.415  27.845  1.00  0.00     0.188 C 
ENDROOT
BRANCH   1   2
ATOM      2  O   UNL A   1      32.575  31.338  27.030  1.00  0.00    -0.376 OA
BRANCH   2   3
ATOM      3  C   UNL A   1      32.343  30.007  26.566  1.00  0.00     0.202 C 
BRANCH   3   4
ATOM      4  C   UNL A   1      33.582  29.273  26.010  1.00  0.00     0.261 C 
BRANCH   4   5
ATOM      5  O   UNL A   1      33.245  28.275  25.013  1.00  0.00    -0.463 OA
BRANCH   5   6
ATOM      6  C   UNL A   1      32.964  27.034  25.481  1.00  0.00     0.316 C 
ATOM      7  O   UNL A   1      33.171  26.690  26.645  1.00  0.00    -0.251 OA
BRANCH   6   8
ATOM      8  C   UNL A   1      32.229  26.091  24.532  1.00  0.00     0.200 C 
BRANCH   8   9
ATOM      9  S   UNL A   1      31.371  24.636  25.141  1.00  0.00    -0.076 SA
BRANCH   9  10
ATOM     10  C   UNL A   1      32.080  23.093  24.662  1.00  0.00     0.170 A 
ATOM     11  N   UNL A   1      32.707  22.108  25.394  1.00  0.00    -0.313 N 
ATOM     12  C   UNL A   1      32.616  20.915  24.679  1.00  0.00     0.072 A 
ATOM     13  N   UNL A   1      31.864  22.647  23.434  1.00  0.00    -0.221 NA
ATOM     14  C   UNL A   1      32.183  21.304  23.425  1.00  0.00     0.108 A 
ATOM     15  C   UNL A   1      32.874  19.571  24.982  1.00  0.00     0.049 A 
ATOM     16  C   UNL A   1      32.097  20.329  22.425  1.00  0.00     0.141 A 
ATOM     17  C   UNL A   1      32.718  18.669  23.947  1.00  0.00     0.113 A 
ATOM     18  N   UNL A   1      32.368  19.017  22.695  1.00  0.00    -0.262 NA
BRANCH  11  19
ATOM     19  C   UNL A   1      33.498  22.177  26.600  1.00  0.00     0.116 C 
ATOM     20  C   UNL A   1      32.740  22.689  27.814  1.00  0.00     0.034 C 
BRANCH  19  21
ATOM     21  C   UNL A   1      34.961  22.609  26.398  1.00  0.00     0.141 C 
ATOM     22  C   UNL A   1      35.362  23.838  25.611  1.00  0.00     0.036 C 
ATOM     23  O   UNL A   1      35.743  21.531  25.825  1.00  0.00    -0.376 OA
ATOM     24  C   UNL A   1      36.841  23.598  25.436  1.00  0.00     0.031 C 
ATOM     25  C   UNL A   1      36.891  22.110  25.184  1.00  0.00     0.160 C 
ENDBRANCH  19  21
ENDBRANCH  11  19
ENDBRANCH   9  10
ENDBRANCH   8   9
ENDBRANCH   6   8
ENDBRANCH   5   6
ENDBRANCH   4   5
ENDBRANCH   3   4
ENDBRANCH   2   3
ENDBRANCH   1   2
BRANCH   1  26
ATOM     26  C   UNL A   1      34.278  32.807  28.114  1.00  0.00     0.188 C 
BRANCH  26  27
ATOM     27  O   UNL A   1      33.506  33.534  29.052  1.00  0.00    -0.376 OA
BRANCH  27  28
ATOM     28  C   UNL A   1      33.304  34.910  28.713  1.00  0.00     0.202 C 
BRANCH  28  29
ATOM     29  C   UNL A   1      32.924  35.843  29.888  1.00  0.00     0.261 C 
BRANCH  29  30
ATOM     30  O   UNL A   1      32.365  35.170  31.056  1.00  0.00    -0.460 OA
BRANCH  30  31
ATOM     31  C   UNL A   1      32.963  35.521  32.247  1.00  0.00     0.338 C 
ATOM     32  O   UNL A   1      32.469  36.232  33.090  1.00  0.00    -0.246 OA
BRANCH  31  33
ATOM     33  C   UNL A   1      34.219  34.730  32.499  1.00  0.00     0.060 A 
ATOM     34  C   UNL A   1      35.482  35.292  32.720  1.00  0.00     0.016 A 
ATOM     35  C   UNL A   1      34.142  33.343  32.392  1.00  0.00     0.016 A 
ATOM     36  C   UNL A   1      36.662  34.509  32.581  1.00  0.00     0.010 A 
ATOM     37  C   UNL A   1      35.309  32.593  32.172  1.00  0.00     0.010 A 
ATOM     38  C   UNL A   1      36.596  33.181  32.137  1.00  0.00    -0.014 A 
BRANCH  38  39
ATOM     39  C   UNL A   1      37.800  32.298  31.879  1.00  0.00     0.031 A 
ATOM     40  C   UNL A   1      38.342  31.978  33.207  1.00  0.00     0.074 A 
ATOM     41  C   UNL A   1      38.448  31.724  30.805  1.00  0.00     0.049 A 
ATOM     42  N   UNL A   1      38.940  32.878  33.919  1.00  0.00    -0.248 NA
ATOM     43  C   UNL A   1      37.984  30.760  33.951  1.00  0.00     0.031 C 
ATOM     44  C   UNL A   1      38.083  31.693  29.376  1.00  0.00     0.029 A 
ATOM     45  N   UNL A   1      39.593  30.923  30.777  1.00  0.00    -0.354 N 
ATOM     46  C   UNL A   1      39.439  32.155  34.969  1.00  0.00     0.074 A 
ATOM     47  C   UNL A   1      38.522  31.056  35.144  1.00  0.00     0.031 C 
ATOM     48  C   UNL A   1      38.785  30.738  28.706  1.00  0.00     0.029 A 
ATOM     49  C   UNL A   1      39.840  30.237  29.569  1.00  0.00     0.049 A 
ATOM     50  H   UNL A   1      40.192  30.843  31.554  1.00  0.00     0.167 HD
ATOM     51  C   UNL A   1      40.785  32.186  35.157  1.00  0.00     0.037 A 
ATOM     52  C   UNL A   1      40.930  29.497  29.191  1.00  0.00     0.037 A 
ATOM     53  C   UNL A   1      41.414  33.177  34.290  1.00  0.00     0.049 A 
ATOM     54  C   UNL A   1      42.091  30.180  29.791  1.00  0.00     0.074 A 
ATOM     55  C   UNL A   1      41.361  34.545  34.095  1.00  0.00     0.029 A 
ATOM     56  N   UNL A   1      41.921  32.651  33.132  1.00  0.00    -0.354 N 
ATOM     57  N   UNL A   1      42.507  31.348  29.394  1.00  0.00    -0.248 NA
ATOM     58  C   UNL A   1      42.680  29.682  31.024  1.00  0.00     0.031 C 
ATOM     59  C   UNL A   1      41.823  34.804  32.766  1.00  0.00     0.029 A 
ATOM     60  C   UNL A   1      42.202  33.603  32.185  1.00  0.00     0.049 A 
ATOM     61  H   UNL A   1      42.069  31.688  32.994  1.00  0.00     0.167 HD
ATOM     62  C   UNL A   1      42.944  31.924  30.559  1.00  0.00     0.074 A 
ATOM     63  C   UNL A   1      43.248  30.812  31.450  1.00  0.00     0.031 C 
ATOM     64  C   UNL A   1      42.573  33.204  30.845  1.00  0.00     0.037 A 
BRANCH  51  65
ATOM     65  C   UNL A   1      41.586  31.024  35.683  1.00  0.00     0.057 A 
ATOM     66  C   UNL A   1      41.715  29.762  35.066  1.00  0.00     0.134 A 
ATOM     67  C   UNL A   1      42.474  31.269  36.739  1.00  0.00     0.134 A 
ATOM     68  F   UNL A   1      41.054  29.424  33.953  1.00  0.00    -0.206 F 
ATOM     69  C   UNL A   1      42.627  28.799  35.493  1.00  0.00     0.040 A 
ATOM     70  C   UNL A   1      43.433  30.334  37.139  1.00  0.00     0.040 A 
ATOM     71  F   UNL A   1      42.478  32.454  37.368  1.00  0.00    -0.206 F 
ATOM     72  C   UNL A   1      43.506  29.090  36.521  1.00  0.00     0.006 A 
ENDBRANCH  51  65
BRANCH  52  73
ATOM     73  C   UNL A   1      41.212  28.354  28.263  1.00  0.00     0.057 A 
ATOM     74  C   UNL A   1      41.719  28.588  26.978  1.00  0.00     0.134 A 
ATOM     75  C   UNL A   1      40.638  27.075  28.457  1.00  0.00     0.134 A 
ATOM     76  F   UNL A   1      42.255  29.776  26.669  1.00  0.00    -0.206 F 
ATOM     77  C   UNL A   1      41.596  27.646  25.937  1.00  0.00     0.040 A 
ATOM     78  C   UNL A   1      40.507  26.128  27.428  1.00  0.00     0.040 A 
ATOM     79  F   UNL A   1      40.106  26.730  29.640  1.00  0.00    -0.206 F 
ATOM     80  C   UNL A   1      40.965  26.423  26.152  1.00  0.00     0.006 A 
ENDBRANCH  52  73
BRANCH  64  81
ATOM     81  C   UNL A   1      42.472  34.157  29.688  1.00  0.00     0.057 A 
ATOM     82  C   UNL A   1      43.654  34.483  29.013  1.00  0.00     0.134 A 
ATOM     83  C   UNL A   1      41.290  34.723  29.184  1.00  0.00     0.134 A 
ATOM     84  F   UNL A   1      44.830  33.992  29.435  1.00  0.00    -0.206 F 
ATOM     85  C   UNL A   1      43.667  35.313  27.888  1.00  0.00     0.040 A 
ATOM     86  C   UNL A   1      41.283  35.531  28.039  1.00  0.00     0.040 A 
ATOM     87  F   UNL A   1      40.109  34.524  29.783  1.00  0.00    -0.206 F 
ATOM     88  C   UNL A   1      42.476  35.829  27.387  1.00  0.00     0.006 A 
ENDBRANCH  64  81
ENDBRANCH  38  39
ENDBRANCH  31  33
ENDBRANCH  30  31
ENDBRANCH  29  30
ENDBRANCH  28  29
ENDBRANCH  27  28
ENDBRANCH  26  27
ENDBRANCH   1  26
TORSDOF 21
ENDMDL
MODEL 3
REMARK VINA RESULT:      -8.8      5.736     11.707
REMARK SMILES C[C@H]([C@@H]1CCCO1)n1c(SCC(=O)OCCOCCOCCOC(=O)c2ccc(-c3c4nc(c(-c5c(F)cccc5F)c5ccc([nH]5)c(-c5c(F)cccc5F)c5nc(c(-c6c(F)cccc6F)c6ccc3[nH]6)C=C5)C=C4)cc2)nc2cnccc21
REMARK SMILES IDX 18 1 17 2 16 3 15 4 14 5 12 6 13 7 11 8 10 9 9 10 8 11 86 12
REMARK SMILES IDX 80 13 81 14 85 15 82 16 84 17 83 18 2 19 1 20 3 21 4 22 7 23
REMARK SMILES IDX 5 24 6 25 19 26 20 27 21 28 22 29 23 30 24 31 25 32 26 33
REMARK SMILES IDX 27 34 79 35 28 36 78 37 29 38 30 39 31 40 72 41 32 42 77 43
REMARK SMILES IDX 71 44 73 45 33 46 76 47 70 48 69 49 34 51 60 52 43 53 59 54
REMARK SMILES IDX 44 55 47 56 58 57 74 58 45 59 46 60 57 62 75 63 48 64 35 65
REMARK SMILES IDX 36 66 41 67 37 68 38 69 40 70 42 71 39 72 61 73 62 74 67 75
REMARK SMILES IDX 63 76 64 77 66 78 68 79 65 80 49 81 50 82 55 83 51 84 52 85
REMARK SMILES IDX 54 86 56 87 53 88
REMARK H PARENT 73 50 47 61
REMARK Flexibility Score: inf
ROOT
ATOM      1  C   UNL A   1      36.894  21.591  25.732  1.00  0.00     0.188 C 
ENDROOT
BRANCH   1   2
ATOM      2  O   UNL A   1      36.035  21.016  24.747  1.00  0.00    -0.376 OA
BRANCH   2   3
ATOM      3  C   UNL A   1      34.730  20.765  25.268  1.00  0.00     0.202 C 
BRANCH   3   4
ATOM      4  C   UNL A   1      33.562  21.070  24.306  1.00  0.00     0.261 C 
BRANCH   4   5
ATOM      5  O   UNL A   1      33.568  22.440  23.830  1.00  0.00    -0.463 OA
BRANCH   5   6
ATOM      6  C   UNL A   1      32.475  22.834  23.132  1.00  0.00     0.316 C 
ATOM      7  O   UNL A   1      31.658  22.045  22.656  1.00  0.00    -0.251 OA
BRANCH   6   8
ATOM      8  C   UNL A   1      32.200  24.335  23.073  1.00  0.00     0.200 C 
BRANCH   8   9
ATOM      9  S   UNL A   1      31.322  25.176  24.394  1.00  0.00    -0.076 SA
BRANCH   9  10
ATOM     10  C   UNL A   1      30.672  26.760  23.972  1.00  0.00     0.170 A 
ATOM     11  N   UNL A   1      31.269  27.881  23.436  1.00  0.00    -0.313 N 
ATOM     12  C   UNL A   1      30.277  28.649  22.828  1.00  0.00     0.072 A 
ATOM     13  N   UNL A   1      29.359  26.933  23.980  1.00  0.00    -0.221 NA
ATOM     14  C   UNL A   1      29.094  28.089  23.275  1.00  0.00     0.108 A 
ATOM     15  C   UNL A   1      30.285  29.757  21.970  1.00  0.00     0.049 A 
ATOM     16  C   UNL A   1      27.893  28.715  22.923  1.00  0.00     0.141 A 
ATOM     17  C   UNL A   1      29.052  30.283  21.636  1.00  0.00     0.113 A 
ATOM     18  N   UNL A   1      27.883  29.811  22.107  1.00  0.00    -0.262 NA
BRANCH  11  19
ATOM     19  C   UNL A   1      32.617  28.386  23.546  1.00  0.00     0.116 C 
ATOM     20  C   UNL A   1      33.634  27.635  22.702  1.00  0.00     0.034 C 
BRANCH  19  21
ATOM     21  C   UNL A   1      33.022  28.865  24.951  1.00  0.00     0.141 C 
ATOM     22  C   UNL A   1      33.548  27.937  26.024  1.00  0.00     0.036 C 
ATOM     23  O   UNL A   1      31.935  29.586  25.584  1.00  0.00    -0.376 OA
ATOM     24  C   UNL A   1      33.450  28.821  27.242  1.00  0.00     0.031 C 
ATOM     25  C   UNL A   1      32.144  29.542  27.004  1.00  0.00     0.160 C 
ENDBRANCH  19  21
ENDBRANCH  11  19
ENDBRANCH   9  10
ENDBRANCH   8   9
ENDBRANCH   6   8
ENDBRANCH   5   6
ENDBRANCH   4   5
ENDBRANCH   3   4
ENDBRANCH   2   3
ENDBRANCH   1   2
BRANCH   1  26
ATOM     26  C   UNL A   1      38.366  21.653  25.377  1.00  0.00     0.188 C 
BRANCH  26  27
ATOM     27  O   UNL A   1      39.217  21.258  26.436  1.00  0.00    -0.376 OA
BRANCH  27  28
ATOM     28  C   UNL A   1      40.076  22.294  26.923  1.00  0.00     0.202 C 
BRANCH  28  29
ATOM     29  C   UNL A   1      39.393  23.653  27.213  1.00  0.00     0.261 C 
BRANCH  29  30
ATOM     30  O   UNL A   1      40.227  24.628  27.910  1.00  0.00    -0.460 OA
BRANCH  30  31
ATOM     31  C   UNL A   1      40.317  25.847  27.273  1.00  0.00     0.338 C 
ATOM     32  O   UNL A   1      40.611  26.004  26.112  1.00  0.00    -0.246 OA
BRANCH  31  33
ATOM     33  C   UNL A   1      39.779  26.966  28.124  1.00  0.00     0.060 A 
ATOM     34  C   UNL A   1      39.881  28.325  27.808  1.00  0.00     0.016 A 
ATOM     35  C   UNL A   1      39.241  26.632  29.366  1.00  0.00     0.016 A 
ATOM     36  C   UNL A   1      39.691  29.321  28.807  1.00  0.00     0.010 A 
ATOM     37  C   UNL A   1      39.139  27.611  30.369  1.00  0.00     0.010 A 
ATOM     38  C   UNL A   1      39.482  28.966  30.147  1.00  0.00    -0.014 A 
BRANCH  38  39
ATOM     39  C   UNL A   1      39.353  29.952  31.290  1.00  0.00     0.031 A 
ATOM     40  C   UNL A   1      38.043  30.592  31.109  1.00  0.00     0.074 A 
ATOM     41  C   UNL A   1      40.074  30.348  32.398  1.00  0.00     0.049 A 
ATOM     42  N   UNL A   1      37.834  31.425  30.141  1.00  0.00    -0.248 NA
ATOM     43  C   UNL A   1      36.818  30.121  31.774  1.00  0.00     0.031 C 
ATOM     44  C   UNL A   1      41.322  29.806  32.967  1.00  0.00     0.029 A 
ATOM     45  N   UNL A   1      39.776  31.320  33.356  1.00  0.00    -0.354 N 
ATOM     46  C   UNL A   1      36.588  31.916  30.424  1.00  0.00     0.074 A 
ATOM     47  C   UNL A   1      35.905  30.849  31.112  1.00  0.00     0.031 C 
ATOM     48  C   UNL A   1      41.513  30.238  34.244  1.00  0.00     0.029 A 
ATOM     49  C   UNL A   1      40.552  31.288  34.534  1.00  0.00     0.049 A 
ATOM     50  H   UNL A   1      39.067  31.989  33.217  1.00  0.00     0.167 HD
ATOM     51  C   UNL A   1      36.479  33.260  30.604  1.00  0.00     0.037 A 
ATOM     52  C   UNL A   1      40.591  32.173  35.580  1.00  0.00     0.037 A 
ATOM     53  C   UNL A   1      37.721  33.940  30.249  1.00  0.00     0.049 A 
ATOM     54  C   UNL A   1      40.404  33.503  34.971  1.00  0.00     0.074 A 
ATOM     55  C   UNL A   1      38.509  34.105  29.126  1.00  0.00     0.029 A 
ATOM     56  N   UNL A   1      38.533  34.195  31.321  1.00  0.00    -0.354 N 
ATOM     57  N   UNL A   1      41.298  34.065  34.211  1.00  0.00    -0.248 NA
ATOM     58  C   UNL A   1      39.098  34.145  34.997  1.00  0.00     0.031 C 
ATOM     59  C   UNL A   1      39.827  34.435  29.576  1.00  0.00     0.029 A 
ATOM     60  C   UNL A   1      39.816  34.519  30.960  1.00  0.00     0.049 A 
ATOM     61  H   UNL A   1      38.226  34.152  32.255  1.00  0.00     0.167 HD
ATOM     62  C   UNL A   1      40.533  34.741  33.295  1.00  0.00     0.074 A 
ATOM     63  C   UNL A   1      39.247  34.953  33.946  1.00  0.00     0.031 C 
ATOM     64  C   UNL A   1      40.843  34.641  31.971  1.00  0.00     0.037 A 
BRANCH  51  65
ATOM     65  C   UNL A   1      35.512  33.902  31.564  1.00  0.00     0.057 A 
ATOM     66  C   UNL A   1      35.590  33.852  32.972  1.00  0.00     0.134 A 
ATOM     67  C   UNL A   1      34.596  34.826  31.045  1.00  0.00     0.134 A 
ATOM     68  F   UNL A   1      36.513  33.140  33.626  1.00  0.00    -0.206 F 
ATOM     69  C   UNL A   1      34.785  34.631  33.803  1.00  0.00     0.040 A 
ATOM     70  C   UNL A   1      33.827  35.655  31.867  1.00  0.00     0.040 A 
ATOM     71  F   UNL A   1      34.473  34.997  29.721  1.00  0.00    -0.206 F 
ATOM     72  C   UNL A   1      33.913  35.553  33.252  1.00  0.00     0.006 A 
ENDBRANCH  51  65
BRANCH  52  73
ATOM     73  C   UNL A   1      40.912  32.129  37.043  1.00  0.00     0.057 A 
ATOM     74  C   UNL A   1      39.973  32.552  37.993  1.00  0.00     0.134 A 
ATOM     75  C   UNL A   1      42.245  32.051  37.513  1.00  0.00     0.134 A 
ATOM     76  F   UNL A   1      38.685  32.697  37.652  1.00  0.00    -0.206 F 
ATOM     77  C   UNL A   1      40.342  32.944  39.295  1.00  0.00     0.040 A 
ATOM     78  C   UNL A   1      42.627  32.440  38.807  1.00  0.00     0.040 A 
ATOM     79  F   UNL A   1      43.242  31.671  36.699  1.00  0.00    -0.206 F 
ATOM     80  C   UNL A   1      41.675  32.914  39.698  1.00  0.00     0.006 A 
ENDBRANCH  52  73
BRANCH  64  81
ATOM     81  C   UNL A   1      42.302  34.566  31.619  1.00  0.00     0.057 A 
ATOM     82  C   UNL A   1      42.772  33.372  31.057  1.00  0.00     0.134 A 
ATOM     83  C   UNL A   1      43.240  35.600  31.758  1.00  0.00     0.134 A 
ATOM     84  F   UNL A   1      41.941  32.329  30.897  1.00  0.00    -0.206 F 
ATOM     85  C   UNL A   1      44.096  33.215  30.639  1.00  0.00     0.040 A 
ATOM     86  C   UNL A   1      44.563  35.467  31.316  1.00  0.00     0.040 A 
ATOM     87  F   UNL A   1      42.916  36.765  32.333  1.00  0.00    -0.206 F 
ATOM     88  C   UNL A   1      44.995  34.270  30.754  1.00  0.00     0.006 A 
ENDBRANCH  64  81
ENDBRANCH  38  39
ENDBRANCH  31  33
ENDBRANCH  30  31
ENDBRANCH  29  30
ENDBRANCH  28  29
ENDBRANCH  27  28
ENDBRANCH  26  27
ENDBRANCH   1  26
TORSDOF 21
ENDMDL
