MODEL 1
REMARK VINA RESULT:     -13.2      0.000      0.000
REMARK SMILES O=C1O[C@@H](c2ccc(O)c(O)c2)[C@H](C(=O)OCCOCCOCCOC(=O)c2ccc(-c3c4nc(c(-c5c(F)cccc5F)c5ccc([nH]5)c(-c5c(F)cccc5F)c5nc(c(-c6c(F)cccc6F)c6ccc3[nH]6)C=C5)C=C4)cc2)/C1=C\c1ccc(O)c(O)c1
REMARK SMILES IDX 20 1 19 2 18 3 17 4 16 5 14 6 15 7 13 8 1 9 2 10 3 11 82 12
REMARK SMILES IDX 4 13 83 14 5 15 6 16 12 17 7 18 10 19 8 20 11 21 9 23 84 25
REMARK SMILES IDX 85 26 91 27 86 28 89 29 87 30 90 31 88 33 21 35 22 36 23 37
REMARK SMILES IDX 24 38 25 39 26 40 27 41 28 42 29 43 81 44 30 45 80 46 31 47
REMARK SMILES IDX 32 48 33 49 74 50 34 51 79 52 73 53 75 54 35 55 78 56 72 57
REMARK SMILES IDX 71 58 36 60 62 61 45 62 61 63 46 64 49 65 60 66 76 67 47 68
REMARK SMILES IDX 48 69 59 71 77 72 50 73 37 74 38 75 43 76 39 77 40 78 42 79
REMARK SMILES IDX 44 80 41 81 63 82 64 83 69 84 65 85 66 86 68 87 70 88 67 89
REMARK SMILES IDX 51 90 52 91 57 92 53 93 54 94 56 95 58 96 55 97
REMARK H PARENT 11 22 9 24 90 32 88 34 75 59 49 70
REMARK Flexibility Score: inf
ROOT
ATOM      1  C   UNL A   1      40.903  20.843  26.563  1.00  0.00     0.188 C 
ENDROOT
BRANCH   1   2
ATOM      2  O   UNL A   1      39.535  21.028  26.304  1.00  0.00    -0.376 OA
BRANCH   2   3
ATOM      3  C   UNL A   1      38.980  22.323  26.278  1.00  0.00     0.202 C 
BRANCH   3   4
ATOM      4  C   UNL A   1      37.775  22.692  25.399  1.00  0.00     0.261 C 
BRANCH   4   5
ATOM      5  O   UNL A   1      36.473  22.505  25.978  1.00  0.00    -0.463 OA
BRANCH   5   6
ATOM      6  C   UNL A   1      35.511  23.411  25.622  1.00  0.00     0.317 C 
ATOM      7  O   UNL A   1      35.670  24.622  25.605  1.00  0.00    -0.251 OA
BRANCH   6   8
ATOM      8  C   UNL A   1      34.232  22.682  25.218  1.00  0.00     0.182 C 
ATOM      9  O   UNL A   1      32.622  22.189  28.321  1.00  0.00    -0.247 OA
ATOM     10  C   UNL A   1      33.196  22.091  27.254  1.00  0.00     0.335 C 
ATOM     11  O   UNL A   1      34.044  21.082  26.900  1.00  0.00    -0.453 OA
ATOM     12  C   UNL A   1      33.092  23.027  26.107  1.00  0.00     0.056 C 
ATOM     13  C   UNL A   1      34.439  21.211  25.521  1.00  0.00     0.226 C 
ATOM     14  C   UNL A   1      32.060  23.882  25.989  1.00  0.00     0.020 C 
BRANCH  13  15
ATOM     15  C   UNL A   1      33.666  20.255  24.619  1.00  0.00    -0.002 A 
ATOM     16  C   UNL A   1      32.758  20.743  23.655  1.00  0.00     0.012 A 
ATOM     17  C   UNL A   1      33.894  18.869  24.673  1.00  0.00     0.057 A 
ATOM     18  C   UNL A   1      32.070  19.874  22.797  1.00  0.00     0.050 A 
ATOM     19  C   UNL A   1      33.215  18.016  23.813  1.00  0.00     0.157 A 
ATOM     20  C   UNL A   1      32.308  18.509  22.883  1.00  0.00     0.157 A 
BRANCH  19  21
ATOM     21  O   UNL A   1      33.462  16.675  23.883  1.00  0.00    -0.504 OA
ATOM     22  H   UNL A   1      33.757  16.213  23.123  1.00  0.00     0.293 HD
ENDBRANCH  19  21
BRANCH  20  23
ATOM     23  O   UNL A   1      31.686  17.609  22.063  1.00  0.00    -0.504 OA
ATOM     24  H   UNL A   1      31.891  17.588  21.149  1.00  0.00     0.293 HD
ENDBRANCH  20  23
ENDBRANCH  13  15
BRANCH  14  25
ATOM     25  C   UNL A   1      31.750  24.814  24.883  1.00  0.00    -0.021 A 
ATOM     26  C   UNL A   1      30.455  26.006  25.108  1.00  0.00     0.012 A 
ATOM     27  C   UNL A   1      32.799  24.803  23.480  1.00  0.00     0.058 A 
ATOM     28  C   UNL A   1      30.080  27.287  23.949  1.00  0.00     0.051 A 
ATOM     29  C   UNL A   1      32.559  26.045  22.191  1.00  0.00     0.157 A 
ATOM     30  C   UNL A   1      31.072  27.401  22.438  1.00  0.00     0.157 A 
BRANCH  29  31
ATOM     31  O   UNL A   1      33.483  25.701  21.193  1.00  0.00    -0.504 OA
ATOM     32  H   UNL A   1      33.439  24.858  20.786  1.00  0.00     0.293 HD
ENDBRANCH  29  31
BRANCH  30  33
ATOM     33  O   UNL A   1      30.480  28.397  21.653  1.00  0.00    -0.504 OA
ATOM     34  H   UNL A   1      30.752  29.289  21.744  1.00  0.00     0.293 HD
ENDBRANCH  30  33
ENDBRANCH  14  25
ENDBRANCH   6   8
ENDBRANCH   5   6
ENDBRANCH   4   5
ENDBRANCH   3   4
ENDBRANCH   2   3
ENDBRANCH   1   2
BRANCH   1  35
ATOM     35  C   UNL A   1      41.629  19.541  26.143  1.00  0.00     0.188 C 
BRANCH  35  36
ATOM     36  O   UNL A   1      43.028  19.437  26.258  1.00  0.00    -0.376 OA
BRANCH  36  37
ATOM     37  C   UNL A   1      43.823  19.930  25.192  1.00  0.00     0.202 C 
BRANCH  37  38
ATOM     38  C   UNL A   1      44.851  21.056  25.401  1.00  0.00     0.261 C 
BRANCH  38  39
ATOM     39  O   UNL A   1      44.308  22.287  25.903  1.00  0.00    -0.460 OA
BRANCH  39  40
ATOM     40  C   UNL A   1      43.785  23.117  24.971  1.00  0.00     0.338 C 
ATOM     41  O   UNL A   1      43.664  22.925  23.772  1.00  0.00    -0.246 OA
BRANCH  40  42
ATOM     42  C   UNL A   1      43.205  24.298  25.606  1.00  0.00     0.060 A 
ATOM     43  C   UNL A   1      44.112  25.871  25.672  1.00  0.00     0.016 A 
ATOM     44  C   UNL A   1      41.901  24.025  26.750  1.00  0.00     0.016 A 
ATOM     45  C   UNL A   1      43.569  27.213  27.084  1.00  0.00     0.010 A 
ATOM     46  C   UNL A   1      41.438  25.211  27.989  1.00  0.00     0.010 A 
ATOM     47  C   UNL A   1      42.228  26.772  28.202  1.00  0.00    -0.014 A 
BRANCH  47  48
ATOM     48  C   UNL A   1      41.835  27.636  29.328  1.00  0.00     0.031 A 
ATOM     49  C   UNL A   1      42.570  27.549  30.636  1.00  0.00     0.074 A 
ATOM     50  C   UNL A   1      40.773  28.442  29.170  1.00  0.00     0.049 A 
ATOM     51  N   UNL A   1      42.328  28.157  31.770  1.00  0.00    -0.248 NA
ATOM     52  C   UNL A   1      43.721  26.640  30.694  1.00  0.00     0.031 C 
ATOM     53  C   UNL A   1      39.970  28.548  27.953  1.00  0.00     0.029 A 
ATOM     54  N   UNL A   1      40.168  29.309  30.039  1.00  0.00    -0.354 N 
ATOM     55  C   UNL A   1      43.287  27.687  32.664  1.00  0.00     0.074 A 
ATOM     56  C   UNL A   1      44.081  26.709  31.964  1.00  0.00     0.031 C 
ATOM     57  C   UNL A   1      38.992  29.445  28.140  1.00  0.00     0.029 A 
ATOM     58  C   UNL A   1      39.066  29.935  29.508  1.00  0.00     0.049 A 
ATOM     59  H   UNL A   1      40.490  29.467  30.955  1.00  0.00     0.167 HD
ATOM     60  C   UNL A   1      43.491  28.050  33.952  1.00  0.00     0.037 A 
ATOM     61  C   UNL A   1      38.201  30.794  30.076  1.00  0.00     0.037 A 
ATOM     62  C   UNL A   1      42.668  29.017  34.626  1.00  0.00     0.049 A 
ATOM     63  C   UNL A   1      38.437  31.173  31.508  1.00  0.00     0.074 A 
ATOM     64  C   UNL A   1      42.767  29.493  35.920  1.00  0.00     0.029 A 
ATOM     65  N   UNL A   1      41.577  29.651  34.043  1.00  0.00    -0.354 N 
ATOM     66  N   UNL A   1      39.373  30.756  32.329  1.00  0.00    -0.248 NA
ATOM     67  C   UNL A   1      37.506  32.143  32.093  1.00  0.00     0.031 C 
ATOM     68  C   UNL A   1      41.702  30.374  36.136  1.00  0.00     0.029 A 
ATOM     69  C   UNL A   1      40.980  30.500  34.958  1.00  0.00     0.049 A 
ATOM     70  H   UNL A   1      41.274  29.516  33.117  1.00  0.00     0.167 HD
ATOM     71  C   UNL A   1      39.160  31.429  33.522  1.00  0.00     0.074 A 
ATOM     72  C   UNL A   1      38.018  32.298  33.306  1.00  0.00     0.031 C 
ATOM     73  C   UNL A   1      39.839  31.342  34.693  1.00  0.00     0.037 A 
BRANCH  60  74
ATOM     74  C   UNL A   1      44.614  27.378  34.698  1.00  0.00     0.057 A 
ATOM     75  C   UNL A   1      44.444  26.152  35.358  1.00  0.00     0.134 A 
ATOM     76  C   UNL A   1      45.882  27.969  34.770  1.00  0.00     0.134 A 
ATOM     77  F   UNL A   1      43.253  25.534  35.349  1.00  0.00    -0.206 F 
ATOM     78  C   UNL A   1      45.477  25.559  36.088  1.00  0.00     0.040 A 
ATOM     79  C   UNL A   1      46.933  27.371  35.471  1.00  0.00     0.040 A 
ATOM     80  F   UNL A   1      46.123  29.142  34.166  1.00  0.00    -0.206 F 
ATOM     81  C   UNL A   1      46.729  26.168  36.141  1.00  0.00     0.006 A 
ENDBRANCH  60  74
BRANCH  61  82
ATOM     82  C   UNL A   1      37.070  31.344  29.284  1.00  0.00     0.057 A 
ATOM     83  C   UNL A   1      37.115  32.643  28.766  1.00  0.00     0.134 A 
ATOM     84  C   UNL A   1      35.936  30.575  28.991  1.00  0.00     0.134 A 
ATOM     85  F   UNL A   1      38.169  33.434  29.015  1.00  0.00    -0.206 F 
ATOM     86  C   UNL A   1      36.068  33.164  28.001  1.00  0.00     0.040 A 
ATOM     87  C   UNL A   1      34.897  31.072  28.201  1.00  0.00     0.040 A 
ATOM     88  F   UNL A   1      35.837  29.315  29.440  1.00  0.00    -0.206 F 
ATOM     89  C   UNL A   1      34.958  32.373  27.710  1.00  0.00     0.006 A 
ENDBRANCH  61  82
BRANCH  73  90
ATOM     90  C   UNL A   1      39.375  32.238  35.801  1.00  0.00     0.057 A 
ATOM     91  C   UNL A   1      39.865  33.541  35.955  1.00  0.00     0.134 A 
ATOM     92  C   UNL A   1      38.409  31.791  36.712  1.00  0.00     0.134 A 
ATOM     93  F   UNL A   1      40.800  34.019  35.120  1.00  0.00    -0.206 F 
ATOM     94  C   UNL A   1      39.439  34.355  37.002  1.00  0.00     0.040 A 
ATOM     95  C   UNL A   1      37.950  32.609  37.741  1.00  0.00     0.040 A 
ATOM     96  F   UNL A   1      37.893  30.557  36.609  1.00  0.00    -0.206 F 
ATOM     97  C   UNL A   1      38.473  33.892  37.894  1.00  0.00     0.006 A 
ENDBRANCH  73  90
ENDBRANCH  47  48
ENDBRANCH  40  42
ENDBRANCH  39  40
ENDBRANCH  38  39
ENDBRANCH  37  38
ENDBRANCH  36  37
ENDBRANCH  35  36
ENDBRANCH   1  35
TORSDOF 23
ENDMDL
MODEL 2
REMARK VINA RESULT:     -13.2      4.588     10.496
REMARK SMILES O=C1O[C@@H](c2ccc(O)c(O)c2)[C@H](C(=O)OCCOCCOCCOC(=O)c2ccc(-c3c4nc(c(-c5c(F)cccc5F)c5ccc([nH]5)c(-c5c(F)cccc5F)c5nc(c(-c6c(F)cccc6F)c6ccc3[nH]6)C=C5)C=C4)cc2)/C1=C\c1ccc(O)c(O)c1
REMARK SMILES IDX 20 1 19 2 18 3 17 4 16 5 14 6 15 7 13 8 1 9 2 10 3 11 82 12
REMARK SMILES IDX 4 13 83 14 5 15 6 16 12 17 7 18 10 19 8 20 11 21 9 23 84 25
REMARK SMILES IDX 85 26 91 27 86 28 89 29 87 30 90 31 88 33 21 35 22 36 23 37
REMARK SMILES IDX 24 38 25 39 26 40 27 41 28 42 29 43 81 44 30 45 80 46 31 47
REMARK SMILES IDX 32 48 33 49 74 50 34 51 79 52 73 53 75 54 35 55 78 56 72 57
REMARK SMILES IDX 71 58 36 60 62 61 45 62 61 63 46 64 49 65 60 66 76 67 47 68
REMARK SMILES IDX 48 69 59 71 77 72 50 73 37 74 38 75 43 76 39 77 40 78 42 79
REMARK SMILES IDX 44 80 41 81 63 82 64 83 69 84 65 85 66 86 68 87 70 88 67 89
REMARK SMILES IDX 51 90 52 91 57 92 53 93 54 94 56 95 58 96 55 97
REMARK H PARENT 11 22 9 24 90 32 88 34 75 59 49 70
REMARK Flexibility Score: inf
ROOT
ATOM      1  C   UNL A   1      33.801  33.641  28.059  1.00  0.00     0.188 C 
ENDROOT
BRANCH   1   2
ATOM      2  O   UNL A   1      34.750  32.721  27.583  1.00  0.00    -0.376 OA
BRANCH   2   3
ATOM      3  C   UNL A   1      34.554  31.337  27.756  1.00  0.00     0.202 C 
BRANCH   3   4
ATOM      4  C   UNL A   1      33.300  30.607  27.251  1.00  0.00     0.261 C 
BRANCH   4   5
ATOM      5  O   UNL A   1      33.281  30.241  25.862  1.00  0.00    -0.463 OA
BRANCH   5   6
ATOM      6  C   UNL A   1      33.625  28.950  25.566  1.00  0.00     0.317 C 
ATOM      7  O   UNL A   1      34.658  28.407  25.924  1.00  0.00    -0.251 OA
BRANCH   6   8
ATOM      8  C   UNL A   1      32.513  28.286  24.757  1.00  0.00     0.182 C 
ATOM      9  O   UNL A   1      33.989  27.942  21.569  1.00  0.00    -0.247 OA
ATOM     10  C   UNL A   1      33.318  28.232  22.539  1.00  0.00     0.335 C 
ATOM     11  O   UNL A   1      32.663  29.415  22.725  1.00  0.00    -0.453 OA
ATOM     12  C   UNL A   1      33.052  27.370  23.719  1.00  0.00     0.056 C 
ATOM     13  C   UNL A   1      31.860  29.369  23.920  1.00  0.00     0.226 C 
ATOM     14  C   UNL A   1      33.217  26.036  23.665  1.00  0.00     0.020 C 
BRANCH  13  15
ATOM     15  C   UNL A   1      30.387  29.135  23.603  1.00  0.00    -0.002 A 
ATOM     16  C   UNL A   1      29.850  27.829  23.576  1.00  0.00     0.012 A 
ATOM     17  C   UNL A   1      29.511  30.216  23.404  1.00  0.00     0.057 A 
ATOM     18  C   UNL A   1      28.490  27.607  23.321  1.00  0.00     0.050 A 
ATOM     19  C   UNL A   1      28.163  29.987  23.160  1.00  0.00     0.157 A 
ATOM     20  C   UNL A   1      27.653  28.695  23.116  1.00  0.00     0.157 A 
BRANCH  19  21
ATOM     21  O   UNL A   1      27.334  31.056  22.978  1.00  0.00    -0.504 OA
ATOM     22  H   UNL A   1      27.674  31.927  23.035  1.00  0.00     0.293 HD
ENDBRANCH  19  21
BRANCH  20  23
ATOM     23  O   UNL A   1      26.314  28.549  22.883  1.00  0.00    -0.504 OA
ATOM     24  H   UNL A   1      25.844  27.841  23.277  1.00  0.00     0.293 HD
ENDBRANCH  20  23
ENDBRANCH  13  15
BRANCH  14  25
ATOM     25  C   UNL A   1      32.920  25.023  24.701  1.00  0.00    -0.021 A 
ATOM     26  C   UNL A   1      34.273  24.252  25.553  1.00  0.00     0.012 A 
ATOM     27  C   UNL A   1      31.246  24.772  25.151  1.00  0.00     0.058 A 
ATOM     28  C   UNL A   1      34.078  23.151  26.922  1.00  0.00     0.051 A 
ATOM     29  C   UNL A   1      30.860  23.676  26.533  1.00  0.00     0.157 A 
ATOM     30  C   UNL A   1      32.401  22.782  27.501  1.00  0.00     0.157 A 
BRANCH  29  31
ATOM     31  O   UNL A   1      29.458  23.626  26.564  1.00  0.00    -0.504 OA
ATOM     32  H   UNL A   1      28.971  24.365  26.871  1.00  0.00     0.293 HD
ENDBRANCH  29  31
BRANCH  30  33
ATOM     33  O   UNL A   1      32.533  21.796  28.485  1.00  0.00    -0.504 OA
ATOM     34  H   UNL A   1      31.944  21.778  29.213  1.00  0.00     0.293 HD
ENDBRANCH  30  33
ENDBRANCH  14  25
ENDBRANCH   6   8
ENDBRANCH   5   6
ENDBRANCH   4   5
ENDBRANCH   3   4
ENDBRANCH   2   3
ENDBRANCH   1   2
BRANCH   1  35
ATOM     35  C   UNL A   1      33.695  33.974  29.569  1.00  0.00     0.188 C 
BRANCH  35  36
ATOM     36  O   UNL A   1      34.092  35.235  30.049  1.00  0.00    -0.376 OA
BRANCH  36  37
ATOM     37  C   UNL A   1      33.775  35.569  31.390  1.00  0.00     0.202 C 
BRANCH  37  38
ATOM     38  C   UNL A   1      34.769  35.334  32.542  1.00  0.00     0.261 C 
BRANCH  38  39
ATOM     39  O   UNL A   1      35.746  34.310  32.300  1.00  0.00    -0.460 OA
BRANCH  39  40
ATOM     40  C   UNL A   1      35.437  33.084  32.780  1.00  0.00     0.338 C 
ATOM     41  O   UNL A   1      34.466  32.755  33.443  1.00  0.00    -0.246 OA
BRANCH  40  42
ATOM     42  C   UNL A   1      36.374  32.085  32.271  1.00  0.00     0.060 A 
ATOM     43  C   UNL A   1      37.592  31.296  33.363  1.00  0.00     0.016 A 
ATOM     44  C   UNL A   1      36.658  32.073  30.539  1.00  0.00     0.016 A 
ATOM     45  C   UNL A   1      39.224  30.463  32.508  1.00  0.00     0.010 A 
ATOM     46  C   UNL A   1      38.099  31.341  29.800  1.00  0.00     0.010 A 
ATOM     47  C   UNL A   1      39.385  30.557  30.716  1.00  0.00    -0.014 A 
BRANCH  47  48
ATOM     48  C   UNL A   1      40.586  30.077  30.014  1.00  0.00     0.031 A 
ATOM     49  C   UNL A   1      41.727  31.018  29.742  1.00  0.00     0.074 A 
ATOM     50  C   UNL A   1      40.600  28.808  29.574  1.00  0.00     0.049 A 
ATOM     51  N   UNL A   1      42.830  30.816  29.068  1.00  0.00    -0.248 NA
ATOM     52  C   UNL A   1      41.607  32.380  30.276  1.00  0.00     0.031 C 
ATOM     53  C   UNL A   1      39.515  27.844  29.747  1.00  0.00     0.029 A 
ATOM     54  N   UNL A   1      41.546  28.114  28.871  1.00  0.00    -0.354 N 
ATOM     55  C   UNL A   1      43.515  32.029  29.092  1.00  0.00     0.074 A 
ATOM     56  C   UNL A   1      42.687  32.973  29.798  1.00  0.00     0.031 C 
ATOM     57  C   UNL A   1      39.861  26.676  29.189  1.00  0.00     0.029 A 
ATOM     58  C   UNL A   1      41.170  26.827  28.570  1.00  0.00     0.049 A 
ATOM     59  H   UNL A   1      42.412  28.499  28.605  1.00  0.00     0.167 HD
ATOM     60  C   UNL A   1      44.733  32.321  28.578  1.00  0.00     0.037 A 
ATOM     61  C   UNL A   1      41.806  25.884  27.855  1.00  0.00     0.037 A 
ATOM     62  C   UNL A   1      45.526  31.358  27.863  1.00  0.00     0.049 A 
ATOM     63  C   UNL A   1      43.149  26.232  27.283  1.00  0.00     0.074 A 
ATOM     64  C   UNL A   1      46.780  31.509  27.303  1.00  0.00     0.029 A 
ATOM     65  N   UNL A   1      45.120  30.055  27.604  1.00  0.00    -0.354 N 
ATOM     66  N   UNL A   1      43.805  27.366  27.350  1.00  0.00    -0.248 NA
ATOM     67  C   UNL A   1      43.842  25.173  26.542  1.00  0.00     0.031 C 
ATOM     68  C   UNL A   1      47.109  30.311  26.658  1.00  0.00     0.029 A 
ATOM     69  C   UNL A   1      46.091  29.394  26.874  1.00  0.00     0.049 A 
ATOM     70  H   UNL A   1      44.267  29.660  27.897  1.00  0.00     0.167 HD
ATOM     71  C   UNL A   1      45.001  27.155  26.682  1.00  0.00     0.074 A 
ATOM     72  C   UNL A   1      44.984  25.773  26.237  1.00  0.00     0.031 C 
ATOM     73  C   UNL A   1      46.023  28.016  26.451  1.00  0.00     0.037 A 
BRANCH  60  74
ATOM     74  C   UNL A   1      45.245  33.727  28.751  1.00  0.00     0.057 A 
ATOM     75  C   UNL A   1      45.961  34.127  29.890  1.00  0.00     0.134 A 
ATOM     76  C   UNL A   1      45.011  34.702  27.772  1.00  0.00     0.134 A 
ATOM     77  F   UNL A   1      46.208  33.254  30.879  1.00  0.00    -0.206 F 
ATOM     78  C   UNL A   1      46.391  35.444  30.064  1.00  0.00     0.040 A 
ATOM     79  C   UNL A   1      45.463  36.015  27.920  1.00  0.00     0.040 A 
ATOM     80  F   UNL A   1      44.334  34.397  26.655  1.00  0.00    -0.206 F 
ATOM     81  C   UNL A   1      46.146  36.393  29.074  1.00  0.00     0.006 A 
ENDBRANCH  60  74
BRANCH  61  82
ATOM     82  C   UNL A   1      41.185  24.546  27.666  1.00  0.00     0.057 A 
ATOM     83  C   UNL A   1      40.144  24.355  26.751  1.00  0.00     0.134 A 
ATOM     84  C   UNL A   1      41.641  23.420  28.364  1.00  0.00     0.134 A 
ATOM     85  F   UNL A   1      39.657  25.392  26.055  1.00  0.00    -0.206 F 
ATOM     86  C   UNL A   1      39.568  23.098  26.548  1.00  0.00     0.040 A 
ATOM     87  C   UNL A   1      41.096  22.153  28.148  1.00  0.00     0.040 A 
ATOM     88  F   UNL A   1      42.649  23.529  29.242  1.00  0.00    -0.206 F 
ATOM     89  C   UNL A   1      40.050  21.990  27.243  1.00  0.00     0.006 A 
ENDBRANCH  61  82
BRANCH  73  90
ATOM     90  C   UNL A   1      47.207  27.464  25.717  1.00  0.00     0.057 A 
ATOM     91  C   UNL A   1      48.246  26.799  26.380  1.00  0.00     0.134 A 
ATOM     92  C   UNL A   1      47.293  27.587  24.324  1.00  0.00     0.134 A 
ATOM     93  F   UNL A   1      48.224  26.662  27.714  1.00  0.00    -0.206 F 
ATOM     94  C   UNL A   1      49.350  26.309  25.686  1.00  0.00     0.040 A 
ATOM     95  C   UNL A   1      48.375  27.069  23.616  1.00  0.00     0.040 A 
ATOM     96  F   UNL A   1      46.324  28.202  23.632  1.00  0.00    -0.206 F 
ATOM     97  C   UNL A   1      49.413  26.437  24.299  1.00  0.00     0.006 A 
ENDBRANCH  73  90
ENDBRANCH  47  48
ENDBRANCH  40  42
ENDBRANCH  39  40
ENDBRANCH  38  39
ENDBRANCH  37  38
ENDBRANCH  36  37
ENDBRANCH  35  36
ENDBRANCH   1  35
TORSDOF 23
ENDMDL
MODEL 3
REMARK VINA RESULT:     -12.8      0.721      5.915
REMARK SMILES O=C1O[C@@H](c2ccc(O)c(O)c2)[C@H](C(=O)OCCOCCOCCOC(=O)c2ccc(-c3c4nc(c(-c5c(F)cccc5F)c5ccc([nH]5)c(-c5c(F)cccc5F)c5nc(c(-c6c(F)cccc6F)c6ccc3[nH]6)C=C5)C=C4)cc2)/C1=C\c1ccc(O)c(O)c1
REMARK SMILES IDX 20 1 19 2 18 3 17 4 16 5 14 6 15 7 13 8 1 9 2 10 3 11 82 12
REMARK SMILES IDX 4 13 83 14 5 15 6 16 12 17 7 18 10 19 8 20 11 21 9 23 84 25
REMARK SMILES IDX 85 26 91 27 86 28 89 29 87 30 90 31 88 33 21 35 22 36 23 37
REMARK SMILES IDX 24 38 25 39 26 40 27 41 28 42 29 43 81 44 30 45 80 46 31 47
REMARK SMILES IDX 32 48 33 49 74 50 34 51 79 52 73 53 75 54 35 55 78 56 72 57
REMARK SMILES IDX 71 58 36 60 62 61 45 62 61 63 46 64 49 65 60 66 76 67 47 68
REMARK SMILES IDX 48 69 59 71 77 72 50 73 37 74 38 75 43 76 39 77 40 78 42 79
REMARK SMILES IDX 44 80 41 81 63 82 64 83 69 84 65 85 66 86 68 87 70 88 67 89
REMARK SMILES IDX 51 90 52 91 57 92 53 93 54 94 56 95 58 96 55 97
REMARK H PARENT 11 22 9 24 90 32 88 34 75 59 49 70
REMARK Flexibility Score: inf
ROOT
ATOM      1  C   UNL A   1      40.606  20.453  26.230  1.00  0.00     0.188 C 
ENDROOT
BRANCH   1   2
ATOM      2  O   UNL A   1      39.786  21.579  26.413  1.00  0.00    -0.376 OA
BRANCH   2   3
ATOM      3  C   UNL A   1      38.553  21.683  25.738  1.00  0.00     0.202 C 
BRANCH   3   4
ATOM      4  C   UNL A   1      37.721  22.975  25.726  1.00  0.00     0.261 C 
BRANCH   4   5
ATOM      5  O   UNL A   1      36.538  22.973  24.910  1.00  0.00    -0.463 OA
BRANCH   5   6
ATOM      6  C   UNL A   1      35.455  23.648  25.404  1.00  0.00     0.317 C 
ATOM      7  O   UNL A   1      35.511  24.718  25.990  1.00  0.00    -0.251 OA
BRANCH   6   8
ATOM      8  C   UNL A   1      34.173  22.884  25.082  1.00  0.00     0.182 C 
ATOM      9  O   UNL A   1      32.773  22.360  28.280  1.00  0.00    -0.247 OA
ATOM     10  C   UNL A   1      33.282  22.273  27.180  1.00  0.00     0.335 C 
ATOM     11  O   UNL A   1      34.133  21.285  26.776  1.00  0.00    -0.453 OA
ATOM     12  C   UNL A   1      33.082  23.202  26.039  1.00  0.00     0.056 C 
ATOM     13  C   UNL A   1      34.438  21.420  25.375  1.00  0.00     0.226 C 
ATOM     14  C   UNL A   1      32.021  24.028  25.983  1.00  0.00     0.020 C 
BRANCH  13  15
ATOM     15  C   UNL A   1      33.637  20.439  24.524  1.00  0.00    -0.002 A 
ATOM     16  C   UNL A   1      33.027  20.855  23.321  1.00  0.00     0.012 A 
ATOM     17  C   UNL A   1      33.549  19.082  24.879  1.00  0.00     0.057 A 
ATOM     18  C   UNL A   1      32.320  19.953  22.515  1.00  0.00     0.050 A 
ATOM     19  C   UNL A   1      32.853  18.194  24.070  1.00  0.00     0.157 A 
ATOM     20  C   UNL A   1      32.240  18.621  22.898  1.00  0.00     0.157 A 
BRANCH  19  21
ATOM     21  O   UNL A   1      32.790  16.879  24.434  1.00  0.00    -0.504 OA
ATOM     22  H   UNL A   1      33.192  16.595  25.232  1.00  0.00     0.293 HD
ENDBRANCH  19  21
BRANCH  20  23
ATOM     23  O   UNL A   1      31.582  17.686  22.148  1.00  0.00    -0.504 OA
ATOM     24  H   UNL A   1      30.743  17.372  22.421  1.00  0.00     0.293 HD
ENDBRANCH  20  23
ENDBRANCH  13  15
BRANCH  14  25
ATOM     25  C   UNL A   1      31.619  24.947  24.896  1.00  0.00    -0.021 A 
ATOM     26  C   UNL A   1      30.831  26.479  25.322  1.00  0.00     0.012 A 
ATOM     27  C   UNL A   1      32.102  24.549  23.261  1.00  0.00     0.058 A 
ATOM     28  C   UNL A   1      30.443  27.747  24.153  1.00  0.00     0.051 A 
ATOM     29  C   UNL A   1      31.784  25.732  21.935  1.00  0.00     0.157 A 
ATOM     30  C   UNL A   1      30.872  27.479  22.414  1.00  0.00     0.157 A 
BRANCH  29  31
ATOM     31  O   UNL A   1      32.201  25.076  20.767  1.00  0.00    -0.504 OA
ATOM     32  H   UNL A   1      31.769  24.291  20.493  1.00  0.00     0.293 HD
ENDBRANCH  29  31
BRANCH  30  33
ATOM     33  O   UNL A   1      30.337  28.560  21.705  1.00  0.00    -0.504 OA
ATOM     34  H   UNL A   1      30.891  29.087  21.164  1.00  0.00     0.293 HD
ENDBRANCH  30  33
ENDBRANCH  14  25
ENDBRANCH   6   8
ENDBRANCH   5   6
ENDBRANCH   4   5
ENDBRANCH   3   4
ENDBRANCH   2   3
ENDBRANCH   1   2
BRANCH   1  35
ATOM     35  C   UNL A   1      42.079  20.448  26.709  1.00  0.00     0.188 C 
BRANCH  35  36
ATOM     36  O   UNL A   1      43.126  20.270  25.786  1.00  0.00    -0.376 OA
BRANCH  36  37
ATOM     37  C   UNL A   1      44.101  21.294  25.678  1.00  0.00     0.202 C 
BRANCH  37  38
ATOM     38  C   UNL A   1      44.370  22.022  24.349  1.00  0.00     0.261 C 
BRANCH  38  39
ATOM     39  O   UNL A   1      43.775  23.325  24.239  1.00  0.00    -0.460 OA
BRANCH  39  40
ATOM     40  C   UNL A   1      44.485  24.338  24.785  1.00  0.00     0.338 C 
ATOM     41  O   UNL A   1      45.666  24.602  24.630  1.00  0.00    -0.246 OA
BRANCH  40  42
ATOM     42  C   UNL A   1      43.603  25.239  25.525  1.00  0.00     0.060 A 
ATOM     43  C   UNL A   1      43.822  27.041  25.448  1.00  0.00     0.016 A 
ATOM     44  C   UNL A   1      42.718  24.551  26.876  1.00  0.00     0.016 A 
ATOM     45  C   UNL A   1      43.040  28.149  26.948  1.00  0.00     0.010 A 
ATOM     46  C   UNL A   1      42.040  25.537  28.190  1.00  0.00     0.010 A 
ATOM     47  C   UNL A   1      42.182  27.291  28.279  1.00  0.00    -0.014 A 
BRANCH  47  48
ATOM     48  C   UNL A   1      41.675  28.001  29.465  1.00  0.00     0.031 A 
ATOM     49  C   UNL A   1      40.435  28.845  29.365  1.00  0.00     0.074 A 
ATOM     50  C   UNL A   1      42.383  27.922  30.604  1.00  0.00     0.049 A 
ATOM     51  N   UNL A   1      39.876  29.614  30.265  1.00  0.00    -0.248 NA
ATOM     52  C   UNL A   1      39.737  28.853  28.074  1.00  0.00     0.031 C 
ATOM     53  C   UNL A   1      43.624  27.169  30.773  1.00  0.00     0.029 A 
ATOM     54  N   UNL A   1      42.178  28.496  31.828  1.00  0.00    -0.354 N 
ATOM     55  C   UNL A   1      38.778  30.196  29.636  1.00  0.00     0.074 A 
ATOM     56  C   UNL A   1      38.776  29.739  28.270  1.00  0.00     0.031 C 
ATOM     57  C   UNL A   1      44.062  27.306  32.032  1.00  0.00     0.029 A 
ATOM     58  C   UNL A   1      43.160  28.201  32.742  1.00  0.00     0.049 A 
ATOM     59  H   UNL A   1      41.403  29.067  32.034  1.00  0.00     0.167 HD
ATOM     60  C   UNL A   1      37.850  31.031  30.160  1.00  0.00     0.037 A 
ATOM     61  C   UNL A   1      43.322  28.626  34.007  1.00  0.00     0.037 A 
ATOM     62  C   UNL A   1      37.892  31.483  31.524  1.00  0.00     0.049 A 
ATOM     63  C   UNL A   1      42.289  29.561  34.564  1.00  0.00     0.074 A 
ATOM     64  C   UNL A   1      37.013  32.313  32.193  1.00  0.00     0.029 A 
ATOM     65  N   UNL A   1      38.890  31.136  32.427  1.00  0.00    -0.354 N 
ATOM     66  N   UNL A   1      41.232  30.069  33.974  1.00  0.00    -0.248 NA
ATOM     67  C   UNL A   1      42.464  29.977  35.959  1.00  0.00     0.031 C 
ATOM     68  C   UNL A   1      37.510  32.512  33.486  1.00  0.00     0.029 A 
ATOM     69  C   UNL A   1      38.661  31.753  33.644  1.00  0.00     0.049 A 
ATOM     70  H   UNL A   1      39.648  30.541  32.230  1.00  0.00     0.167 HD
ATOM     71  C   UNL A   1      40.600  30.848  34.931  1.00  0.00     0.074 A 
ATOM     72  C   UNL A   1      41.385  30.724  36.145  1.00  0.00     0.031 C 
ATOM     73  C   UNL A   1      39.477  31.601  34.823  1.00  0.00     0.037 A 
BRANCH  60  74
ATOM     74  C   UNL A   1      36.753  31.516  29.249  1.00  0.00     0.057 A 
ATOM     75  C   UNL A   1      36.729  32.822  28.737  1.00  0.00     0.134 A 
ATOM     76  C   UNL A   1      35.696  30.671  28.884  1.00  0.00     0.134 A 
ATOM     77  F   UNL A   1      37.697  33.695  29.056  1.00  0.00    -0.206 F 
ATOM     78  C   UNL A   1      35.683  33.278  27.931  1.00  0.00     0.040 A 
ATOM     79  C   UNL A   1      34.660  31.106  28.054  1.00  0.00     0.040 A 
ATOM     80  F   UNL A   1      35.648  29.408  29.334  1.00  0.00    -0.206 F 
ATOM     81  C   UNL A   1      34.646  32.417  27.583  1.00  0.00     0.006 A 
ENDBRANCH  60  74
BRANCH  61  82
ATOM     82  C   UNL A   1      44.484  28.158  34.807  1.00  0.00     0.057 A 
ATOM     83  C   UNL A   1      45.690  28.868  34.815  1.00  0.00     0.134 A 
ATOM     84  C   UNL A   1      44.407  27.015  35.615  1.00  0.00     0.134 A 
ATOM     85  F   UNL A   1      45.832  29.966  34.059  1.00  0.00    -0.206 F 
ATOM     86  C   UNL A   1      46.781  28.451  35.581  1.00  0.00     0.040 A 
ATOM     87  C   UNL A   1      45.479  26.605  36.410  1.00  0.00     0.040 A 
ATOM     88  F   UNL A   1      43.273  26.300  35.670  1.00  0.00    -0.206 F 
ATOM     89  C   UNL A   1      46.674  27.320  36.389  1.00  0.00     0.006 A 
ENDBRANCH  61  82
BRANCH  73  90
ATOM     90  C   UNL A   1      39.028  32.308  36.066  1.00  0.00     0.057 A 
ATOM     91  C   UNL A   1      39.396  33.630  36.341  1.00  0.00     0.134 A 
ATOM     92  C   UNL A   1      38.200  31.654  36.988  1.00  0.00     0.134 A 
ATOM     93  F   UNL A   1      40.198  34.302  35.501  1.00  0.00    -0.206 F 
ATOM     94  C   UNL A   1      38.987  34.267  37.511  1.00  0.00     0.040 A 
ATOM     95  C   UNL A   1      37.756  32.294  38.143  1.00  0.00     0.040 A 
ATOM     96  F   UNL A   1      37.804  30.391  36.775  1.00  0.00    -0.206 F 
ATOM     97  C   UNL A   1      38.159  33.601  38.412  1.00  0.00     0.006 A 
ENDBRANCH  73  90
ENDBRANCH  47  48
ENDBRANCH  40  42
ENDBRANCH  39  40
ENDBRANCH  38  39
ENDBRANCH  37  38
ENDBRANCH  36  37
ENDBRANCH  35  36
ENDBRANCH   1  35
TORSDOF 23
ENDMDL
