MODEL 1
REMARK VINA RESULT:     -10.3      0.000      0.000
REMARK SMILES C[C@H](NC(=O)c1ccncc1/C=C/C(=O)OCCOCCOCCOC(=O)c1ccc(-c2c3nc(c(-c4c(F)cccc4F)c4ccc([nH]4)c(-c4c(F)cccc4F)c4nc(c(-c5c(F)cccc5F)c5ccc2[nH]5)C=C4)C=C3)cc1)c1ccco1
REMARK SMILES IDX 20 1 19 2 18 3 17 4 16 5 14 6 15 7 13 8 12 9 11 10 6 11 7 12
REMARK SMILES IDX 8 13 10 14 9 15 4 16 3 17 5 19 2 20 1 21 82 22 83 23 86 24
REMARK SMILES IDX 84 25 85 26 21 27 22 28 23 29 24 30 25 31 26 32 27 33 28 34
REMARK SMILES IDX 29 35 81 36 30 37 80 38 31 39 32 40 33 41 74 42 34 43 79 44
REMARK SMILES IDX 73 45 75 46 35 47 78 48 72 49 71 50 36 52 62 53 45 54 61 55
REMARK SMILES IDX 46 56 49 57 60 58 76 59 47 60 48 61 59 63 77 64 50 65 37 66
REMARK SMILES IDX 38 67 43 68 39 69 40 70 42 71 44 72 41 73 63 74 64 75 69 76
REMARK SMILES IDX 65 77 66 78 68 79 70 80 67 81 51 82 52 83 57 84 53 85 54 86
REMARK SMILES IDX 56 87 58 88 55 89
REMARK H PARENT 3 18 75 51 49 62
REMARK Flexibility Score: inf
ROOT
ATOM      1  C   UNL A   1      33.973  20.924  25.804  1.00  0.00     0.188 C 
ENDROOT
BRANCH   1   2
ATOM      2  O   UNL A   1      32.882  21.700  25.331  1.00  0.00    -0.376 OA
BRANCH   2   3
ATOM      3  C   UNL A   1      32.721  21.919  23.935  1.00  0.00     0.202 C 
BRANCH   3   4
ATOM      4  C   UNL A   1      32.513  23.334  23.374  1.00  0.00     0.261 C 
BRANCH   4   5
ATOM      5  O   UNL A   1      33.708  24.003  22.942  1.00  0.00    -0.460 OA
BRANCH   5   6
ATOM      6  C   UNL A   1      34.487  24.486  23.935  1.00  0.00     0.330 C 
ATOM      7  O   UNL A   1      35.563  24.031  24.300  1.00  0.00    -0.247 OA
BRANCH   6   8
ATOM      8  C   UNL A   1      33.985  25.754  24.502  1.00  0.00     0.094 C 
ATOM      9  C   UNL A   1      33.800  26.076  25.796  1.00  0.00     0.018 C 
BRANCH   9  10
ATOM     10  C   UNL A   1      33.320  27.425  26.156  1.00  0.00     0.006 A 
ATOM     11  C   UNL A   1      31.968  27.781  26.257  1.00  0.00     0.050 A 
ATOM     12  C   UNL A   1      31.613  28.932  26.960  1.00  0.00     0.034 A 
ATOM     13  C   UNL A   1      32.607  29.817  27.328  1.00  0.00     0.112 A 
ATOM     14  C   UNL A   1      34.234  28.420  26.510  1.00  0.00     0.119 A 
ATOM     15  N   UNL A   1      33.908  29.612  27.063  1.00  0.00    -0.264 NA
BRANCH  11  16
ATOM     16  C   UNL A   1      30.893  26.900  25.771  1.00  0.00     0.252 C 
ATOM     17  N   UNL A   1      30.441  26.943  24.479  1.00  0.00    -0.342 N 
ATOM     18  H   UNL A   1      29.656  26.362  24.355  1.00  0.00     0.164 HD
ATOM     19  O   UNL A   1      30.379  26.104  26.553  1.00  0.00    -0.269 OA
BRANCH  17  20
ATOM     20  C   UNL A   1      30.805  27.619  23.228  1.00  0.00     0.145 C 
ATOM     21  C   UNL A   1      31.300  26.768  22.066  1.00  0.00     0.039 C 
BRANCH  20  22
ATOM     22  C   UNL A   1      29.754  28.582  22.791  1.00  0.00     0.125 A 
ATOM     23  C   UNL A   1      28.411  28.747  23.067  1.00  0.00     0.048 A 
ATOM     24  O   UNL A   1      30.129  29.457  21.809  1.00  0.00    -0.467 OA
ATOM     25  C   UNL A   1      27.940  29.756  22.189  1.00  0.00     0.042 A 
ATOM     26  C   UNL A   1      29.026  30.158  21.448  1.00  0.00     0.195 A 
ENDBRANCH  20  22
ENDBRANCH  17  20
ENDBRANCH  11  16
ENDBRANCH   9  10
ENDBRANCH   6   8
ENDBRANCH   5   6
ENDBRANCH   4   5
ENDBRANCH   3   4
ENDBRANCH   2   3
ENDBRANCH   1   2
BRANCH   1  27
ATOM     27  C   UNL A   1      35.164  20.616  24.877  1.00  0.00     0.188 C 
BRANCH  27  28
ATOM     28  O   UNL A   1      36.429  20.956  25.385  1.00  0.00    -0.376 OA
BRANCH  28  29
ATOM     29  C   UNL A   1      37.588  20.276  24.935  1.00  0.00     0.202 C 
BRANCH  29  30
ATOM     30  C   UNL A   1      39.039  20.588  25.360  1.00  0.00     0.261 C 
BRANCH  30  31
ATOM     31  O   UNL A   1      39.708  19.675  26.234  1.00  0.00    -0.460 OA
BRANCH  31  32
ATOM     32  C   UNL A   1      41.050  19.602  26.112  1.00  0.00     0.338 C 
ATOM     33  O   UNL A   1      41.705  18.702  25.592  1.00  0.00    -0.246 OA
BRANCH  32  34
ATOM     34  C   UNL A   1      41.630  20.881  26.549  1.00  0.00     0.060 A 
ATOM     35  C   UNL A   1      41.510  21.252  27.895  1.00  0.00     0.016 A 
ATOM     36  C   UNL A   1      42.266  21.720  25.633  1.00  0.00     0.016 A 
ATOM     37  C   UNL A   1      42.012  22.480  28.325  1.00  0.00     0.010 A 
ATOM     38  C   UNL A   1      42.750  22.959  26.062  1.00  0.00     0.010 A 
ATOM     39  C   UNL A   1      42.601  23.355  27.403  1.00  0.00    -0.014 A 
BRANCH  39  40
ATOM     40  C   UNL A   1      42.912  24.748  27.801  1.00  0.00     0.031 A 
ATOM     41  C   UNL A   1      44.352  25.159  27.920  1.00  0.00     0.074 A 
ATOM     42  C   UNL A   1      41.933  25.635  28.048  1.00  0.00     0.049 A 
ATOM     43  N   UNL A   1      44.862  26.300  28.306  1.00  0.00    -0.248 NA
ATOM     44  C   UNL A   1      45.350  24.142  27.555  1.00  0.00     0.031 C 
ATOM     45  C   UNL A   1      40.501  25.368  27.937  1.00  0.00     0.029 A 
ATOM     46  N   UNL A   1      42.005  26.943  28.462  1.00  0.00    -0.354 N 
ATOM     47  C   UNL A   1      46.240  26.137  28.234  1.00  0.00     0.074 A 
ATOM     48  C   UNL A   1      46.485  24.778  27.802  1.00  0.00     0.031 C 
ATOM     49  C   UNL A   1      39.826  26.474  28.296  1.00  0.00     0.029 A 
ATOM     50  C   UNL A   1      40.777  27.512  28.690  1.00  0.00     0.049 A 
ATOM     51  H   UNL A   1      42.855  27.425  28.581  1.00  0.00     0.167 HD
ATOM     52  C   UNL A   1      47.214  27.041  28.495  1.00  0.00     0.037 A 
ATOM     53  C   UNL A   1      40.460  28.723  29.189  1.00  0.00     0.037 A 
ATOM     54  C   UNL A   1      46.969  28.387  28.944  1.00  0.00     0.049 A 
ATOM     55  C   UNL A   1      41.559  29.688  29.549  1.00  0.00     0.074 A 
ATOM     56  C   UNL A   1      47.887  29.382  29.230  1.00  0.00     0.029 A 
ATOM     57  N   UNL A   1      45.712  28.921  29.187  1.00  0.00    -0.354 N 
ATOM     58  N   UNL A   1      42.858  29.537  29.453  1.00  0.00    -0.248 NA
ATOM     59  C   UNL A   1      41.146  30.994  30.082  1.00  0.00     0.031 C 
ATOM     60  C   UNL A   1      47.188  30.501  29.695  1.00  0.00     0.029 A 
ATOM     61  C   UNL A   1      45.830  30.223  29.644  1.00  0.00     0.049 A 
ATOM     62  H   UNL A   1      44.861  28.445  29.054  1.00  0.00     0.167 HD
ATOM     63  C   UNL A   1      43.416  30.734  29.890  1.00  0.00     0.074 A 
ATOM     64  C   UNL A   1      42.313  31.605  30.239  1.00  0.00     0.031 C 
ATOM     65  C   UNL A   1      44.724  31.080  29.990  1.00  0.00     0.037 A 
BRANCH  52  66
ATOM     66  C   UNL A   1      48.633  26.581  28.332  1.00  0.00     0.057 A 
ATOM     67  C   UNL A   1      49.361  26.034  29.399  1.00  0.00     0.134 A 
ATOM     68  C   UNL A   1      49.282  26.690  27.097  1.00  0.00     0.134 A 
ATOM     69  F   UNL A   1      48.805  25.917  30.614  1.00  0.00    -0.206 F 
ATOM     70  C   UNL A   1      50.694  25.643  29.249  1.00  0.00     0.040 A 
ATOM     71  C   UNL A   1      50.604  26.276  26.928  1.00  0.00     0.040 A 
ATOM     72  F   UNL A   1      48.643  27.201  26.034  1.00  0.00    -0.206 F 
ATOM     73  C   UNL A   1      51.317  25.760  28.008  1.00  0.00     0.006 A 
ENDBRANCH  52  66
BRANCH  53  74
ATOM     74  C   UNL A   1      39.036  29.084  29.394  1.00  0.00     0.057 A 
ATOM     75  C   UNL A   1      38.392  28.844  30.612  1.00  0.00     0.134 A 
ATOM     76  C   UNL A   1      38.283  29.679  28.373  1.00  0.00     0.134 A 
ATOM     77  F   UNL A   1      39.052  28.254  31.619  1.00  0.00    -0.206 F 
ATOM     78  C   UNL A   1      37.050  29.174  30.808  1.00  0.00     0.040 A 
ATOM     79  C   UNL A   1      36.948  30.036  28.562  1.00  0.00     0.040 A 
ATOM     80  F   UNL A   1      38.842  29.933  27.181  1.00  0.00    -0.206 F 
ATOM     81  C   UNL A   1      36.326  29.780  29.782  1.00  0.00     0.006 A 
ENDBRANCH  53  74
BRANCH  65  82
ATOM     82  C   UNL A   1      45.037  32.471  30.464  1.00  0.00     0.057 A 
ATOM     83  C   UNL A   1      45.074  33.564  29.590  1.00  0.00     0.134 A 
ATOM     84  C   UNL A   1      45.261  32.725  31.825  1.00  0.00     0.134 A 
ATOM     85  F   UNL A   1      44.880  33.388  28.274  1.00  0.00    -0.206 F 
ATOM     86  C   UNL A   1      45.343  34.856  30.047  1.00  0.00     0.040 A 
ATOM     87  C   UNL A   1      45.503  34.016  32.297  1.00  0.00     0.040 A 
ATOM     88  F   UNL A   1      45.230  31.726  32.719  1.00  0.00    -0.206 F 
ATOM     89  C   UNL A   1      45.551  35.085  31.405  1.00  0.00     0.006 A 
ENDBRANCH  65  82
ENDBRANCH  39  40
ENDBRANCH  32  34
ENDBRANCH  31  32
ENDBRANCH  30  31
ENDBRANCH  29  30
ENDBRANCH  28  29
ENDBRANCH  27  28
ENDBRANCH   1  27
TORSDOF 21
ENDMDL
MODEL 2
REMARK VINA RESULT:     -10.0      5.452     10.492
REMARK SMILES C[C@H](NC(=O)c1ccncc1/C=C/C(=O)OCCOCCOCCOC(=O)c1ccc(-c2c3nc(c(-c4c(F)cccc4F)c4ccc([nH]4)c(-c4c(F)cccc4F)c4nc(c(-c5c(F)cccc5F)c5ccc2[nH]5)C=C4)C=C3)cc1)c1ccco1
REMARK SMILES IDX 20 1 19 2 18 3 17 4 16 5 14 6 15 7 13 8 12 9 11 10 6 11 7 12
REMARK SMILES IDX 8 13 10 14 9 15 4 16 3 17 5 19 2 20 1 21 82 22 83 23 86 24
REMARK SMILES IDX 84 25 85 26 21 27 22 28 23 29 24 30 25 31 26 32 27 33 28 34
REMARK SMILES IDX 29 35 81 36 30 37 80 38 31 39 32 40 33 41 74 42 34 43 79 44
REMARK SMILES IDX 73 45 75 46 35 47 78 48 72 49 71 50 36 52 62 53 45 54 61 55
REMARK SMILES IDX 46 56 49 57 60 58 76 59 47 60 48 61 59 63 77 64 50 65 37 66
REMARK SMILES IDX 38 67 43 68 39 69 40 70 42 71 44 72 41 73 63 74 64 75 69 76
REMARK SMILES IDX 65 77 66 78 68 79 70 80 67 81 51 82 52 83 57 84 53 85 54 86
REMARK SMILES IDX 56 87 58 88 55 89
REMARK H PARENT 3 18 75 51 49 62
REMARK Flexibility Score: inf
ROOT
ATOM      1  C   UNL A   1      34.831  33.215  28.825  1.00  0.00     0.188 C 
ENDROOT
BRANCH   1   2
ATOM      2  O   UNL A   1      34.065  32.022  28.912  1.00  0.00    -0.376 OA
BRANCH   2   3
ATOM      3  C   UNL A   1      34.188  31.027  27.904  1.00  0.00     0.202 C 
BRANCH   3   4
ATOM      4  C   UNL A   1      33.007  30.683  26.983  1.00  0.00     0.261 C 
BRANCH   4   5
ATOM      5  O   UNL A   1      32.580  29.312  27.020  1.00  0.00    -0.460 OA
BRANCH   5   6
ATOM      6  C   UNL A   1      33.067  28.532  26.029  1.00  0.00     0.330 C 
ATOM      7  O   UNL A   1      33.659  28.915  25.029  1.00  0.00    -0.247 OA
BRANCH   6   8
ATOM      8  C   UNL A   1      32.943  27.088  26.313  1.00  0.00     0.094 C 
ATOM      9  C   UNL A   1      33.229  26.049  25.507  1.00  0.00     0.018 C 
BRANCH   9  10
ATOM     10  C   UNL A   1      33.069  24.668  26.003  1.00  0.00     0.006 A 
ATOM     11  C   UNL A   1      33.956  23.620  25.717  1.00  0.00     0.050 A 
ATOM     12  C   UNL A   1      33.947  22.477  26.517  1.00  0.00     0.034 A 
ATOM     13  C   UNL A   1      32.909  22.303  27.411  1.00  0.00     0.112 A 
ATOM     14  C   UNL A   1      32.032  24.357  26.884  1.00  0.00     0.119 A 
ATOM     15  N   UNL A   1      31.916  23.194  27.568  1.00  0.00    -0.264 NA
BRANCH  11  16
ATOM     16  C   UNL A   1      35.003  23.744  24.689  1.00  0.00     0.252 C 
ATOM     17  N   UNL A   1      34.757  23.499  23.364  1.00  0.00    -0.342 N 
ATOM     18  H   UNL A   1      35.588  23.530  22.835  1.00  0.00     0.164 HD
ATOM     19  O   UNL A   1      36.135  24.073  25.032  1.00  0.00    -0.269 OA
BRANCH  17  20
ATOM     20  C   UNL A   1      33.598  23.200  22.515  1.00  0.00     0.145 C 
ATOM     21  C   UNL A   1      32.772  21.962  22.833  1.00  0.00     0.039 C 
BRANCH  20  22
ATOM     22  C   UNL A   1      32.734  24.398  22.314  1.00  0.00     0.125 A 
ATOM     23  C   UNL A   1      32.902  25.628  21.708  1.00  0.00     0.048 A 
ATOM     24  O   UNL A   1      31.523  24.365  22.949  1.00  0.00    -0.467 OA
ATOM     25  C   UNL A   1      31.746  26.389  22.014  1.00  0.00     0.042 A 
ATOM     26  C   UNL A   1      30.936  25.574  22.768  1.00  0.00     0.195 A 
ENDBRANCH  20  22
ENDBRANCH  17  20
ENDBRANCH  11  16
ENDBRANCH   9  10
ENDBRANCH   6   8
ENDBRANCH   5   6
ENDBRANCH   4   5
ENDBRANCH   3   4
ENDBRANCH   2   3
ENDBRANCH   1   2
BRANCH   1  27
ATOM     27  C   UNL A   1      34.344  34.386  27.951  1.00  0.00     0.188 C 
BRANCH  27  28
ATOM     28  O   UNL A   1      34.675  35.669  28.421  1.00  0.00    -0.376 OA
BRANCH  28  29
ATOM     29  C   UNL A   1      33.659  36.627  28.664  1.00  0.00     0.202 C 
BRANCH  29  30
ATOM     30  C   UNL A   1      32.528  36.497  29.707  1.00  0.00     0.261 C 
BRANCH  30  31
ATOM     31  O   UNL A   1      32.557  35.394  30.616  1.00  0.00    -0.460 OA
BRANCH  31  32
ATOM     32  C   UNL A   1      32.666  35.699  31.926  1.00  0.00     0.338 C 
ATOM     33  O   UNL A   1      31.865  36.326  32.615  1.00  0.00    -0.246 OA
BRANCH  32  34
ATOM     34  C   UNL A   1      33.837  34.998  32.474  1.00  0.00     0.060 A 
ATOM     35  C   UNL A   1      35.104  35.572  32.310  1.00  0.00     0.016 A 
ATOM     36  C   UNL A   1      33.688  33.772  33.124  1.00  0.00     0.016 A 
ATOM     37  C   UNL A   1      36.235  34.906  32.781  1.00  0.00     0.010 A 
ATOM     38  C   UNL A   1      34.825  33.097  33.577  1.00  0.00     0.010 A 
ATOM     39  C   UNL A   1      36.104  33.648  33.384  1.00  0.00    -0.014 A 
BRANCH  39  40
ATOM     40  C   UNL A   1      37.310  32.833  33.662  1.00  0.00     0.031 A 
ATOM     41  C   UNL A   1      38.088  33.104  34.918  1.00  0.00     0.074 A 
ATOM     42  C   UNL A   1      37.705  31.865  32.819  1.00  0.00     0.049 A 
ATOM     43  N   UNL A   1      39.201  32.563  35.342  1.00  0.00    -0.248 NA
ATOM     44  C   UNL A   1      37.535  34.130  35.817  1.00  0.00     0.031 C 
ATOM     45  C   UNL A   1      37.019  31.484  31.586  1.00  0.00     0.029 A 
ATOM     46  N   UNL A   1      38.798  31.036  32.870  1.00  0.00    -0.354 N 
ATOM     47  C   UNL A   1      39.483  33.182  36.552  1.00  0.00     0.074 A 
ATOM     48  C   UNL A   1      38.445  34.165  36.778  1.00  0.00     0.031 C 
ATOM     49  C   UNL A   1      37.720  30.508  30.984  1.00  0.00     0.029 A 
ATOM     50  C   UNL A   1      38.917  30.219  31.773  1.00  0.00     0.049 A 
ATOM     51  H   UNL A   1      39.434  31.027  33.621  1.00  0.00     0.167 HD
ATOM     52  C   UNL A   1      40.509  32.948  37.404  1.00  0.00     0.037 A 
ATOM     53  C   UNL A   1      39.897  29.359  31.433  1.00  0.00     0.037 A 
ATOM     54  C   UNL A   1      41.552  31.983  37.168  1.00  0.00     0.049 A 
ATOM     55  C   UNL A   1      41.072  29.169  32.355  1.00  0.00     0.074 A 
ATOM     56  C   UNL A   1      42.632  31.666  37.973  1.00  0.00     0.029 A 
ATOM     57  N   UNL A   1      41.651  31.191  36.035  1.00  0.00    -0.354 N 
ATOM     58  N   UNL A   1      41.318  29.738  33.511  1.00  0.00    -0.248 NA
ATOM     59  C   UNL A   1      42.102  28.211  31.928  1.00  0.00     0.031 C 
ATOM     60  C   UNL A   1      43.413  30.719  37.303  1.00  0.00     0.029 A 
ATOM     61  C   UNL A   1      42.789  30.403  36.106  1.00  0.00     0.049 A 
ATOM     62  H   UNL A   1      41.009  31.188  35.290  1.00  0.00     0.167 HD
ATOM     63  C   UNL A   1      42.516  29.192  33.959  1.00  0.00     0.074 A 
ATOM     64  C   UNL A   1      42.940  28.237  32.956  1.00  0.00     0.031 C 
ATOM     65  C   UNL A   1      43.201  29.457  35.100  1.00  0.00     0.037 A 
BRANCH  52  66
ATOM     66  C   UNL A   1      40.563  33.780  38.653  1.00  0.00     0.057 A 
ATOM     67  C   UNL A   1      41.354  34.934  38.740  1.00  0.00     0.134 A 
ATOM     68  C   UNL A   1      39.818  33.422  39.782  1.00  0.00     0.134 A 
ATOM     69  F   UNL A   1      42.106  35.324  37.699  1.00  0.00    -0.206 F 
ATOM     70  C   UNL A   1      41.429  35.681  39.917  1.00  0.00     0.040 A 
ATOM     71  C   UNL A   1      39.862  34.177  40.955  1.00  0.00     0.040 A 
ATOM     72  F   UNL A   1      39.037  32.331  39.767  1.00  0.00    -0.206 F 
ATOM     73  C   UNL A   1      40.677  35.304  41.028  1.00  0.00     0.006 A 
ENDBRANCH  52  66
BRANCH  53  74
ATOM     74  C   UNL A   1      39.815  28.624  30.146  1.00  0.00     0.057 A 
ATOM     75  C   UNL A   1      39.136  27.405  30.045  1.00  0.00     0.134 A 
ATOM     76  C   UNL A   1      40.415  29.128  28.984  1.00  0.00     0.134 A 
ATOM     77  F   UNL A   1      38.563  26.861  31.128  1.00  0.00    -0.206 F 
ATOM     78  C   UNL A   1      39.063  26.707  28.838  1.00  0.00     0.040 A 
ATOM     79  C   UNL A   1      40.329  28.452  27.766  1.00  0.00     0.040 A 
ATOM     80  F   UNL A   1      41.082  30.290  29.016  1.00  0.00    -0.206 F 
ATOM     81  C   UNL A   1      39.655  27.235  27.692  1.00  0.00     0.006 A 
ENDBRANCH  53  74
BRANCH  65  82
ATOM     82  C   UNL A   1      44.464  28.680  35.344  1.00  0.00     0.057 A 
ATOM     83  C   UNL A   1      44.458  27.435  35.985  1.00  0.00     0.134 A 
ATOM     84  C   UNL A   1      45.698  29.167  34.891  1.00  0.00     0.134 A 
ATOM     85  F   UNL A   1      43.312  26.917  36.453  1.00  0.00    -0.206 F 
ATOM     86  C   UNL A   1      45.636  26.712  36.185  1.00  0.00     0.040 A 
ATOM     87  C   UNL A   1      46.878  28.440  35.061  1.00  0.00     0.040 A 
ATOM     88  F   UNL A   1      45.774  30.348  34.260  1.00  0.00    -0.206 F 
ATOM     89  C   UNL A   1      46.849  27.212  35.715  1.00  0.00     0.006 A 
ENDBRANCH  65  82
ENDBRANCH  39  40
ENDBRANCH  32  34
ENDBRANCH  31  32
ENDBRANCH  30  31
ENDBRANCH  29  30
ENDBRANCH  28  29
ENDBRANCH  27  28
ENDBRANCH   1  27
TORSDOF 21
ENDMDL
MODEL 3
REMARK VINA RESULT:      -9.9      4.437      8.438
REMARK SMILES C[C@H](NC(=O)c1ccncc1/C=C/C(=O)OCCOCCOCCOC(=O)c1ccc(-c2c3nc(c(-c4c(F)cccc4F)c4ccc([nH]4)c(-c4c(F)cccc4F)c4nc(c(-c5c(F)cccc5F)c5ccc2[nH]5)C=C4)C=C3)cc1)c1ccco1
REMARK SMILES IDX 20 1 19 2 18 3 17 4 16 5 14 6 15 7 13 8 12 9 11 10 6 11 7 12
REMARK SMILES IDX 8 13 10 14 9 15 4 16 3 17 5 19 2 20 1 21 82 22 83 23 86 24
REMARK SMILES IDX 84 25 85 26 21 27 22 28 23 29 24 30 25 31 26 32 27 33 28 34
REMARK SMILES IDX 29 35 81 36 30 37 80 38 31 39 32 40 33 41 74 42 34 43 79 44
REMARK SMILES IDX 73 45 75 46 35 47 78 48 72 49 71 50 36 52 62 53 45 54 61 55
REMARK SMILES IDX 46 56 49 57 60 58 76 59 47 60 48 61 59 63 77 64 50 65 37 66
REMARK SMILES IDX 38 67 43 68 39 69 40 70 42 71 44 72 41 73 63 74 64 75 69 76
REMARK SMILES IDX 65 77 66 78 68 79 70 80 67 81 51 82 52 83 57 84 53 85 54 86
REMARK SMILES IDX 56 87 58 88 55 89
REMARK H PARENT 3 18 75 51 49 62
REMARK Flexibility Score: inf
ROOT
ATOM      1  C   UNL A   1      41.369  21.206  27.301  1.00  0.00     0.188 C 
ENDROOT
BRANCH   1   2
ATOM      2  O   UNL A   1      39.961  21.190  27.113  1.00  0.00    -0.376 OA
BRANCH   2   3
ATOM      3  C   UNL A   1      39.386  21.877  26.009  1.00  0.00     0.202 C 
BRANCH   3   4
ATOM      4  C   UNL A   1      38.361  23.002  26.223  1.00  0.00     0.261 C 
BRANCH   4   5
ATOM      5  O   UNL A   1      37.321  23.079  25.236  1.00  0.00    -0.460 OA
BRANCH   5   6
ATOM      6  C   UNL A   1      36.075  22.827  25.694  1.00  0.00     0.330 C 
ATOM      7  O   UNL A   1      35.663  21.759  26.126  1.00  0.00    -0.247 OA
BRANCH   6   8
ATOM      8  C   UNL A   1      35.225  24.034  25.760  1.00  0.00     0.094 C 
ATOM      9  C   UNL A   1      33.908  24.116  26.023  1.00  0.00     0.018 C 
BRANCH   9  10
ATOM     10  C   UNL A   1      33.252  25.438  26.081  1.00  0.00     0.006 A 
ATOM     11  C   UNL A   1      31.880  25.627  26.299  1.00  0.00     0.050 A 
ATOM     12  C   UNL A   1      31.418  26.875  26.716  1.00  0.00     0.034 A 
ATOM     13  C   UNL A   1      32.282  27.951  26.669  1.00  0.00     0.112 A 
ATOM     14  C   UNL A   1      34.017  26.603  26.005  1.00  0.00     0.119 A 
ATOM     15  N   UNL A   1      33.559  27.850  26.263  1.00  0.00    -0.264 NA
BRANCH  11  16
ATOM     16  C   UNL A   1      30.921  24.510  26.246  1.00  0.00     0.252 C 
ATOM     17  N   UNL A   1      30.290  24.144  25.087  1.00  0.00    -0.342 N 
ATOM     18  H   UNL A   1      29.612  23.450  25.253  1.00  0.00     0.164 HD
ATOM     19  O   UNL A   1      30.674  23.891  27.277  1.00  0.00    -0.269 OA
BRANCH  17  20
ATOM     20  C   UNL A   1      30.346  24.503  23.665  1.00  0.00     0.145 C 
ATOM     21  C   UNL A   1      29.929  25.910  23.259  1.00  0.00     0.039 C 
BRANCH  20  22
ATOM     22  C   UNL A   1      31.645  24.117  23.044  1.00  0.00     0.125 A 
ATOM     23  C   UNL A   1      32.327  22.927  22.876  1.00  0.00     0.048 A 
ATOM     24  O   UNL A   1      32.431  25.156  22.628  1.00  0.00    -0.467 OA
ATOM     25  C   UNL A   1      33.602  23.264  22.355  1.00  0.00     0.042 A 
ATOM     26  C   UNL A   1      33.613  24.632  22.220  1.00  0.00     0.195 A 
ENDBRANCH  20  22
ENDBRANCH  17  20
ENDBRANCH  11  16
ENDBRANCH   9  10
ENDBRANCH   6   8
ENDBRANCH   5   6
ENDBRANCH   4   5
ENDBRANCH   3   4
ENDBRANCH   2   3
ENDBRANCH   1   2
BRANCH   1  27
ATOM     27  C   UNL A   1      42.313  21.088  26.089  1.00  0.00     0.188 C 
BRANCH  27  28
ATOM     28  O   UNL A   1      42.338  22.201  25.231  1.00  0.00    -0.376 OA
BRANCH  28  29
ATOM     29  C   UNL A   1      43.450  23.080  25.231  1.00  0.00     0.202 C 
BRANCH  29  30
ATOM     30  C   UNL A   1      43.563  24.391  26.038  1.00  0.00     0.261 C 
BRANCH  30  31
ATOM     31  O   UNL A   1      43.092  25.604  25.443  1.00  0.00    -0.460 OA
BRANCH  31  32
ATOM     32  C   UNL A   1      41.806  25.931  25.686  1.00  0.00     0.338 C 
ATOM     33  O   UNL A   1      40.816  25.600  25.037  1.00  0.00    -0.246 OA
BRANCH  32  34
ATOM     34  C   UNL A   1      41.735  26.620  26.983  1.00  0.00     0.060 A 
ATOM     35  C   UNL A   1      40.828  26.157  27.946  1.00  0.00     0.016 A 
ATOM     36  C   UNL A   1      42.541  27.731  27.240  1.00  0.00     0.016 A 
ATOM     37  C   UNL A   1      40.711  26.820  29.166  1.00  0.00     0.010 A 
ATOM     38  C   UNL A   1      42.407  28.406  28.456  1.00  0.00     0.010 A 
ATOM     39  C   UNL A   1      41.473  27.970  29.413  1.00  0.00    -0.014 A 
BRANCH  39  40
ATOM     40  C   UNL A   1      41.178  28.812  30.595  1.00  0.00     0.031 A 
ATOM     41  C   UNL A   1      40.056  29.807  30.509  1.00  0.00     0.074 A 
ATOM     42  C   UNL A   1      41.889  28.693  31.729  1.00  0.00     0.049 A 
ATOM     43  N   UNL A   1      39.653  30.686  31.390  1.00  0.00    -0.248 NA
ATOM     44  C   UNL A   1      39.286  29.811  29.255  1.00  0.00     0.031 C 
ATOM     45  C   UNL A   1      42.979  27.745  31.949  1.00  0.00     0.029 A 
ATOM     46  N   UNL A   1      41.805  29.394  32.907  1.00  0.00    -0.354 N 
ATOM     47  C   UNL A   1      38.587  31.350  30.797  1.00  0.00     0.074 A 
ATOM     48  C   UNL A   1      38.428  30.796  29.469  1.00  0.00     0.031 C 
ATOM     49  C   UNL A   1      43.479  27.938  33.182  1.00  0.00     0.029 A 
ATOM     50  C   UNL A   1      42.765  29.041  33.823  1.00  0.00     0.049 A 
ATOM     51  H   UNL A   1      41.122  30.081  33.078  1.00  0.00     0.167 HD
ATOM     52  C   UNL A   1      37.803  32.326  31.315  1.00  0.00     0.037 A 
ATOM     53  C   UNL A   1      43.050  29.570  35.029  1.00  0.00     0.037 A 
ATOM     54  C   UNL A   1      37.976  32.889  32.629  1.00  0.00     0.049 A 
ATOM     55  C   UNL A   1      42.218  30.709  35.556  1.00  0.00     0.074 A 
ATOM     56  C   UNL A   1      37.231  33.877  33.248  1.00  0.00     0.029 A 
ATOM     57  N   UNL A   1      38.973  32.522  33.519  1.00  0.00    -0.354 N 
ATOM     58  N   UNL A   1      41.195  31.313  35.002  1.00  0.00    -0.248 NA
ATOM     59  C   UNL A   1      42.579  31.236  36.880  1.00  0.00     0.031 C 
ATOM     60  C   UNL A   1      37.809  34.144  34.494  1.00  0.00     0.029 A 
ATOM     61  C   UNL A   1      38.881  33.283  34.674  1.00  0.00     0.049 A 
ATOM     62  H   UNL A   1      39.648  31.825  33.356  1.00  0.00     0.167 HD
ATOM     63  C   UNL A   1      40.775  32.273  35.916  1.00  0.00     0.074 A 
ATOM     64  C   UNL A   1      41.647  32.161  37.067  1.00  0.00     0.031 C 
ATOM     65  C   UNL A   1      39.756  33.163  35.813  1.00  0.00     0.037 A 
BRANCH  52  66
ATOM     66  C   UNL A   1      36.713  32.864  30.435  1.00  0.00     0.057 A 
ATOM     67  C   UNL A   1      36.966  33.829  29.450  1.00  0.00     0.134 A 
ATOM     68  C   UNL A   1      35.395  32.416  30.576  1.00  0.00     0.134 A 
ATOM     69  F   UNL A   1      38.204  34.314  29.273  1.00  0.00    -0.206 F 
ATOM     70  C   UNL A   1      35.939  34.353  28.661  1.00  0.00     0.040 A 
ATOM     71  C   UNL A   1      34.366  32.911  29.774  1.00  0.00     0.040 A 
ATOM     72  F   UNL A   1      35.084  31.491  31.497  1.00  0.00    -0.206 F 
ATOM     73  C   UNL A   1      34.635  33.890  28.820  1.00  0.00     0.006 A 
ENDBRANCH  52  66
BRANCH  53  74
ATOM     74  C   UNL A   1      44.192  29.037  35.813  1.00  0.00     0.057 A 
ATOM     75  C   UNL A   1      44.018  28.009  36.746  1.00  0.00     0.134 A 
ATOM     76  C   UNL A   1      45.487  29.544  35.646  1.00  0.00     0.134 A 
ATOM     77  F   UNL A   1      42.797  27.500  36.969  1.00  0.00    -0.206 F 
ATOM     78  C   UNL A   1      45.087  27.509  37.492  1.00  0.00     0.040 A 
ATOM     79  C   UNL A   1      46.569  29.038  36.367  1.00  0.00     0.040 A 
ATOM     80  F   UNL A   1      45.719  30.531  34.769  1.00  0.00    -0.206 F 
ATOM     81  C   UNL A   1      46.369  28.020  37.297  1.00  0.00     0.006 A 
ENDBRANCH  53  74
BRANCH  65  82
ATOM     82  C   UNL A   1      39.506  34.067  36.986  1.00  0.00     0.057 A 
ATOM     83  C   UNL A   1      38.761  33.652  38.098  1.00  0.00     0.134 A 
ATOM     84  C   UNL A   1      40.057  35.355  37.023  1.00  0.00     0.134 A 
ATOM     85  F   UNL A   1      38.197  32.435  38.122  1.00  0.00    -0.206 F 
ATOM     86  C   UNL A   1      38.555  34.493  39.193  1.00  0.00     0.040 A 
ATOM     87  C   UNL A   1      39.881  36.195  38.124  1.00  0.00     0.040 A 
ATOM     88  F   UNL A   1      40.789  35.813  35.996  1.00  0.00    -0.206 F 
ATOM     89  C   UNL A   1      39.122  35.766  39.211  1.00  0.00     0.006 A 
ENDBRANCH  65  82
ENDBRANCH  39  40
ENDBRANCH  32  34
ENDBRANCH  31  32
ENDBRANCH  30  31
ENDBRANCH  29  30
ENDBRANCH  28  29
ENDBRANCH  27  28
ENDBRANCH   1  27
TORSDOF 21
ENDMDL
