MODEL 1
REMARK VINA RESULT:      -9.5      0.000      0.000
REMARK SMILES CC(C)CN(C)S(=O)(=O)c1ccc(C(=O)OCCOCCOCCOC(=O)c2ccc(-c3c4nc(c(-c5c(F)cccc5F)c5ccc([nH]5)c(-c5c(F)cccc5F)c5nc(c(-c6c(F)cccc6F)c6ccc3[nH]6)C=C5)C=C4)cc2)cc1
REMARK SMILES IDX 20 1 19 2 18 3 17 4 16 5 14 6 15 7 13 8 10 9 11 10 83 11
REMARK SMILES IDX 12 12 82 13 7 14 8 15 9 16 5 17 6 18 4 19 2 20 1 21 3 22
REMARK SMILES IDX 21 23 22 24 23 25 24 26 25 27 26 28 27 29 28 30 29 31 81 32
REMARK SMILES IDX 30 33 80 34 31 35 32 36 33 37 74 38 34 39 79 40 73 41 75 42
REMARK SMILES IDX 35 43 78 44 72 45 71 46 36 48 62 49 45 50 61 51 46 52 49 53
REMARK SMILES IDX 60 54 76 55 47 56 48 57 59 59 77 60 50 61 37 62 38 63 43 64
REMARK SMILES IDX 39 65 40 66 42 67 44 68 41 69 63 70 64 71 69 72 65 73 66 74
REMARK SMILES IDX 68 75 70 76 67 77 51 78 52 79 57 80 53 81 54 82 56 83 58 84
REMARK SMILES IDX 55 85
REMARK H PARENT 75 47 49 58
REMARK Flexibility Score: inf
ROOT
ATOM      1  C   UNL A   1      33.904  35.362  28.732  1.00  0.00     0.188 C 
ENDROOT
BRANCH   1   2
ATOM      2  O   UNL A   1      33.824  34.185  27.937  1.00  0.00    -0.376 OA
BRANCH   2   3
ATOM      3  C   UNL A   1      34.774  33.144  28.109  1.00  0.00     0.202 C 
BRANCH   3   4
ATOM      4  C   UNL A   1      34.260  31.777  28.572  1.00  0.00     0.261 C 
BRANCH   4   5
ATOM      5  O   UNL A   1      33.831  30.925  27.499  1.00  0.00    -0.460 OA
BRANCH   5   6
ATOM      6  C   UNL A   1      34.537  29.778  27.345  1.00  0.00     0.338 C 
ATOM      7  O   UNL A   1      35.637  29.517  27.803  1.00  0.00    -0.246 OA
BRANCH   6   8
ATOM      8  C   UNL A   1      33.707  28.772  26.646  1.00  0.00     0.060 A 
ATOM      9  C   UNL A   1      32.094  26.847  25.435  1.00  0.00     0.082 A 
ATOM     10  C   UNL A   1      31.618  27.529  26.553  1.00  0.00     0.022 A 
ATOM     11  C   UNL A   1      33.349  27.165  24.888  1.00  0.00     0.022 A 
ATOM     12  C   UNL A   1      32.444  28.467  27.180  1.00  0.00     0.017 A 
ATOM     13  C   UNL A   1      34.151  28.142  25.482  1.00  0.00     0.017 A 
BRANCH   9  14
ATOM     14  S   UNL A   1      31.177  25.552  24.625  1.00  0.00     0.242 S 
ATOM     15  O   UNL A   1      31.225  25.845  23.206  1.00  0.00    -0.207 OA
ATOM     16  O   UNL A   1      29.922  25.499  25.337  1.00  0.00    -0.207 OA
BRANCH  14  17
ATOM     17  N   UNL A   1      32.013  24.051  24.839  1.00  0.00    -0.201 NA
ATOM     18  C   UNL A   1      31.178  22.851  24.506  1.00  0.00     0.124 C 
BRANCH  17  19
ATOM     19  C   UNL A   1      32.508  23.861  26.269  1.00  0.00     0.105 C 
BRANCH  19  20
ATOM     20  C   UNL A   1      33.678  22.880  26.469  1.00  0.00    -0.002 C 
ATOM     21  C   UNL A   1      35.052  23.485  26.173  1.00  0.00     0.009 C 
ATOM     22  C   UNL A   1      33.678  22.425  27.942  1.00  0.00     0.009 C 
ENDBRANCH  19  20
ENDBRANCH  17  19
ENDBRANCH  14  17
ENDBRANCH   9  14
ENDBRANCH   6   8
ENDBRANCH   5   6
ENDBRANCH   4   5
ENDBRANCH   3   4
ENDBRANCH   2   3
ENDBRANCH   1   2
BRANCH   1  23
ATOM     23  C   UNL A   1      33.048  35.527  30.005  1.00  0.00     0.188 C 
BRANCH  23  24
ATOM     24  O   UNL A   1      33.268  34.537  30.997  1.00  0.00    -0.376 OA
BRANCH  24  25
ATOM     25  C   UNL A   1      34.036  34.942  32.123  1.00  0.00     0.202 C 
BRANCH  25  26
ATOM     26  C   UNL A   1      35.506  34.518  32.050  1.00  0.00     0.261 C 
BRANCH  26  27
ATOM     27  O   UNL A   1      35.725  33.183  31.566  1.00  0.00    -0.460 OA
BRANCH  27  28
ATOM     28  C   UNL A   1      36.270  32.303  32.435  1.00  0.00     0.338 C 
ATOM     29  O   UNL A   1      35.870  32.027  33.550  1.00  0.00    -0.246 OA
BRANCH  28  30
ATOM     30  C   UNL A   1      37.373  31.602  31.747  1.00  0.00     0.060 A 
ATOM     31  C   UNL A   1      38.456  31.138  32.504  1.00  0.00     0.016 A 
ATOM     32  C   UNL A   1      37.348  31.423  30.361  1.00  0.00     0.016 A 
ATOM     33  C   UNL A   1      39.537  30.526  31.866  1.00  0.00     0.010 A 
ATOM     34  C   UNL A   1      38.437  30.822  29.724  1.00  0.00     0.010 A 
ATOM     35  C   UNL A   1      39.551  30.399  30.469  1.00  0.00    -0.014 A 
BRANCH  35  36
ATOM     36  C   UNL A   1      40.798  29.996  29.773  1.00  0.00     0.031 A 
ATOM     37  C   UNL A   1      40.903  28.592  29.242  1.00  0.00     0.074 A 
ATOM     38  C   UNL A   1      41.819  30.855  29.606  1.00  0.00     0.049 A 
ATOM     39  N   UNL A   1      41.892  28.012  28.614  1.00  0.00    -0.248 NA
ATOM     40  C   UNL A   1      39.730  27.727  29.449  1.00  0.00     0.031 C 
ATOM     41  C   UNL A   1      41.841  32.244  30.059  1.00  0.00     0.029 A 
ATOM     42  N   UNL A   1      43.044  30.671  29.013  1.00  0.00    -0.354 N 
ATOM     43  C   UNL A   1      41.464  26.719  28.348  1.00  0.00     0.074 A 
ATOM     44  C   UNL A   1      40.136  26.588  28.910  1.00  0.00     0.031 C 
ATOM     45  C   UNL A   1      43.029  32.787  29.734  1.00  0.00     0.029 A 
ATOM     46  C   UNL A   1      43.854  31.778  29.069  1.00  0.00     0.049 A 
ATOM     47  H   UNL A   1      43.315  29.827  28.587  1.00  0.00     0.167 HD
ATOM     48  C   UNL A   1      42.109  25.729  27.686  1.00  0.00     0.037 A 
ATOM     49  C   UNL A   1      45.122  31.950  28.646  1.00  0.00     0.037 A 
ATOM     50  C   UNL A   1      43.431  25.849  27.132  1.00  0.00     0.049 A 
ATOM     51  C   UNL A   1      45.844  30.817  27.965  1.00  0.00     0.074 A 
ATOM     52  C   UNL A   1      44.161  24.904  26.432  1.00  0.00     0.029 A 
ATOM     53  N   UNL A   1      44.224  26.980  27.226  1.00  0.00    -0.354 N 
ATOM     54  N   UNL A   1      45.412  29.611  27.681  1.00  0.00    -0.248 NA
ATOM     55  C   UNL A   1      47.229  31.070  27.541  1.00  0.00     0.031 C 
ATOM     56  C   UNL A   1      45.412  25.453  26.134  1.00  0.00     0.029 A 
ATOM     57  C   UNL A   1      45.444  26.752  26.614  1.00  0.00     0.049 A 
ATOM     58  H   UNL A   1      43.960  27.821  27.665  1.00  0.00     0.167 HD
ATOM     59  C   UNL A   1      46.457  28.976  27.022  1.00  0.00     0.074 A 
ATOM     60  C   UNL A   1      47.543  29.929  26.941  1.00  0.00     0.031 C 
ATOM     61  C   UNL A   1      46.511  27.715  26.526  1.00  0.00     0.037 A 
BRANCH  48  62
ATOM     62  C   UNL A   1      41.391  24.423  27.540  1.00  0.00     0.057 A 
ATOM     63  C   UNL A   1      40.339  24.258  26.630  1.00  0.00     0.134 A 
ATOM     64  C   UNL A   1      41.768  23.311  28.303  1.00  0.00     0.134 A 
ATOM     65  F   UNL A   1      39.920  25.291  25.882  1.00  0.00    -0.206 F 
ATOM     66  C   UNL A   1      39.674  23.039  26.498  1.00  0.00     0.040 A 
ATOM     67  C   UNL A   1      41.125  22.080  28.164  1.00  0.00     0.040 A 
ATOM     68  F   UNL A   1      42.769  23.401  29.191  1.00  0.00    -0.206 F 
ATOM     69  C   UNL A   1      40.071  21.944  27.263  1.00  0.00     0.006 A 
ENDBRANCH  48  62
BRANCH  49  70
ATOM     70  C   UNL A   1      45.804  33.253  28.850  1.00  0.00     0.057 A 
ATOM     71  C   UNL A   1      46.476  33.540  30.044  1.00  0.00     0.134 A 
ATOM     72  C   UNL A   1      45.771  34.252  27.872  1.00  0.00     0.134 A 
ATOM     73  F   UNL A   1      46.518  32.632  31.029  1.00  0.00    -0.206 F 
ATOM     74  C   UNL A   1      47.078  34.781  30.264  1.00  0.00     0.040 A 
ATOM     75  C   UNL A   1      46.388  35.489  28.068  1.00  0.00     0.040 A 
ATOM     76  F   UNL A   1      45.138  34.040  26.708  1.00  0.00    -0.206 F 
ATOM     77  C   UNL A   1      47.039  35.758  29.271  1.00  0.00     0.006 A 
ENDBRANCH  49  70
BRANCH  61  78
ATOM     78  C   UNL A   1      47.766  27.305  25.814  1.00  0.00     0.057 A 
ATOM     79  C   UNL A   1      47.941  27.518  24.440  1.00  0.00     0.134 A 
ATOM     80  C   UNL A   1      48.832  26.735  26.521  1.00  0.00     0.134 A 
ATOM     81  F   UNL A   1      46.954  28.050  23.703  1.00  0.00    -0.206 F 
ATOM     82  C   UNL A   1      49.127  27.163  23.794  1.00  0.00     0.040 A 
ATOM     83  C   UNL A   1      50.029  26.397  25.891  1.00  0.00     0.040 A 
ATOM     84  F   UNL A   1      48.731  26.514  27.841  1.00  0.00    -0.206 F 
ATOM     85  C   UNL A   1      50.177  26.606  24.521  1.00  0.00     0.006 A 
ENDBRANCH  61  78
ENDBRANCH  35  36
ENDBRANCH  28  30
ENDBRANCH  27  28
ENDBRANCH  26  27
ENDBRANCH  25  26
ENDBRANCH  24  25
ENDBRANCH  23  24
ENDBRANCH   1  23
TORSDOF 21
ENDMDL
MODEL 2
REMARK VINA RESULT:      -9.1      1.544      6.426
REMARK SMILES CC(C)CN(C)S(=O)(=O)c1ccc(C(=O)OCCOCCOCCOC(=O)c2ccc(-c3c4nc(c(-c5c(F)cccc5F)c5ccc([nH]5)c(-c5c(F)cccc5F)c5nc(c(-c6c(F)cccc6F)c6ccc3[nH]6)C=C5)C=C4)cc2)cc1
REMARK SMILES IDX 20 1 19 2 18 3 17 4 16 5 14 6 15 7 13 8 10 9 11 10 83 11
REMARK SMILES IDX 12 12 82 13 7 14 8 15 9 16 5 17 6 18 4 19 2 20 1 21 3 22
REMARK SMILES IDX 21 23 22 24 23 25 24 26 25 27 26 28 27 29 28 30 29 31 81 32
REMARK SMILES IDX 30 33 80 34 31 35 32 36 33 37 74 38 34 39 79 40 73 41 75 42
REMARK SMILES IDX 35 43 78 44 72 45 71 46 36 48 62 49 45 50 61 51 46 52 49 53
REMARK SMILES IDX 60 54 76 55 47 56 48 57 59 59 77 60 50 61 37 62 38 63 43 64
REMARK SMILES IDX 39 65 40 66 42 67 44 68 41 69 63 70 64 71 69 72 65 73 66 74
REMARK SMILES IDX 68 75 70 76 67 77 51 78 52 79 57 80 53 81 54 82 56 83 58 84
REMARK SMILES IDX 55 85
REMARK H PARENT 75 47 49 58
REMARK Flexibility Score: inf
ROOT
ATOM      1  C   UNL A   1      35.283  33.515  28.011  1.00  0.00     0.188 C 
ENDROOT
BRANCH   1   2
ATOM      2  O   UNL A   1      34.829  32.292  27.442  1.00  0.00    -0.376 OA
BRANCH   2   3
ATOM      3  C   UNL A   1      33.617  31.704  27.892  1.00  0.00     0.202 C 
BRANCH   3   4
ATOM      4  C   UNL A   1      32.871  30.780  26.924  1.00  0.00     0.261 C 
BRANCH   4   5
ATOM      5  O   UNL A   1      32.772  29.422  27.379  1.00  0.00    -0.460 OA
BRANCH   5   6
ATOM      6  C   UNL A   1      33.745  28.586  26.943  1.00  0.00     0.338 C 
ATOM      7  O   UNL A   1      34.952  28.728  27.057  1.00  0.00    -0.246 OA
BRANCH   6   8
ATOM      8  C   UNL A   1      33.137  27.343  26.419  1.00  0.00     0.060 A 
ATOM      9  C   UNL A   1      31.907  25.008  25.519  1.00  0.00     0.082 A 
ATOM     10  C   UNL A   1      31.126  26.013  26.088  1.00  0.00     0.022 A 
ATOM     11  C   UNL A   1      33.290  25.191  25.348  1.00  0.00     0.022 A 
ATOM     12  C   UNL A   1      31.751  27.166  26.572  1.00  0.00     0.017 A 
ATOM     13  C   UNL A   1      33.905  26.367  25.781  1.00  0.00     0.017 A 
BRANCH   9  14
ATOM     14  S   UNL A   1      31.235  23.451  24.974  1.00  0.00     0.242 S 
ATOM     15  O   UNL A   1      30.572  23.713  23.712  1.00  0.00    -0.207 OA
ATOM     16  O   UNL A   1      30.504  22.953  26.115  1.00  0.00    -0.207 OA
BRANCH  14  17
ATOM     17  N   UNL A   1      32.539  22.368  24.621  1.00  0.00    -0.201 NA
ATOM     18  C   UNL A   1      32.390  21.663  23.306  1.00  0.00     0.124 C 
BRANCH  17  19
ATOM     19  C   UNL A   1      32.700  21.287  25.685  1.00  0.00     0.105 C 
BRANCH  19  20
ATOM     20  C   UNL A   1      33.936  21.394  26.597  1.00  0.00    -0.002 C 
ATOM     21  C   UNL A   1      35.174  21.963  25.899  1.00  0.00     0.009 C 
ATOM     22  C   UNL A   1      33.590  22.333  27.768  1.00  0.00     0.009 C 
ENDBRANCH  19  20
ENDBRANCH  17  19
ENDBRANCH  14  17
ENDBRANCH   9  14
ENDBRANCH   6   8
ENDBRANCH   5   6
ENDBRANCH   4   5
ENDBRANCH   3   4
ENDBRANCH   2   3
ENDBRANCH   1   2
BRANCH   1  23
ATOM     23  C   UNL A   1      36.414  33.536  29.060  1.00  0.00     0.188 C 
BRANCH  23  24
ATOM     24  O   UNL A   1      35.991  33.838  30.381  1.00  0.00    -0.376 OA
BRANCH  24  25
ATOM     25  C   UNL A   1      34.892  33.081  30.872  1.00  0.00     0.202 C 
BRANCH  25  26
ATOM     26  C   UNL A   1      35.260  32.134  32.018  1.00  0.00     0.261 C 
BRANCH  26  27
ATOM     27  O   UNL A   1      36.525  31.469  31.867  1.00  0.00    -0.460 OA
BRANCH  27  28
ATOM     28  C   UNL A   1      36.549  30.384  31.061  1.00  0.00     0.338 C 
ATOM     29  O   UNL A   1      35.596  29.743  30.662  1.00  0.00    -0.246 OA
BRANCH  28  30
ATOM     30  C   UNL A   1      37.941  30.179  30.610  1.00  0.00     0.060 A 
ATOM     31  C   UNL A   1      38.225  30.250  29.242  1.00  0.00     0.016 A 
ATOM     32  C   UNL A   1      38.954  29.898  31.532  1.00  0.00     0.016 A 
ATOM     33  C   UNL A   1      39.522  30.001  28.788  1.00  0.00     0.010 A 
ATOM     34  C   UNL A   1      40.248  29.637  31.075  1.00  0.00     0.010 A 
ATOM     35  C   UNL A   1      40.532  29.654  29.699  1.00  0.00    -0.014 A 
BRANCH  35  36
ATOM     36  C   UNL A   1      41.831  29.136  29.203  1.00  0.00     0.031 A 
ATOM     37  C   UNL A   1      43.003  30.077  29.137  1.00  0.00     0.074 A 
ATOM     38  C   UNL A   1      41.978  27.854  28.824  1.00  0.00     0.049 A 
ATOM     39  N   UNL A   1      44.226  29.855  28.730  1.00  0.00    -0.248 NA
ATOM     40  C   UNL A   1      42.759  31.456  29.592  1.00  0.00     0.031 C 
ATOM     41  C   UNL A   1      40.930  26.836  28.852  1.00  0.00     0.029 A 
ATOM     42  N   UNL A   1      43.077  27.195  28.331  1.00  0.00    -0.354 N 
ATOM     43  C   UNL A   1      44.898  31.061  28.882  1.00  0.00     0.074 A 
ATOM     44  C   UNL A   1      43.940  32.020  29.388  1.00  0.00     0.031 C 
ATOM     45  C   UNL A   1      41.435  25.680  28.386  1.00  0.00     0.029 A 
ATOM     46  C   UNL A   1      42.834  25.882  28.010  1.00  0.00     0.049 A 
ATOM     47  H   UNL A   1      43.956  27.623  28.219  1.00  0.00     0.167 HD
ATOM     48  C   UNL A   1      46.198  31.346  28.633  1.00  0.00     0.037 A 
ATOM     49  C   UNL A   1      43.646  24.957  27.461  1.00  0.00     0.037 A 
ATOM     50  C   UNL A   1      47.154  30.401  28.122  1.00  0.00     0.049 A 
ATOM     51  C   UNL A   1      45.074  25.312  27.136  1.00  0.00     0.074 A 
ATOM     52  C   UNL A   1      48.498  30.594  27.851  1.00  0.00     0.029 A 
ATOM     53  N   UNL A   1      46.864  29.087  27.792  1.00  0.00    -0.354 N 
ATOM     54  N   UNL A   1      45.709  26.444  27.324  1.00  0.00    -0.248 NA
ATOM     55  C   UNL A   1      45.899  24.258  26.527  1.00  0.00     0.031 C 
ATOM     56  C   UNL A   1      49.012  29.406  27.324  1.00  0.00     0.029 A 
ATOM     57  C   UNL A   1      47.999  28.462  27.304  1.00  0.00     0.049 A 
ATOM     58  H   UNL A   1      45.982  28.661  27.891  1.00  0.00     0.167 HD
ATOM     59  C   UNL A   1      47.010  26.229  26.885  1.00  0.00     0.074 A 
ATOM     60  C   UNL A   1      47.078  24.858  26.428  1.00  0.00     0.031 C 
ATOM     61  C   UNL A   1      48.056  27.092  26.866  1.00  0.00     0.037 A 
BRANCH  48  62
ATOM     62  C   UNL A   1      46.655  32.747  28.900  1.00  0.00     0.057 A 
ATOM     63  C   UNL A   1      47.181  33.126  30.142  1.00  0.00     0.134 A 
ATOM     64  C   UNL A   1      46.586  33.724  27.900  1.00  0.00     0.134 A 
ATOM     65  F   UNL A   1      47.258  32.238  31.146  1.00  0.00    -0.206 F 
ATOM     66  C   UNL A   1      47.605  34.432  30.386  1.00  0.00     0.040 A 
ATOM     67  C   UNL A   1      47.028  35.029  28.125  1.00  0.00     0.040 A 
ATOM     68  F   UNL A   1      46.094  33.427  26.689  1.00  0.00    -0.206 F 
ATOM     69  C   UNL A   1      47.534  35.387  29.373  1.00  0.00     0.006 A 
ENDBRANCH  48  62
BRANCH  49  70
ATOM     70  C   UNL A   1      43.134  23.593  27.177  1.00  0.00     0.057 A 
ATOM     71  C   UNL A   1      42.732  23.222  25.889  1.00  0.00     0.134 A 
ATOM     72  C   UNL A   1      43.002  22.640  28.194  1.00  0.00     0.134 A 
ATOM     73  F   UNL A   1      42.810  24.101  24.880  1.00  0.00    -0.206 F 
ATOM     74  C   UNL A   1      42.203  21.957  25.624  1.00  0.00     0.040 A 
ATOM     75  C   UNL A   1      42.496  21.364  27.939  1.00  0.00     0.040 A 
ATOM     76  F   UNL A   1      43.365  22.937  29.451  1.00  0.00    -0.206 F 
ATOM     77  C   UNL A   1      42.089  21.022  26.651  1.00  0.00     0.006 A 
ENDBRANCH  49  70
BRANCH  61  78
ATOM     78  C   UNL A   1      49.374  26.570  26.376  1.00  0.00     0.057 A 
ATOM     79  C   UNL A   1      49.839  26.834  25.080  1.00  0.00     0.134 A 
ATOM     80  C   UNL A   1      50.210  25.836  27.226  1.00  0.00     0.134 A 
ATOM     81  F   UNL A   1      49.082  27.522  24.213  1.00  0.00    -0.206 F 
ATOM     82  C   UNL A   1      51.083  26.372  24.646  1.00  0.00     0.040 A 
ATOM     83  C   UNL A   1      51.464  25.389  26.811  1.00  0.00     0.040 A 
ATOM     84  F   UNL A   1      49.827  25.557  28.482  1.00  0.00    -0.206 F 
ATOM     85  C   UNL A   1      51.902  25.652  25.514  1.00  0.00     0.006 A 
ENDBRANCH  61  78
ENDBRANCH  35  36
ENDBRANCH  28  30
ENDBRANCH  27  28
ENDBRANCH  26  27
ENDBRANCH  25  26
ENDBRANCH  24  25
ENDBRANCH  23  24
ENDBRANCH   1  23
TORSDOF 21
ENDMDL
MODEL 3
REMARK VINA RESULT:      -8.9      4.921     10.553
REMARK SMILES CC(C)CN(C)S(=O)(=O)c1ccc(C(=O)OCCOCCOCCOC(=O)c2ccc(-c3c4nc(c(-c5c(F)cccc5F)c5ccc([nH]5)c(-c5c(F)cccc5F)c5nc(c(-c6c(F)cccc6F)c6ccc3[nH]6)C=C5)C=C4)cc2)cc1
REMARK SMILES IDX 20 1 19 2 18 3 17 4 16 5 14 6 15 7 13 8 10 9 11 10 83 11
REMARK SMILES IDX 12 12 82 13 7 14 8 15 9 16 5 17 6 18 4 19 2 20 1 21 3 22
REMARK SMILES IDX 21 23 22 24 23 25 24 26 25 27 26 28 27 29 28 30 29 31 81 32
REMARK SMILES IDX 30 33 80 34 31 35 32 36 33 37 74 38 34 39 79 40 73 41 75 42
REMARK SMILES IDX 35 43 78 44 72 45 71 46 36 48 62 49 45 50 61 51 46 52 49 53
REMARK SMILES IDX 60 54 76 55 47 56 48 57 59 59 77 60 50 61 37 62 38 63 43 64
REMARK SMILES IDX 39 65 40 66 42 67 44 68 41 69 63 70 64 71 69 72 65 73 66 74
REMARK SMILES IDX 68 75 70 76 67 77 51 78 52 79 57 80 53 81 54 82 56 83 58 84
REMARK SMILES IDX 55 85
REMARK H PARENT 75 47 49 58
REMARK Flexibility Score: inf
ROOT
ATOM      1  C   UNL A   1      41.110  20.426  26.720  1.00  0.00     0.188 C 
ENDROOT
BRANCH   1   2
ATOM      2  O   UNL A   1      40.016  21.282  27.025  1.00  0.00    -0.376 OA
BRANCH   2   3
ATOM      3  C   UNL A   1      39.233  21.838  25.980  1.00  0.00     0.202 C 
BRANCH   3   4
ATOM      4  C   UNL A   1      38.104  20.980  25.400  1.00  0.00     0.261 C 
BRANCH   4   5
ATOM      5  O   UNL A   1      36.794  21.526  25.609  1.00  0.00    -0.460 OA
BRANCH   5   6
ATOM      6  C   UNL A   1      35.778  20.855  25.013  1.00  0.00     0.338 C 
ATOM      7  O   UNL A   1      35.606  19.648  24.978  1.00  0.00    -0.246 OA
BRANCH   6   8
ATOM      8  C   UNL A   1      34.770  21.817  24.515  1.00  0.00     0.060 A 
ATOM      9  C   UNL A   1      32.929  23.717  23.633  1.00  0.00     0.082 A 
ATOM     10  C   UNL A   1      34.260  24.091  23.814  1.00  0.00     0.022 A 
ATOM     11  C   UNL A   1      32.530  22.386  23.838  1.00  0.00     0.022 A 
ATOM     12  C   UNL A   1      35.172  23.145  24.292  1.00  0.00     0.017 A 
ATOM     13  C   UNL A   1      33.453  21.428  24.261  1.00  0.00     0.017 A 
BRANCH   9  14
ATOM     14  S   UNL A   1      31.659  24.865  23.139  1.00  0.00     0.242 S 
ATOM     15  O   UNL A   1      30.419  24.115  23.118  1.00  0.00    -0.207 OA
ATOM     16  O   UNL A   1      32.180  25.488  21.945  1.00  0.00    -0.207 OA
BRANCH  14  17
ATOM     17  N   UNL A   1      31.478  26.068  24.372  1.00  0.00    -0.201 NA
ATOM     18  C   UNL A   1      30.058  26.258  24.814  1.00  0.00     0.124 C 
BRANCH  17  19
ATOM     19  C   UNL A   1      31.988  27.435  23.928  1.00  0.00     0.105 C 
BRANCH  19  20
ATOM     20  C   UNL A   1      33.121  28.053  24.767  1.00  0.00    -0.002 C 
ATOM     21  C   UNL A   1      32.768  29.409  25.383  1.00  0.00     0.009 C 
ATOM     22  C   UNL A   1      33.447  27.088  25.923  1.00  0.00     0.009 C 
ENDBRANCH  19  20
ENDBRANCH  17  19
ENDBRANCH  14  17
ENDBRANCH   9  14
ENDBRANCH   6   8
ENDBRANCH   5   6
ENDBRANCH   4   5
ENDBRANCH   3   4
ENDBRANCH   2   3
ENDBRANCH   1   2
BRANCH   1  23
ATOM     23  C   UNL A   1      42.447  20.993  26.198  1.00  0.00     0.188 C 
BRANCH  23  24
ATOM     24  O   UNL A   1      42.326  22.169  25.414  1.00  0.00    -0.376 OA
BRANCH  24  25
ATOM     25  C   UNL A   1      43.448  22.498  24.605  1.00  0.00     0.202 C 
BRANCH  25  26
ATOM     26  C   UNL A   1      44.761  22.601  25.387  1.00  0.00     0.261 C 
BRANCH  26  27
ATOM     27  O   UNL A   1      45.264  23.937  25.547  1.00  0.00    -0.460 OA
BRANCH  27  28
ATOM     28  C   UNL A   1      45.881  24.219  26.716  1.00  0.00     0.338 C 
ATOM     29  O   UNL A   1      47.017  23.930  27.037  1.00  0.00    -0.246 OA
BRANCH  28  30
ATOM     30  C   UNL A   1      44.983  25.084  27.510  1.00  0.00     0.060 A 
ATOM     31  C   UNL A   1      45.127  26.473  27.416  1.00  0.00     0.016 A 
ATOM     32  C   UNL A   1      44.022  24.525  28.357  1.00  0.00     0.016 A 
ATOM     33  C   UNL A   1      44.329  27.308  28.201  1.00  0.00     0.010 A 
ATOM     34  C   UNL A   1      43.234  25.362  29.151  1.00  0.00     0.010 A 
ATOM     35  C   UNL A   1      43.405  26.756  29.102  1.00  0.00    -0.014 A 
BRANCH  35  36
ATOM     36  C   UNL A   1      42.753  27.620  30.117  1.00  0.00     0.031 A 
ATOM     37  C   UNL A   1      43.369  27.712  31.487  1.00  0.00     0.074 A 
ATOM     38  C   UNL A   1      41.639  28.318  29.834  1.00  0.00     0.049 A 
ATOM     39  N   UNL A   1      42.974  28.388  32.533  1.00  0.00    -0.248 NA
ATOM     40  C   UNL A   1      44.600  26.932  31.702  1.00  0.00     0.031 C 
ATOM     41  C   UNL A   1      40.950  28.330  28.546  1.00  0.00     0.029 A 
ATOM     42  N   UNL A   1      40.888  29.149  30.628  1.00  0.00    -0.354 N 
ATOM     43  C   UNL A   1      43.904  28.121  33.529  1.00  0.00     0.074 A 
ATOM     44  C   UNL A   1      44.867  27.195  32.972  1.00  0.00     0.031 C 
ATOM     45  C   UNL A   1      39.868  29.125  28.640  1.00  0.00     0.029 A 
ATOM     46  C   UNL A   1      39.780  29.660  29.999  1.00  0.00     0.049 A 
ATOM     47  H   UNL A   1      41.122  29.360  31.561  1.00  0.00     0.167 HD
ATOM     48  C   UNL A   1      43.961  28.608  34.790  1.00  0.00     0.037 A 
ATOM     49  C   UNL A   1      38.799  30.455  30.472  1.00  0.00     0.037 A 
ATOM     50  C   UNL A   1      43.004  29.521  35.354  1.00  0.00     0.049 A 
ATOM     51  C   UNL A   1      38.851  30.938  31.898  1.00  0.00     0.074 A 
ATOM     52  C   UNL A   1      42.987  30.081  36.620  1.00  0.00     0.029 A 
ATOM     53  N   UNL A   1      41.886  30.000  34.690  1.00  0.00    -0.354 N 
ATOM     54  N   UNL A   1      39.759  30.711  32.817  1.00  0.00    -0.248 NA
ATOM     55  C   UNL A   1      37.742  31.791  32.351  1.00  0.00     0.031 C 
ATOM     56  C   UNL A   1      41.838  30.870  36.733  1.00  0.00     0.029 A 
ATOM     57  C   UNL A   1      41.162  30.834  35.524  1.00  0.00     0.049 A 
ATOM     58  H   UNL A   1      41.643  29.779  33.761  1.00  0.00     0.167 HD
ATOM     59  C   UNL A   1      39.347  31.416  33.942  1.00  0.00     0.074 A 
ATOM     60  C   UNL A   1      38.112  32.083  33.591  1.00  0.00     0.031 C 
ATOM     61  C   UNL A   1      39.942  31.504  35.157  1.00  0.00     0.037 A 
BRANCH  48  62
ATOM     62  C   UNL A   1      45.096  28.146  35.652  1.00  0.00     0.057 A 
ATOM     63  C   UNL A   1      45.025  26.955  36.387  1.00  0.00     0.134 A 
ATOM     64  C   UNL A   1      46.280  28.888  35.733  1.00  0.00     0.134 A 
ATOM     65  F   UNL A   1      43.911  26.208  36.365  1.00  0.00    -0.206 F 
ATOM     66  C   UNL A   1      46.085  26.530  37.188  1.00  0.00     0.040 A 
ATOM     67  C   UNL A   1      47.356  28.461  36.512  1.00  0.00     0.040 A 
ATOM     68  F   UNL A   1      46.413  30.036  35.051  1.00  0.00    -0.206 F 
ATOM     69  C   UNL A   1      47.257  27.281  37.248  1.00  0.00     0.006 A 
ENDBRANCH  48  62
BRANCH  49  70
ATOM     70  C   UNL A   1      37.674  30.852  29.590  1.00  0.00     0.057 A 
ATOM     71  C   UNL A   1      36.641  29.959  29.285  1.00  0.00     0.134 A 
ATOM     72  C   UNL A   1      37.623  32.123  29.004  1.00  0.00     0.134 A 
ATOM     73  F   UNL A   1      36.650  28.719  29.794  1.00  0.00    -0.206 F 
ATOM     74  C   UNL A   1      35.605  30.308  28.416  1.00  0.00     0.040 A 
ATOM     75  C   UNL A   1      36.581  32.494  28.153  1.00  0.00     0.040 A 
ATOM     76  F   UNL A   1      38.587  33.022  29.253  1.00  0.00    -0.206 F 
ATOM     77  C   UNL A   1      35.571  31.582  27.851  1.00  0.00     0.006 A 
ENDBRANCH  49  70
BRANCH  61  78
ATOM     78  C   UNL A   1      39.292  32.383  36.184  1.00  0.00     0.057 A 
ATOM     79  C   UNL A   1      38.260  31.919  37.010  1.00  0.00     0.134 A 
ATOM     80  C   UNL A   1      39.739  33.696  36.381  1.00  0.00     0.134 A 
ATOM     81  F   UNL A   1      37.780  30.676  36.864  1.00  0.00    -0.206 F 
ATOM     82  C   UNL A   1      37.686  32.737  37.985  1.00  0.00     0.040 A 
ATOM     83  C   UNL A   1      39.188  34.514  37.367  1.00  0.00     0.040 A 
ATOM     84  F   UNL A   1      40.731  34.198  35.629  1.00  0.00    -0.206 F 
ATOM     85  C   UNL A   1      38.154  34.037  38.170  1.00  0.00     0.006 A 
ENDBRANCH  61  78
ENDBRANCH  35  36
ENDBRANCH  28  30
ENDBRANCH  27  28
ENDBRANCH  26  27
ENDBRANCH  25  26
ENDBRANCH  24  25
ENDBRANCH  23  24
ENDBRANCH   1  23
TORSDOF 21
ENDMDL
