MODEL 1
REMARK VINA RESULT:     -10.9      0.000      0.000
REMARK SMILES C[C@@H]1[C@H](C(=O)OCCOCCOCCOC(=O)c2ccc(-c3c4nc(c(-c5c(F)cccc5F)c5ccc([nH]5)c(-c5c(F)cccc5F)c5nc(c(-c6c(F)cccc6F)c6ccc3[nH]6)C=C5)C=C4)cc2)CC[N@@H+]1[C@@H](C)c1cc(F)cc(F)c1
REMARK SMILES IDX 10 1 9 2 8 3 7 4 6 5 4 6 5 7 3 8 1 9 2 10 74 11 72 12 73 13
REMARK SMILES IDX 75 15 76 16 77 17 78 18 84 19 79 20 82 21 80 22 81 23 83 24
REMARK SMILES IDX 11 25 12 26 13 27 14 28 15 29 16 30 17 31 18 32 19 33 71 34
REMARK SMILES IDX 20 35 70 36 21 37 22 38 23 39 64 40 24 41 69 42 63 43 65 44
REMARK SMILES IDX 25 45 68 46 62 47 61 48 26 50 52 51 35 52 51 53 36 54 39 55
REMARK SMILES IDX 50 56 66 57 37 58 38 59 49 61 67 62 40 63 27 64 28 65 33 66
REMARK SMILES IDX 29 67 30 68 32 69 34 70 31 71 53 72 54 73 59 74 55 75 56 76
REMARK SMILES IDX 58 77 60 78 57 79 41 80 42 81 47 82 43 83 44 84 46 85 48 86
REMARK SMILES IDX 45 87
REMARK H PARENT 74 14 65 49 39 60
REMARK Flexibility Score: inf
ROOT
ATOM      1  C   UNL A   1      38.866  21.247  25.730  1.00  0.00     0.188 C 
ENDROOT
BRANCH   1   2
ATOM      2  O   UNL A   1      37.622  21.911  25.760  1.00  0.00    -0.376 OA
BRANCH   2   3
ATOM      3  C   UNL A   1      36.574  21.387  24.948  1.00  0.00     0.202 C 
BRANCH   3   4
ATOM      4  C   UNL A   1      35.298  20.882  25.624  1.00  0.00     0.261 C 
BRANCH   4   5
ATOM      5  O   UNL A   1      34.235  20.688  24.669  1.00  0.00    -0.463 OA
BRANCH   5   6
ATOM      6  C   UNL A   1      32.988  21.000  25.080  1.00  0.00     0.315 C 
ATOM      7  O   UNL A   1      32.061  20.194  25.098  1.00  0.00    -0.252 OA
BRANCH   6   8
ATOM      8  C   UNL A   1      32.817  22.415  25.614  1.00  0.00     0.162 C 
ATOM      9  C   UNL A   1      33.186  23.565  23.303  1.00  0.00     0.076 C 
ATOM     10  C   UNL A   1      33.081  23.710  24.810  1.00  0.00     0.196 C 
ATOM     11  N   UNL A   1      32.066  24.673  25.297  1.00  0.00    -0.326 N 
ATOM     12  C   UNL A   1      31.364  22.557  26.045  1.00  0.00     0.083 C 
ATOM     13  C   UNL A   1      31.167  24.038  26.247  1.00  0.00     0.264 C 
ATOM     14  H   UNL A   1      32.647  25.361  25.776  1.00  0.00     0.348 HD
BRANCH  11  15
ATOM     15  C   UNL A   1      31.561  25.787  24.486  1.00  0.00     0.212 C 
ATOM     16  C   UNL A   1      30.039  25.779  24.227  1.00  0.00     0.081 C 
BRANCH  15  17
ATOM     17  C   UNL A   1      32.002  27.160  25.021  1.00  0.00     0.015 A 
ATOM     18  C   UNL A   1      31.205  28.314  24.874  1.00  0.00     0.049 A 
ATOM     19  C   UNL A   1      33.246  27.307  25.657  1.00  0.00     0.049 A 
ATOM     20  C   UNL A   1      31.669  29.562  25.275  1.00  0.00     0.126 A 
ATOM     21  C   UNL A   1      33.680  28.568  26.070  1.00  0.00     0.126 A 
ATOM     22  F   UNL A   1      30.901  30.640  25.068  1.00  0.00    -0.207 F 
ATOM     23  C   UNL A   1      32.909  29.704  25.868  1.00  0.00     0.078 A 
ATOM     24  F   UNL A   1      34.876  28.689  26.663  1.00  0.00    -0.207 F 
ENDBRANCH  15  17
ENDBRANCH  11  15
ENDBRANCH   6   8
ENDBRANCH   5   6
ENDBRANCH   4   5
ENDBRANCH   3   4
ENDBRANCH   2   3
ENDBRANCH   1   2
BRANCH   1  25
ATOM     25  C   UNL A   1      39.945  21.636  26.745  1.00  0.00     0.188 C 
BRANCH  25  26
ATOM     26  O   UNL A   1      41.063  20.833  27.059  1.00  0.00    -0.376 OA
BRANCH  26  27
ATOM     27  C   UNL A   1      42.037  20.497  26.083  1.00  0.00     0.202 C 
BRANCH  27  28
ATOM     28  C   UNL A   1      43.120  21.486  25.617  1.00  0.00     0.261 C 
BRANCH  28  29
ATOM     29  O   UNL A   1      42.644  22.707  25.053  1.00  0.00    -0.460 OA
BRANCH  29  30
ATOM     30  C   UNL A   1      43.517  23.746  25.124  1.00  0.00     0.338 C 
ATOM     31  O   UNL A   1      44.483  23.954  24.408  1.00  0.00    -0.246 OA
BRANCH  30  32
ATOM     32  C   UNL A   1      42.950  24.742  26.059  1.00  0.00     0.060 A 
ATOM     33  C   UNL A   1      43.478  26.043  26.040  1.00  0.00     0.016 A 
ATOM     34  C   UNL A   1      41.855  24.431  26.866  1.00  0.00     0.016 A 
ATOM     35  C   UNL A   1      42.927  27.033  26.852  1.00  0.00     0.010 A 
ATOM     36  C   UNL A   1      41.322  25.416  27.699  1.00  0.00     0.010 A 
ATOM     37  C   UNL A   1      41.875  26.710  27.718  1.00  0.00    -0.014 A 
BRANCH  37  38
ATOM     38  C   UNL A   1      41.509  27.631  28.818  1.00  0.00     0.031 A 
ATOM     39  C   UNL A   1      42.293  27.529  30.097  1.00  0.00     0.074 A 
ATOM     40  C   UNL A   1      40.513  28.525  28.700  1.00  0.00     0.049 A 
ATOM     41  N   UNL A   1      42.101  28.129  31.242  1.00  0.00    -0.248 NA
ATOM     42  C   UNL A   1      43.447  26.614  30.079  1.00  0.00     0.031 C 
ATOM     43  C   UNL A   1      39.716  28.762  27.499  1.00  0.00     0.029 A 
ATOM     44  N   UNL A   1      39.994  29.395  29.628  1.00  0.00    -0.354 N 
ATOM     45  C   UNL A   1      43.104  27.658  32.080  1.00  0.00     0.074 A 
ATOM     46  C   UNL A   1      43.879  26.700  31.325  1.00  0.00     0.031 C 
ATOM     47  C   UNL A   1      38.794  29.704  27.769  1.00  0.00     0.029 A 
ATOM     48  C   UNL A   1      38.911  30.107  29.170  1.00  0.00     0.049 A 
ATOM     49  H   UNL A   1      40.363  29.499  30.535  1.00  0.00     0.167 HD
ATOM     50  C   UNL A   1      43.363  28.002  33.363  1.00  0.00     0.037 A 
ATOM     51  C   UNL A   1      38.097  30.960  29.822  1.00  0.00     0.037 A 
ATOM     52  C   UNL A   1      42.585  28.948  34.115  1.00  0.00     0.049 A 
ATOM     53  C   UNL A   1      38.343  31.249  31.284  1.00  0.00     0.074 A 
ATOM     54  C   UNL A   1      42.763  29.361  35.423  1.00  0.00     0.029 A 
ATOM     55  N   UNL A   1      41.477  29.623  33.627  1.00  0.00    -0.354 N 
ATOM     56  N   UNL A   1      39.298  30.809  32.069  1.00  0.00    -0.248 NA
ATOM     57  C   UNL A   1      37.393  32.153  31.950  1.00  0.00     0.031 C 
ATOM     58  C   UNL A   1      41.731  30.249  35.743  1.00  0.00     0.029 A 
ATOM     59  C   UNL A   1      40.947  30.434  34.616  1.00  0.00     0.049 A 
ATOM     60  H   UNL A   1      41.121  29.539  32.714  1.00  0.00     0.167 HD
ATOM     61  C   UNL A   1      39.086  31.413  33.304  1.00  0.00     0.074 A 
ATOM     62  C   UNL A   1      37.918  32.257  33.162  1.00  0.00     0.031 C 
ATOM     63  C   UNL A   1      39.795  31.284  34.453  1.00  0.00     0.037 A 
BRANCH  50  64
ATOM     64  C   UNL A   1      44.520  27.326  34.035  1.00  0.00     0.057 A 
ATOM     65  C   UNL A   1      45.803  27.888  34.043  1.00  0.00     0.134 A 
ATOM     66  C   UNL A   1      44.343  26.108  34.704  1.00  0.00     0.134 A 
ATOM     67  F   UNL A   1      46.043  29.043  33.402  1.00  0.00    -0.206 F 
ATOM     68  C   UNL A   1      46.874  27.252  34.672  1.00  0.00     0.040 A 
ATOM     69  C   UNL A   1      45.400  25.478  35.362  1.00  0.00     0.040 A 
ATOM     70  F   UNL A   1      43.140  25.515  34.734  1.00  0.00    -0.206 F 
ATOM     71  C   UNL A   1      46.671  26.047  35.342  1.00  0.00     0.006 A 
ENDBRANCH  50  64
BRANCH  51  72
ATOM     72  C   UNL A   1      36.951  31.595  29.120  1.00  0.00     0.057 A 
ATOM     73  C   UNL A   1      37.030  32.911  28.649  1.00  0.00     0.134 A 
ATOM     74  C   UNL A   1      35.733  30.926  28.954  1.00  0.00     0.134 A 
ATOM     75  F   UNL A   1      38.161  33.617  28.805  1.00  0.00    -0.206 F 
ATOM     76  C   UNL A   1      35.935  33.547  28.063  1.00  0.00     0.040 A 
ATOM     77  C   UNL A   1      34.637  31.539  28.342  1.00  0.00     0.040 A 
ATOM     78  F   UNL A   1      35.587  29.664  29.386  1.00  0.00    -0.206 F 
ATOM     79  C   UNL A   1      34.734  32.859  27.904  1.00  0.00     0.006 A 
ENDBRANCH  51  72
BRANCH  63  80
ATOM     80  C   UNL A   1      39.369  32.112  35.632  1.00  0.00     0.057 A 
ATOM     81  C   UNL A   1      39.821  33.424  35.823  1.00  0.00     0.134 A 
ATOM     82  C   UNL A   1      38.450  31.605  36.561  1.00  0.00     0.134 A 
ATOM     83  F   UNL A   1      40.708  33.968  34.977  1.00  0.00    -0.206 F 
ATOM     84  C   UNL A   1      39.395  34.191  36.910  1.00  0.00     0.040 A 
ATOM     85  C   UNL A   1      37.994  32.372  37.633  1.00  0.00     0.040 A 
ATOM     86  F   UNL A   1      37.966  30.360  36.430  1.00  0.00    -0.206 F 
ATOM     87  C   UNL A   1      38.472  33.667  37.813  1.00  0.00     0.006 A 
ENDBRANCH  63  80
ENDBRANCH  37  38
ENDBRANCH  30  32
ENDBRANCH  29  30
ENDBRANCH  28  29
ENDBRANCH  27  28
ENDBRANCH  26  27
ENDBRANCH  25  26
ENDBRANCH   1  25
TORSDOF 19
ENDMDL
MODEL 2
REMARK VINA RESULT:     -10.6      5.175     10.134
REMARK SMILES C[C@@H]1[C@H](C(=O)OCCOCCOCCOC(=O)c2ccc(-c3c4nc(c(-c5c(F)cccc5F)c5ccc([nH]5)c(-c5c(F)cccc5F)c5nc(c(-c6c(F)cccc6F)c6ccc3[nH]6)C=C5)C=C4)cc2)CC[N@@H+]1[C@@H](C)c1cc(F)cc(F)c1
REMARK SMILES IDX 10 1 9 2 8 3 7 4 6 5 4 6 5 7 3 8 1 9 2 10 74 11 72 12 73 13
REMARK SMILES IDX 75 15 76 16 77 17 78 18 84 19 79 20 82 21 80 22 81 23 83 24
REMARK SMILES IDX 11 25 12 26 13 27 14 28 15 29 16 30 17 31 18 32 19 33 71 34
REMARK SMILES IDX 20 35 70 36 21 37 22 38 23 39 64 40 24 41 69 42 63 43 65 44
REMARK SMILES IDX 25 45 68 46 62 47 61 48 26 50 52 51 35 52 51 53 36 54 39 55
REMARK SMILES IDX 50 56 66 57 37 58 38 59 49 61 67 62 40 63 27 64 28 65 33 66
REMARK SMILES IDX 29 67 30 68 32 69 34 70 31 71 53 72 54 73 59 74 55 75 56 76
REMARK SMILES IDX 58 77 60 78 57 79 41 80 42 81 47 82 43 83 44 84 46 85 48 86
REMARK SMILES IDX 45 87
REMARK H PARENT 74 14 65 49 39 60
REMARK Flexibility Score: inf
ROOT
ATOM      1  C   UNL A   1      32.921  35.650  29.026  1.00  0.00     0.188 C 
ENDROOT
BRANCH   1   2
ATOM      2  O   UNL A   1      34.157  35.279  28.457  1.00  0.00    -0.376 OA
BRANCH   2   3
ATOM      3  C   UNL A   1      34.330  33.913  28.088  1.00  0.00     0.202 C 
BRANCH   3   4
ATOM      4  C   UNL A   1      33.093  33.074  27.758  1.00  0.00     0.261 C 
BRANCH   4   5
ATOM      5  O   UNL A   1      33.395  31.664  27.760  1.00  0.00    -0.463 OA
BRANCH   5   6
ATOM      6  C   UNL A   1      32.703  30.896  26.891  1.00  0.00     0.315 C 
ATOM      7  O   UNL A   1      31.599  31.204  26.448  1.00  0.00    -0.252 OA
BRANCH   6   8
ATOM      8  C   UNL A   1      33.426  29.644  26.416  1.00  0.00     0.162 C 
ATOM      9  C   UNL A   1      31.919  27.998  27.766  1.00  0.00     0.076 C 
ATOM     10  C   UNL A   1      33.186  28.216  26.959  1.00  0.00     0.196 C 
ATOM     11  N   UNL A   1      33.365  27.329  25.785  1.00  0.00    -0.326 N 
ATOM     12  C   UNL A   1      33.150  29.507  24.926  1.00  0.00     0.083 C 
ATOM     13  C   UNL A   1      33.595  28.109  24.581  1.00  0.00     0.264 C 
ATOM     14  H   UNL A   1      34.213  26.820  26.038  1.00  0.00     0.348 HD
BRANCH  11  15
ATOM     15  C   UNL A   1      32.715  26.018  25.663  1.00  0.00     0.212 C 
ATOM     16  C   UNL A   1      31.871  25.816  24.386  1.00  0.00     0.081 C 
BRANCH  15  17
ATOM     17  C   UNL A   1      33.698  24.848  25.842  1.00  0.00     0.015 A 
ATOM     18  C   UNL A   1      34.995  24.868  25.289  1.00  0.00     0.049 A 
ATOM     19  C   UNL A   1      33.311  23.699  26.550  1.00  0.00     0.049 A 
ATOM     20  C   UNL A   1      35.829  23.759  25.378  1.00  0.00     0.126 A 
ATOM     21  C   UNL A   1      34.175  22.606  26.644  1.00  0.00     0.126 A 
ATOM     22  F   UNL A   1      37.033  23.800  24.792  1.00  0.00    -0.207 F 
ATOM     23  C   UNL A   1      35.428  22.617  26.047  1.00  0.00     0.078 A 
ATOM     24  F   UNL A   1      33.782  21.513  27.313  1.00  0.00    -0.207 F 
ENDBRANCH  15  17
ENDBRANCH  11  15
ENDBRANCH   6   8
ENDBRANCH   5   6
ENDBRANCH   4   5
ENDBRANCH   3   4
ENDBRANCH   2   3
ENDBRANCH   1   2
BRANCH   1  25
ATOM     25  C   UNL A   1      32.884  36.145  30.475  1.00  0.00     0.188 C 
BRANCH  25  26
ATOM     26  O   UNL A   1      32.835  35.295  31.601  1.00  0.00    -0.376 OA
BRANCH  26  27
ATOM     27  C   UNL A   1      33.976  35.072  32.416  1.00  0.00     0.202 C 
BRANCH  27  28
ATOM     28  C   UNL A   1      35.368  34.778  31.831  1.00  0.00     0.261 C 
BRANCH  28  29
ATOM     29  O   UNL A   1      36.078  33.697  32.432  1.00  0.00    -0.460 OA
BRANCH  29  30
ATOM     30  C   UNL A   1      35.611  32.461  32.114  1.00  0.00     0.338 C 
ATOM     31  O   UNL A   1      34.452  32.080  32.124  1.00  0.00    -0.246 OA
BRANCH  30  32
ATOM     32  C   UNL A   1      36.724  31.709  31.494  1.00  0.00     0.060 A 
ATOM     33  C   UNL A   1      37.579  30.978  32.335  1.00  0.00     0.016 A 
ATOM     34  C   UNL A   1      36.863  31.642  30.107  1.00  0.00     0.016 A 
ATOM     35  C   UNL A   1      38.596  30.197  31.788  1.00  0.00     0.010 A 
ATOM     36  C   UNL A   1      37.899  30.883  29.563  1.00  0.00     0.010 A 
ATOM     37  C   UNL A   1      38.787  30.183  30.401  1.00  0.00    -0.014 A 
BRANCH  37  38
ATOM     38  C   UNL A   1      40.046  29.652  29.831  1.00  0.00     0.031 A 
ATOM     39  C   UNL A   1      41.197  30.609  29.685  1.00  0.00     0.074 A 
ATOM     40  C   UNL A   1      40.173  28.372  29.445  1.00  0.00     0.049 A 
ATOM     41  N   UNL A   1      42.359  30.434  29.112  1.00  0.00    -0.248 NA
ATOM     42  C   UNL A   1      41.002  31.952  30.259  1.00  0.00     0.031 C 
ATOM     43  C   UNL A   1      39.154  27.334  29.583  1.00  0.00     0.029 A 
ATOM     44  N   UNL A   1      41.226  27.734  28.835  1.00  0.00    -0.354 N 
ATOM     45  C   UNL A   1      43.027  31.643  29.250  1.00  0.00     0.074 A 
ATOM     46  C   UNL A   1      42.132  32.553  29.928  1.00  0.00     0.031 C 
ATOM     47  C   UNL A   1      39.626  26.190  29.056  1.00  0.00     0.029 A 
ATOM     48  C   UNL A   1      40.962  26.426  28.509  1.00  0.00     0.049 A 
ATOM     49  H   UNL A   1      42.088  28.173  28.651  1.00  0.00     0.167 HD
ATOM     50  C   UNL A   1      44.281  31.965  28.856  1.00  0.00     0.037 A 
ATOM     51  C   UNL A   1      41.707  25.538  27.821  1.00  0.00     0.037 A 
ATOM     52  C   UNL A   1      45.166  31.063  28.172  1.00  0.00     0.049 A 
ATOM     53  C   UNL A   1      43.062  25.952  27.300  1.00  0.00     0.074 A 
ATOM     54  C   UNL A   1      46.455  31.294  27.727  1.00  0.00     0.029 A 
ATOM     55  N   UNL A   1      44.851  29.757  27.831  1.00  0.00    -0.354 N 
ATOM     56  N   UNL A   1      43.693  27.094  27.442  1.00  0.00    -0.248 NA
ATOM     57  C   UNL A   1      43.807  24.952  26.519  1.00  0.00     0.031 C 
ATOM     58  C   UNL A   1      46.901  30.144  27.069  1.00  0.00     0.029 A 
ATOM     59  C   UNL A   1      45.914  29.177  27.159  1.00  0.00     0.049 A 
ATOM     60  H   UNL A   1      44.000  29.309  28.036  1.00  0.00     0.167 HD
ATOM     61  C   UNL A   1      44.920  26.934  26.805  1.00  0.00     0.074 A 
ATOM     62  C   UNL A   1      44.948  25.583  26.285  1.00  0.00     0.031 C 
ATOM     63  C   UNL A   1      45.934  27.823  26.665  1.00  0.00     0.037 A 
BRANCH  50  64
ATOM     64  C   UNL A   1      44.751  33.362  29.132  1.00  0.00     0.057 A 
ATOM     65  C   UNL A   1      44.506  34.415  28.242  1.00  0.00     0.134 A 
ATOM     66  C   UNL A   1      45.437  33.661  30.316  1.00  0.00     0.134 A 
ATOM     67  F   UNL A   1      43.873  34.191  27.081  1.00  0.00    -0.206 F 
ATOM     68  C   UNL A   1      44.947  35.712  28.509  1.00  0.00     0.040 A 
ATOM     69  C   UNL A   1      45.857  34.960  30.607  1.00  0.00     0.040 A 
ATOM     70  F   UNL A   1      45.706  32.699  31.211  1.00  0.00    -0.206 F 
ATOM     71  C   UNL A   1      45.617  35.988  29.699  1.00  0.00     0.006 A 
ENDBRANCH  50  64
BRANCH  51  72
ATOM     72  C   UNL A   1      41.194  24.168  27.556  1.00  0.00     0.057 A 
ATOM     73  C   UNL A   1      40.182  23.944  26.615  1.00  0.00     0.134 A 
ATOM     74  C   UNL A   1      41.659  23.060  28.274  1.00  0.00     0.134 A 
ATOM     75  F   UNL A   1      39.672  24.969  25.915  1.00  0.00    -0.206 F 
ATOM     76  C   UNL A   1      39.633  22.676  26.415  1.00  0.00     0.040 A 
ATOM     77  C   UNL A   1      41.141  21.781  28.064  1.00  0.00     0.040 A 
ATOM     78  F   UNL A   1      42.624  23.204  29.194  1.00  0.00    -0.206 F 
ATOM     79  C   UNL A   1      40.116  21.588  27.139  1.00  0.00     0.006 A 
ENDBRANCH  51  72
BRANCH  63  80
ATOM     80  C   UNL A   1      47.182  27.354  25.973  1.00  0.00     0.057 A 
ATOM     81  C   UNL A   1      47.406  27.573  24.608  1.00  0.00     0.134 A 
ATOM     82  C   UNL A   1      48.199  26.716  26.699  1.00  0.00     0.134 A 
ATOM     83  F   UNL A   1      46.471  28.169  23.853  1.00  0.00    -0.206 F 
ATOM     84  C   UNL A   1      48.584  27.154  23.985  1.00  0.00     0.040 A 
ATOM     85  C   UNL A   1      49.391  26.320  26.094  1.00  0.00     0.040 A 
ATOM     86  F   UNL A   1      48.056  26.486  28.013  1.00  0.00    -0.206 F 
ATOM     87  C   UNL A   1      49.584  26.533  24.731  1.00  0.00     0.006 A 
ENDBRANCH  63  80
ENDBRANCH  37  38
ENDBRANCH  30  32
ENDBRANCH  29  30
ENDBRANCH  28  29
ENDBRANCH  27  28
ENDBRANCH  26  27
ENDBRANCH  25  26
ENDBRANCH   1  25
TORSDOF 19
ENDMDL
MODEL 3
REMARK VINA RESULT:     -10.6      4.822      9.738
REMARK SMILES C[C@@H]1[C@H](C(=O)OCCOCCOCCOC(=O)c2ccc(-c3c4nc(c(-c5c(F)cccc5F)c5ccc([nH]5)c(-c5c(F)cccc5F)c5nc(c(-c6c(F)cccc6F)c6ccc3[nH]6)C=C5)C=C4)cc2)CC[N@@H+]1[C@@H](C)c1cc(F)cc(F)c1
REMARK SMILES IDX 10 1 9 2 8 3 7 4 6 5 4 6 5 7 3 8 1 9 2 10 74 11 72 12 73 13
REMARK SMILES IDX 75 15 76 16 77 17 78 18 84 19 79 20 82 21 80 22 81 23 83 24
REMARK SMILES IDX 11 25 12 26 13 27 14 28 15 29 16 30 17 31 18 32 19 33 71 34
REMARK SMILES IDX 20 35 70 36 21 37 22 38 23 39 64 40 24 41 69 42 63 43 65 44
REMARK SMILES IDX 25 45 68 46 62 47 61 48 26 50 52 51 35 52 51 53 36 54 39 55
REMARK SMILES IDX 50 56 66 57 37 58 38 59 49 61 67 62 40 63 27 64 28 65 33 66
REMARK SMILES IDX 29 67 30 68 32 69 34 70 31 71 53 72 54 73 59 74 55 75 56 76
REMARK SMILES IDX 58 77 60 78 57 79 41 80 42 81 47 82 43 83 44 84 46 85 48 86
REMARK SMILES IDX 45 87
REMARK H PARENT 74 14 65 49 39 60
REMARK Flexibility Score: inf
ROOT
ATOM      1  C   UNL A   1      34.540  31.200  27.739  1.00  0.00     0.188 C 
ENDROOT
BRANCH   1   2
ATOM      2  O   UNL A   1      33.801  30.338  26.903  1.00  0.00    -0.376 OA
BRANCH   2   3
ATOM      3  C   UNL A   1      32.383  30.328  27.054  1.00  0.00     0.202 C 
BRANCH   3   4
ATOM      4  C   UNL A   1      31.506  30.414  25.803  1.00  0.00     0.261 C 
BRANCH   4   5
ATOM      5  O   UNL A   1      32.151  29.809  24.664  1.00  0.00    -0.463 OA
BRANCH   5   6
ATOM      6  C   UNL A   1      31.468  28.831  24.031  1.00  0.00     0.315 C 
ATOM      7  O   UNL A   1      30.296  28.943  23.681  1.00  0.00    -0.252 OA
BRANCH   6   8
ATOM      8  C   UNL A   1      32.281  27.589  23.694  1.00  0.00     0.162 C 
ATOM      9  C   UNL A   1      31.962  26.479  26.032  1.00  0.00     0.076 C 
ATOM     10  C   UNL A   1      32.695  26.493  24.703  1.00  0.00     0.196 C 
ATOM     11  N   UNL A   1      32.655  25.230  23.930  1.00  0.00    -0.326 N 
ATOM     12  C   UNL A   1      31.503  26.820  22.636  1.00  0.00     0.083 C 
ATOM     13  C   UNL A   1      32.164  25.467  22.582  1.00  0.00     0.264 C 
ATOM     14  H   UNL A   1      33.642  24.974  23.900  1.00  0.00     0.348 HD
BRANCH  11  15
ATOM     15  C   UNL A   1      32.419  23.918  24.545  1.00  0.00     0.212 C 
ATOM     16  C   UNL A   1      31.528  22.956  23.730  1.00  0.00     0.081 C 
BRANCH  15  17
ATOM     17  C   UNL A   1      33.722  23.214  24.961  1.00  0.00     0.015 A 
ATOM     18  C   UNL A   1      34.764  23.895  25.622  1.00  0.00     0.049 A 
ATOM     19  C   UNL A   1      33.920  21.856  24.662  1.00  0.00     0.049 A 
ATOM     20  C   UNL A   1      35.972  23.263  25.897  1.00  0.00     0.126 A 
ATOM     21  C   UNL A   1      35.134  21.238  24.968  1.00  0.00     0.126 A 
ATOM     22  F   UNL A   1      36.957  23.962  26.478  1.00  0.00    -0.207 F 
ATOM     23  C   UNL A   1      36.173  21.935  25.568  1.00  0.00     0.078 A 
ATOM     24  F   UNL A   1      35.308  19.944  24.662  1.00  0.00    -0.207 F 
ENDBRANCH  15  17
ENDBRANCH  11  15
ENDBRANCH   6   8
ENDBRANCH   5   6
ENDBRANCH   4   5
ENDBRANCH   3   4
ENDBRANCH   2   3
ENDBRANCH   1   2
BRANCH   1  25
ATOM     25  C   UNL A   1      33.970  32.580  28.081  1.00  0.00     0.188 C 
BRANCH  25  26
ATOM     26  O   UNL A   1      34.686  33.585  28.768  1.00  0.00    -0.376 OA
BRANCH  26  27
ATOM     27  C   UNL A   1      34.147  34.237  29.907  1.00  0.00     0.202 C 
BRANCH  27  28
ATOM     28  C   UNL A   1      34.467  33.794  31.346  1.00  0.00     0.261 C 
BRANCH  28  29
ATOM     29  O   UNL A   1      34.843  32.428  31.506  1.00  0.00    -0.460 OA
BRANCH  29  30
ATOM     30  C   UNL A   1      35.821  32.209  32.423  1.00  0.00     0.338 C 
ATOM     31  O   UNL A   1      35.756  32.371  33.631  1.00  0.00    -0.246 OA
BRANCH  30  32
ATOM     32  C   UNL A   1      36.917  31.483  31.744  1.00  0.00     0.060 A 
ATOM     33  C   UNL A   1      37.800  30.728  32.533  1.00  0.00     0.016 A 
ATOM     34  C   UNL A   1      37.013  31.463  30.352  1.00  0.00     0.016 A 
ATOM     35  C   UNL A   1      38.803  29.971  31.930  1.00  0.00     0.010 A 
ATOM     36  C   UNL A   1      38.034  30.726  29.751  1.00  0.00     0.010 A 
ATOM     37  C   UNL A   1      38.950  30.003  30.538  1.00  0.00    -0.014 A 
BRANCH  37  38
ATOM     38  C   UNL A   1      40.193  29.498  29.911  1.00  0.00     0.031 A 
ATOM     39  C   UNL A   1      41.323  30.473  29.729  1.00  0.00     0.074 A 
ATOM     40  C   UNL A   1      40.323  28.223  29.506  1.00  0.00     0.049 A 
ATOM     41  N   UNL A   1      42.463  30.321  29.108  1.00  0.00    -0.248 NA
ATOM     42  C   UNL A   1      41.132  31.806  30.325  1.00  0.00     0.031 C 
ATOM     43  C   UNL A   1      39.325  27.169  29.674  1.00  0.00     0.029 A 
ATOM     44  N   UNL A   1      41.359  27.607  28.848  1.00  0.00    -0.354 N 
ATOM     45  C   UNL A   1      43.118  31.539  29.232  1.00  0.00     0.074 A 
ATOM     46  C   UNL A   1      42.238  32.428  29.956  1.00  0.00     0.031 C 
ATOM     47  C   UNL A   1      39.793  26.037  29.116  1.00  0.00     0.029 A 
ATOM     48  C   UNL A   1      41.101  26.299  28.518  1.00  0.00     0.049 A 
ATOM     49  H   UNL A   1      42.206  28.061  28.633  1.00  0.00     0.167 HD
ATOM     50  C   UNL A   1      44.351  31.884  28.791  1.00  0.00     0.037 A 
ATOM     51  C   UNL A   1      41.831  25.429  27.792  1.00  0.00     0.037 A 
ATOM     52  C   UNL A   1      45.221  31.002  28.063  1.00  0.00     0.049 A 
ATOM     53  C   UNL A   1      43.157  25.870  27.221  1.00  0.00     0.074 A 
ATOM     54  C   UNL A   1      46.487  31.257  27.569  1.00  0.00     0.029 A 
ATOM     55  N   UNL A   1      44.911  29.695  27.720  1.00  0.00    -0.354 N 
ATOM     56  N   UNL A   1      43.777  27.019  27.349  1.00  0.00    -0.248 NA
ATOM     57  C   UNL A   1      43.884  24.888  26.400  1.00  0.00     0.031 C 
ATOM     58  C   UNL A   1      46.923  30.120  26.881  1.00  0.00     0.029 A 
ATOM     59  C   UNL A   1      45.954  29.137  27.000  1.00  0.00     0.049 A 
ATOM     60  H   UNL A   1      44.075  29.232  27.955  1.00  0.00     0.167 HD
ATOM     61  C   UNL A   1      44.979  26.884  26.662  1.00  0.00     0.074 A 
ATOM     62  C   UNL A   1      45.005  25.539  26.126  1.00  0.00     0.031 C 
ATOM     63  C   UNL A   1      45.974  27.790  26.490  1.00  0.00     0.037 A 
BRANCH  50  64
ATOM     64  C   UNL A   1      44.811  33.284  29.064  1.00  0.00     0.057 A 
ATOM     65  C   UNL A   1      45.546  33.612  30.210  1.00  0.00     0.134 A 
ATOM     66  C   UNL A   1      44.536  34.315  28.156  1.00  0.00     0.134 A 
ATOM     67  F   UNL A   1      45.824  32.675  31.130  1.00  0.00    -0.206 F 
ATOM     68  C   UNL A   1      45.971  34.918  30.456  1.00  0.00     0.040 A 
ATOM     69  C   UNL A   1      44.981  35.618  28.375  1.00  0.00     0.040 A 
ATOM     70  F   UNL A   1      43.835  34.069  27.038  1.00  0.00    -0.206 F 
ATOM     71  C   UNL A   1      45.696  35.924  29.531  1.00  0.00     0.006 A 
ENDBRANCH  50  64
BRANCH  51  72
ATOM     72  C   UNL A   1      41.327  24.054  27.532  1.00  0.00     0.057 A 
ATOM     73  C   UNL A   1      40.309  23.821  26.600  1.00  0.00     0.134 A 
ATOM     74  C   UNL A   1      41.809  22.952  28.247  1.00  0.00     0.134 A 
ATOM     75  F   UNL A   1      39.784  24.840  25.904  1.00  0.00    -0.206 F 
ATOM     76  C   UNL A   1      39.770  22.548  26.407  1.00  0.00     0.040 A 
ATOM     77  C   UNL A   1      41.300  21.667  28.044  1.00  0.00     0.040 A 
ATOM     78  F   UNL A   1      42.781  23.105  29.158  1.00  0.00    -0.206 F 
ATOM     79  C   UNL A   1      40.269  21.465  27.128  1.00  0.00     0.006 A 
ENDBRANCH  51  72
BRANCH  63  80
ATOM     80  C   UNL A   1      47.200  27.346  25.744  1.00  0.00     0.057 A 
ATOM     81  C   UNL A   1      47.343  27.538  24.364  1.00  0.00     0.134 A 
ATOM     82  C   UNL A   1      48.275  26.763  26.429  1.00  0.00     0.134 A 
ATOM     83  F   UNL A   1      46.347  28.080  23.646  1.00  0.00    -0.206 F 
ATOM     84  C   UNL A   1      48.500  27.143  23.689  1.00  0.00     0.040 A 
ATOM     85  C   UNL A   1      49.448  26.394  25.770  1.00  0.00     0.040 A 
ATOM     86  F   UNL A   1      48.211  26.563  27.754  1.00  0.00    -0.206 F 
ATOM     87  C   UNL A   1      49.560  26.577  24.394  1.00  0.00     0.006 A 
ENDBRANCH  63  80
ENDBRANCH  37  38
ENDBRANCH  30  32
ENDBRANCH  29  30
ENDBRANCH  28  29
ENDBRANCH  27  28
ENDBRANCH  26  27
ENDBRANCH  25  26
ENDBRANCH   1  25
TORSDOF 19
ENDMDL
