MODEL 1
REMARK VINA RESULT:     -11.0      0.000      0.000
REMARK SMILES O=C(Cc1ccc(F)c(F)c1)NC1(C(=O)OCCOCCOCCOC(=O)c2ccc(-c3c4nc(c(-c5c(F)cccc5F)c5ccc([nH]5)c(-c5c(F)cccc5F)c5nc(c(-c6c(F)cccc6F)c6ccc3[nH]6)C=C5)C=C4)cc2)CCCC1
REMARK SMILES IDX 20 1 19 2 18 3 17 4 16 5 14 6 15 7 13 8 82 9 85 10 83 11
REMARK SMILES IDX 84 12 12 13 1 14 2 15 3 17 4 18 5 19 11 20 6 21 9 22 7 23
REMARK SMILES IDX 10 24 8 25 21 26 22 27 23 28 24 29 25 30 26 31 27 32 28 33
REMARK SMILES IDX 29 34 81 35 30 36 80 37 31 38 32 39 33 40 74 41 34 42 79 43
REMARK SMILES IDX 73 44 75 45 35 46 78 47 72 48 71 49 36 51 62 52 45 53 61 54
REMARK SMILES IDX 46 55 49 56 60 57 76 58 47 59 48 60 59 62 77 63 50 64 37 65
REMARK SMILES IDX 38 66 43 67 39 68 40 69 42 70 44 71 41 72 63 73 64 74 69 75
REMARK SMILES IDX 65 76 66 77 68 78 70 79 67 80 51 81 52 82 57 83 53 84 54 85
REMARK SMILES IDX 56 86 58 87 55 88
REMARK H PARENT 12 16 75 50 49 61
REMARK Flexibility Score: inf
ROOT
ATOM      1  C   UNL A   1      40.328  21.361  26.623  1.00  0.00     0.188 C 
ENDROOT
BRANCH   1   2
ATOM      2  O   UNL A   1      39.204  21.688  25.821  1.00  0.00    -0.376 OA
BRANCH   2   3
ATOM      3  C   UNL A   1      38.494  22.838  26.245  1.00  0.00     0.202 C 
BRANCH   3   4
ATOM      4  C   UNL A   1      37.681  23.568  25.164  1.00  0.00     0.261 C 
BRANCH   4   5
ATOM      5  O   UNL A   1      36.247  23.490  25.268  1.00  0.00    -0.461 OA
BRANCH   5   6
ATOM      6  C   UNL A   1      35.518  23.512  24.121  1.00  0.00     0.331 C 
ATOM      7  O   UNL A   1      36.010  23.439  22.998  1.00  0.00    -0.249 OA
BRANCH   6   8
ATOM      8  C   UNL A   1      33.987  23.732  24.379  1.00  0.00     0.138 C 
ATOM      9  C   UNL A   1      33.532  24.890  23.461  1.00  0.00     0.040 C 
ATOM     10  C   UNL A   1      33.559  24.289  25.749  1.00  0.00     0.040 C 
ATOM     11  C   UNL A   1      33.887  26.161  24.214  1.00  0.00     0.003 C 
ATOM     12  C   UNL A   1      33.729  25.809  25.685  1.00  0.00     0.003 C 
BRANCH   8  13
ATOM     13  N   UNL A   1      33.213  22.533  23.993  1.00  0.00    -0.340 N 
ATOM     14  O   UNL A   1      34.043  21.069  25.556  1.00  0.00    -0.275 OA
ATOM     15  C   UNL A   1      33.270  21.318  24.640  1.00  0.00     0.225 C 
ATOM     16  H   UNL A   1      32.612  22.608  23.217  1.00  0.00     0.164 HD
BRANCH  15  17
ATOM     17  C   UNL A   1      32.276  20.290  24.120  1.00  0.00     0.135 C 
BRANCH  17  18
ATOM     18  C   UNL A   1      32.725  18.871  24.373  1.00  0.00    -0.036 A 
ATOM     19  C   UNL A   1      32.460  18.255  25.605  1.00  0.00     0.007 A 
ATOM     20  C   UNL A   1      33.423  18.146  23.398  1.00  0.00     0.046 A 
ATOM     21  C   UNL A   1      32.845  16.935  25.852  1.00  0.00     0.043 A 
ATOM     22  C   UNL A   1      33.807  16.830  23.650  1.00  0.00     0.159 A 
ATOM     23  C   UNL A   1      33.512  16.225  24.864  1.00  0.00     0.158 A 
ATOM     24  F   UNL A   1      34.465  16.152  22.700  1.00  0.00    -0.204 F 
ATOM     25  F   UNL A   1      33.866  14.953  25.089  1.00  0.00    -0.204 F 
ENDBRANCH  17  18
ENDBRANCH  15  17
ENDBRANCH   8  13
ENDBRANCH   6   8
ENDBRANCH   5   6
ENDBRANCH   4   5
ENDBRANCH   3   4
ENDBRANCH   2   3
ENDBRANCH   1   2
BRANCH   1  26
ATOM     26  C   UNL A   1      41.016  20.057  26.208  1.00  0.00     0.188 C 
BRANCH  26  27
ATOM     27  O   UNL A   1      42.228  20.058  25.464  1.00  0.00    -0.376 OA
BRANCH  27  28
ATOM     28  C   UNL A   1      43.292  20.892  25.892  1.00  0.00     0.202 C 
BRANCH  28  29
ATOM     29  C   UNL A   1      43.781  22.005  24.953  1.00  0.00     0.261 C 
BRANCH  29  30
ATOM     30  O   UNL A   1      43.015  23.219  25.005  1.00  0.00    -0.460 OA
BRANCH  30  31
ATOM     31  C   UNL A   1      43.751  24.344  25.186  1.00  0.00     0.338 C 
ATOM     32  O   UNL A   1      44.712  24.713  24.534  1.00  0.00    -0.246 OA
BRANCH  31  33
ATOM     33  C   UNL A   1      43.107  25.209  26.198  1.00  0.00     0.060 A 
ATOM     34  C   UNL A   1      43.583  26.520  26.302  1.00  0.00     0.016 A 
ATOM     35  C   UNL A   1      42.096  24.756  27.049  1.00  0.00     0.016 A 
ATOM     36  C   UNL A   1      43.063  27.375  27.266  1.00  0.00     0.010 A 
ATOM     37  C   UNL A   1      41.600  25.611  28.050  1.00  0.00     0.010 A 
ATOM     38  C   UNL A   1      42.098  26.918  28.177  1.00  0.00    -0.014 A 
BRANCH  38  39
ATOM     39  C   UNL A   1      41.791  27.782  29.347  1.00  0.00     0.031 A 
ATOM     40  C   UNL A   1      40.555  28.640  29.293  1.00  0.00     0.074 A 
ATOM     41  C   UNL A   1      42.501  27.711  30.488  1.00  0.00     0.049 A 
ATOM     42  N   UNL A   1      39.993  29.347  30.241  1.00  0.00    -0.248 NA
ATOM     43  C   UNL A   1      39.856  28.695  28.000  1.00  0.00     0.031 C 
ATOM     44  C   UNL A   1      43.686  26.885  30.700  1.00  0.00     0.029 A 
ATOM     45  N   UNL A   1      42.272  28.296  31.713  1.00  0.00    -0.354 N 
ATOM     46  C   UNL A   1      38.881  29.940  29.655  1.00  0.00     0.074 A 
ATOM     47  C   UNL A   1      38.836  29.494  28.279  1.00  0.00     0.031 C 
ATOM     48  C   UNL A   1      44.034  26.951  31.999  1.00  0.00     0.029 A 
ATOM     49  C   UNL A   1      43.114  27.846  32.703  1.00  0.00     0.049 A 
ATOM     50  H   UNL A   1      41.574  28.972  31.865  1.00  0.00     0.167 HD
ATOM     51  C   UNL A   1      37.989  30.801  30.200  1.00  0.00     0.037 A 
ATOM     52  C   UNL A   1      43.119  28.104  34.027  1.00  0.00     0.037 A 
ATOM     53  C   UNL A   1      38.043  31.292  31.550  1.00  0.00     0.049 A 
ATOM     54  C   UNL A   1      42.121  29.079  34.607  1.00  0.00     0.074 A 
ATOM     55  C   UNL A   1      37.238  32.244  32.153  1.00  0.00     0.029 A 
ATOM     56  N   UNL A   1      38.952  30.873  32.505  1.00  0.00    -0.354 N 
ATOM     57  N   UNL A   1      41.099  29.663  34.034  1.00  0.00    -0.248 NA
ATOM     58  C   UNL A   1      42.304  29.449  36.021  1.00  0.00     0.031 C 
ATOM     59  C   UNL A   1      37.685  32.425  33.467  1.00  0.00     0.029 A 
ATOM     60  C   UNL A   1      38.738  31.555  33.691  1.00  0.00     0.049 A 
ATOM     61  H   UNL A   1      39.647  30.191  32.362  1.00  0.00     0.167 HD
ATOM     62  C   UNL A   1      40.530  30.478  35.008  1.00  0.00     0.074 A 
ATOM     63  C   UNL A   1      41.282  30.267  36.225  1.00  0.00     0.031 C 
ATOM     64  C   UNL A   1      39.497  31.348  34.897  1.00  0.00     0.037 A 
BRANCH  51  65
ATOM     65  C   UNL A   1      36.916  31.326  29.299  1.00  0.00     0.057 A 
ATOM     66  C   UNL A   1      35.797  30.558  28.957  1.00  0.00     0.134 A 
ATOM     67  C   UNL A   1      36.999  32.625  28.780  1.00  0.00     0.134 A 
ATOM     68  F   UNL A   1      35.674  29.300  29.405  1.00  0.00    -0.206 F 
ATOM     69  C   UNL A   1      34.801  31.061  28.119  1.00  0.00     0.040 A 
ATOM     70  C   UNL A   1      36.000  33.145  27.959  1.00  0.00     0.040 A 
ATOM     71  F   UNL A   1      38.049  33.407  29.070  1.00  0.00    -0.206 F 
ATOM     72  C   UNL A   1      34.898  32.361  27.623  1.00  0.00     0.006 A 
ENDBRANCH  51  65
BRANCH  52  73
ATOM     73  C   UNL A   1      44.093  27.438  34.932  1.00  0.00     0.057 A 
ATOM     74  C   UNL A   1      43.746  26.267  35.620  1.00  0.00     0.134 A 
ATOM     75  C   UNL A   1      45.354  27.985  35.192  1.00  0.00     0.134 A 
ATOM     76  F   UNL A   1      42.540  25.708  35.437  1.00  0.00    -0.206 F 
ATOM     77  C   UNL A   1      44.605  25.681  36.552  1.00  0.00     0.040 A 
ATOM     78  C   UNL A   1      46.235  27.393  36.098  1.00  0.00     0.040 A 
ATOM     79  F   UNL A   1      45.745  29.109  34.573  1.00  0.00    -0.206 F 
ATOM     80  C   UNL A   1      45.855  26.244  36.790  1.00  0.00     0.006 A 
ENDBRANCH  52  73
BRANCH  64  81
ATOM     81  C   UNL A   1      39.136  32.161  36.108  1.00  0.00     0.057 A 
ATOM     82  C   UNL A   1      39.654  33.449  36.304  1.00  0.00     0.134 A 
ATOM     83  C   UNL A   1      38.232  31.678  37.061  1.00  0.00     0.134 A 
ATOM     84  F   UNL A   1      40.531  33.969  35.431  1.00  0.00    -0.206 F 
ATOM     85  C   UNL A   1      39.305  34.216  37.417  1.00  0.00     0.040 A 
ATOM     86  C   UNL A   1      37.856  32.446  38.166  1.00  0.00     0.040 A 
ATOM     87  F   UNL A   1      37.689  30.458  36.930  1.00  0.00    -0.206 F 
ATOM     88  C   UNL A   1      38.398  33.716  38.349  1.00  0.00     0.006 A 
ENDBRANCH  64  81
ENDBRANCH  38  39
ENDBRANCH  31  33
ENDBRANCH  30  31
ENDBRANCH  29  30
ENDBRANCH  28  29
ENDBRANCH  27  28
ENDBRANCH  26  27
ENDBRANCH   1  26
TORSDOF 20
ENDMDL
MODEL 2
REMARK VINA RESULT:     -10.6      4.816      9.856
REMARK SMILES O=C(Cc1ccc(F)c(F)c1)NC1(C(=O)OCCOCCOCCOC(=O)c2ccc(-c3c4nc(c(-c5c(F)cccc5F)c5ccc([nH]5)c(-c5c(F)cccc5F)c5nc(c(-c6c(F)cccc6F)c6ccc3[nH]6)C=C5)C=C4)cc2)CCCC1
REMARK SMILES IDX 20 1 19 2 18 3 17 4 16 5 14 6 15 7 13 8 82 9 85 10 83 11
REMARK SMILES IDX 84 12 12 13 1 14 2 15 3 17 4 18 5 19 11 20 6 21 9 22 7 23
REMARK SMILES IDX 10 24 8 25 21 26 22 27 23 28 24 29 25 30 26 31 27 32 28 33
REMARK SMILES IDX 29 34 81 35 30 36 80 37 31 38 32 39 33 40 74 41 34 42 79 43
REMARK SMILES IDX 73 44 75 45 35 46 78 47 72 48 71 49 36 51 62 52 45 53 61 54
REMARK SMILES IDX 46 55 49 56 60 57 76 58 47 59 48 60 59 62 77 63 50 64 37 65
REMARK SMILES IDX 38 66 43 67 39 68 40 69 42 70 44 71 41 72 63 73 64 74 69 75
REMARK SMILES IDX 65 76 66 77 68 78 70 79 67 80 51 81 52 82 57 83 53 84 54 85
REMARK SMILES IDX 56 86 58 87 55 88
REMARK H PARENT 12 16 75 50 49 61
REMARK Flexibility Score: inf
ROOT
ATOM      1  C   UNL A   1      34.354  31.840  28.424  1.00  0.00     0.188 C 
ENDROOT
BRANCH   1   2
ATOM      2  O   UNL A   1      33.308  31.550  27.510  1.00  0.00    -0.376 OA
BRANCH   2   3
ATOM      3  C   UNL A   1      33.462  30.328  26.810  1.00  0.00     0.202 C 
BRANCH   3   4
ATOM      4  C   UNL A   1      32.353  29.980  25.806  1.00  0.00     0.261 C 
BRANCH   4   5
ATOM      5  O   UNL A   1      32.283  28.611  25.365  1.00  0.00    -0.461 OA
BRANCH   5   6
ATOM      6  C   UNL A   1      32.591  28.336  24.071  1.00  0.00     0.331 C 
ATOM      7  O   UNL A   1      33.280  29.068  23.363  1.00  0.00    -0.249 OA
BRANCH   6   8
ATOM      8  C   UNL A   1      31.902  27.029  23.545  1.00  0.00     0.138 C 
ATOM      9  C   UNL A   1      31.185  27.392  22.224  1.00  0.00     0.040 C 
ATOM     10  C   UNL A   1      30.716  26.467  24.350  1.00  0.00     0.040 C 
ATOM     11  C   UNL A   1      29.850  27.983  22.642  1.00  0.00     0.003 C 
ATOM     12  C   UNL A   1      29.473  27.251  23.920  1.00  0.00     0.003 C 
BRANCH   8  13
ATOM     13  N   UNL A   1      32.910  25.994  23.232  1.00  0.00    -0.340 N 
ATOM     14  O   UNL A   1      33.599  25.524  25.372  1.00  0.00    -0.275 OA
ATOM     15  C   UNL A   1      33.639  25.297  24.169  1.00  0.00     0.225 C 
ATOM     16  H   UNL A   1      33.071  25.787  22.283  1.00  0.00     0.164 HD
BRANCH  15  17
ATOM     17  C   UNL A   1      34.514  24.198  23.584  1.00  0.00     0.135 C 
BRANCH  17  18
ATOM     18  C   UNL A   1      33.824  22.855  23.570  1.00  0.00    -0.036 A 
ATOM     19  C   UNL A   1      32.752  22.620  22.698  1.00  0.00     0.007 A 
ATOM     20  C   UNL A   1      34.226  21.824  24.430  1.00  0.00     0.046 A 
ATOM     21  C   UNL A   1      32.115  21.378  22.651  1.00  0.00     0.043 A 
ATOM     22  C   UNL A   1      33.587  20.587  24.381  1.00  0.00     0.159 A 
ATOM     23  C   UNL A   1      32.545  20.361  23.492  1.00  0.00     0.158 A 
ATOM     24  F   UNL A   1      33.993  19.612  25.206  1.00  0.00    -0.204 F 
ATOM     25  F   UNL A   1      31.950  19.162  23.437  1.00  0.00    -0.204 F 
ENDBRANCH  17  18
ENDBRANCH  15  17
ENDBRANCH   8  13
ENDBRANCH   6   8
ENDBRANCH   5   6
ENDBRANCH   4   5
ENDBRANCH   3   4
ENDBRANCH   2   3
ENDBRANCH   1   2
BRANCH   1  26
ATOM     26  C   UNL A   1      34.972  33.228  28.225  1.00  0.00     0.188 C 
BRANCH  26  27
ATOM     27  O   UNL A   1      35.228  34.094  29.324  1.00  0.00    -0.376 OA
BRANCH  27  28
ATOM     28  C   UNL A   1      34.275  34.167  30.373  1.00  0.00     0.202 C 
BRANCH  28  29
ATOM     29  C   UNL A   1      34.671  33.656  31.766  1.00  0.00     0.261 C 
BRANCH  29  30
ATOM     30  O   UNL A   1      35.078  32.279  31.812  1.00  0.00    -0.460 OA
BRANCH  30  31
ATOM     31  C   UNL A   1      36.152  32.033  32.604  1.00  0.00     0.338 C 
ATOM     32  O   UNL A   1      36.226  32.163  33.813  1.00  0.00    -0.246 OA
BRANCH  31  33
ATOM     33  C   UNL A   1      37.218  31.379  31.815  1.00  0.00     0.060 A 
ATOM     34  C   UNL A   1      38.223  30.725  32.535  1.00  0.00     0.016 A 
ATOM     35  C   UNL A   1      37.268  31.428  30.420  1.00  0.00     0.016 A 
ATOM     36  C   UNL A   1      39.287  30.132  31.864  1.00  0.00     0.010 A 
ATOM     37  C   UNL A   1      38.366  30.864  29.746  1.00  0.00     0.010 A 
ATOM     38  C   UNL A   1      39.393  30.232  30.468  1.00  0.00    -0.014 A 
BRANCH  38  39
ATOM     39  C   UNL A   1      40.679  29.829  29.844  1.00  0.00     0.031 A 
ATOM     40  C   UNL A   1      40.783  28.448  29.253  1.00  0.00     0.074 A 
ATOM     41  C   UNL A   1      41.690  30.701  29.673  1.00  0.00     0.049 A 
ATOM     42  N   UNL A   1      41.733  27.927  28.519  1.00  0.00    -0.248 NA
ATOM     43  C   UNL A   1      39.655  27.541  29.517  1.00  0.00     0.031 C 
ATOM     44  C   UNL A   1      41.706  32.083  30.143  1.00  0.00     0.029 A 
ATOM     45  N   UNL A   1      42.872  30.565  28.980  1.00  0.00    -0.354 N 
ATOM     46  C   UNL A   1      41.324  26.629  28.244  1.00  0.00     0.074 A 
ATOM     47  C   UNL A   1      40.031  26.448  28.870  1.00  0.00     0.031 C 
ATOM     48  C   UNL A   1      42.804  32.693  29.659  1.00  0.00     0.029 A 
ATOM     49  C   UNL A   1      43.581  31.738  28.867  1.00  0.00     0.049 A 
ATOM     50  H   UNL A   1      43.179  29.710  28.603  1.00  0.00     0.167 HD
ATOM     51  C   UNL A   1      41.972  25.660  27.555  1.00  0.00     0.037 A 
ATOM     52  C   UNL A   1      44.709  32.011  28.179  1.00  0.00     0.037 A 
ATOM     53  C   UNL A   1      43.275  25.803  26.965  1.00  0.00     0.049 A 
ATOM     54  C   UNL A   1      45.419  30.909  27.430  1.00  0.00     0.074 A 
ATOM     55  C   UNL A   1      44.048  24.842  26.337  1.00  0.00     0.029 A 
ATOM     56  N   UNL A   1      43.999  26.983  26.933  1.00  0.00    -0.354 N 
ATOM     57  N   UNL A   1      45.041  29.674  27.210  1.00  0.00    -0.248 NA
ATOM     58  C   UNL A   1      46.735  31.241  26.858  1.00  0.00     0.031 C 
ATOM     59  C   UNL A   1      45.257  25.434  25.955  1.00  0.00     0.029 A 
ATOM     60  C   UNL A   1      45.215  26.773  26.307  1.00  0.00     0.049 A 
ATOM     61  H   UNL A   1      43.693  27.843  27.301  1.00  0.00     0.167 HD
ATOM     62  C   UNL A   1      46.075  29.081  26.492  1.00  0.00     0.074 A 
ATOM     63  C   UNL A   1      47.068  30.107  26.260  1.00  0.00     0.031 C 
ATOM     64  C   UNL A   1      46.205  27.794  26.088  1.00  0.00     0.037 A 
BRANCH  51  65
ATOM     65  C   UNL A   1      41.302  24.324  27.471  1.00  0.00     0.057 A 
ATOM     66  C   UNL A   1      40.228  24.090  26.603  1.00  0.00     0.134 A 
ATOM     67  C   UNL A   1      41.750  23.255  28.257  1.00  0.00     0.134 A 
ATOM     68  F   UNL A   1      39.741  25.081  25.842  1.00  0.00    -0.206 F 
ATOM     69  C   UNL A   1      39.615  22.838  26.530  1.00  0.00     0.040 A 
ATOM     70  C   UNL A   1      41.158  21.995  28.179  1.00  0.00     0.040 A 
ATOM     71  F   UNL A   1      42.773  23.420  29.109  1.00  0.00    -0.206 F 
ATOM     72  C   UNL A   1      40.085  21.785  27.315  1.00  0.00     0.006 A 
ENDBRANCH  51  65
BRANCH  52  73
ATOM     73  C   UNL A   1      45.265  33.390  28.141  1.00  0.00     0.057 A 
ATOM     74  C   UNL A   1      46.174  33.822  29.117  1.00  0.00     0.134 A 
ATOM     75  C   UNL A   1      44.852  34.328  27.189  1.00  0.00     0.134 A 
ATOM     76  F   UNL A   1      46.588  32.980  30.075  1.00  0.00    -0.206 F 
ATOM     77  C   UNL A   1      46.630  35.142  29.162  1.00  0.00     0.040 A 
ATOM     78  C   UNL A   1      45.323  35.642  27.204  1.00  0.00     0.040 A 
ATOM     79  F   UNL A   1      43.977  33.982  26.233  1.00  0.00    -0.206 F 
ATOM     80  C   UNL A   1      46.206  36.054  28.201  1.00  0.00     0.006 A 
ENDBRANCH  52  73
BRANCH  64  81
ATOM     81  C   UNL A   1      47.475  27.410  25.383  1.00  0.00     0.057 A 
ATOM     82  C   UNL A   1      47.625  27.587  24.000  1.00  0.00     0.134 A 
ATOM     83  C   UNL A   1      48.572  26.904  26.091  1.00  0.00     0.134 A 
ATOM     84  F   UNL A   1      46.610  28.062  23.262  1.00  0.00    -0.206 F 
ATOM     85  C   UNL A   1      48.811  27.253  23.344  1.00  0.00     0.040 A 
ATOM     86  C   UNL A   1      49.772  26.587  25.449  1.00  0.00     0.040 A 
ATOM     87  F   UNL A   1      48.501  26.719  27.418  1.00  0.00    -0.206 F 
ATOM     88  C   UNL A   1      49.891  26.756  24.071  1.00  0.00     0.006 A 
ENDBRANCH  64  81
ENDBRANCH  38  39
ENDBRANCH  31  33
ENDBRANCH  30  31
ENDBRANCH  29  30
ENDBRANCH  28  29
ENDBRANCH  27  28
ENDBRANCH  26  27
ENDBRANCH   1  26
TORSDOF 20
ENDMDL
MODEL 3
REMARK VINA RESULT:     -10.5      4.616      8.422
REMARK SMILES O=C(Cc1ccc(F)c(F)c1)NC1(C(=O)OCCOCCOCCOC(=O)c2ccc(-c3c4nc(c(-c5c(F)cccc5F)c5ccc([nH]5)c(-c5c(F)cccc5F)c5nc(c(-c6c(F)cccc6F)c6ccc3[nH]6)C=C5)C=C4)cc2)CCCC1
REMARK SMILES IDX 20 1 19 2 18 3 17 4 16 5 14 6 15 7 13 8 82 9 85 10 83 11
REMARK SMILES IDX 84 12 12 13 1 14 2 15 3 17 4 18 5 19 11 20 6 21 9 22 7 23
REMARK SMILES IDX 10 24 8 25 21 26 22 27 23 28 24 29 25 30 26 31 27 32 28 33
REMARK SMILES IDX 29 34 81 35 30 36 80 37 31 38 32 39 33 40 74 41 34 42 79 43
REMARK SMILES IDX 73 44 75 45 35 46 78 47 72 48 71 49 36 51 62 52 45 53 61 54
REMARK SMILES IDX 46 55 49 56 60 57 76 58 47 59 48 60 59 62 77 63 50 64 37 65
REMARK SMILES IDX 38 66 43 67 39 68 40 69 42 70 44 71 41 72 63 73 64 74 69 75
REMARK SMILES IDX 65 76 66 77 68 78 70 79 67 80 51 81 52 82 57 83 53 84 54 85
REMARK SMILES IDX 56 86 58 87 55 88
REMARK H PARENT 12 16 75 50 49 61
REMARK Flexibility Score: inf
ROOT
ATOM      1  C   UNL A   1      39.839  21.159  26.346  1.00  0.00     0.188 C 
ENDROOT
BRANCH   1   2
ATOM      2  O   UNL A   1      39.379  22.442  25.954  1.00  0.00    -0.376 OA
BRANCH   2   3
ATOM      3  C   UNL A   1      37.969  22.577  25.925  1.00  0.00     0.202 C 
BRANCH   3   4
ATOM      4  C   UNL A   1      37.411  23.637  24.963  1.00  0.00     0.261 C 
BRANCH   4   5
ATOM      5  O   UNL A   1      35.979  23.777  24.910  1.00  0.00    -0.461 OA
BRANCH   5   6
ATOM      6  C   UNL A   1      35.353  23.534  23.729  1.00  0.00     0.331 C 
ATOM      7  O   UNL A   1      35.940  23.216  22.698  1.00  0.00    -0.249 OA
BRANCH   6   8
ATOM      8  C   UNL A   1      33.807  23.789  23.797  1.00  0.00     0.138 C 
ATOM      9  C   UNL A   1      33.389  24.414  22.445  1.00  0.00     0.040 C 
ATOM     10  C   UNL A   1      33.297  24.874  24.763  1.00  0.00     0.040 C 
ATOM     11  C   UNL A   1      33.686  25.897  22.580  1.00  0.00     0.003 C 
ATOM     12  C   UNL A   1      33.451  26.219  24.047  1.00  0.00     0.003 C 
BRANCH   8  13
ATOM     13  N   UNL A   1      33.070  22.516  23.942  1.00  0.00    -0.340 N 
ATOM     14  O   UNL A   1      33.634  22.037  26.116  1.00  0.00    -0.275 OA
ATOM     15  C   UNL A   1      33.007  21.772  25.099  1.00  0.00     0.225 C 
ATOM     16  H   UNL A   1      32.589  22.175  23.154  1.00  0.00     0.164 HD
BRANCH  15  17
ATOM     17  C   UNL A   1      32.076  20.571  25.015  1.00  0.00     0.135 C 
BRANCH  17  18
ATOM     18  C   UNL A   1      32.735  19.371  24.376  1.00  0.00    -0.036 A 
ATOM     19  C   UNL A   1      32.196  18.807  23.211  1.00  0.00     0.007 A 
ATOM     20  C   UNL A   1      33.881  18.791  24.933  1.00  0.00     0.046 A 
ATOM     21  C   UNL A   1      32.802  17.712  22.589  1.00  0.00     0.043 A 
ATOM     22  C   UNL A   1      34.482  17.698  24.311  1.00  0.00     0.159 A 
ATOM     23  C   UNL A   1      33.953  17.167  23.142  1.00  0.00     0.158 A 
ATOM     24  F   UNL A   1      35.583  17.163  24.857  1.00  0.00    -0.204 F 
ATOM     25  F   UNL A   1      34.549  16.131  22.540  1.00  0.00    -0.204 F 
ENDBRANCH  17  18
ENDBRANCH  15  17
ENDBRANCH   8  13
ENDBRANCH   6   8
ENDBRANCH   5   6
ENDBRANCH   4   5
ENDBRANCH   3   4
ENDBRANCH   2   3
ENDBRANCH   1   2
BRANCH   1  26
ATOM     26  C   UNL A   1      40.999  21.204  27.346  1.00  0.00     0.188 C 
BRANCH  26  27
ATOM     27  O   UNL A   1      42.227  20.532  27.094  1.00  0.00    -0.376 OA
BRANCH  27  28
ATOM     28  C   UNL A   1      42.206  19.131  26.872  1.00  0.00     0.202 C 
BRANCH  28  29
ATOM     29  C   UNL A   1      43.133  18.540  25.800  1.00  0.00     0.261 C 
BRANCH  29  30
ATOM     30  O   UNL A   1      43.235  19.315  24.596  1.00  0.00    -0.460 OA
BRANCH  30  31
ATOM     31  C   UNL A   1      44.506  19.596  24.211  1.00  0.00     0.338 C 
ATOM     32  O   UNL A   1      45.240  18.910  23.522  1.00  0.00    -0.246 OA
BRANCH  31  33
ATOM     33  C   UNL A   1      44.849  20.985  24.586  1.00  0.00     0.060 A 
ATOM     34  C   UNL A   1      45.536  21.159  25.792  1.00  0.00     0.016 A 
ATOM     35  C   UNL A   1      44.486  22.091  23.815  1.00  0.00     0.016 A 
ATOM     36  C   UNL A   1      45.847  22.439  26.237  1.00  0.00     0.010 A 
ATOM     37  C   UNL A   1      44.764  23.386  24.287  1.00  0.00     0.010 A 
ATOM     38  C   UNL A   1      45.427  23.566  25.513  1.00  0.00    -0.014 A 
BRANCH  38  39
ATOM     39  C   UNL A   1      45.541  24.892  26.175  1.00  0.00     0.031 A 
ATOM     40  C   UNL A   1      46.839  25.643  26.047  1.00  0.00     0.074 A 
ATOM     41  C   UNL A   1      44.484  25.488  26.756  1.00  0.00     0.049 A 
ATOM     42  N   UNL A   1      47.126  26.873  26.392  1.00  0.00    -0.248 NA
ATOM     43  C   UNL A   1      47.958  24.910  25.435  1.00  0.00     0.031 C 
ATOM     44  C   UNL A   1      43.154  24.903  26.903  1.00  0.00     0.029 A 
ATOM     45  N   UNL A   1      44.351  26.761  27.264  1.00  0.00    -0.354 N 
ATOM     46  C   UNL A   1      48.459  27.056  26.050  1.00  0.00     0.074 A 
ATOM     47  C   UNL A   1      48.920  25.821  25.452  1.00  0.00     0.031 C 
ATOM     48  C   UNL A   1      42.319  25.840  27.389  1.00  0.00     0.029 A 
ATOM     49  C   UNL A   1      43.061  27.082  27.613  1.00  0.00     0.049 A 
ATOM     50  H   UNL A   1      45.108  27.381  27.367  1.00  0.00     0.167 HD
ATOM     51  C   UNL A   1      49.245  28.143  26.239  1.00  0.00     0.037 A 
ATOM     52  C   UNL A   1      42.537  28.252  28.035  1.00  0.00     0.037 A 
ATOM     53  C   UNL A   1      48.821  29.362  26.873  1.00  0.00     0.049 A 
ATOM     54  C   UNL A   1      43.438  29.445  28.250  1.00  0.00     0.074 A 
ATOM     55  C   UNL A   1      49.579  30.474  27.196  1.00  0.00     0.029 A 
ATOM     56  N   UNL A   1      47.526  29.627  27.283  1.00  0.00    -0.354 N 
ATOM     57  N   UNL A   1      44.707  29.593  27.960  1.00  0.00    -0.248 NA
ATOM     58  C   UNL A   1      42.829  30.627  28.883  1.00  0.00     0.031 C 
ATOM     59  C   UNL A   1      48.746  31.401  27.834  1.00  0.00     0.029 A 
ATOM     60  C   UNL A   1      47.463  30.880  27.867  1.00  0.00     0.049 A 
ATOM     61  H   UNL A   1      46.763  29.015  27.174  1.00  0.00     0.167 HD
ATOM     62  C   UNL A   1      45.049  30.872  28.388  1.00  0.00     0.074 A 
ATOM     63  C   UNL A   1      43.841  31.481  28.901  1.00  0.00     0.031 C 
ATOM     64  C   UNL A   1      46.261  31.478  28.386  1.00  0.00     0.037 A 
BRANCH  51  65
ATOM     65  C   UNL A   1      50.676  28.027  25.817  1.00  0.00     0.057 A 
ATOM     66  C   UNL A   1      51.066  28.171  24.480  1.00  0.00     0.134 A 
ATOM     67  C   UNL A   1      51.677  27.783  26.766  1.00  0.00     0.134 A 
ATOM     68  F   UNL A   1      50.149  28.384  23.525  1.00  0.00    -0.206 F 
ATOM     69  C   UNL A   1      52.405  28.066  24.100  1.00  0.00     0.040 A 
ATOM     70  C   UNL A   1      53.020  27.695  26.401  1.00  0.00     0.040 A 
ATOM     71  F   UNL A   1      51.364  27.632  28.061  1.00  0.00    -0.206 F 
ATOM     72  C   UNL A   1      53.386  27.833  25.063  1.00  0.00     0.006 A 
ENDBRANCH  51  65
BRANCH  52  73
ATOM     73  C   UNL A   1      41.079  28.389  28.288  1.00  0.00     0.057 A 
ATOM     74  C   UNL A   1      40.220  28.866  27.288  1.00  0.00     0.134 A 
ATOM     75  C   UNL A   1      40.518  28.124  29.542  1.00  0.00     0.134 A 
ATOM     76  F   UNL A   1      40.700  29.165  26.071  1.00  0.00    -0.206 F 
ATOM     77  C   UNL A   1      38.865  29.100  27.534  1.00  0.00     0.040 A 
ATOM     78  C   UNL A   1      39.160  28.325  29.793  1.00  0.00     0.040 A 
ATOM     79  F   UNL A   1      41.286  27.674  30.545  1.00  0.00    -0.206 F 
ATOM     80  C   UNL A   1      38.332  28.826  28.790  1.00  0.00     0.006 A 
ENDBRANCH  52  73
BRANCH  64  81
ATOM     81  C   UNL A   1      46.355  32.853  28.982  1.00  0.00     0.057 A 
ATOM     82  C   UNL A   1      46.608  33.042  30.348  1.00  0.00     0.134 A 
ATOM     83  C   UNL A   1      46.239  33.998  28.185  1.00  0.00     0.134 A 
ATOM     84  F   UNL A   1      46.724  31.987  31.170  1.00  0.00    -0.206 F 
ATOM     85  C   UNL A   1      46.718  34.318  30.903  1.00  0.00     0.040 A 
ATOM     86  C   UNL A   1      46.370  35.280  28.724  1.00  0.00     0.040 A 
ATOM     87  F   UNL A   1      46.007  33.891  26.867  1.00  0.00    -0.206 F 
ATOM     88  C   UNL A   1      46.604  35.442  30.088  1.00  0.00     0.006 A 
ENDBRANCH  64  81
ENDBRANCH  38  39
ENDBRANCH  31  33
ENDBRANCH  30  31
ENDBRANCH  29  30
ENDBRANCH  28  29
ENDBRANCH  27  28
ENDBRANCH  26  27
ENDBRANCH   1  26
TORSDOF 20
ENDMDL
