MODEL 1
REMARK VINA RESULT:     -12.3      0.000      0.000
REMARK SMILES Cc1ccc([C@@H]2[C@H](C(=O)OCCOCCOCCOC(=O)c3ccc(-c4c5nc(c(-c6c(F)cccc6F)c6ccc([nH]6)c(-c6c(F)cccc6F)c6nc(c(-c7c(F)cccc7F)c7ccc4[nH]7)C=C6)C=C5)cc3)c3ccccc3C(=O)N2c2ccccc2)cc1
REMARK SMILES IDX 15 1 14 2 13 3 12 4 11 5 10 6 8 7 9 8 7 9 6 10 84 11 76 12
REMARK SMILES IDX 82 13 77 14 81 15 83 16 78 17 80 18 79 19 5 20 1 21 2 22
REMARK SMILES IDX 3 23 92 24 4 25 91 26 85 27 86 28 90 29 87 30 89 31 88 32
REMARK SMILES IDX 16 33 17 34 18 35 19 36 20 37 21 38 22 39 23 40 75 41 24 42
REMARK SMILES IDX 74 43 25 44 26 45 27 46 68 47 28 48 73 49 67 50 69 51 29 52
REMARK SMILES IDX 72 53 66 54 65 55 30 57 56 58 39 59 55 60 40 61 43 62 54 63
REMARK SMILES IDX 70 64 41 65 42 66 53 68 71 69 44 70 31 71 32 72 37 73 33 74
REMARK SMILES IDX 34 75 36 76 38 77 35 78 57 79 58 80 63 81 59 82 60 83 62 84
REMARK SMILES IDX 64 85 61 86 45 87 46 88 51 89 47 90 48 91 50 92 52 93 49 94
REMARK H PARENT 69 56 43 67
REMARK Flexibility Score: inf
ROOT
ATOM      1  C   UNL A   1      36.581  22.956  23.133  1.00  0.00     0.188 C 
ENDROOT
BRANCH   1   2
ATOM      2  C   UNL A   1      35.070  22.728  23.125  1.00  0.00     0.188 C 
BRANCH   2   3
ATOM      3  O   UNL A   1      34.398  23.551  22.190  1.00  0.00    -0.376 OA
BRANCH   3   4
ATOM      4  C   UNL A   1      33.070  23.919  22.597  1.00  0.00     0.202 C 
BRANCH   4   5
ATOM      5  C   UNL A   1      32.761  25.442  22.531  1.00  0.00     0.261 C 
BRANCH   5   6
ATOM      6  O   UNL A   1      33.637  26.688  23.038  1.00  0.00    -0.463 OA
BRANCH   6   7
ATOM      7  C   UNL A   1      33.941  27.340  24.250  1.00  0.00     0.316 C 
ATOM      8  O   UNL A   1      34.221  28.543  24.237  1.00  0.00    -0.251 OA
BRANCH   7   9
ATOM      9  C   UNL A   1      33.717  26.728  25.691  1.00  0.00     0.157 C 
ATOM     10  C   UNL A   1      32.740  27.598  26.512  1.00  0.00     0.140 C 
ATOM     11  N   UNL A   1      31.372  27.377  26.003  1.00  0.00    -0.300 N 
ATOM     12  C   UNL A   1      33.279  25.280  26.013  1.00  0.00    -0.019 A 
ATOM     13  C   UNL A   1      30.895  26.090  26.347  1.00  0.00     0.259 C 
ATOM     14  C   UNL A   1      34.213  24.222  26.119  1.00  0.00     0.005 A 
ATOM     15  C   UNL A   1      31.917  24.988  26.261  1.00  0.00     0.044 A 
ATOM     16  O   UNL A   1      29.728  25.822  26.644  1.00  0.00    -0.269 OA
ATOM     17  C   UNL A   1      33.777  22.898  26.263  1.00  0.00     0.000 A 
ATOM     18  C   UNL A   1      31.496  23.661  26.425  1.00  0.00     0.014 A 
ATOM     19  C   UNL A   1      32.419  22.616  26.387  1.00  0.00     0.001 A 
BRANCH  10  20
ATOM     20  C   UNL A   1      33.323  28.867  27.136  1.00  0.00    -0.024 A 
ATOM     21  C   UNL A   1      35.611  32.487  27.800  1.00  0.00     0.044 C 
ATOM     22  C   UNL A   1      34.801  31.227  27.749  1.00  0.00    -0.051 A 
ATOM     23  C   UNL A   1      33.425  31.265  27.526  1.00  0.00     0.004 A 
ATOM     24  C   UNL A   1      35.419  29.985  27.824  1.00  0.00     0.004 A 
ATOM     25  C   UNL A   1      32.690  30.096  27.263  1.00  0.00     0.006 A 
ATOM     26  C   UNL A   1      34.695  28.830  27.508  1.00  0.00     0.006 A 
ENDBRANCH  10  20
BRANCH  11  27
ATOM     27  C   UNL A   1      30.847  27.922  24.766  1.00  0.00     0.045 A 
ATOM     28  C   UNL A   1      30.863  29.309  24.511  1.00  0.00     0.026 A 
ATOM     29  C   UNL A   1      30.098  27.162  23.884  1.00  0.00     0.026 A 
ATOM     30  C   UNL A   1      30.144  29.892  23.457  1.00  0.00     0.002 A 
ATOM     31  C   UNL A   1      29.290  27.760  22.917  1.00  0.00     0.002 A 
ATOM     32  C   UNL A   1      29.355  29.106  22.646  1.00  0.00     0.000 A 
ENDBRANCH  11  27
ENDBRANCH   7   9
ENDBRANCH   6   7
ENDBRANCH   5   6
ENDBRANCH   4   5
ENDBRANCH   3   4
ENDBRANCH   2   3
ENDBRANCH   1   2
BRANCH   1  33
ATOM     33  O   UNL A   1      37.169  22.848  24.434  1.00  0.00    -0.376 OA
BRANCH  33  34
ATOM     34  C   UNL A   1      36.903  21.578  25.049  1.00  0.00     0.202 C 
BRANCH  34  35
ATOM     35  C   UNL A   1      38.170  20.742  25.263  1.00  0.00     0.261 C 
BRANCH  35  36
ATOM     36  O   UNL A   1      39.017  21.474  26.168  1.00  0.00    -0.460 OA
BRANCH  36  37
ATOM     37  C   UNL A   1      40.277  20.994  26.193  1.00  0.00     0.338 C 
ATOM     38  O   UNL A   1      40.579  19.811  26.136  1.00  0.00    -0.246 OA
BRANCH  37  39
ATOM     39  C   UNL A   1      41.204  22.083  26.599  1.00  0.00     0.060 A 
ATOM     40  C   UNL A   1      40.967  22.601  27.836  1.00  0.00     0.016 A 
ATOM     41  C   UNL A   1      42.142  22.750  25.798  1.00  0.00     0.016 A 
ATOM     42  C   UNL A   1      41.601  23.797  28.187  1.00  0.00     0.010 A 
ATOM     43  C   UNL A   1      42.720  24.004  26.193  1.00  0.00     0.010 A 
ATOM     44  C   UNL A   1      42.399  24.625  27.404  1.00  0.00    -0.014 A 
BRANCH  44  45
ATOM     45  C   UNL A   1      42.851  26.096  27.743  1.00  0.00     0.031 A 
ATOM     46  C   UNL A   1      41.763  27.103  27.572  1.00  0.00     0.074 A 
ATOM     47  C   UNL A   1      44.026  26.684  28.260  1.00  0.00     0.049 A 
ATOM     48  N   UNL A   1      41.912  28.385  27.680  1.00  0.00    -0.248 NA
ATOM     49  C   UNL A   1      40.400  26.739  27.157  1.00  0.00     0.031 C 
ATOM     50  C   UNL A   1      44.031  27.605  29.404  1.00  0.00     0.029 A 
ATOM     51  N   UNL A   1      45.442  26.557  28.080  1.00  0.00    -0.354 N 
ATOM     52  C   UNL A   1      40.649  28.828  27.988  1.00  0.00     0.074 A 
ATOM     53  C   UNL A   1      39.785  27.917  27.295  1.00  0.00     0.031 C 
ATOM     54  C   UNL A   1      45.282  28.016  29.697  1.00  0.00     0.029 A 
ATOM     55  C   UNL A   1      46.236  27.507  28.724  1.00  0.00     0.049 A 
ATOM     56  H   UNL A   1      45.833  25.841  27.530  1.00  0.00     0.167 HD
ATOM     57  C   UNL A   1      40.496  29.606  29.101  1.00  0.00     0.037 A 
ATOM     58  C   UNL A   1      47.386  28.103  28.242  1.00  0.00     0.037 A 
ATOM     59  C   UNL A   1      41.759  30.251  29.525  1.00  0.00     0.049 A 
ATOM     60  C   UNL A   1      47.108  29.587  28.033  1.00  0.00     0.074 A 
ATOM     61  C   UNL A   1      42.465  30.389  30.712  1.00  0.00     0.029 A 
ATOM     62  N   UNL A   1      42.611  30.763  28.555  1.00  0.00    -0.354 N 
ATOM     63  N   UNL A   1      46.114  30.189  28.617  1.00  0.00    -0.248 NA
ATOM     64  C   UNL A   1      47.769  30.475  27.065  1.00  0.00     0.031 C 
ATOM     65  C   UNL A   1      43.691  31.069  30.441  1.00  0.00     0.029 A 
ATOM     66  C   UNL A   1      43.731  31.359  29.092  1.00  0.00     0.049 A 
ATOM     67  H   UNL A   1      42.435  30.706  27.587  1.00  0.00     0.167 HD
ATOM     68  C   UNL A   1      45.828  31.343  27.953  1.00  0.00     0.074 A 
ATOM     69  C   UNL A   1      46.915  31.510  27.013  1.00  0.00     0.031 C 
ATOM     70  C   UNL A   1      44.667  32.012  28.188  1.00  0.00     0.037 A 
BRANCH  57  71
ATOM     71  C   UNL A   1      39.231  29.598  29.963  1.00  0.00     0.057 A 
ATOM     72  C   UNL A   1      38.378  30.719  29.968  1.00  0.00     0.134 A 
ATOM     73  C   UNL A   1      38.840  28.597  30.884  1.00  0.00     0.134 A 
ATOM     74  F   UNL A   1      38.570  31.755  29.141  1.00  0.00    -0.206 F 
ATOM     75  C   UNL A   1      37.276  30.849  30.829  1.00  0.00     0.040 A 
ATOM     76  C   UNL A   1      37.704  28.687  31.701  1.00  0.00     0.040 A 
ATOM     77  F   UNL A   1      39.540  27.483  31.108  1.00  0.00    -0.206 F 
ATOM     78  C   UNL A   1      36.925  29.825  31.692  1.00  0.00     0.006 A 
ENDBRANCH  57  71
BRANCH  58  79
ATOM     79  C   UNL A   1      48.513  27.374  27.528  1.00  0.00     0.057 A 
ATOM     80  C   UNL A   1      49.702  27.053  28.217  1.00  0.00     0.134 A 
ATOM     81  C   UNL A   1      48.523  26.988  26.177  1.00  0.00     0.134 A 
ATOM     82  F   UNL A   1      49.842  27.394  29.506  1.00  0.00    -0.206 F 
ATOM     83  C   UNL A   1      50.774  26.338  27.630  1.00  0.00     0.040 A 
ATOM     84  C   UNL A   1      49.591  26.295  25.563  1.00  0.00     0.040 A 
ATOM     85  F   UNL A   1      47.462  27.222  25.405  1.00  0.00    -0.206 F 
ATOM     86  C   UNL A   1      50.717  25.943  26.297  1.00  0.00     0.006 A 
ENDBRANCH  58  79
BRANCH  70  87
ATOM     87  C   UNL A   1      44.310  33.333  27.572  1.00  0.00     0.057 A 
ATOM     88  C   UNL A   1      44.105  34.489  28.338  1.00  0.00     0.134 A 
ATOM     89  C   UNL A   1      43.983  33.447  26.205  1.00  0.00     0.134 A 
ATOM     90  F   UNL A   1      44.304  34.494  29.663  1.00  0.00    -0.206 F 
ATOM     91  C   UNL A   1      43.631  35.679  27.777  1.00  0.00     0.040 A 
ATOM     92  C   UNL A   1      43.453  34.610  25.648  1.00  0.00     0.040 A 
ATOM     93  F   UNL A   1      44.163  32.439  25.340  1.00  0.00    -0.206 F 
ATOM     94  C   UNL A   1      43.283  35.737  26.433  1.00  0.00     0.006 A 
ENDBRANCH  70  87
ENDBRANCH  44  45
ENDBRANCH  37  39
ENDBRANCH  36  37
ENDBRANCH  35  36
ENDBRANCH  34  35
ENDBRANCH  33  34
ENDBRANCH   1  33
TORSDOF 19
ENDMDL
MODEL 2
REMARK VINA RESULT:     -11.9      3.827      9.155
REMARK SMILES Cc1ccc([C@@H]2[C@H](C(=O)OCCOCCOCCOC(=O)c3ccc(-c4c5nc(c(-c6c(F)cccc6F)c6ccc([nH]6)c(-c6c(F)cccc6F)c6nc(c(-c7c(F)cccc7F)c7ccc4[nH]7)C=C6)C=C5)cc3)c3ccccc3C(=O)N2c2ccccc2)cc1
REMARK SMILES IDX 15 1 14 2 13 3 12 4 11 5 10 6 8 7 9 8 7 9 6 10 84 11 76 12
REMARK SMILES IDX 82 13 77 14 81 15 83 16 78 17 80 18 79 19 5 20 1 21 2 22
REMARK SMILES IDX 3 23 92 24 4 25 91 26 85 27 86 28 90 29 87 30 89 31 88 32
REMARK SMILES IDX 16 33 17 34 18 35 19 36 20 37 21 38 22 39 23 40 75 41 24 42
REMARK SMILES IDX 74 43 25 44 26 45 27 46 68 47 28 48 73 49 67 50 69 51 29 52
REMARK SMILES IDX 72 53 66 54 65 55 30 57 56 58 39 59 55 60 40 61 43 62 54 63
REMARK SMILES IDX 70 64 41 65 42 66 53 68 71 69 44 70 31 71 32 72 37 73 33 74
REMARK SMILES IDX 34 75 36 76 38 77 35 78 57 79 58 80 63 81 59 82 60 83 62 84
REMARK SMILES IDX 64 85 61 86 45 87 46 88 51 89 47 90 48 91 50 92 52 93 49 94
REMARK H PARENT 69 56 43 67
REMARK Flexibility Score: inf
ROOT
ATOM      1  C   UNL A   1      31.479  28.358  27.568  1.00  0.00     0.188 C 
ENDROOT
BRANCH   1   2
ATOM      2  C   UNL A   1      31.501  26.880  27.181  1.00  0.00     0.188 C 
BRANCH   2   3
ATOM      3  O   UNL A   1      30.674  26.594  26.068  1.00  0.00    -0.376 OA
BRANCH   3   4
ATOM      4  C   UNL A   1      30.166  25.250  26.059  1.00  0.00     0.202 C 
BRANCH   4   5
ATOM      5  C   UNL A   1      31.235  24.145  25.818  1.00  0.00     0.261 C 
BRANCH   5   6
ATOM      6  O   UNL A   1      32.479  23.708  26.733  1.00  0.00    -0.463 OA
BRANCH   6   7
ATOM      7  C   UNL A   1      33.887  23.722  26.675  1.00  0.00     0.316 C 
ATOM      8  O   UNL A   1      34.530  22.909  27.347  1.00  0.00    -0.251 OA
BRANCH   7   9
ATOM      9  C   UNL A   1      34.744  24.536  25.623  1.00  0.00     0.157 C 
ATOM     10  C   UNL A   1      35.718  23.604  24.870  1.00  0.00     0.140 C 
ATOM     11  N   UNL A   1      34.947  22.802  23.899  1.00  0.00    -0.300 N 
ATOM     12  C   UNL A   1      34.193  25.465  24.516  1.00  0.00    -0.019 A 
ATOM     13  C   UNL A   1      34.492  23.598  22.821  1.00  0.00     0.259 C 
ATOM     14  C   UNL A   1      33.894  26.825  24.763  1.00  0.00     0.005 A 
ATOM     15  C   UNL A   1      34.022  24.977  23.200  1.00  0.00     0.044 A 
ATOM     16  O   UNL A   1      34.406  23.222  21.649  1.00  0.00    -0.269 OA
ATOM     17  C   UNL A   1      33.259  27.604  23.786  1.00  0.00     0.000 A 
ATOM     18  C   UNL A   1      33.404  25.773  22.224  1.00  0.00     0.014 A 
ATOM     19  C   UNL A   1      32.989  27.069  22.529  1.00  0.00     0.001 A 
BRANCH  10  20
ATOM     20  C   UNL A   1      36.995  23.212  25.616  1.00  0.00    -0.024 A 
ATOM     21  C   UNL A   1      41.101  22.187  26.551  1.00  0.00     0.044 C 
ATOM     22  C   UNL A   1      39.637  22.461  26.382  1.00  0.00    -0.051 A 
ATOM     23  C   UNL A   1      39.081  23.677  26.776  1.00  0.00     0.004 A 
ATOM     24  C   UNL A   1      38.817  21.544  25.736  1.00  0.00     0.004 A 
ATOM     25  C   UNL A   1      37.765  24.030  26.432  1.00  0.00     0.006 A 
ATOM     26  C   UNL A   1      37.526  21.920  25.348  1.00  0.00     0.006 A 
ENDBRANCH  10  20
BRANCH  11  27
ATOM     27  C   UNL A   1      34.101  21.675  24.238  1.00  0.00     0.045 A 
ATOM     28  C   UNL A   1      34.636  20.504  24.813  1.00  0.00     0.026 A 
ATOM     29  C   UNL A   1      32.787  21.583  23.810  1.00  0.00     0.026 A 
ATOM     30  C   UNL A   1      33.906  19.310  24.916  1.00  0.00     0.002 A 
ATOM     31  C   UNL A   1      32.111  20.364  23.804  1.00  0.00     0.002 A 
ATOM     32  C   UNL A   1      32.624  19.243  24.413  1.00  0.00     0.000 A 
ENDBRANCH  11  27
ENDBRANCH   7   9
ENDBRANCH   6   7
ENDBRANCH   5   6
ENDBRANCH   4   5
ENDBRANCH   3   4
ENDBRANCH   2   3
ENDBRANCH   1   2
BRANCH   1  33
ATOM     33  O   UNL A   1      32.526  29.123  26.961  1.00  0.00    -0.376 OA
BRANCH  33  34
ATOM     34  C   UNL A   1      32.019  30.218  26.181  1.00  0.00     0.202 C 
BRANCH  34  35
ATOM     35  C   UNL A   1      32.129  31.566  26.901  1.00  0.00     0.261 C 
BRANCH  35  36
ATOM     36  O   UNL A   1      33.397  31.586  27.581  1.00  0.00    -0.460 OA
BRANCH  36  37
ATOM     37  C   UNL A   1      33.689  32.801  28.088  1.00  0.00     0.338 C 
ATOM     38  O   UNL A   1      33.207  33.856  27.702  1.00  0.00    -0.246 OA
BRANCH  37  39
ATOM     39  C   UNL A   1      34.888  32.690  28.960  1.00  0.00     0.060 A 
ATOM     40  C   UNL A   1      36.076  32.670  28.295  1.00  0.00     0.016 A 
ATOM     41  C   UNL A   1      34.922  32.413  30.334  1.00  0.00     0.016 A 
ATOM     42  C   UNL A   1      37.224  32.294  28.999  1.00  0.00     0.010 A 
ATOM     43  C   UNL A   1      36.124  31.981  30.990  1.00  0.00     0.010 A 
ATOM     44  C   UNL A   1      37.334  31.829  30.306  1.00  0.00    -0.014 A 
BRANCH  44  45
ATOM     45  C   UNL A   1      38.594  31.147  30.962  1.00  0.00     0.031 A 
ATOM     46  C   UNL A   1      38.741  29.706  30.602  1.00  0.00     0.074 A 
ATOM     47  C   UNL A   1      39.677  31.599  31.746  1.00  0.00     0.049 A 
ATOM     48  N   UNL A   1      39.626  28.901  31.098  1.00  0.00    -0.248 NA
ATOM     49  C   UNL A   1      37.811  29.013  29.697  1.00  0.00     0.031 C 
ATOM     50  C   UNL A   1      41.082  31.319  31.419  1.00  0.00     0.029 A 
ATOM     51  N   UNL A   1      39.886  32.479  32.858  1.00  0.00    -0.354 N 
ATOM     52  C   UNL A   1      39.746  27.926  30.137  1.00  0.00     0.074 A 
ATOM     53  C   UNL A   1      38.431  27.837  29.572  1.00  0.00     0.031 C 
ATOM     54  C   UNL A   1      41.915  31.870  32.326  1.00  0.00     0.029 A 
ATOM     55  C   UNL A   1      41.167  32.483  33.412  1.00  0.00     0.049 A 
ATOM     56  H   UNL A   1      39.166  33.047  33.212  1.00  0.00     0.167 HD
ATOM     57  C   UNL A   1      40.995  27.646  29.660  1.00  0.00     0.037 A 
ATOM     58  C   UNL A   1      41.500  32.576  34.751  1.00  0.00     0.037 A 
ATOM     59  C   UNL A   1      42.069  28.078  30.584  1.00  0.00     0.049 A 
ATOM     60  C   UNL A   1      42.141  31.262  35.181  1.00  0.00     0.074 A 
ATOM     61  C   UNL A   1      43.248  28.802  30.480  1.00  0.00     0.029 A 
ATOM     62  N   UNL A   1      41.898  27.890  31.949  1.00  0.00    -0.354 N 
ATOM     63  N   UNL A   1      42.641  30.427  34.318  1.00  0.00    -0.248 NA
ATOM     64  C   UNL A   1      42.138  30.687  36.533  1.00  0.00     0.031 C 
ATOM     65  C   UNL A   1      43.812  28.951  31.783  1.00  0.00     0.029 A 
ATOM     66  C   UNL A   1      42.985  28.310  32.683  1.00  0.00     0.049 A 
ATOM     67  H   UNL A   1      41.087  27.499  32.349  1.00  0.00     0.167 HD
ATOM     68  C   UNL A   1      42.744  29.193  34.887  1.00  0.00     0.074 A 
ATOM     69  C   UNL A   1      42.460  29.406  36.289  1.00  0.00     0.031 C 
ATOM     70  C   UNL A   1      42.973  28.091  34.123  1.00  0.00     0.037 A 
BRANCH  57  71
ATOM     71  C   UNL A   1      41.261  27.185  28.226  1.00  0.00     0.057 A 
ATOM     72  C   UNL A   1      41.995  26.006  27.992  1.00  0.00     0.134 A 
ATOM     73  C   UNL A   1      40.936  27.883  27.038  1.00  0.00     0.134 A 
ATOM     74  F   UNL A   1      42.366  25.196  28.992  1.00  0.00    -0.206 F 
ATOM     75  C   UNL A   1      42.399  25.586  26.714  1.00  0.00     0.040 A 
ATOM     76  C   UNL A   1      41.277  27.439  25.752  1.00  0.00     0.040 A 
ATOM     77  F   UNL A   1      40.314  29.064  27.019  1.00  0.00    -0.206 F 
ATOM     78  C   UNL A   1      42.030  26.295  25.584  1.00  0.00     0.006 A 
ENDBRANCH  57  71
BRANCH  58  79
ATOM     79  C   UNL A   1      40.866  33.540  35.741  1.00  0.00     0.057 A 
ATOM     80  C   UNL A   1      39.611  33.247  36.314  1.00  0.00     0.134 A 
ATOM     81  C   UNL A   1      41.399  34.773  36.153  1.00  0.00     0.134 A 
ATOM     82  F   UNL A   1      38.971  32.117  35.983  1.00  0.00    -0.206 F 
ATOM     83  C   UNL A   1      38.980  34.075  37.275  1.00  0.00     0.040 A 
ATOM     84  C   UNL A   1      40.777  35.627  37.092  1.00  0.00     0.040 A 
ATOM     85  F   UNL A   1      42.585  35.176  35.696  1.00  0.00    -0.206 F 
ATOM     86  C   UNL A   1      39.571  35.268  37.679  1.00  0.00     0.006 A 
ENDBRANCH  58  79
BRANCH  70  87
ATOM     87  C   UNL A   1      43.189  26.711  34.669  1.00  0.00     0.057 A 
ATOM     88  C   UNL A   1      44.426  26.058  34.595  1.00  0.00     0.134 A 
ATOM     89  C   UNL A   1      42.113  25.920  35.126  1.00  0.00     0.134 A 
ATOM     90  F   UNL A   1      45.513  26.672  34.105  1.00  0.00    -0.206 F 
ATOM     91  C   UNL A   1      44.586  24.720  34.971  1.00  0.00     0.040 A 
ATOM     92  C   UNL A   1      42.250  24.571  35.447  1.00  0.00     0.040 A 
ATOM     93  F   UNL A   1      40.879  26.416  35.289  1.00  0.00    -0.206 F 
ATOM     94  C   UNL A   1      43.493  23.966  35.379  1.00  0.00     0.006 A 
ENDBRANCH  70  87
ENDBRANCH  44  45
ENDBRANCH  37  39
ENDBRANCH  36  37
ENDBRANCH  35  36
ENDBRANCH  34  35
ENDBRANCH  33  34
ENDBRANCH   1  33
TORSDOF 19
ENDMDL
MODEL 3
REMARK VINA RESULT:     -11.4      1.104      3.276
REMARK SMILES Cc1ccc([C@@H]2[C@H](C(=O)OCCOCCOCCOC(=O)c3ccc(-c4c5nc(c(-c6c(F)cccc6F)c6ccc([nH]6)c(-c6c(F)cccc6F)c6nc(c(-c7c(F)cccc7F)c7ccc4[nH]7)C=C6)C=C5)cc3)c3ccccc3C(=O)N2c2ccccc2)cc1
REMARK SMILES IDX 15 1 14 2 13 3 12 4 11 5 10 6 8 7 9 8 7 9 6 10 84 11 76 12
REMARK SMILES IDX 82 13 77 14 81 15 83 16 78 17 80 18 79 19 5 20 1 21 2 22
REMARK SMILES IDX 3 23 92 24 4 25 91 26 85 27 86 28 90 29 87 30 89 31 88 32
REMARK SMILES IDX 16 33 17 34 18 35 19 36 20 37 21 38 22 39 23 40 75 41 24 42
REMARK SMILES IDX 74 43 25 44 26 45 27 46 68 47 28 48 73 49 67 50 69 51 29 52
REMARK SMILES IDX 72 53 66 54 65 55 30 57 56 58 39 59 55 60 40 61 43 62 54 63
REMARK SMILES IDX 70 64 41 65 42 66 53 68 71 69 44 70 31 71 32 72 37 73 33 74
REMARK SMILES IDX 34 75 36 76 38 77 35 78 57 79 58 80 63 81 59 82 60 83 62 84
REMARK SMILES IDX 64 85 61 86 45 87 46 88 51 89 47 90 48 91 50 92 52 93 49 94
REMARK H PARENT 69 56 43 67
REMARK Flexibility Score: inf
ROOT
ATOM      1  C   UNL A   1      36.040  23.737  25.301  1.00  0.00     0.188 C 
ENDROOT
BRANCH   1   2
ATOM      2  C   UNL A   1      34.827  22.892  25.689  1.00  0.00     0.188 C 
BRANCH   2   3
ATOM      3  O   UNL A   1      33.634  23.651  25.766  1.00  0.00    -0.376 OA
BRANCH   3   4
ATOM      4  C   UNL A   1      32.647  23.083  26.642  1.00  0.00     0.202 C 
BRANCH   4   5
ATOM      5  C   UNL A   1      31.388  23.967  26.873  1.00  0.00     0.261 C 
BRANCH   5   6
ATOM      6  O   UNL A   1      31.162  25.527  26.571  1.00  0.00    -0.463 OA
BRANCH   6   7
ATOM      7  C   UNL A   1      30.735  26.344  25.505  1.00  0.00     0.316 C 
ATOM      8  O   UNL A   1      30.562  27.552  25.698  1.00  0.00    -0.251 OA
BRANCH   7   9
ATOM      9  C   UNL A   1      30.690  25.904  23.986  1.00  0.00     0.157 C 
ATOM     10  C   UNL A   1      31.176  27.046  23.068  1.00  0.00     0.140 C 
ATOM     11  N   UNL A   1      32.644  27.151  23.185  1.00  0.00    -0.300 N 
ATOM     12  C   UNL A   1      31.343  24.640  23.379  1.00  0.00    -0.019 A 
ATOM     13  C   UNL A   1      33.290  26.054  22.568  1.00  0.00     0.259 C 
ATOM     14  C   UNL A   1      30.685  23.388  23.373  1.00  0.00     0.005 A 
ATOM     15  C   UNL A   1      32.613  24.724  22.763  1.00  0.00     0.044 A 
ATOM     16  O   UNL A   1      34.360  26.113  21.956  1.00  0.00    -0.269 OA
ATOM     17  C   UNL A   1      31.356  22.231  22.953  1.00  0.00     0.000 A 
ATOM     18  C   UNL A   1      33.267  23.562  22.327  1.00  0.00     0.014 A 
ATOM     19  C   UNL A   1      32.655  22.316  22.458  1.00  0.00     0.001 A 
BRANCH  10  20
ATOM     20  C   UNL A   1      30.169  28.161  22.781  1.00  0.00    -0.024 A 
ATOM     21  C   UNL A   1      27.275  31.354  23.240  1.00  0.00     0.044 C 
ATOM     22  C   UNL A   1      28.210  30.229  22.915  1.00  0.00    -0.051 A 
ATOM     23  C   UNL A   1      29.503  30.477  22.455  1.00  0.00     0.004 A 
ATOM     24  C   UNL A   1      27.843  28.911  23.160  1.00  0.00     0.004 A 
ATOM     25  C   UNL A   1      30.456  29.449  22.351  1.00  0.00     0.006 A 
ATOM     26  C   UNL A   1      28.810  27.901  23.108  1.00  0.00     0.006 A 
ENDBRANCH  10  20
BRANCH  11  27
ATOM     27  C   UNL A   1      33.348  27.732  24.311  1.00  0.00     0.045 A 
ATOM     28  C   UNL A   1      33.947  26.922  25.298  1.00  0.00     0.026 A 
ATOM     29  C   UNL A   1      33.274  29.082  24.612  1.00  0.00     0.026 A 
ATOM     30  C   UNL A   1      34.408  27.435  26.520  1.00  0.00     0.002 A 
ATOM     31  C   UNL A   1      33.620  29.564  25.873  1.00  0.00     0.002 A 
ATOM     32  C   UNL A   1      34.250  28.774  26.807  1.00  0.00     0.000 A 
ENDBRANCH  11  27
ENDBRANCH   7   9
ENDBRANCH   6   7
ENDBRANCH   5   6
ENDBRANCH   4   5
ENDBRANCH   3   4
ENDBRANCH   2   3
ENDBRANCH   1   2
BRANCH   1  33
ATOM     33  O   UNL A   1      37.265  22.997  25.271  1.00  0.00    -0.376 OA
BRANCH  33  34
ATOM     34  C   UNL A   1      37.077  21.649  24.815  1.00  0.00     0.202 C 
BRANCH  34  35
ATOM     35  C   UNL A   1      38.208  20.709  25.248  1.00  0.00     0.261 C 
BRANCH  35  36
ATOM     36  O   UNL A   1      39.054  21.446  26.149  1.00  0.00    -0.460 OA
BRANCH  36  37
ATOM     37  C   UNL A   1      40.307  20.949  26.198  1.00  0.00     0.338 C 
ATOM     38  O   UNL A   1      40.592  19.760  26.179  1.00  0.00    -0.246 OA
BRANCH  37  39
ATOM     39  C   UNL A   1      41.247  22.035  26.580  1.00  0.00     0.060 A 
ATOM     40  C   UNL A   1      41.047  22.551  27.824  1.00  0.00     0.016 A 
ATOM     41  C   UNL A   1      42.162  22.702  25.754  1.00  0.00     0.016 A 
ATOM     42  C   UNL A   1      41.691  23.746  28.159  1.00  0.00     0.010 A 
ATOM     43  C   UNL A   1      42.753  23.955  26.133  1.00  0.00     0.010 A 
ATOM     44  C   UNL A   1      42.468  24.574  27.355  1.00  0.00    -0.014 A 
BRANCH  44  45
ATOM     45  C   UNL A   1      42.932  26.044  27.683  1.00  0.00     0.031 A 
ATOM     46  C   UNL A   1      41.842  27.053  27.543  1.00  0.00     0.074 A 
ATOM     47  C   UNL A   1      44.121  26.629  28.169  1.00  0.00     0.049 A 
ATOM     48  N   UNL A   1      41.995  28.335  27.649  1.00  0.00    -0.248 NA
ATOM     49  C   UNL A   1      40.467  26.692  27.165  1.00  0.00     0.031 C 
ATOM     50  C   UNL A   1      44.159  27.548  29.314  1.00  0.00     0.029 A 
ATOM     51  N   UNL A   1      45.532  26.500  27.951  1.00  0.00    -0.354 N 
ATOM     52  C   UNL A   1      40.742  28.780  27.992  1.00  0.00     0.074 A 
ATOM     53  C   UNL A   1      39.858  27.871  27.322  1.00  0.00     0.031 C 
ATOM     54  C   UNL A   1      45.419  27.956  29.574  1.00  0.00     0.029 A 
ATOM     55  C   UNL A   1      46.344  27.447  28.575  1.00  0.00     0.049 A 
ATOM     56  H   UNL A   1      45.907  25.783  27.389  1.00  0.00     0.167 HD
ATOM     57  C   UNL A   1      40.621  29.556  29.110  1.00  0.00     0.037 A 
ATOM     58  C   UNL A   1      47.482  28.042  28.062  1.00  0.00     0.037 A 
ATOM     59  C   UNL A   1      41.896  30.198  29.500  1.00  0.00     0.049 A 
ATOM     60  C   UNL A   1      47.202  29.527  27.863  1.00  0.00     0.074 A 
ATOM     61  C   UNL A   1      42.634  30.333  30.668  1.00  0.00     0.029 A 
ATOM     62  N   UNL A   1      42.723  30.710  28.508  1.00  0.00    -0.354 N 
ATOM     63  N   UNL A   1      46.225  30.129  28.474  1.00  0.00    -0.248 NA
ATOM     64  C   UNL A   1      47.837  30.415  26.879  1.00  0.00     0.031 C 
ATOM     65  C   UNL A   1      43.854  31.012  30.365  1.00  0.00     0.029 A 
ATOM     66  C   UNL A   1      43.857  31.303  29.016  1.00  0.00     0.049 A 
ATOM     67  H   UNL A   1      42.520  30.654  27.546  1.00  0.00     0.167 HD
ATOM     68  C   UNL A   1      45.923  31.286  27.821  1.00  0.00     0.074 A 
ATOM     69  C   UNL A   1      46.984  31.452  26.852  1.00  0.00     0.031 C 
ATOM     70  C   UNL A   1      44.770  31.956  28.088  1.00  0.00     0.037 A 
BRANCH  57  71
ATOM     71  C   UNL A   1      39.380  29.549  30.006  1.00  0.00     0.057 A 
ATOM     72  C   UNL A   1      39.307  28.660  31.096  1.00  0.00     0.134 A 
ATOM     73  C   UNL A   1      38.189  30.288  29.809  1.00  0.00     0.134 A 
ATOM     74  F   UNL A   1      40.348  27.899  31.456  1.00  0.00    -0.206 F 
ATOM     75  C   UNL A   1      38.155  28.493  31.882  1.00  0.00     0.040 A 
ATOM     76  C   UNL A   1      37.056  30.178  30.629  1.00  0.00     0.040 A 
ATOM     77  F   UNL A   1      38.000  31.131  28.792  1.00  0.00    -0.206 F 
ATOM     78  C   UNL A   1      37.026  29.263  31.660  1.00  0.00     0.006 A 
ENDBRANCH  57  71
BRANCH  58  79
ATOM     79  C   UNL A   1      48.588  27.312  27.317  1.00  0.00     0.057 A 
ATOM     80  C   UNL A   1      48.441  27.007  25.947  1.00  0.00     0.134 A 
ATOM     81  C   UNL A   1      49.794  26.851  27.870  1.00  0.00     0.134 A 
ATOM     82  F   UNL A   1      47.322  27.358  25.299  1.00  0.00    -0.206 F 
ATOM     83  C   UNL A   1      49.445  26.368  25.178  1.00  0.00     0.040 A 
ATOM     84  C   UNL A   1      50.800  26.190  27.129  1.00  0.00     0.040 A 
ATOM     85  F   UNL A   1      50.071  27.074  29.155  1.00  0.00    -0.206 F 
ATOM     86  C   UNL A   1      50.640  25.967  25.767  1.00  0.00     0.006 A 
ENDBRANCH  58  79
BRANCH  70  87
ATOM     87  C   UNL A   1      44.399  33.279  27.484  1.00  0.00     0.057 A 
ATOM     88  C   UNL A   1      44.251  34.441  28.252  1.00  0.00     0.134 A 
ATOM     89  C   UNL A   1      44.000  33.389  26.135  1.00  0.00     0.134 A 
ATOM     90  F   UNL A   1      44.521  34.451  29.565  1.00  0.00    -0.206 F 
ATOM     91  C   UNL A   1      43.764  35.635  27.709  1.00  0.00     0.040 A 
ATOM     92  C   UNL A   1      43.458  34.556  25.600  1.00  0.00     0.040 A 
ATOM     93  F   UNL A   1      44.120  32.375  25.268  1.00  0.00    -0.206 F 
ATOM     94  C   UNL A   1      43.345  35.690  26.386  1.00  0.00     0.006 A 
ENDBRANCH  70  87
ENDBRANCH  44  45
ENDBRANCH  37  39
ENDBRANCH  36  37
ENDBRANCH  35  36
ENDBRANCH  34  35
ENDBRANCH  33  34
ENDBRANCH   1  33
TORSDOF 19
ENDMDL
