MODEL 1
REMARK VINA RESULT:     -11.2      0.000      0.000
REMARK SMILES Cc1oc(C)c(C(=O)Nc2cc(C(=O)OCCOCCOCCOC(=O)c3ccc(-c4c5nc(c(-c6c(F)cccc6F)c6ccc([nH]6)c(-c6c(F)cccc6F)c6nc(c(-c7c(F)cccc7F)c7ccc4[nH]7)C=C6)C=C5)cc3)ccc2Cl)c1C
REMARK SMILES IDX 19 1 18 2 17 3 16 4 15 5 13 6 14 7 12 8 10 9 11 10 83 11
REMARK SMILES IDX 82 12 84 13 81 14 9 15 7 16 8 17 6 19 1 20 2 21 3 22 85 23
REMARK SMILES IDX 4 24 86 25 5 26 20 27 21 28 22 29 23 30 24 31 25 32 26 33
REMARK SMILES IDX 27 34 28 35 80 36 29 37 79 38 30 39 31 40 32 41 73 42 33 43
REMARK SMILES IDX 78 44 72 45 74 46 34 47 77 48 71 49 70 50 35 52 61 53 44 54
REMARK SMILES IDX 60 55 45 56 48 57 59 58 75 59 46 60 47 61 58 63 76 64 49 65
REMARK SMILES IDX 36 66 37 67 42 68 38 69 39 70 41 71 43 72 40 73 62 74 63 75
REMARK SMILES IDX 68 76 64 77 65 78 67 79 69 80 66 81 50 82 51 83 56 84 52 85
REMARK SMILES IDX 53 86 55 87 57 88 54 89
REMARK H PARENT 9 18 74 51 48 62
REMARK Flexibility Score: inf
ROOT
ATOM      1  C   UNL A   1      39.323  21.762  26.135  1.00  0.00     0.188 C 
ENDROOT
BRANCH   1   2
ATOM      2  O   UNL A   1      38.529  22.918  26.259  1.00  0.00    -0.376 OA
BRANCH   2   3
ATOM      3  C   UNL A   1      37.370  23.097  25.458  1.00  0.00     0.202 C 
BRANCH   3   4
ATOM      4  C   UNL A   1      36.968  22.198  24.271  1.00  0.00     0.261 C 
BRANCH   4   5
ATOM      5  O   UNL A   1      35.594  21.802  24.223  1.00  0.00    -0.460 OA
BRANCH   5   6
ATOM      6  C   UNL A   1      34.751  22.726  23.716  1.00  0.00     0.338 C 
ATOM      7  O   UNL A   1      34.871  23.323  22.653  1.00  0.00    -0.246 OA
BRANCH   6   8
ATOM      8  C   UNL A   1      33.499  22.793  24.500  1.00  0.00     0.062 A 
ATOM      9  C   UNL A   1      31.299  23.793  24.636  1.00  0.00     0.061 A 
ATOM     10  C   UNL A   1      32.407  23.420  23.879  1.00  0.00     0.043 A 
ATOM     11  C   UNL A   1      31.188  23.359  25.965  1.00  0.00     0.064 A 
ATOM     12  C   UNL A   1      32.218  22.598  26.538  1.00  0.00     0.023 A 
ATOM     13  Cl  UNL A   1      29.788  23.692  26.914  1.00  0.00    -0.082 Cl
ATOM     14  C   UNL A   1      33.393  22.341  25.819  1.00  0.00     0.017 A 
BRANCH   9  15
ATOM     15  N   UNL A   1      30.419  24.692  24.017  1.00  0.00    -0.320 N 
ATOM     16  C   UNL A   1      30.583  26.054  23.818  1.00  0.00     0.259 C 
ATOM     17  O   UNL A   1      29.665  26.643  23.245  1.00  0.00    -0.269 OA
ATOM     18  H   UNL A   1      29.578  24.307  23.680  1.00  0.00     0.170 HD
BRANCH  16  19
ATOM     19  C   UNL A   1      31.794  26.750  24.262  1.00  0.00     0.084 A 
ATOM     20  C   UNL A   1      34.005  29.027  26.156  1.00  0.00     0.088 C 
ATOM     21  C   UNL A   1      33.292  28.062  25.297  1.00  0.00     0.104 A 
ATOM     22  O   UNL A   1      33.734  27.892  24.030  1.00  0.00    -0.466 OA
ATOM     23  C   UNL A   1      32.268  27.176  25.554  1.00  0.00     0.003 A 
ATOM     24  C   UNL A   1      32.891  26.995  23.442  1.00  0.00     0.114 A 
ATOM     25  C   UNL A   1      31.861  26.804  26.925  1.00  0.00     0.049 C 
ATOM     26  C   UNL A   1      33.349  26.474  22.137  1.00  0.00     0.088 C 
ENDBRANCH  16  19
ENDBRANCH   9  15
ENDBRANCH   6   8
ENDBRANCH   5   6
ENDBRANCH   4   5
ENDBRANCH   3   4
ENDBRANCH   2   3
ENDBRANCH   1   2
BRANCH   1  27
ATOM     27  C   UNL A   1      40.414  21.473  27.189  1.00  0.00     0.188 C 
BRANCH  27  28
ATOM     28  O   UNL A   1      40.767  20.169  27.605  1.00  0.00    -0.376 OA
BRANCH  28  29
ATOM     29  C   UNL A   1      42.055  19.602  27.416  1.00  0.00     0.202 C 
BRANCH  29  30
ATOM     30  C   UNL A   1      42.649  19.245  26.057  1.00  0.00     0.261 C 
BRANCH  30  31
ATOM     31  O   UNL A   1      43.041  20.358  25.288  1.00  0.00    -0.460 OA
BRANCH  31  32
ATOM     32  C   UNL A   1      44.223  20.173  24.668  1.00  0.00     0.338 C 
ATOM     33  O   UNL A   1      44.680  19.134  24.225  1.00  0.00    -0.246 OA
BRANCH  32  34
ATOM     34  C   UNL A   1      44.904  21.468  24.585  1.00  0.00     0.060 A 
ATOM     35  C   UNL A   1      45.876  21.677  25.562  1.00  0.00     0.016 A 
ATOM     36  C   UNL A   1      44.225  22.507  23.940  1.00  0.00     0.016 A 
ATOM     37  C   UNL A   1      45.848  22.887  26.196  1.00  0.00     0.010 A 
ATOM     38  C   UNL A   1      44.180  23.705  24.588  1.00  0.00     0.010 A 
ATOM     39  C   UNL A   1      44.890  23.817  25.780  1.00  0.00    -0.014 A 
BRANCH  39  40
ATOM     40  C   UNL A   1      44.683  24.979  26.601  1.00  0.00     0.031 A 
ATOM     41  C   UNL A   1      45.844  25.876  26.523  1.00  0.00     0.074 A 
ATOM     42  C   UNL A   1      43.529  25.182  27.264  1.00  0.00     0.049 A 
ATOM     43  N   UNL A   1      46.745  26.054  27.428  1.00  0.00    -0.248 NA
ATOM     44  C   UNL A   1      46.191  26.432  25.205  1.00  0.00     0.031 C 
ATOM     45  C   UNL A   1      42.283  24.413  27.163  1.00  0.00     0.029 A 
ATOM     46  N   UNL A   1      43.198  26.193  28.112  1.00  0.00    -0.354 N 
ATOM     47  C   UNL A   1      47.622  26.974  26.871  1.00  0.00     0.074 A 
ATOM     48  C   UNL A   1      47.390  26.958  25.454  1.00  0.00     0.031 C 
ATOM     49  C   UNL A   1      41.276  25.114  27.735  1.00  0.00     0.029 A 
ATOM     50  C   UNL A   1      41.832  26.300  28.360  1.00  0.00     0.049 A 
ATOM     51  H   UNL A   1      43.864  26.796  28.513  1.00  0.00     0.167 HD
ATOM     52  C   UNL A   1      48.175  27.933  27.658  1.00  0.00     0.037 A 
ATOM     53  C   UNL A   1      41.225  27.332  28.994  1.00  0.00     0.037 A 
ATOM     54  C   UNL A   1      48.039  27.586  29.052  1.00  0.00     0.049 A 
ATOM     55  C   UNL A   1      42.260  28.035  29.787  1.00  0.00     0.074 A 
ATOM     56  C   UNL A   1      48.618  26.682  29.915  1.00  0.00     0.029 A 
ATOM     57  N   UNL A   1      46.848  27.980  29.606  1.00  0.00    -0.354 N 
ATOM     58  N   UNL A   1      42.835  27.507  30.831  1.00  0.00    -0.248 NA
ATOM     59  C   UNL A   1      42.959  29.174  29.202  1.00  0.00     0.031 C 
ATOM     60  C   UNL A   1      47.647  26.421  30.926  1.00  0.00     0.029 A 
ATOM     61  C   UNL A   1      46.518  27.202  30.681  1.00  0.00     0.049 A 
ATOM     62  H   UNL A   1      46.301  28.728  29.273  1.00  0.00     0.167 HD
ATOM     63  C   UNL A   1      44.144  27.949  30.764  1.00  0.00     0.074 A 
ATOM     64  C   UNL A   1      44.117  29.095  29.864  1.00  0.00     0.031 C 
ATOM     65  C   UNL A   1      45.163  27.146  31.182  1.00  0.00     0.037 A 
BRANCH  52  66
ATOM     66  C   UNL A   1      48.325  29.374  27.228  1.00  0.00     0.057 A 
ATOM     67  C   UNL A   1      49.577  29.993  27.388  1.00  0.00     0.134 A 
ATOM     68  C   UNL A   1      47.253  30.256  26.965  1.00  0.00     0.134 A 
ATOM     69  F   UNL A   1      50.671  29.268  27.662  1.00  0.00    -0.206 F 
ATOM     70  C   UNL A   1      49.734  31.384  27.352  1.00  0.00     0.040 A 
ATOM     71  C   UNL A   1      47.409  31.640  26.877  1.00  0.00     0.040 A 
ATOM     72  F   UNL A   1      45.981  29.851  26.885  1.00  0.00    -0.206 F 
ATOM     73  C   UNL A   1      48.648  32.213  27.102  1.00  0.00     0.006 A 
ENDBRANCH  52  66
BRANCH  53  74
ATOM     74  C   UNL A   1      39.883  27.910  28.775  1.00  0.00     0.057 A 
ATOM     75  C   UNL A   1      38.917  27.927  29.791  1.00  0.00     0.134 A 
ATOM     76  C   UNL A   1      39.623  28.721  27.658  1.00  0.00     0.134 A 
ATOM     77  F   UNL A   1      39.097  27.215  30.913  1.00  0.00    -0.206 F 
ATOM     78  C   UNL A   1      37.770  28.728  29.714  1.00  0.00     0.040 A 
ATOM     79  C   UNL A   1      38.482  29.526  27.568  1.00  0.00     0.040 A 
ATOM     80  F   UNL A   1      40.516  28.828  26.664  1.00  0.00    -0.206 F 
ATOM     81  C   UNL A   1      37.557  29.542  28.605  1.00  0.00     0.006 A 
ENDBRANCH  53  74
BRANCH  65  82
ATOM     82  C   UNL A   1      44.803  26.025  32.109  1.00  0.00     0.057 A 
ATOM     83  C   UNL A   1      44.522  24.714  31.701  1.00  0.00     0.134 A 
ATOM     84  C   UNL A   1      44.812  26.279  33.484  1.00  0.00     0.134 A 
ATOM     85  F   UNL A   1      44.567  24.368  30.408  1.00  0.00    -0.206 F 
ATOM     86  C   UNL A   1      44.221  23.710  32.624  1.00  0.00     0.040 A 
ATOM     87  C   UNL A   1      44.544  25.278  34.418  1.00  0.00     0.040 A 
ATOM     88  F   UNL A   1      45.115  27.503  33.942  1.00  0.00    -0.206 F 
ATOM     89  C   UNL A   1      44.235  23.990  33.988  1.00  0.00     0.006 A 
ENDBRANCH  65  82
ENDBRANCH  39  40
ENDBRANCH  32  34
ENDBRANCH  31  32
ENDBRANCH  30  31
ENDBRANCH  29  30
ENDBRANCH  28  29
ENDBRANCH  27  28
ENDBRANCH   1  27
TORSDOF 19
ENDMDL
MODEL 2
REMARK VINA RESULT:     -10.9      5.063     10.411
REMARK SMILES Cc1oc(C)c(C(=O)Nc2cc(C(=O)OCCOCCOCCOC(=O)c3ccc(-c4c5nc(c(-c6c(F)cccc6F)c6ccc([nH]6)c(-c6c(F)cccc6F)c6nc(c(-c7c(F)cccc7F)c7ccc4[nH]7)C=C6)C=C5)cc3)ccc2Cl)c1C
REMARK SMILES IDX 19 1 18 2 17 3 16 4 15 5 13 6 14 7 12 8 10 9 11 10 83 11
REMARK SMILES IDX 82 12 84 13 81 14 9 15 7 16 8 17 6 19 1 20 2 21 3 22 85 23
REMARK SMILES IDX 4 24 86 25 5 26 20 27 21 28 22 29 23 30 24 31 25 32 26 33
REMARK SMILES IDX 27 34 28 35 80 36 29 37 79 38 30 39 31 40 32 41 73 42 33 43
REMARK SMILES IDX 78 44 72 45 74 46 34 47 77 48 71 49 70 50 35 52 61 53 44 54
REMARK SMILES IDX 60 55 45 56 48 57 59 58 75 59 46 60 47 61 58 63 76 64 49 65
REMARK SMILES IDX 36 66 37 67 42 68 38 69 39 70 41 71 43 72 40 73 62 74 63 75
REMARK SMILES IDX 68 76 64 77 65 78 67 79 69 80 66 81 50 82 51 83 56 84 52 85
REMARK SMILES IDX 53 86 55 87 57 88 54 89
REMARK H PARENT 9 18 74 51 48 62
REMARK Flexibility Score: inf
ROOT
ATOM      1  C   UNL A   1      34.339  33.148  28.622  1.00  0.00     0.188 C 
ENDROOT
BRANCH   1   2
ATOM      2  O   UNL A   1      34.807  32.103  27.802  1.00  0.00    -0.376 OA
BRANCH   2   3
ATOM      3  C   UNL A   1      34.104  30.872  27.718  1.00  0.00     0.202 C 
BRANCH   3   4
ATOM      4  C   UNL A   1      34.670  29.568  27.121  1.00  0.00     0.261 C 
BRANCH   4   5
ATOM      5  O   UNL A   1      33.710  28.560  26.792  1.00  0.00    -0.460 OA
BRANCH   5   6
ATOM      6  C   UNL A   1      33.116  28.709  25.590  1.00  0.00     0.338 C 
ATOM      7  O   UNL A   1      33.234  29.660  24.826  1.00  0.00    -0.246 OA
BRANCH   6   8
ATOM      8  C   UNL A   1      32.449  27.459  25.165  1.00  0.00     0.062 A 
ATOM      9  C   UNL A   1      32.672  25.448  23.837  1.00  0.00     0.061 A 
ATOM     10  C   UNL A   1      33.258  26.505  24.530  1.00  0.00     0.043 A 
ATOM     11  C   UNL A   1      31.292  25.225  23.951  1.00  0.00     0.064 A 
ATOM     12  C   UNL A   1      30.505  26.098  24.717  1.00  0.00     0.023 A 
ATOM     13  Cl  UNL A   1      30.528  23.867  23.212  1.00  0.00    -0.082 Cl
ATOM     14  C   UNL A   1      31.074  27.239  25.299  1.00  0.00     0.017 A 
BRANCH   9  15
ATOM     15  N   UNL A   1      33.522  24.746  22.971  1.00  0.00    -0.320 N 
ATOM     16  C   UNL A   1      34.353  23.677  23.265  1.00  0.00     0.259 C 
ATOM     17  O   UNL A   1      35.014  23.218  22.333  1.00  0.00    -0.269 OA
ATOM     18  H   UNL A   1      33.528  25.051  22.035  1.00  0.00     0.170 HD
BRANCH  16  19
ATOM     19  C   UNL A   1      34.430  23.119  24.619  1.00  0.00     0.084 A 
ATOM     20  C   UNL A   1      33.376  21.790  27.903  1.00  0.00     0.088 C 
ATOM     21  C   UNL A   1      33.990  22.289  26.657  1.00  0.00     0.104 A 
ATOM     22  O   UNL A   1      35.175  22.936  26.748  1.00  0.00    -0.466 OA
ATOM     23  C   UNL A   1      33.638  22.150  25.332  1.00  0.00     0.003 A 
ATOM     24  C   UNL A   1      35.500  23.330  25.483  1.00  0.00     0.114 A 
ATOM     25  C   UNL A   1      32.655  21.147  24.870  1.00  0.00     0.049 C 
ATOM     26  C   UNL A   1      36.883  23.826  25.322  1.00  0.00     0.088 C 
ENDBRANCH  16  19
ENDBRANCH   9  15
ENDBRANCH   6   8
ENDBRANCH   5   6
ENDBRANCH   4   5
ENDBRANCH   3   4
ENDBRANCH   2   3
ENDBRANCH   1   2
BRANCH   1  27
ATOM     27  C   UNL A   1      33.546  34.313  27.988  1.00  0.00     0.188 C 
BRANCH  27  28
ATOM     28  O   UNL A   1      32.598  35.084  28.697  1.00  0.00    -0.376 OA
BRANCH  28  29
ATOM     29  C   UNL A   1      32.847  36.397  29.174  1.00  0.00     0.202 C 
BRANCH  29  30
ATOM     30  C   UNL A   1      33.282  36.730  30.599  1.00  0.00     0.261 C 
BRANCH  30  31
ATOM     31  O   UNL A   1      34.027  35.713  31.225  1.00  0.00    -0.460 OA
BRANCH  31  32
ATOM     32  C   UNL A   1      33.346  35.102  32.215  1.00  0.00     0.338 C 
ATOM     33  O   UNL A   1      32.137  35.023  32.352  1.00  0.00    -0.246 OA
BRANCH  32  34
ATOM     34  C   UNL A   1      34.315  34.505  33.138  1.00  0.00     0.060 A 
ATOM     35  C   UNL A   1      35.441  35.288  33.385  1.00  0.00     0.016 A 
ATOM     36  C   UNL A   1      34.303  33.112  33.263  1.00  0.00     0.016 A 
ATOM     37  C   UNL A   1      36.648  34.651  33.326  1.00  0.00     0.010 A 
ATOM     38  C   UNL A   1      35.508  32.479  33.180  1.00  0.00     0.010 A 
ATOM     39  C   UNL A   1      36.645  33.275  33.075  1.00  0.00    -0.014 A 
BRANCH  39  40
ATOM     40  C   UNL A   1      37.900  32.649  32.756  1.00  0.00     0.031 A 
ATOM     41  C   UNL A   1      38.801  32.687  33.916  1.00  0.00     0.074 A 
ATOM     42  C   UNL A   1      38.118  32.066  31.562  1.00  0.00     0.049 A 
ATOM     43  N   UNL A   1      39.829  33.449  34.070  1.00  0.00    -0.248 NA
ATOM     44  C   UNL A   1      38.365  32.002  35.143  1.00  0.00     0.031 C 
ATOM     45  C   UNL A   1      37.149  31.819  30.487  1.00  0.00     0.029 A 
ATOM     46  N   UNL A   1      39.253  31.482  31.093  1.00  0.00    -0.354 N 
ATOM     47  C   UNL A   1      40.324  33.118  35.323  1.00  0.00     0.074 A 
ATOM     48  C   UNL A   1      39.263  32.448  36.021  1.00  0.00     0.031 C 
ATOM     49  C   UNL A   1      37.676  30.940  29.603  1.00  0.00     0.029 A 
ATOM     50  C   UNL A   1      39.056  30.681  29.971  1.00  0.00     0.049 A 
ATOM     51  H   UNL A   1      40.135  31.612  31.509  1.00  0.00     0.167 HD
ATOM     52  C   UNL A   1      41.667  33.078  35.523  1.00  0.00     0.037 A 
ATOM     53  C   UNL A   1      39.969  29.834  29.437  1.00  0.00     0.037 A 
ATOM     54  C   UNL A   1      42.358  33.773  34.464  1.00  0.00     0.049 A 
ATOM     55  C   UNL A   1      41.303  30.266  29.911  1.00  0.00     0.074 A 
ATOM     56  C   UNL A   1      42.551  35.085  34.093  1.00  0.00     0.029 A 
ATOM     57  N   UNL A   1      42.614  32.992  33.366  1.00  0.00    -0.354 N 
ATOM     58  N   UNL A   1      41.864  31.381  29.536  1.00  0.00    -0.248 NA
ATOM     59  C   UNL A   1      41.865  29.663  31.115  1.00  0.00     0.031 C 
ATOM     60  C   UNL A   1      42.768  35.072  32.684  1.00  0.00     0.029 A 
ATOM     61  C   UNL A   1      42.744  33.751  32.236  1.00  0.00     0.049 A 
ATOM     62  H   UNL A   1      42.696  32.012  33.389  1.00  0.00     0.167 HD
ATOM     63  C   UNL A   1      42.525  31.832  30.664  1.00  0.00     0.074 A 
ATOM     64  C   UNL A   1      42.641  30.667  31.533  1.00  0.00     0.031 C 
ATOM     65  C   UNL A   1      42.618  33.168  30.919  1.00  0.00     0.037 A 
BRANCH  52  66
ATOM     66  C   UNL A   1      42.356  31.993  36.318  1.00  0.00     0.057 A 
ATOM     67  C   UNL A   1      43.270  32.371  37.316  1.00  0.00     0.134 A 
ATOM     68  C   UNL A   1      42.403  30.629  35.952  1.00  0.00     0.134 A 
ATOM     69  F   UNL A   1      43.340  33.643  37.736  1.00  0.00    -0.206 F 
ATOM     70  C   UNL A   1      44.200  31.476  37.858  1.00  0.00     0.040 A 
ATOM     71  C   UNL A   1      43.292  29.717  36.524  1.00  0.00     0.040 A 
ATOM     72  F   UNL A   1      41.676  30.118  34.953  1.00  0.00    -0.206 F 
ATOM     73  C   UNL A   1      44.217  30.145  37.458  1.00  0.00     0.006 A 
ENDBRANCH  52  66
BRANCH  53  74
ATOM     74  C   UNL A   1      39.763  28.538  28.758  1.00  0.00     0.057 A 
ATOM     75  C   UNL A   1      40.273  28.294  27.475  1.00  0.00     0.134 A 
ATOM     76  C   UNL A   1      39.317  27.415  29.473  1.00  0.00     0.134 A 
ATOM     77  F   UNL A   1      40.758  29.300  26.733  1.00  0.00    -0.206 F 
ATOM     78  C   UNL A   1      40.360  27.000  26.943  1.00  0.00     0.040 A 
ATOM     79  C   UNL A   1      39.399  26.118  28.954  1.00  0.00     0.040 A 
ATOM     80  F   UNL A   1      38.876  27.533  30.734  1.00  0.00    -0.206 F 
ATOM     81  C   UNL A   1      39.935  25.905  27.691  1.00  0.00     0.006 A 
ENDBRANCH  53  74
BRANCH  65  82
ATOM     82  C   UNL A   1      42.413  34.093  29.758  1.00  0.00     0.057 A 
ATOM     83  C   UNL A   1      41.198  34.715  29.442  1.00  0.00     0.134 A 
ATOM     84  C   UNL A   1      43.521  34.415  28.969  1.00  0.00     0.134 A 
ATOM     85  F   UNL A   1      40.105  34.521  30.192  1.00  0.00    -0.206 F 
ATOM     86  C   UNL A   1      41.085  35.591  28.359  1.00  0.00     0.040 A 
ATOM     87  C   UNL A   1      43.429  35.312  27.904  1.00  0.00     0.040 A 
ATOM     88  F   UNL A   1      44.723  33.886  29.245  1.00  0.00    -0.206 F 
ATOM     89  C   UNL A   1      42.205  35.895  27.589  1.00  0.00     0.006 A 
ENDBRANCH  65  82
ENDBRANCH  39  40
ENDBRANCH  32  34
ENDBRANCH  31  32
ENDBRANCH  30  31
ENDBRANCH  29  30
ENDBRANCH  28  29
ENDBRANCH  27  28
ENDBRANCH   1  27
TORSDOF 19
ENDMDL
MODEL 3
REMARK VINA RESULT:     -10.6      5.294     10.277
REMARK SMILES Cc1oc(C)c(C(=O)Nc2cc(C(=O)OCCOCCOCCOC(=O)c3ccc(-c4c5nc(c(-c6c(F)cccc6F)c6ccc([nH]6)c(-c6c(F)cccc6F)c6nc(c(-c7c(F)cccc7F)c7ccc4[nH]7)C=C6)C=C5)cc3)ccc2Cl)c1C
REMARK SMILES IDX 19 1 18 2 17 3 16 4 15 5 13 6 14 7 12 8 10 9 11 10 83 11
REMARK SMILES IDX 82 12 84 13 81 14 9 15 7 16 8 17 6 19 1 20 2 21 3 22 85 23
REMARK SMILES IDX 4 24 86 25 5 26 20 27 21 28 22 29 23 30 24 31 25 32 26 33
REMARK SMILES IDX 27 34 28 35 80 36 29 37 79 38 30 39 31 40 32 41 73 42 33 43
REMARK SMILES IDX 78 44 72 45 74 46 34 47 77 48 71 49 70 50 35 52 61 53 44 54
REMARK SMILES IDX 60 55 45 56 48 57 59 58 75 59 46 60 47 61 58 63 76 64 49 65
REMARK SMILES IDX 36 66 37 67 42 68 38 69 39 70 41 71 43 72 40 73 62 74 63 75
REMARK SMILES IDX 68 76 64 77 65 78 67 79 69 80 66 81 50 82 51 83 56 84 52 85
REMARK SMILES IDX 53 86 55 87 57 88 54 89
REMARK H PARENT 9 18 74 51 48 62
REMARK Flexibility Score: inf
ROOT
ATOM      1  C   UNL A   1      34.157  32.260  28.516  1.00  0.00     0.188 C 
ENDROOT
BRANCH   1   2
ATOM      2  O   UNL A   1      34.096  31.434  27.377  1.00  0.00    -0.376 OA
BRANCH   2   3
ATOM      3  C   UNL A   1      33.729  30.066  27.486  1.00  0.00     0.202 C 
BRANCH   3   4
ATOM      4  C   UNL A   1      33.688  29.065  26.314  1.00  0.00     0.261 C 
BRANCH   4   5
ATOM      5  O   UNL A   1      33.813  27.683  26.666  1.00  0.00    -0.460 OA
BRANCH   5   6
ATOM      6  C   UNL A   1      32.684  26.957  26.532  1.00  0.00     0.338 C 
ATOM      7  O   UNL A   1      31.533  27.355  26.677  1.00  0.00    -0.246 OA
BRANCH   6   8
ATOM      8  C   UNL A   1      32.971  25.626  25.955  1.00  0.00     0.062 A 
ATOM      9  C   UNL A   1      33.391  24.403  23.909  1.00  0.00     0.061 A 
ATOM     10  C   UNL A   1      33.389  25.604  24.616  1.00  0.00     0.043 A 
ATOM     11  C   UNL A   1      33.175  23.196  24.591  1.00  0.00     0.064 A 
ATOM     12  C   UNL A   1      32.907  23.211  25.968  1.00  0.00     0.023 A 
ATOM     13  Cl  UNL A   1      33.280  21.671  23.792  1.00  0.00    -0.082 Cl
ATOM     14  C   UNL A   1      32.770  24.428  26.650  1.00  0.00     0.017 A 
BRANCH   9  15
ATOM     15  N   UNL A   1      33.500  24.521  22.517  1.00  0.00    -0.320 N 
ATOM     16  C   UNL A   1      32.934  25.479  21.690  1.00  0.00     0.259 C 
ATOM     17  O   UNL A   1      33.170  25.379  20.485  1.00  0.00    -0.269 OA
ATOM     18  H   UNL A   1      34.048  23.837  22.069  1.00  0.00     0.170 HD
BRANCH  16  19
ATOM     19  C   UNL A   1      32.103  26.559  22.230  1.00  0.00     0.084 A 
ATOM     20  C   UNL A   1      29.116  28.572  23.062  1.00  0.00     0.088 C 
ATOM     21  C   UNL A   1      30.416  27.913  22.830  1.00  0.00     0.104 A 
ATOM     22  O   UNL A   1      31.505  28.699  22.665  1.00  0.00    -0.466 OA
ATOM     23  C   UNL A   1      30.796  26.588  22.836  1.00  0.00     0.003 A 
ATOM     24  C   UNL A   1      32.555  27.860  22.424  1.00  0.00     0.114 A 
ATOM     25  C   UNL A   1      29.951  25.520  23.408  1.00  0.00     0.049 C 
ATOM     26  C   UNL A   1      33.886  28.501  22.473  1.00  0.00     0.088 C 
ENDBRANCH  16  19
ENDBRANCH   9  15
ENDBRANCH   6   8
ENDBRANCH   5   6
ENDBRANCH   4   5
ENDBRANCH   3   4
ENDBRANCH   2   3
ENDBRANCH   1   2
BRANCH   1  27
ATOM     27  C   UNL A   1      34.229  33.792  28.340  1.00  0.00     0.188 C 
BRANCH  27  28
ATOM     28  O   UNL A   1      33.102  34.640  28.438  1.00  0.00    -0.376 OA
BRANCH  28  29
ATOM     29  C   UNL A   1      33.162  35.983  28.893  1.00  0.00     0.202 C 
BRANCH  29  30
ATOM     30  C   UNL A   1      33.038  36.405  30.355  1.00  0.00     0.261 C 
BRANCH  30  31
ATOM     31  O   UNL A   1      33.879  35.696  31.233  1.00  0.00    -0.460 OA
BRANCH  31  32
ATOM     32  C   UNL A   1      33.210  35.146  32.265  1.00  0.00     0.338 C 
ATOM     33  O   UNL A   1      32.004  35.097  32.432  1.00  0.00    -0.246 OA
BRANCH  32  34
ATOM     34  C   UNL A   1      34.190  34.575  33.194  1.00  0.00     0.060 A 
ATOM     35  C   UNL A   1      35.309  35.373  33.421  1.00  0.00     0.016 A 
ATOM     36  C   UNL A   1      34.191  33.184  33.345  1.00  0.00     0.016 A 
ATOM     37  C   UNL A   1      36.522  34.746  33.367  1.00  0.00     0.010 A 
ATOM     38  C   UNL A   1      35.401  32.561  33.267  1.00  0.00     0.010 A 
ATOM     39  C   UNL A   1      36.530  33.366  33.142  1.00  0.00    -0.014 A 
BRANCH  39  40
ATOM     40  C   UNL A   1      37.789  32.745  32.828  1.00  0.00     0.031 A 
ATOM     41  C   UNL A   1      38.693  32.806  33.985  1.00  0.00     0.074 A 
ATOM     42  C   UNL A   1      38.010  32.148  31.641  1.00  0.00     0.049 A 
ATOM     43  N   UNL A   1      39.715  33.578  34.127  1.00  0.00    -0.248 NA
ATOM     44  C   UNL A   1      38.266  32.133  35.223  1.00  0.00     0.031 C 
ATOM     45  C   UNL A   1      37.040  31.880  30.573  1.00  0.00     0.029 A 
ATOM     46  N   UNL A   1      39.148  31.566  31.177  1.00  0.00    -0.354 N 
ATOM     47  C   UNL A   1      40.216  33.267  35.383  1.00  0.00     0.074 A 
ATOM     48  C   UNL A   1      39.162  32.598  36.092  1.00  0.00     0.031 C 
ATOM     49  C   UNL A   1      37.571  30.993  29.698  1.00  0.00     0.029 A 
ATOM     50  C   UNL A   1      38.954  30.749  30.067  1.00  0.00     0.049 A 
ATOM     51  H   UNL A   1      40.030  31.710  31.589  1.00  0.00     0.167 HD
ATOM     52  C   UNL A   1      41.560  33.240  35.580  1.00  0.00     0.037 A 
ATOM     53  C   UNL A   1      39.872  29.903  29.541  1.00  0.00     0.037 A 
ATOM     54  C   UNL A   1      42.243  33.926  34.510  1.00  0.00     0.049 A 
ATOM     55  C   UNL A   1      41.205  30.351  30.007  1.00  0.00     0.074 A 
ATOM     56  C   UNL A   1      42.425  35.235  34.122  1.00  0.00     0.029 A 
ATOM     57  N   UNL A   1      42.503  33.133  33.422  1.00  0.00    -0.354 N 
ATOM     58  N   UNL A   1      41.756  31.466  29.616  1.00  0.00    -0.248 NA
ATOM     59  C   UNL A   1      41.774  29.769  31.217  1.00  0.00     0.031 C 
ATOM     60  C   UNL A   1      42.638  35.204  32.712  1.00  0.00     0.029 A 
ATOM     61  C   UNL A   1      42.624  33.878  32.281  1.00  0.00     0.049 A 
ATOM     62  H   UNL A   1      42.591  32.154  33.458  1.00  0.00     0.167 HD
ATOM     63  C   UNL A   1      42.416  31.936  30.736  1.00  0.00     0.074 A 
ATOM     64  C   UNL A   1      42.543  30.785  31.620  1.00  0.00     0.031 C 
ATOM     65  C   UNL A   1      42.499  33.276  30.973  1.00  0.00     0.037 A 
BRANCH  52  66
ATOM     66  C   UNL A   1      42.259  32.171  36.387  1.00  0.00     0.057 A 
ATOM     67  C   UNL A   1      43.092  32.569  37.447  1.00  0.00     0.134 A 
ATOM     68  C   UNL A   1      42.401  30.822  35.992  1.00  0.00     0.134 A 
ATOM     69  F   UNL A   1      43.068  33.830  37.902  1.00  0.00    -0.206 F 
ATOM     70  C   UNL A   1      44.036  31.709  38.021  1.00  0.00     0.040 A 
ATOM     71  C   UNL A   1      43.303  29.943  36.593  1.00  0.00     0.040 A 
ATOM     72  F   UNL A   1      41.762  30.301  34.938  1.00  0.00    -0.206 F 
ATOM     73  C   UNL A   1      44.148  30.393  37.591  1.00  0.00     0.006 A 
ENDBRANCH  52  66
BRANCH  53  74
ATOM     74  C   UNL A   1      39.675  28.596  28.880  1.00  0.00     0.057 A 
ATOM     75  C   UNL A   1      40.182  28.340  27.598  1.00  0.00     0.134 A 
ATOM     76  C   UNL A   1      39.242  27.478  29.611  1.00  0.00     0.134 A 
ATOM     77  F   UNL A   1      40.655  29.340  26.841  1.00  0.00    -0.206 F 
ATOM     78  C   UNL A   1      40.278  27.040  27.083  1.00  0.00     0.040 A 
ATOM     79  C   UNL A   1      39.333  26.176  29.109  1.00  0.00     0.040 A 
ATOM     80  F   UNL A   1      38.805  27.609  30.872  1.00  0.00    -0.206 F 
ATOM     81  C   UNL A   1      39.866  25.952  27.846  1.00  0.00     0.006 A 
ENDBRANCH  53  74
BRANCH  65  82
ATOM     82  C   UNL A   1      42.284  34.184  29.800  1.00  0.00     0.057 A 
ATOM     83  C   UNL A   1      41.056  34.766  29.459  1.00  0.00     0.134 A 
ATOM     84  C   UNL A   1      43.394  34.535  29.026  1.00  0.00     0.134 A 
ATOM     85  F   UNL A   1      39.957  34.544  30.193  1.00  0.00    -0.206 F 
ATOM     86  C   UNL A   1      40.933  35.628  28.366  1.00  0.00     0.040 A 
ATOM     87  C   UNL A   1      43.292  35.418  27.952  1.00  0.00     0.040 A 
ATOM     88  F   UNL A   1      44.607  34.045  29.326  1.00  0.00    -0.206 F 
ATOM     89  C   UNL A   1      42.055  35.960  27.611  1.00  0.00     0.006 A 
ENDBRANCH  65  82
ENDBRANCH  39  40
ENDBRANCH  32  34
ENDBRANCH  31  32
ENDBRANCH  30  31
ENDBRANCH  29  30
ENDBRANCH  28  29
ENDBRANCH  27  28
ENDBRANCH   1  27
TORSDOF 19
ENDMDL
