MODEL 1
REMARK VINA RESULT:     -10.6      0.000      0.000
REMARK SMILES N#Cc1cc([N+](=O)[O-])cnc1Oc1csc(C(=O)OCCOCCOCCOC(=O)c2ccc(-c3c4nc(c(-c5c(F)cccc5F)c5ccc([nH]5)c(-c5c(F)cccc5F)c5nc(c(-c6c(F)cccc6F)c6ccc3[nH]6)C=C5)C=C4)cc2)c1
REMARK SMILES IDX 23 1 22 2 21 3 20 4 19 5 17 6 18 7 16 8 13 9 14 10 85 11
REMARK SMILES IDX 15 12 12 13 11 14 3 15 4 16 5 17 10 18 9 19 2 20 1 21 6 22
REMARK SMILES IDX 7 23 8 24 24 25 25 26 26 27 27 28 28 29 29 30 30 31 31 32
REMARK SMILES IDX 32 33 84 34 33 35 83 36 34 37 35 38 36 39 77 40 37 41 82 42
REMARK SMILES IDX 76 43 78 44 38 45 81 46 75 47 74 48 39 50 65 51 48 52 64 53
REMARK SMILES IDX 49 54 52 55 63 56 79 57 50 58 51 59 62 61 80 62 53 63 40 64
REMARK SMILES IDX 41 65 46 66 42 67 43 68 45 69 47 70 44 71 66 72 67 73 72 74
REMARK SMILES IDX 68 75 69 76 71 77 73 78 70 79 54 80 55 81 60 82 56 83 57 84
REMARK SMILES IDX 59 85 61 86 58 87
REMARK H PARENT 78 49 52 60
REMARK Flexibility Score: inf
ROOT
ATOM      1  C   UNL A   1      31.532  28.889  25.692  1.00  0.00     0.188 C 
ENDROOT
BRANCH   1   2
ATOM      2  O   UNL A   1      31.666  28.049  24.557  1.00  0.00    -0.376 OA
BRANCH   2   3
ATOM      3  C   UNL A   1      30.545  27.746  23.740  1.00  0.00     0.202 C 
BRANCH   3   4
ATOM      4  C   UNL A   1      29.510  26.659  24.096  1.00  0.00     0.261 C 
BRANCH   4   5
ATOM      5  O   UNL A   1      29.972  25.546  24.873  1.00  0.00    -0.459 OA
BRANCH   5   6
ATOM      6  C   UNL A   1      30.523  24.506  24.177  1.00  0.00     0.348 C 
ATOM      7  O   UNL A   1      30.227  24.211  23.026  1.00  0.00    -0.245 OA
BRANCH   6   8
ATOM      8  C   UNL A   1      31.586  23.901  24.966  1.00  0.00     0.116 A 
ATOM      9  C   UNL A   1      32.926  22.377  26.135  1.00  0.00     0.141 A 
ATOM     10  C   UNL A   1      33.490  23.571  26.524  1.00  0.00     0.112 A 
ATOM     11  C   UNL A   1      31.852  22.568  25.216  1.00  0.00     0.074 A 
ATOM     12  S   UNL A   1      32.686  24.911  25.813  1.00  0.00    -0.133 S 
BRANCH   9  13
ATOM     13  O   UNL A   1      33.335  21.135  26.479  1.00  0.00    -0.437 OA
BRANCH  13  14
ATOM     14  C   UNL A   1      33.502  20.063  25.641  1.00  0.00     0.237 A 
ATOM     15  C   UNL A   1      34.692  19.725  24.996  1.00  0.00     0.121 A 
ATOM     16  C   UNL A   1      34.790  18.464  24.383  1.00  0.00     0.112 A 
ATOM     17  C   UNL A   1      33.712  17.579  24.460  1.00  0.00     0.289 A 
ATOM     18  N   UNL A   1      32.445  19.205  25.694  1.00  0.00    -0.213 NA
ATOM     19  C   UNL A   1      32.564  17.986  25.111  1.00  0.00     0.200 A 
BRANCH  15  20
ATOM     20  C   UNL A   1      35.840  20.576  24.979  1.00  0.00     0.105 C 
ATOM     21  N   UNL A   1      36.781  21.247  24.930  1.00  0.00    -0.192 NA
ENDBRANCH  15  20
BRANCH  17  22
ATOM     22  N   UNL A   1      33.797  16.235  23.906  1.00  0.00     0.064 N 
ATOM     23  O   UNL A   1      33.457  15.291  24.631  1.00  0.00    -0.258 OA
ATOM     24  O   UNL A   1      34.213  16.122  22.745  1.00  0.00    -0.258 OA
ENDBRANCH  17  22
ENDBRANCH  13  14
ENDBRANCH   9  13
ENDBRANCH   6   8
ENDBRANCH   5   6
ENDBRANCH   4   5
ENDBRANCH   3   4
ENDBRANCH   2   3
ENDBRANCH   1   2
BRANCH   1  25
ATOM     25  C   UNL A   1      31.671  30.418  25.543  1.00  0.00     0.188 C 
BRANCH  25  26
ATOM     26  O   UNL A   1      32.189  31.070  26.677  1.00  0.00    -0.376 OA
BRANCH  26  27
ATOM     27  C   UNL A   1      31.785  32.401  26.957  1.00  0.00     0.202 C 
BRANCH  27  28
ATOM     28  C   UNL A   1      32.724  33.554  27.383  1.00  0.00     0.261 C 
BRANCH  28  29
ATOM     29  O   UNL A   1      32.374  34.347  28.522  1.00  0.00    -0.460 OA
BRANCH  29  30
ATOM     30  C   UNL A   1      33.399  34.975  29.145  1.00  0.00     0.338 C 
ATOM     31  O   UNL A   1      33.382  36.078  29.662  1.00  0.00    -0.246 OA
BRANCH  30  32
ATOM     32  C   UNL A   1      34.539  34.046  29.262  1.00  0.00     0.060 A 
ATOM     33  C   UNL A   1      34.330  32.812  29.888  1.00  0.00     0.016 A 
ATOM     34  C   UNL A   1      35.817  34.416  28.843  1.00  0.00     0.016 A 
ATOM     35  C   UNL A   1      35.402  31.961  30.146  1.00  0.00     0.010 A 
ATOM     36  C   UNL A   1      36.898  33.570  29.119  1.00  0.00     0.010 A 
ATOM     37  C   UNL A   1      36.701  32.362  29.815  1.00  0.00    -0.014 A 
BRANCH  37  38
ATOM     38  C   UNL A   1      37.849  31.622  30.399  1.00  0.00     0.031 A 
ATOM     39  C   UNL A   1      38.234  31.905  31.828  1.00  0.00     0.074 A 
ATOM     40  C   UNL A   1      38.494  30.668  29.705  1.00  0.00     0.049 A 
ATOM     41  N   UNL A   1      39.203  31.397  32.546  1.00  0.00    -0.248 NA
ATOM     42  C   UNL A   1      37.415  32.898  32.542  1.00  0.00     0.031 C 
ATOM     43  C   UNL A   1      38.191  30.268  28.332  1.00  0.00     0.029 A 
ATOM     44  N   UNL A   1      39.547  29.864  30.068  1.00  0.00    -0.354 N 
ATOM     45  C   UNL A   1      39.108  32.007  33.792  1.00  0.00     0.074 A 
ATOM     46  C   UNL A   1      38.024  32.961  33.716  1.00  0.00     0.031 C 
ATOM     47  C   UNL A   1      39.049  29.301  27.963  1.00  0.00     0.029 A 
ATOM     48  C   UNL A   1      39.978  29.037  29.060  1.00  0.00     0.049 A 
ATOM     49  H   UNL A   1      39.952  29.878  30.964  1.00  0.00     0.167 HD
ATOM     50  C   UNL A   1      39.844  31.780  34.907  1.00  0.00     0.037 A 
ATOM     51  C   UNL A   1      41.019  28.182  29.022  1.00  0.00     0.037 A 
ATOM     52  C   UNL A   1      40.929  30.837  34.982  1.00  0.00     0.049 A 
ATOM     53  C   UNL A   1      41.874  28.006  30.253  1.00  0.00     0.074 A 
ATOM     54  C   UNL A   1      41.744  30.543  36.061  1.00  0.00     0.029 A 
ATOM     55  N   UNL A   1      41.355  30.037  33.931  1.00  0.00    -0.354 N 
ATOM     56  N   UNL A   1      41.772  28.580  31.427  1.00  0.00    -0.248 NA
ATOM     57  C   UNL A   1      42.981  27.044  30.153  1.00  0.00     0.031 C 
ATOM     58  C   UNL A   1      42.698  29.607  35.647  1.00  0.00     0.029 A 
ATOM     59  C   UNL A   1      42.429  29.261  34.334  1.00  0.00     0.049 A 
ATOM     60  H   UNL A   1      40.953  30.024  33.033  1.00  0.00     0.167 HD
ATOM     61  C   UNL A   1      42.772  28.022  32.215  1.00  0.00     0.074 A 
ATOM     62  C   UNL A   1      43.455  27.048  31.390  1.00  0.00     0.031 C 
ATOM     63  C   UNL A   1      43.097  28.287  33.506  1.00  0.00     0.037 A 
BRANCH  50  64
ATOM     64  C   UNL A   1      39.505  32.581  36.133  1.00  0.00     0.057 A 
ATOM     65  C   UNL A   1      40.158  33.784  36.436  1.00  0.00     0.134 A 
ATOM     66  C   UNL A   1      38.493  32.160  37.007  1.00  0.00     0.134 A 
ATOM     67  F   UNL A   1      41.147  34.239  35.653  1.00  0.00    -0.206 F 
ATOM     68  C   UNL A   1      39.835  34.523  37.576  1.00  0.00     0.040 A 
ATOM     69  C   UNL A   1      38.139  32.908  38.131  1.00  0.00     0.040 A 
ATOM     70  F   UNL A   1      37.824  31.020  36.774  1.00  0.00    -0.206 F 
ATOM     71  C   UNL A   1      38.816  34.089  38.422  1.00  0.00     0.006 A 
ENDBRANCH  50  64
BRANCH  51  72
ATOM     72  C   UNL A   1      41.335  27.439  27.773  1.00  0.00     0.057 A 
ATOM     73  C   UNL A   1      42.189  27.969  26.798  1.00  0.00     0.134 A 
ATOM     74  C   UNL A   1      40.741  26.200  27.500  1.00  0.00     0.134 A 
ATOM     75  F   UNL A   1      42.770  29.163  26.986  1.00  0.00    -0.206 F 
ATOM     76  C   UNL A   1      42.414  27.313  25.586  1.00  0.00     0.040 A 
ATOM     77  C   UNL A   1      40.985  25.516  26.308  1.00  0.00     0.040 A 
ATOM     78  F   UNL A   1      39.912  25.635  28.391  1.00  0.00    -0.206 F 
ATOM     79  C   UNL A   1      41.813  26.080  25.341  1.00  0.00     0.006 A 
ENDBRANCH  51  72
BRANCH  63  80
ATOM     80  C   UNL A   1      44.198  27.465  34.123  1.00  0.00     0.057 A 
ATOM     81  C   UNL A   1      45.539  27.870  34.108  1.00  0.00     0.134 A 
ATOM     82  C   UNL A   1      43.904  26.241  34.741  1.00  0.00     0.134 A 
ATOM     83  F   UNL A   1      45.895  29.028  33.529  1.00  0.00    -0.206 F 
ATOM     84  C   UNL A   1      46.553  27.065  34.633  1.00  0.00     0.040 A 
ATOM     85  C   UNL A   1      44.903  25.447  35.306  1.00  0.00     0.040 A 
ATOM     86  F   UNL A   1      42.641  25.796  34.811  1.00  0.00    -0.206 F 
ATOM     87  C   UNL A   1      46.235  25.851  35.238  1.00  0.00     0.006 A 
ENDBRANCH  63  80
ENDBRANCH  37  38
ENDBRANCH  30  32
ENDBRANCH  29  30
ENDBRANCH  28  29
ENDBRANCH  27  28
ENDBRANCH  26  27
ENDBRANCH  25  26
ENDBRANCH   1  25
TORSDOF 21
ENDMDL
MODEL 2
REMARK VINA RESULT:     -10.3      3.846      9.084
REMARK SMILES N#Cc1cc([N+](=O)[O-])cnc1Oc1csc(C(=O)OCCOCCOCCOC(=O)c2ccc(-c3c4nc(c(-c5c(F)cccc5F)c5ccc([nH]5)c(-c5c(F)cccc5F)c5nc(c(-c6c(F)cccc6F)c6ccc3[nH]6)C=C5)C=C4)cc2)c1
REMARK SMILES IDX 23 1 22 2 21 3 20 4 19 5 17 6 18 7 16 8 13 9 14 10 85 11
REMARK SMILES IDX 15 12 12 13 11 14 3 15 4 16 5 17 10 18 9 19 2 20 1 21 6 22
REMARK SMILES IDX 7 23 8 24 24 25 25 26 26 27 27 28 28 29 29 30 30 31 31 32
REMARK SMILES IDX 32 33 84 34 33 35 83 36 34 37 35 38 36 39 77 40 37 41 82 42
REMARK SMILES IDX 76 43 78 44 38 45 81 46 75 47 74 48 39 50 65 51 48 52 64 53
REMARK SMILES IDX 49 54 52 55 63 56 79 57 50 58 51 59 62 61 80 62 53 63 40 64
REMARK SMILES IDX 41 65 46 66 42 67 43 68 45 69 47 70 44 71 66 72 67 73 72 74
REMARK SMILES IDX 68 75 69 76 71 77 73 78 70 79 54 80 55 81 60 82 56 83 57 84
REMARK SMILES IDX 59 85 61 86 58 87
REMARK H PARENT 78 49 52 60
REMARK Flexibility Score: inf
ROOT
ATOM      1  C   UNL A   1      44.176  18.821  24.946  1.00  0.00     0.188 C 
ENDROOT
BRANCH   1   2
ATOM      2  O   UNL A   1      43.289  18.056  25.746  1.00  0.00    -0.376 OA
BRANCH   2   3
ATOM      3  C   UNL A   1      42.376  18.691  26.628  1.00  0.00     0.202 C 
BRANCH   3   4
ATOM      4  C   UNL A   1      41.055  19.334  26.158  1.00  0.00     0.261 C 
BRANCH   4   5
ATOM      5  O   UNL A   1      41.044  20.758  25.992  1.00  0.00    -0.459 OA
BRANCH   5   6
ATOM      6  C   UNL A   1      40.485  21.484  27.007  1.00  0.00     0.348 C 
ATOM      7  O   UNL A   1      40.956  21.572  28.133  1.00  0.00    -0.245 OA
BRANCH   6   8
ATOM      8  C   UNL A   1      39.335  22.219  26.503  1.00  0.00     0.116 A 
ATOM      9  C   UNL A   1      37.453  22.878  25.274  1.00  0.00     0.141 A 
ATOM     10  C   UNL A   1      37.726  24.034  25.969  1.00  0.00     0.112 A 
ATOM     11  C   UNL A   1      38.359  21.827  25.605  1.00  0.00     0.074 A 
ATOM     12  S   UNL A   1      39.104  23.852  26.978  1.00  0.00    -0.133 S 
BRANCH   9  13
ATOM     13  O   UNL A   1      36.423  22.666  24.424  1.00  0.00    -0.437 OA
BRANCH  13  14
ATOM     14  C   UNL A   1      35.086  22.720  24.723  1.00  0.00     0.237 A 
ATOM     15  C   UNL A   1      34.289  21.622  25.045  1.00  0.00     0.121 A 
ATOM     16  C   UNL A   1      33.010  21.853  25.580  1.00  0.00     0.112 A 
ATOM     17  C   UNL A   1      32.586  23.166  25.800  1.00  0.00     0.289 A 
ATOM     18  N   UNL A   1      34.660  23.999  24.918  1.00  0.00    -0.213 NA
ATOM     19  C   UNL A   1      33.429  24.203  25.451  1.00  0.00     0.200 A 
BRANCH  15  20
ATOM     20  C   UNL A   1      34.731  20.270  24.912  1.00  0.00     0.105 C 
ATOM     21  N   UNL A   1      35.070  19.173  24.770  1.00  0.00    -0.192 NA
ENDBRANCH  15  20
BRANCH  17  22
ATOM     22  N   UNL A   1      31.301  23.451  26.424  1.00  0.00     0.064 N 
ATOM     23  O   UNL A   1      31.165  24.544  26.989  1.00  0.00    -0.258 OA
ATOM     24  O   UNL A   1      30.428  22.575  26.357  1.00  0.00    -0.258 OA
ENDBRANCH  17  22
ENDBRANCH  13  14
ENDBRANCH   9  13
ENDBRANCH   6   8
ENDBRANCH   5   6
ENDBRANCH   4   5
ENDBRANCH   3   4
ENDBRANCH   2   3
ENDBRANCH   1   2
BRANCH   1  25
ATOM     25  C   UNL A   1      44.497  20.281  25.327  1.00  0.00     0.188 C 
BRANCH  25  26
ATOM     26  O   UNL A   1      44.214  21.223  24.321  1.00  0.00    -0.376 OA
BRANCH  26  27
ATOM     27  C   UNL A   1      45.258  22.049  23.830  1.00  0.00     0.202 C 
BRANCH  27  28
ATOM     28  C   UNL A   1      45.723  23.381  24.464  1.00  0.00     0.261 C 
BRANCH  28  29
ATOM     29  O   UNL A   1      44.770  24.436  24.633  1.00  0.00    -0.460 OA
BRANCH  29  30
ATOM     30  C   UNL A   1      45.268  25.624  25.051  1.00  0.00     0.338 C 
ATOM     31  O   UNL A   1      46.302  26.158  24.690  1.00  0.00    -0.246 OA
BRANCH  30  32
ATOM     32  C   UNL A   1      44.274  26.290  25.915  1.00  0.00     0.060 A 
ATOM     33  C   UNL A   1      44.311  27.684  26.019  1.00  0.00     0.016 A 
ATOM     34  C   UNL A   1      43.374  25.549  26.682  1.00  0.00     0.016 A 
ATOM     35  C   UNL A   1      43.487  28.346  26.925  1.00  0.00     0.010 A 
ATOM     36  C   UNL A   1      42.558  26.212  27.608  1.00  0.00     0.010 A 
ATOM     37  C   UNL A   1      42.647  27.609  27.767  1.00  0.00    -0.014 A 
BRANCH  37  38
ATOM     38  C   UNL A   1      42.046  28.281  28.947  1.00  0.00     0.031 A 
ATOM     39  C   UNL A   1      42.773  28.207  30.265  1.00  0.00     0.074 A 
ATOM     40  C   UNL A   1      40.916  29.003  28.842  1.00  0.00     0.049 A 
ATOM     41  N   UNL A   1      42.439  28.701  31.430  1.00  0.00    -0.248 NA
ATOM     42  C   UNL A   1      44.049  27.472  30.267  1.00  0.00     0.031 C 
ATOM     43  C   UNL A   1      40.142  29.191  27.617  1.00  0.00     0.029 A 
ATOM     44  N   UNL A   1      40.224  29.712  29.793  1.00  0.00    -0.354 N 
ATOM     45  C   UNL A   1      43.462  28.338  32.299  1.00  0.00     0.074 A 
ATOM     46  C   UNL A   1      44.399  27.538  31.542  1.00  0.00     0.031 C 
ATOM     47  C   UNL A   1      39.071  29.955  27.894  1.00  0.00     0.029 A 
ATOM     48  C   UNL A   1      39.068  30.283  29.318  1.00  0.00     0.049 A 
ATOM     49  H   UNL A   1      40.526  29.802  30.725  1.00  0.00     0.167 HD
ATOM     50  C   UNL A   1      43.619  28.659  33.607  1.00  0.00     0.037 A 
ATOM     51  C   UNL A   1      38.109  30.972  29.967  1.00  0.00     0.037 A 
ATOM     52  C   UNL A   1      42.682  29.448  34.363  1.00  0.00     0.049 A 
ATOM     53  C   UNL A   1      38.267  31.248  31.441  1.00  0.00     0.074 A 
ATOM     54  C   UNL A   1      42.744  29.817  35.696  1.00  0.00     0.029 A 
ATOM     55  N   UNL A   1      41.509  29.986  33.855  1.00  0.00    -0.354 N 
ATOM     56  N   UNL A   1      39.240  30.909  32.252  1.00  0.00    -0.248 NA
ATOM     57  C   UNL A   1      37.196  32.021  32.085  1.00  0.00     0.031 C 
ATOM     58  C   UNL A   1      41.581  30.530  36.007  1.00  0.00     0.029 A 
ATOM     59  C   UNL A   1      40.833  30.672  34.850  1.00  0.00     0.049 A 
ATOM     60  H   UNL A   1      41.203  29.894  32.924  1.00  0.00     0.167 HD
ATOM     61  C   UNL A   1      38.919  31.460  33.488  1.00  0.00     0.074 A 
ATOM     62  C   UNL A   1      37.672  32.174  33.312  1.00  0.00     0.031 C 
ATOM     63  C   UNL A   1      39.594  31.387  34.663  1.00  0.00     0.037 A 
BRANCH  50  64
ATOM     64  C   UNL A   1      44.846  28.140  34.302  1.00  0.00     0.057 A 
ATOM     65  C   UNL A   1      44.866  26.888  34.933  1.00  0.00     0.134 A 
ATOM     66  C   UNL A   1      46.031  28.887  34.318  1.00  0.00     0.134 A 
ATOM     67  F   UNL A   1      43.762  26.126  34.970  1.00  0.00    -0.206 F 
ATOM     68  C   UNL A   1      46.010  26.412  35.576  1.00  0.00     0.040 A 
ATOM     69  C   UNL A   1      47.191  28.407  34.928  1.00  0.00     0.040 A 
ATOM     70  F   UNL A   1      46.084  30.092  33.730  1.00  0.00    -0.206 F 
ATOM     71  C   UNL A   1      47.180  27.169  35.566  1.00  0.00     0.006 A 
ENDBRANCH  50  64
BRANCH  51  72
ATOM     72  C   UNL A   1      36.896  31.434  29.240  1.00  0.00     0.057 A 
ATOM     73  C   UNL A   1      35.842  30.563  28.940  1.00  0.00     0.134 A 
ATOM     74  C   UNL A   1      36.790  32.752  28.777  1.00  0.00     0.134 A 
ATOM     75  F   UNL A   1      35.893  29.281  29.332  1.00  0.00    -0.206 F 
ATOM     76  C   UNL A   1      34.745  30.973  28.180  1.00  0.00     0.040 A 
ATOM     77  C   UNL A   1      35.682  33.186  28.047  1.00  0.00     0.040 A 
ATOM     78  F   UNL A   1      37.764  33.639  29.029  1.00  0.00    -0.206 F 
ATOM     79  C   UNL A   1      34.662  32.291  27.734  1.00  0.00     0.006 A 
ENDBRANCH  51  72
BRANCH  63  80
ATOM     80  C   UNL A   1      39.031  32.151  35.831  1.00  0.00     0.057 A 
ATOM     81  C   UNL A   1      38.192  31.559  36.785  1.00  0.00     0.134 A 
ATOM     82  C   UNL A   1      39.335  33.510  35.999  1.00  0.00     0.134 A 
ATOM     83  F   UNL A   1      37.855  30.264  36.685  1.00  0.00    -0.206 F 
ATOM     84  C   UNL A   1      37.633  32.300  37.828  1.00  0.00     0.040 A 
ATOM     85  C   UNL A   1      38.814  34.251  37.061  1.00  0.00     0.040 A 
ATOM     86  F   UNL A   1      40.146  34.141  35.137  1.00  0.00    -0.206 F 
ATOM     87  C   UNL A   1      37.946  33.650  37.970  1.00  0.00     0.006 A 
ENDBRANCH  63  80
ENDBRANCH  37  38
ENDBRANCH  30  32
ENDBRANCH  29  30
ENDBRANCH  28  29
ENDBRANCH  27  28
ENDBRANCH  26  27
ENDBRANCH  25  26
ENDBRANCH   1  25
TORSDOF 21
ENDMDL
MODEL 3
REMARK VINA RESULT:     -10.3      2.202      4.007
REMARK SMILES N#Cc1cc([N+](=O)[O-])cnc1Oc1csc(C(=O)OCCOCCOCCOC(=O)c2ccc(-c3c4nc(c(-c5c(F)cccc5F)c5ccc([nH]5)c(-c5c(F)cccc5F)c5nc(c(-c6c(F)cccc6F)c6ccc3[nH]6)C=C5)C=C4)cc2)c1
REMARK SMILES IDX 23 1 22 2 21 3 20 4 19 5 17 6 18 7 16 8 13 9 14 10 85 11
REMARK SMILES IDX 15 12 12 13 11 14 3 15 4 16 5 17 10 18 9 19 2 20 1 21 6 22
REMARK SMILES IDX 7 23 8 24 24 25 25 26 26 27 27 28 28 29 29 30 30 31 31 32
REMARK SMILES IDX 32 33 84 34 33 35 83 36 34 37 35 38 36 39 77 40 37 41 82 42
REMARK SMILES IDX 76 43 78 44 38 45 81 46 75 47 74 48 39 50 65 51 48 52 64 53
REMARK SMILES IDX 49 54 52 55 63 56 79 57 50 58 51 59 62 61 80 62 53 63 40 64
REMARK SMILES IDX 41 65 46 66 42 67 43 68 45 69 47 70 44 71 66 72 67 73 72 74
REMARK SMILES IDX 68 75 69 76 71 77 73 78 70 79 54 80 55 81 60 82 56 83 57 84
REMARK SMILES IDX 59 85 61 86 58 87
REMARK H PARENT 78 49 52 60
REMARK Flexibility Score: inf
ROOT
ATOM      1  C   UNL A   1      34.416  32.278  27.853  1.00  0.00     0.188 C 
ENDROOT
BRANCH   1   2
ATOM      2  O   UNL A   1      34.909  30.970  27.613  1.00  0.00    -0.376 OA
BRANCH   2   3
ATOM      3  C   UNL A   1      34.024  29.862  27.538  1.00  0.00     0.202 C 
BRANCH   3   4
ATOM      4  C   UNL A   1      33.995  28.883  26.346  1.00  0.00     0.261 C 
BRANCH   4   5
ATOM      5  O   UNL A   1      33.296  29.309  25.168  1.00  0.00    -0.459 OA
BRANCH   5   6
ATOM      6  C   UNL A   1      33.381  28.486  24.080  1.00  0.00     0.348 C 
ATOM      7  O   UNL A   1      34.365  28.401  23.355  1.00  0.00    -0.245 OA
BRANCH   6   8
ATOM      8  C   UNL A   1      32.189  27.656  24.002  1.00  0.00     0.116 A 
ATOM      9  C   UNL A   1      30.726  25.848  23.733  1.00  0.00     0.141 A 
ATOM     10  C   UNL A   1      29.837  26.898  23.768  1.00  0.00     0.112 A 
ATOM     11  C   UNL A   1      32.074  26.282  23.899  1.00  0.00     0.074 A 
ATOM     12  S   UNL A   1      30.644  28.402  23.952  1.00  0.00    -0.133 S 
BRANCH   9  13
ATOM     13  O   UNL A   1      30.426  24.533  23.635  1.00  0.00    -0.437 OA
BRANCH  13  14
ATOM     14  C   UNL A   1      31.219  23.478  24.007  1.00  0.00     0.237 A 
ATOM     15  C   UNL A   1      31.175  22.838  25.246  1.00  0.00     0.121 A 
ATOM     16  C   UNL A   1      31.854  21.616  25.395  1.00  0.00     0.112 A 
ATOM     17  C   UNL A   1      32.524  21.066  24.300  1.00  0.00     0.289 A 
ATOM     18  N   UNL A   1      31.893  22.949  22.949  1.00  0.00    -0.213 NA
ATOM     19  C   UNL A   1      32.528  21.761  23.106  1.00  0.00     0.200 A 
BRANCH  15  20
ATOM     20  C   UNL A   1      30.425  23.334  26.356  1.00  0.00     0.105 C 
ATOM     21  N   UNL A   1      29.791  23.705  27.250  1.00  0.00    -0.192 NA
ENDBRANCH  15  20
BRANCH  17  22
ATOM     22  N   UNL A   1      33.175  19.766  24.388  1.00  0.00     0.064 N 
ATOM     23  O   UNL A   1      34.389  19.744  24.628  1.00  0.00    -0.258 OA
ATOM     24  O   UNL A   1      32.471  18.763  24.207  1.00  0.00    -0.258 OA
ENDBRANCH  17  22
ENDBRANCH  13  14
ENDBRANCH   9  13
ENDBRANCH   6   8
ENDBRANCH   5   6
ENDBRANCH   4   5
ENDBRANCH   3   4
ENDBRANCH   2   3
ENDBRANCH   1   2
BRANCH   1  25
ATOM     25  C   UNL A   1      34.892  33.069  29.088  1.00  0.00     0.188 C 
BRANCH  25  26
ATOM     26  O   UNL A   1      35.144  34.432  28.847  1.00  0.00    -0.376 OA
BRANCH  26  27
ATOM     27  C   UNL A   1      34.082  35.268  28.415  1.00  0.00     0.202 C 
BRANCH  27  28
ATOM     28  C   UNL A   1      32.943  35.810  29.311  1.00  0.00     0.261 C 
BRANCH  28  29
ATOM     29  O   UNL A   1      32.529  35.039  30.444  1.00  0.00    -0.460 OA
BRANCH  29  30
ATOM     30  C   UNL A   1      32.690  35.627  31.653  1.00  0.00     0.338 C 
ATOM     31  O   UNL A   1      31.960  36.452  32.174  1.00  0.00    -0.246 OA
BRANCH  30  32
ATOM     32  C   UNL A   1      33.822  34.993  32.354  1.00  0.00     0.060 A 
ATOM     33  C   UNL A   1      35.069  35.626  32.314  1.00  0.00     0.016 A 
ATOM     34  C   UNL A   1      33.683  33.748  32.970  1.00  0.00     0.016 A 
ATOM     35  C   UNL A   1      36.196  35.000  32.841  1.00  0.00     0.010 A 
ATOM     36  C   UNL A   1      34.819  33.110  33.483  1.00  0.00     0.010 A 
ATOM     37  C   UNL A   1      36.088  33.712  33.376  1.00  0.00    -0.014 A 
BRANCH  37  38
ATOM     38  C   UNL A   1      37.326  32.927  33.610  1.00  0.00     0.031 A 
ATOM     39  C   UNL A   1      38.104  33.171  34.877  1.00  0.00     0.074 A 
ATOM     40  C   UNL A   1      37.719  31.966  32.754  1.00  0.00     0.049 A 
ATOM     41  N   UNL A   1      39.217  32.620  35.292  1.00  0.00    -0.248 NA
ATOM     42  C   UNL A   1      37.552  34.176  35.800  1.00  0.00     0.031 C 
ATOM     43  C   UNL A   1      37.032  31.601  31.517  1.00  0.00     0.029 A 
ATOM     44  N   UNL A   1      38.802  31.123  32.802  1.00  0.00    -0.354 N 
ATOM     45  C   UNL A   1      39.494  33.209  36.519  1.00  0.00     0.074 A 
ATOM     46  C   UNL A   1      38.466  34.198  36.757  1.00  0.00     0.031 C 
ATOM     47  C   UNL A   1      37.719  30.615  30.914  1.00  0.00     0.029 A 
ATOM     48  C   UNL A   1      38.907  30.302  31.706  1.00  0.00     0.049 A 
ATOM     49  H   UNL A   1      39.442  31.109  33.549  1.00  0.00     0.167 HD
ATOM     50  C   UNL A   1      40.503  32.939  37.383  1.00  0.00     0.037 A 
ATOM     51  C   UNL A   1      39.866  29.417  31.371  1.00  0.00     0.037 A 
ATOM     52  C   UNL A   1      41.532  31.962  37.143  1.00  0.00     0.049 A 
ATOM     53  C   UNL A   1      41.023  29.191  32.313  1.00  0.00     0.074 A 
ATOM     54  C   UNL A   1      42.605  31.623  37.949  1.00  0.00     0.029 A 
ATOM     55  N   UNL A   1      41.620  31.169  36.008  1.00  0.00    -0.354 N 
ATOM     56  N   UNL A   1      41.272  29.746  33.474  1.00  0.00    -0.248 NA
ATOM     57  C   UNL A   1      42.024  28.198  31.899  1.00  0.00     0.031 C 
ATOM     58  C   UNL A   1      43.373  30.666  37.277  1.00  0.00     0.029 A 
ATOM     59  C   UNL A   1      42.737  30.353  36.087  1.00  0.00     0.049 A 
ATOM     60  H   UNL A   1      40.984  31.184  35.257  1.00  0.00     0.167 HD
ATOM     61  C   UNL A   1      42.433  29.143  33.946  1.00  0.00     0.074 A 
ATOM     62  C   UNL A   1      42.824  28.164  32.954  1.00  0.00     0.031 C 
ATOM     63  C   UNL A   1      43.113  29.374  35.097  1.00  0.00     0.037 A 
BRANCH  50  64
ATOM     64  C   UNL A   1      40.547  33.727  38.662  1.00  0.00     0.057 A 
ATOM     65  C   UNL A   1      39.777  33.372  39.778  1.00  0.00     0.134 A 
ATOM     66  C   UNL A   1      41.391  34.839  38.790  1.00  0.00     0.134 A 
ATOM     67  F   UNL A   1      38.936  32.328  39.722  1.00  0.00    -0.206 F 
ATOM     68  C   UNL A   1      39.825  34.109  40.964  1.00  0.00     0.040 A 
ATOM     69  C   UNL A   1      41.472  35.562  39.981  1.00  0.00     0.040 A 
ATOM     70  F   UNL A   1      42.159  35.232  37.762  1.00  0.00    -0.206 F 
ATOM     71  C   UNL A   1      40.682  35.202  41.070  1.00  0.00     0.006 A 
ENDBRANCH  50  64
BRANCH  51  72
ATOM     72  C   UNL A   1      39.794  28.687  30.077  1.00  0.00     0.057 A 
ATOM     73  C   UNL A   1      39.154  27.446  29.967  1.00  0.00     0.134 A 
ATOM     74  C   UNL A   1      40.417  29.191  28.928  1.00  0.00     0.134 A 
ATOM     75  F   UNL A   1      38.561  26.895  31.036  1.00  0.00    -0.206 F 
ATOM     76  C   UNL A   1      39.166  26.719  28.775  1.00  0.00     0.040 A 
ATOM     77  C   UNL A   1      40.405  28.492  27.720  1.00  0.00     0.040 A 
ATOM     78  F   UNL A   1      41.048  30.375  28.963  1.00  0.00    -0.206 F 
ATOM     79  C   UNL A   1      39.790  27.245  27.646  1.00  0.00     0.006 A 
ENDBRANCH  51  72
BRANCH  63  80
ATOM     80  C   UNL A   1      44.313  28.507  35.375  1.00  0.00     0.057 A 
ATOM     81  C   UNL A   1      44.221  27.297  36.077  1.00  0.00     0.134 A 
ATOM     82  C   UNL A   1      45.585  28.897  34.932  1.00  0.00     0.134 A 
ATOM     83  F   UNL A   1      43.036  26.864  36.536  1.00  0.00    -0.206 F 
ATOM     84  C   UNL A   1      45.354  26.537  36.376  1.00  0.00     0.040 A 
ATOM     85  C   UNL A   1      46.719  28.125  35.189  1.00  0.00     0.040 A 
ATOM     86  F   UNL A   1      45.749  30.032  34.237  1.00  0.00    -0.206 F 
ATOM     87  C   UNL A   1      46.607  26.949  35.928  1.00  0.00     0.006 A 
ENDBRANCH  63  80
ENDBRANCH  37  38
ENDBRANCH  30  32
ENDBRANCH  29  30
ENDBRANCH  28  29
ENDBRANCH  27  28
ENDBRANCH  26  27
ENDBRANCH  25  26
ENDBRANCH   1  25
TORSDOF 21
ENDMDL
