MODEL 1
REMARK VINA RESULT:     -10.0      0.000      0.000
REMARK SMILES O=C(Cc1c(F)cc(Cl)cc1F)OCCOCCOCCOC(=O)c1ccc(-c2c3nc(c(-c4c(F)cccc4F)c4ccc([nH]4)c(-c4c(F)cccc4F)c4nc(c(-c5c(F)cccc5F)c5ccc2[nH]5)C=C4)C=C3)cc1
REMARK SMILES IDX 18 1 17 2 16 3 15 4 14 5 13 6 2 7 1 8 3 9 4 10 5 11 11 12
REMARK SMILES IDX 6 13 7 14 10 15 12 16 8 17 9 18 19 19 20 20 21 21 22 22
REMARK SMILES IDX 23 23 24 24 25 25 26 26 78 27 27 28 77 29 28 30 29 31 30 32
REMARK SMILES IDX 71 33 31 34 76 35 70 36 72 37 32 38 75 39 69 40 68 41 33 43
REMARK SMILES IDX 59 44 42 45 58 46 43 47 46 48 57 49 73 50 44 51 45 52 56 54
REMARK SMILES IDX 74 55 47 56 34 57 35 58 40 59 36 60 37 61 39 62 41 63 38 64
REMARK SMILES IDX 60 65 61 66 66 67 62 68 63 69 65 70 67 71 64 72 48 73 49 74
REMARK SMILES IDX 54 75 50 76 51 77 53 78 55 79 52 80
REMARK H PARENT 72 42 46 53
REMARK Flexibility Score: inf
ROOT
ATOM      1  C   UNL A   1      31.547  29.576  25.281  1.00  0.00     0.188 C 
ENDROOT
BRANCH   1   2
ATOM      2  C   UNL A   1      32.388  28.731  24.317  1.00  0.00     0.188 C 
BRANCH   2   3
ATOM      3  O   UNL A   1      32.014  27.371  24.203  1.00  0.00    -0.376 OA
BRANCH   3   4
ATOM      4  C   UNL A   1      31.134  26.783  25.157  1.00  0.00     0.202 C 
BRANCH   4   5
ATOM      5  C   UNL A   1      30.376  25.500  24.821  1.00  0.00     0.261 C 
BRANCH   5   6
ATOM      6  O   UNL A   1      30.780  24.213  25.369  1.00  0.00    -0.463 OA
BRANCH   6   7
ATOM      7  C   UNL A   1      30.887  23.683  26.598  1.00  0.00     0.310 C 
ATOM      8  O   UNL A   1      29.867  23.533  27.273  1.00  0.00    -0.252 OA
BRANCH   7   9
ATOM      9  C   UNL A   1      32.213  23.234  27.140  1.00  0.00     0.164 C 
BRANCH   9  10
ATOM     10  C   UNL A   1      33.259  23.146  26.070  1.00  0.00     0.035 A 
ATOM     11  C   UNL A   1      33.521  21.954  25.396  1.00  0.00     0.131 A 
ATOM     12  C   UNL A   1      34.048  24.255  25.760  1.00  0.00     0.131 A 
ATOM     13  F   UNL A   1      32.791  20.863  25.652  1.00  0.00    -0.207 F 
ATOM     14  C   UNL A   1      34.540  21.852  24.457  1.00  0.00     0.060 A 
ATOM     15  C   UNL A   1      35.074  24.178  24.826  1.00  0.00     0.060 A 
ATOM     16  F   UNL A   1      33.823  25.426  26.372  1.00  0.00    -0.207 F 
ATOM     17  C   UNL A   1      35.319  22.969  24.182  1.00  0.00     0.046 A 
ATOM     18  Cl  UNL A   1      36.599  22.851  23.040  1.00  0.00    -0.084 Cl
ENDBRANCH   9  10
ENDBRANCH   7   9
ENDBRANCH   6   7
ENDBRANCH   5   6
ENDBRANCH   4   5
ENDBRANCH   3   4
ENDBRANCH   2   3
ENDBRANCH   1   2
BRANCH   1  19
ATOM     19  O   UNL A   1      32.194  30.641  25.959  1.00  0.00    -0.376 OA
BRANCH  19  20
ATOM     20  C   UNL A   1      31.376  31.666  26.522  1.00  0.00     0.202 C 
BRANCH  20  21
ATOM     21  C   UNL A   1      31.962  33.076  26.716  1.00  0.00     0.261 C 
BRANCH  21  22
ATOM     22  O   UNL A   1      32.295  33.396  28.085  1.00  0.00    -0.460 OA
BRANCH  22  23
ATOM     23  C   UNL A   1      33.386  34.182  28.260  1.00  0.00     0.338 C 
ATOM     24  O   UNL A   1      33.416  35.396  28.351  1.00  0.00    -0.246 OA
BRANCH  23  25
ATOM     25  C   UNL A   1      34.589  33.353  28.474  1.00  0.00     0.060 A 
ATOM     26  C   UNL A   1      34.429  32.053  28.974  1.00  0.00     0.016 A 
ATOM     27  C   UNL A   1      35.863  33.902  28.338  1.00  0.00     0.016 A 
ATOM     28  C   UNL A   1      35.546  31.302  29.345  1.00  0.00     0.010 A 
ATOM     29  C   UNL A   1      36.983  33.157  28.737  1.00  0.00     0.010 A 
ATOM     30  C   UNL A   1      36.827  31.864  29.271  1.00  0.00    -0.014 A 
BRANCH  30  31
ATOM     31  C   UNL A   1      37.963  31.171  29.933  1.00  0.00     0.031 A 
ATOM     32  C   UNL A   1      38.250  31.477  31.379  1.00  0.00     0.074 A 
ATOM     33  C   UNL A   1      38.700  30.249  29.286  1.00  0.00     0.049 A 
ATOM     34  N   UNL A   1      39.162  30.968  32.168  1.00  0.00    -0.248 NA
ATOM     35  C   UNL A   1      37.393  32.487  32.023  1.00  0.00     0.031 C 
ATOM     36  C   UNL A   1      38.510  29.834  27.898  1.00  0.00     0.029 A 
ATOM     37  N   UNL A   1      39.762  29.492  29.720  1.00  0.00    -0.354 N 
ATOM     38  C   UNL A   1      38.979  31.585  33.401  1.00  0.00     0.074 A 
ATOM     39  C   UNL A   1      37.897  32.530  33.248  1.00  0.00     0.031 C 
ATOM     40  C   UNL A   1      39.432  28.903  27.591  1.00  0.00     0.029 A 
ATOM     41  C   UNL A   1      40.288  28.668  28.755  1.00  0.00     0.049 A 
ATOM     42  H   UNL A   1      40.114  29.536  30.639  1.00  0.00     0.167 HD
ATOM     43  C   UNL A   1      39.641  31.368  34.560  1.00  0.00     0.037 A 
ATOM     44  C   UNL A   1      41.345  27.830  28.801  1.00  0.00     0.037 A 
ATOM     45  C   UNL A   1      40.712  30.422  34.724  1.00  0.00     0.049 A 
ATOM     46  C   UNL A   1      42.122  27.676  30.085  1.00  0.00     0.074 A 
ATOM     47  C   UNL A   1      41.406  30.108  35.879  1.00  0.00     0.029 A 
ATOM     48  N   UNL A   1      41.247  29.651  33.707  1.00  0.00    -0.354 N 
ATOM     49  N   UNL A   1      41.896  28.213  31.259  1.00  0.00    -0.248 NA
ATOM     50  C   UNL A   1      43.306  26.801  30.051  1.00  0.00     0.031 C 
ATOM     51  C   UNL A   1      42.402  29.185  35.550  1.00  0.00     0.029 A 
ATOM     52  C   UNL A   1      42.295  28.892  34.200  1.00  0.00     0.049 A 
ATOM     53  H   UNL A   1      40.931  29.643  32.775  1.00  0.00     0.167 HD
ATOM     54  C   UNL A   1      42.890  27.727  32.101  1.00  0.00     0.074 A 
ATOM     55  C   UNL A   1      43.713  26.838  31.313  1.00  0.00     0.031 C 
ATOM     56  C   UNL A   1      43.104  28.002  33.410  1.00  0.00     0.037 A 
BRANCH  43  57
ATOM     57  C   UNL A   1      39.233  32.160  35.764  1.00  0.00     0.057 A 
ATOM     58  C   UNL A   1      39.686  33.470  35.962  1.00  0.00     0.134 A 
ATOM     59  C   UNL A   1      38.295  31.651  36.670  1.00  0.00     0.134 A 
ATOM     60  F   UNL A   1      40.591  34.010  35.132  1.00  0.00    -0.206 F 
ATOM     61  C   UNL A   1      39.216  34.247  37.021  1.00  0.00     0.040 A 
ATOM     62  C   UNL A   1      37.803  32.425  37.720  1.00  0.00     0.040 A 
ATOM     63  F   UNL A   1      37.818  30.405  36.527  1.00  0.00    -0.206 F 
ATOM     64  C   UNL A   1      38.263  33.729  37.896  1.00  0.00     0.006 A 
ENDBRANCH  43  57
BRANCH  44  65
ATOM     65  C   UNL A   1      41.761  27.080  27.587  1.00  0.00     0.057 A 
ATOM     66  C   UNL A   1      42.566  27.671  26.605  1.00  0.00     0.134 A 
ATOM     67  C   UNL A   1      41.315  25.774  27.352  1.00  0.00     0.134 A 
ATOM     68  F   UNL A   1      42.999  28.931  26.757  1.00  0.00    -0.206 F 
ATOM     69  C   UNL A   1      42.895  27.000  25.426  1.00  0.00     0.040 A 
ATOM     70  C   UNL A   1      41.656  25.081  26.189  1.00  0.00     0.040 A 
ATOM     71  F   UNL A   1      40.536  25.151  28.249  1.00  0.00    -0.206 F 
ATOM     72  C   UNL A   1      42.441  25.698  25.217  1.00  0.00     0.006 A 
ENDBRANCH  44  65
BRANCH  56  73
ATOM     73  C   UNL A   1      44.270  27.347  34.092  1.00  0.00     0.057 A 
ATOM     74  C   UNL A   1      44.170  26.058  34.625  1.00  0.00     0.134 A 
ATOM     75  C   UNL A   1      45.530  27.961  34.110  1.00  0.00     0.134 A 
ATOM     76  F   UNL A   1      42.990  25.419  34.646  1.00  0.00    -0.206 F 
ATOM     77  C   UNL A   1      45.283  25.397  35.150  1.00  0.00     0.040 A 
ATOM     78  C   UNL A   1      46.655  27.301  34.609  1.00  0.00     0.040 A 
ATOM     79  F   UNL A   1      45.697  29.191  33.602  1.00  0.00    -0.206 F 
ATOM     80  C   UNL A   1      46.532  26.015  35.129  1.00  0.00     0.006 A 
ENDBRANCH  56  73
ENDBRANCH  30  31
ENDBRANCH  23  25
ENDBRANCH  22  23
ENDBRANCH  21  22
ENDBRANCH  20  21
ENDBRANCH  19  20
ENDBRANCH   1  19
TORSDOF 18
ENDMDL
MODEL 2
REMARK VINA RESULT:      -9.8      5.686     10.946
REMARK SMILES O=C(Cc1c(F)cc(Cl)cc1F)OCCOCCOCCOC(=O)c1ccc(-c2c3nc(c(-c4c(F)cccc4F)c4ccc([nH]4)c(-c4c(F)cccc4F)c4nc(c(-c5c(F)cccc5F)c5ccc2[nH]5)C=C4)C=C3)cc1
REMARK SMILES IDX 18 1 17 2 16 3 15 4 14 5 13 6 2 7 1 8 3 9 4 10 5 11 11 12
REMARK SMILES IDX 6 13 7 14 10 15 12 16 8 17 9 18 19 19 20 20 21 21 22 22
REMARK SMILES IDX 23 23 24 24 25 25 26 26 78 27 27 28 77 29 28 30 29 31 30 32
REMARK SMILES IDX 71 33 31 34 76 35 70 36 72 37 32 38 75 39 69 40 68 41 33 43
REMARK SMILES IDX 59 44 42 45 58 46 43 47 46 48 57 49 73 50 44 51 45 52 56 54
REMARK SMILES IDX 74 55 47 56 34 57 35 58 40 59 36 60 37 61 39 62 41 63 38 64
REMARK SMILES IDX 60 65 61 66 66 67 62 68 63 69 65 70 67 71 64 72 48 73 49 74
REMARK SMILES IDX 54 75 50 76 51 77 53 78 55 79 52 80
REMARK H PARENT 72 42 46 53
REMARK Flexibility Score: inf
ROOT
ATOM      1  C   UNL A   1      44.086  18.820  25.153  1.00  0.00     0.188 C 
ENDROOT
BRANCH   1   2
ATOM      2  C   UNL A   1      45.020  19.552  24.182  1.00  0.00     0.188 C 
BRANCH   2   3
ATOM      3  O   UNL A   1      44.559  20.802  23.707  1.00  0.00    -0.376 OA
BRANCH   3   4
ATOM      4  C   UNL A   1      45.032  22.013  24.291  1.00  0.00     0.202 C 
BRANCH   4   5
ATOM      5  C   UNL A   1      44.075  23.177  24.539  1.00  0.00     0.261 C 
BRANCH   5   6
ATOM      6  O   UNL A   1      44.535  24.427  25.127  1.00  0.00    -0.463 OA
BRANCH   6   7
ATOM      7  C   UNL A   1      45.696  24.885  25.624  1.00  0.00     0.310 C 
ATOM      8  O   UNL A   1      46.081  26.009  25.300  1.00  0.00    -0.252 OA
BRANCH   7   9
ATOM      9  C   UNL A   1      46.501  24.072  26.597  1.00  0.00     0.164 C 
BRANCH   9  10
ATOM     10  C   UNL A   1      46.108  24.344  28.018  1.00  0.00     0.035 A 
ATOM     11  C   UNL A   1      44.968  23.775  28.586  1.00  0.00     0.131 A 
ATOM     12  C   UNL A   1      46.849  25.231  28.799  1.00  0.00     0.131 A 
ATOM     13  F   UNL A   1      44.225  22.914  27.882  1.00  0.00    -0.207 F 
ATOM     14  C   UNL A   1      44.562  24.083  29.878  1.00  0.00     0.060 A 
ATOM     15  C   UNL A   1      46.462  25.557  30.094  1.00  0.00     0.060 A 
ATOM     16  F   UNL A   1      47.960  25.791  28.301  1.00  0.00    -0.207 F 
ATOM     17  C   UNL A   1      45.311  24.983  30.625  1.00  0.00     0.046 A 
ATOM     18  Cl  UNL A   1      44.807  25.393  32.217  1.00  0.00    -0.084 Cl
ENDBRANCH   9  10
ENDBRANCH   7   9
ENDBRANCH   6   7
ENDBRANCH   5   6
ENDBRANCH   4   5
ENDBRANCH   3   4
ENDBRANCH   2   3
ENDBRANCH   1   2
BRANCH   1  19
ATOM     19  O   UNL A   1      42.692  19.045  25.022  1.00  0.00    -0.376 OA
BRANCH  19  20
ATOM     20  C   UNL A   1      41.963  19.399  26.198  1.00  0.00     0.202 C 
BRANCH  20  21
ATOM     21  C   UNL A   1      41.908  20.875  26.633  1.00  0.00     0.261 C 
BRANCH  21  22
ATOM     22  O   UNL A   1      40.666  21.261  27.261  1.00  0.00    -0.460 OA
BRANCH  22  23
ATOM     23  C   UNL A   1      39.930  22.187  26.597  1.00  0.00     0.338 C 
ATOM     24  O   UNL A   1      39.204  22.005  25.636  1.00  0.00    -0.246 OA
BRANCH  23  25
ATOM     25  C   UNL A   1      40.003  23.491  27.285  1.00  0.00     0.060 A 
ATOM     26  C   UNL A   1      39.269  24.567  26.766  1.00  0.00     0.016 A 
ATOM     27  C   UNL A   1      40.904  23.694  28.329  1.00  0.00     0.016 A 
ATOM     28  C   UNL A   1      39.442  25.850  27.288  1.00  0.00     0.010 A 
ATOM     29  C   UNL A   1      41.097  24.988  28.835  1.00  0.00     0.010 A 
ATOM     30  C   UNL A   1      40.388  26.077  28.296  1.00  0.00    -0.014 A 
BRANCH  30  31
ATOM     31  C   UNL A   1      40.765  27.475  28.634  1.00  0.00     0.031 A 
ATOM     32  C   UNL A   1      42.205  27.889  28.485  1.00  0.00     0.074 A 
ATOM     33  C   UNL A   1      39.846  28.379  29.020  1.00  0.00     0.049 A 
ATOM     34  N   UNL A   1      42.755  29.060  28.686  1.00  0.00    -0.248 NA
ATOM     35  C   UNL A   1      43.149  26.849  28.046  1.00  0.00     0.031 C 
ATOM     36  C   UNL A   1      38.415  28.121  29.174  1.00  0.00     0.029 A 
ATOM     37  N   UNL A   1      39.985  29.706  29.353  1.00  0.00    -0.354 N 
ATOM     38  C   UNL A   1      44.103  28.899  28.386  1.00  0.00     0.074 A 
ATOM     39  C   UNL A   1      44.296  27.513  28.025  1.00  0.00     0.031 C 
ATOM     40  C   UNL A   1      37.810  29.252  29.580  1.00  0.00     0.029 A 
ATOM     41  C   UNL A   1      38.810  30.310  29.731  1.00  0.00     0.049 A 
ATOM     42  H   UNL A   1      40.848  30.180  29.322  1.00  0.00     0.167 HD
ATOM     43  C   UNL A   1      45.085  29.827  28.392  1.00  0.00     0.037 A 
ATOM     44  C   UNL A   1      38.572  31.566  30.162  1.00  0.00     0.037 A 
ATOM     45  C   UNL A   1      44.901  31.211  28.740  1.00  0.00     0.049 A 
ATOM     46  C   UNL A   1      39.708  32.557  30.245  1.00  0.00     0.074 A 
ATOM     47  C   UNL A   1      45.838  32.228  28.727  1.00  0.00     0.029 A 
ATOM     48  N   UNL A   1      43.708  31.764  29.170  1.00  0.00    -0.354 N 
ATOM     49  N   UNL A   1      40.962  32.410  29.893  1.00  0.00    -0.248 NA
ATOM     50  C   UNL A   1      39.396  33.890  30.788  1.00  0.00     0.031 C 
ATOM     51  C   UNL A   1      45.225  33.390  29.203  1.00  0.00     0.029 A 
ATOM     52  C   UNL A   1      43.896  33.103  29.468  1.00  0.00     0.049 A 
ATOM     53  H   UNL A   1      42.855  31.279  29.252  1.00  0.00     0.167 HD
ATOM     54  C   UNL A   1      41.578  33.629  30.152  1.00  0.00     0.074 A 
ATOM     55  C   UNL A   1      40.561  34.514  30.674  1.00  0.00     0.031 C 
ATOM     56  C   UNL A   1      42.875  33.979  29.979  1.00  0.00     0.037 A 
BRANCH  43  57
ATOM     57  C   UNL A   1      46.466  29.395  28.006  1.00  0.00     0.057 A 
ATOM     58  C   UNL A   1      46.852  29.301  26.663  1.00  0.00     0.134 A 
ATOM     59  C   UNL A   1      47.447  29.180  28.982  1.00  0.00     0.134 A 
ATOM     60  F   UNL A   1      45.956  29.489  25.683  1.00  0.00    -0.206 F 
ATOM     61  C   UNL A   1      48.169  29.011  26.305  1.00  0.00     0.040 A 
ATOM     62  C   UNL A   1      48.771  28.909  28.636  1.00  0.00     0.040 A 
ATOM     63  F   UNL A   1      47.139  29.263  30.285  1.00  0.00    -0.206 F 
ATOM     64  C   UNL A   1      49.135  28.826  27.293  1.00  0.00     0.006 A 
ENDBRANCH  43  57
BRANCH  44  65
ATOM     65  C   UNL A   1      37.203  31.970  30.578  1.00  0.00     0.057 A 
ATOM     66  C   UNL A   1      36.323  32.588  29.682  1.00  0.00     0.134 A 
ATOM     67  C   UNL A   1      36.765  31.802  31.897  1.00  0.00     0.134 A 
ATOM     68  F   UNL A   1      36.696  32.807  28.413  1.00  0.00    -0.206 F 
ATOM     69  C   UNL A   1      35.066  33.043  30.086  1.00  0.00     0.040 A 
ATOM     70  C   UNL A   1      35.501  32.227  32.310  1.00  0.00     0.040 A 
ATOM     71  F   UNL A   1      37.562  31.222  32.808  1.00  0.00    -0.206 F 
ATOM     72  C   UNL A   1      34.651  32.859  31.404  1.00  0.00     0.006 A 
ENDBRANCH  44  65
BRANCH  56  73
ATOM     73  C   UNL A   1      43.291  35.372  30.353  1.00  0.00     0.057 A 
ATOM     74  C   UNL A   1      43.878  35.649  31.592  1.00  0.00     0.134 A 
ATOM     75  C   UNL A   1      43.216  36.419  29.423  1.00  0.00     0.134 A 
ATOM     76  F   UNL A   1      43.973  34.692  32.529  1.00  0.00    -0.206 F 
ATOM     77  C   UNL A   1      44.378  36.916  31.896  1.00  0.00     0.040 A 
ATOM     78  C   UNL A   1      43.735  37.684  29.706  1.00  0.00     0.040 A 
ATOM     79  F   UNL A   1      42.678  36.216  28.211  1.00  0.00    -0.206 F 
ATOM     80  C   UNL A   1      44.320  37.933  30.945  1.00  0.00     0.006 A 
ENDBRANCH  56  73
ENDBRANCH  30  31
ENDBRANCH  23  25
ENDBRANCH  22  23
ENDBRANCH  21  22
ENDBRANCH  20  21
ENDBRANCH  19  20
ENDBRANCH   1  19
TORSDOF 18
ENDMDL
MODEL 3
REMARK VINA RESULT:      -9.7      4.198      9.203
REMARK SMILES O=C(Cc1c(F)cc(Cl)cc1F)OCCOCCOCCOC(=O)c1ccc(-c2c3nc(c(-c4c(F)cccc4F)c4ccc([nH]4)c(-c4c(F)cccc4F)c4nc(c(-c5c(F)cccc5F)c5ccc2[nH]5)C=C4)C=C3)cc1
REMARK SMILES IDX 18 1 17 2 16 3 15 4 14 5 13 6 2 7 1 8 3 9 4 10 5 11 11 12
REMARK SMILES IDX 6 13 7 14 10 15 12 16 8 17 9 18 19 19 20 20 21 21 22 22
REMARK SMILES IDX 23 23 24 24 25 25 26 26 78 27 27 28 77 29 28 30 29 31 30 32
REMARK SMILES IDX 71 33 31 34 76 35 70 36 72 37 32 38 75 39 69 40 68 41 33 43
REMARK SMILES IDX 59 44 42 45 58 46 43 47 46 48 57 49 73 50 44 51 45 52 56 54
REMARK SMILES IDX 74 55 47 56 34 57 35 58 40 59 36 60 37 61 39 62 41 63 38 64
REMARK SMILES IDX 60 65 61 66 66 67 62 68 63 69 65 70 67 71 64 72 48 73 49 74
REMARK SMILES IDX 54 75 50 76 51 77 53 78 55 79 52 80
REMARK H PARENT 72 42 46 53
REMARK Flexibility Score: inf
ROOT
ATOM      1  C   UNL A   1      34.278  23.034  23.713  1.00  0.00     0.188 C 
ENDROOT
BRANCH   1   2
ATOM      2  C   UNL A   1      33.076  23.275  22.791  1.00  0.00     0.188 C 
BRANCH   2   3
ATOM      3  O   UNL A   1      33.325  24.071  21.649  1.00  0.00    -0.376 OA
BRANCH   3   4
ATOM      4  C   UNL A   1      33.235  25.491  21.726  1.00  0.00     0.202 C 
BRANCH   4   5
ATOM      5  C   UNL A   1      31.886  26.190  21.566  1.00  0.00     0.261 C 
BRANCH   5   6
ATOM      6  O   UNL A   1      31.597  27.447  22.241  1.00  0.00    -0.463 OA
BRANCH   6   7
ATOM      7  C   UNL A   1      30.542  27.969  22.888  1.00  0.00     0.310 C 
ATOM      8  O   UNL A   1      29.644  28.501  22.232  1.00  0.00    -0.252 OA
BRANCH   7   9
ATOM      9  C   UNL A   1      30.418  27.875  24.382  1.00  0.00     0.164 C 
BRANCH   9  10
ATOM     10  C   UNL A   1      31.693  28.247  25.077  1.00  0.00     0.035 A 
ATOM     11  C   UNL A   1      32.645  27.288  25.426  1.00  0.00     0.131 A 
ATOM     12  C   UNL A   1      31.934  29.569  25.453  1.00  0.00     0.131 A 
ATOM     13  F   UNL A   1      32.464  26.008  25.086  1.00  0.00    -0.207 F 
ATOM     14  C   UNL A   1      33.791  27.621  26.136  1.00  0.00     0.060 A 
ATOM     15  C   UNL A   1      33.072  29.925  26.165  1.00  0.00     0.060 A 
ATOM     16  F   UNL A   1      31.054  30.526  25.127  1.00  0.00    -0.207 F 
ATOM     17  C   UNL A   1      33.995  28.943  26.510  1.00  0.00     0.046 A 
ATOM     18  Cl  UNL A   1      35.398  29.364  27.410  1.00  0.00    -0.084 Cl
ENDBRANCH   9  10
ENDBRANCH   7   9
ENDBRANCH   6   7
ENDBRANCH   5   6
ENDBRANCH   4   5
ENDBRANCH   3   4
ENDBRANCH   2   3
ENDBRANCH   1   2
BRANCH   1  19
ATOM     19  O   UNL A   1      34.670  21.692  23.946  1.00  0.00    -0.376 OA
BRANCH  19  20
ATOM     20  C   UNL A   1      35.277  21.385  25.201  1.00  0.00     0.202 C 
BRANCH  20  21
ATOM     21  C   UNL A   1      36.631  20.651  25.224  1.00  0.00     0.261 C 
BRANCH  21  22
ATOM     22  O   UNL A   1      37.773  21.511  25.022  1.00  0.00    -0.460 OA
BRANCH  22  23
ATOM     23  C   UNL A   1      38.865  21.232  25.776  1.00  0.00     0.338 C 
ATOM     24  O   UNL A   1      39.496  20.191  25.806  1.00  0.00    -0.246 OA
BRANCH  23  25
ATOM     25  C   UNL A   1      39.313  22.437  26.500  1.00  0.00     0.060 A 
ATOM     26  C   UNL A   1      38.719  23.668  26.189  1.00  0.00     0.016 A 
ATOM     27  C   UNL A   1      40.411  22.384  27.358  1.00  0.00     0.016 A 
ATOM     28  C   UNL A   1      39.230  24.850  26.730  1.00  0.00     0.010 A 
ATOM     29  C   UNL A   1      40.940  23.573  27.879  1.00  0.00     0.010 A 
ATOM     30  C   UNL A   1      40.369  24.815  27.543  1.00  0.00    -0.014 A 
BRANCH  30  31
ATOM     31  C   UNL A   1      41.065  26.087  27.871  1.00  0.00     0.031 A 
ATOM     32  C   UNL A   1      42.493  26.263  27.425  1.00  0.00     0.074 A 
ATOM     33  C   UNL A   1      40.436  27.092  28.507  1.00  0.00     0.049 A 
ATOM     34  N   UNL A   1      43.283  27.297  27.566  1.00  0.00    -0.248 NA
ATOM     35  C   UNL A   1      43.111  25.126  26.723  1.00  0.00     0.031 C 
ATOM     36  C   UNL A   1      39.048  27.067  28.965  1.00  0.00     0.029 A 
ATOM     37  N   UNL A   1      40.889  28.335  28.878  1.00  0.00    -0.354 N 
ATOM     38  C   UNL A   1      44.482  26.939  26.960  1.00  0.00     0.074 A 
ATOM     39  C   UNL A   1      44.331  25.584  26.483  1.00  0.00     0.031 C 
ATOM     40  C   UNL A   1      38.765  28.239  29.564  1.00  0.00     0.029 A 
ATOM     41  C   UNL A   1      39.956  29.090  29.548  1.00  0.00     0.049 A 
ATOM     42  H   UNL A   1      41.799  28.657  28.681  1.00  0.00     0.167 HD
ATOM     43  C   UNL A   1      45.601  27.682  26.799  1.00  0.00     0.037 A 
ATOM     44  C   UNL A   1      40.055  30.319  30.095  1.00  0.00     0.037 A 
ATOM     45  C   UNL A   1      45.757  29.035  27.261  1.00  0.00     0.049 A 
ATOM     46  C   UNL A   1      41.348  31.089  29.978  1.00  0.00     0.074 A 
ATOM     47  C   UNL A   1      46.845  29.874  27.097  1.00  0.00     0.029 A 
ATOM     48  N   UNL A   1      44.808  29.738  27.982  1.00  0.00    -0.354 N 
ATOM     49  N   UNL A   1      42.448  30.766  29.343  1.00  0.00    -0.248 NA
ATOM     50  C   UNL A   1      41.414  32.395  30.656  1.00  0.00     0.031 C 
ATOM     51  C   UNL A   1      46.576  31.070  27.768  1.00  0.00     0.029 A 
ATOM     52  C   UNL A   1      45.303  30.988  28.309  1.00  0.00     0.049 A 
ATOM     53  H   UNL A   1      43.916  29.400  28.225  1.00  0.00     0.167 HD
ATOM     54  C   UNL A   1      43.324  31.831  29.529  1.00  0.00     0.074 A 
ATOM     55  C   UNL A   1      42.625  32.820  30.318  1.00  0.00     0.031 C 
ATOM     56  C   UNL A   1      44.597  31.970  29.089  1.00  0.00     0.037 A 
BRANCH  43  57
ATOM     57  C   UNL A   1      46.762  27.061  26.085  1.00  0.00     0.057 A 
ATOM     58  C   UNL A   1      46.970  27.264  24.716  1.00  0.00     0.134 A 
ATOM     59  C   UNL A   1      47.739  26.350  26.794  1.00  0.00     0.134 A 
ATOM     60  F   UNL A   1      46.066  27.931  23.982  1.00  0.00    -0.206 F 
ATOM     61  C   UNL A   1      48.112  26.783  24.075  1.00  0.00     0.040 A 
ATOM     62  C   UNL A   1      48.894  25.882  26.169  1.00  0.00     0.040 A 
ATOM     63  F   UNL A   1      47.599  26.130  28.109  1.00  0.00    -0.206 F 
ATOM     64  C   UNL A   1      49.084  26.100  24.805  1.00  0.00     0.006 A 
ENDBRANCH  43  57
BRANCH  44  65
ATOM     65  C   UNL A   1      38.906  30.907  30.833  1.00  0.00     0.057 A 
ATOM     66  C   UNL A   1      38.760  30.729  32.214  1.00  0.00     0.134 A 
ATOM     67  C   UNL A   1      37.896  31.610  30.166  1.00  0.00     0.134 A 
ATOM     68  F   UNL A   1      39.677  30.038  32.906  1.00  0.00    -0.206 F 
ATOM     69  C   UNL A   1      37.643  31.209  32.901  1.00  0.00     0.040 A 
ATOM     70  C   UNL A   1      36.786  32.118  30.842  1.00  0.00     0.040 A 
ATOM     71  F   UNL A   1      37.971  31.811  28.841  1.00  0.00    -0.206 F 
ATOM     72  C   UNL A   1      36.653  31.910  32.213  1.00  0.00     0.006 A 
ENDBRANCH  44  65
BRANCH  56  73
ATOM     73  C   UNL A   1      45.337  33.228  29.441  1.00  0.00     0.057 A 
ATOM     74  C   UNL A   1      46.191  33.284  30.548  1.00  0.00     0.134 A 
ATOM     75  C   UNL A   1      45.290  34.349  28.601  1.00  0.00     0.134 A 
ATOM     76  F   UNL A   1      46.276  32.247  31.395  1.00  0.00    -0.206 F 
ATOM     77  C   UNL A   1      46.974  34.410  30.808  1.00  0.00     0.040 A 
ATOM     78  C   UNL A   1      46.087  35.471  28.837  1.00  0.00     0.040 A 
ATOM     79  F   UNL A   1      44.503  34.354  27.515  1.00  0.00    -0.206 F 
ATOM     80  C   UNL A   1      46.934  35.502  29.942  1.00  0.00     0.006 A 
ENDBRANCH  56  73
ENDBRANCH  30  31
ENDBRANCH  23  25
ENDBRANCH  22  23
ENDBRANCH  21  22
ENDBRANCH  20  21
ENDBRANCH  19  20
ENDBRANCH   1  19
TORSDOF 18
ENDMDL
