MODEL 1
REMARK VINA RESULT:      -9.6      0.000      0.000
REMARK SMILES [NH3+][C@@H](Cc1ccc(OC(F)F)cc1)C(=O)OCCOCCOCCOC(=O)c1ccc(-c2c3nc(c(-c4c(F)cccc4F)c4ccc([nH]4)c(-c4c(F)cccc4F)c4nc(c(-c5c(F)cccc5F)c5ccc2[nH]5)C=C4)C=C3)cc1
REMARK SMILES IDX 20 1 19 2 18 3 17 4 16 5 14 6 15 7 2 8 1 9 3 13 4 14 5 15
REMARK SMILES IDX 13 16 6 17 12 18 7 19 8 20 9 21 10 22 11 23 21 24 22 25
REMARK SMILES IDX 23 26 24 27 25 28 26 29 27 30 28 31 29 32 81 33 30 34 80 35
REMARK SMILES IDX 31 36 32 37 33 38 74 39 34 40 79 41 73 42 75 43 35 44 78 45
REMARK SMILES IDX 72 46 71 47 36 49 62 50 45 51 61 52 46 53 49 54 60 55 76 56
REMARK SMILES IDX 47 57 48 58 59 60 77 61 50 62 37 63 38 64 43 65 39 66 40 67
REMARK SMILES IDX 42 68 44 69 41 70 63 71 64 72 69 73 65 74 66 75 68 76 70 77
REMARK SMILES IDX 67 78 51 79 52 80 57 81 53 82 54 83 56 84 58 85 55 86
REMARK H PARENT 1 10 1 11 1 12 75 48 49 59
REMARK Flexibility Score: inf
ROOT
ATOM      1  C   UNL A   1      34.895  31.301  28.401  1.00  0.00     0.188 C 
ENDROOT
BRANCH   1   2
ATOM      2  O   UNL A   1      34.553  30.311  27.439  1.00  0.00    -0.376 OA
BRANCH   2   3
ATOM      3  C   UNL A   1      33.208  30.238  26.981  1.00  0.00     0.202 C 
BRANCH   3   4
ATOM      4  C   UNL A   1      32.792  29.112  26.019  1.00  0.00     0.261 C 
BRANCH   4   5
ATOM      5  O   UNL A   1      32.455  27.852  26.632  1.00  0.00    -0.459 OA
BRANCH   5   6
ATOM      6  C   UNL A   1      31.437  27.150  26.054  1.00  0.00     0.365 C 
ATOM      7  O   UNL A   1      30.621  26.472  26.673  1.00  0.00    -0.245 OA
BRANCH   6   8
ATOM      8  C   UNL A   1      31.418  27.230  24.514  1.00  0.00     0.296 C 
BRANCH   8   9
ATOM      9  N   UNL A   1      32.324  26.283  23.829  1.00  0.00    -0.346 N 
ATOM     10  H   UNL A   1      32.692  25.614  24.506  1.00  0.00     0.345 HD
ATOM     11  H   UNL A   1      33.096  26.797  23.405  1.00  0.00     0.345 HD
ATOM     12  H   UNL A   1      31.810  25.784  23.104  1.00  0.00     0.345 HD
ENDBRANCH   8   9
BRANCH   8  13
ATOM     13  C   UNL A   1      29.984  27.131  23.977  1.00  0.00     0.113 C 
BRANCH  13  14
ATOM     14  C   UNL A   1      29.357  28.436  23.538  1.00  0.00    -0.041 A 
ATOM     15  C   UNL A   1      30.032  29.660  23.627  1.00  0.00     0.008 A 
ATOM     16  C   UNL A   1      28.056  28.426  23.026  1.00  0.00     0.008 A 
ATOM     17  C   UNL A   1      29.425  30.838  23.186  1.00  0.00     0.047 A 
ATOM     18  C   UNL A   1      27.438  29.611  22.616  1.00  0.00     0.047 A 
ATOM     19  C   UNL A   1      28.118  30.824  22.696  1.00  0.00     0.126 A 
BRANCH  19  20
ATOM     20  O   UNL A   1      27.628  32.047  22.335  1.00  0.00    -0.435 OA
BRANCH  20  21
ATOM     21  C   UNL A   1      28.050  32.585  21.089  1.00  0.00     0.542 C 
ATOM     22  F   UNL A   1      28.146  31.597  20.168  1.00  0.00    -0.167 F 
ATOM     23  F   UNL A   1      27.154  33.499  20.644  1.00  0.00    -0.167 F 
ENDBRANCH  20  21
ENDBRANCH  19  20
ENDBRANCH  13  14
ENDBRANCH   8  13
ENDBRANCH   6   8
ENDBRANCH   5   6
ENDBRANCH   4   5
ENDBRANCH   3   4
ENDBRANCH   2   3
ENDBRANCH   1   2
BRANCH   1  24
ATOM     24  C   UNL A   1      34.712  32.790  28.051  1.00  0.00     0.188 C 
BRANCH  24  25
ATOM     25  O   UNL A   1      34.270  33.608  29.100  1.00  0.00    -0.376 OA
BRANCH  25  26
ATOM     26  C   UNL A   1      33.333  34.627  28.826  1.00  0.00     0.202 C 
BRANCH  26  27
ATOM     27  C   UNL A   1      32.964  35.749  29.822  1.00  0.00     0.261 C 
BRANCH  27  28
ATOM     28  O   UNL A   1      32.278  35.400  31.035  1.00  0.00    -0.460 OA
BRANCH  28  29
ATOM     29  C   UNL A   1      32.744  35.931  32.192  1.00  0.00     0.338 C 
ATOM     30  O   UNL A   1      32.227  36.816  32.858  1.00  0.00    -0.246 OA
BRANCH  29  31
ATOM     31  C   UNL A   1      33.893  35.114  32.647  1.00  0.00     0.060 A 
ATOM     32  C   UNL A   1      35.196  35.634  32.560  1.00  0.00     0.016 A 
ATOM     33  C   UNL A   1      33.683  33.842  33.178  1.00  0.00     0.016 A 
ATOM     34  C   UNL A   1      36.287  34.891  33.025  1.00  0.00     0.010 A 
ATOM     35  C   UNL A   1      34.779  33.088  33.610  1.00  0.00     0.010 A 
ATOM     36  C   UNL A   1      36.088  33.602  33.531  1.00  0.00    -0.014 A 
BRANCH  36  37
ATOM     37  C   UNL A   1      37.232  32.715  33.864  1.00  0.00     0.031 A 
ATOM     38  C   UNL A   1      38.000  32.974  35.129  1.00  0.00     0.074 A 
ATOM     39  C   UNL A   1      37.633  31.742  33.024  1.00  0.00     0.049 A 
ATOM     40  N   UNL A   1      39.145  32.480  35.524  1.00  0.00    -0.248 NA
ATOM     41  C   UNL A   1      37.397  33.930  36.073  1.00  0.00     0.031 C 
ATOM     42  C   UNL A   1      36.954  31.352  31.791  1.00  0.00     0.029 A 
ATOM     43  N   UNL A   1      38.743  30.930  33.068  1.00  0.00    -0.354 N 
ATOM     44  C   UNL A   1      39.416  33.089  36.744  1.00  0.00     0.074 A 
ATOM     45  C   UNL A   1      38.317  33.987  37.024  1.00  0.00     0.031 C 
ATOM     46  C   UNL A   1      37.684  30.408  31.171  1.00  0.00     0.029 A 
ATOM     47  C   UNL A   1      38.905  30.164  31.937  1.00  0.00     0.049 A 
ATOM     48  H   UNL A   1      39.362  30.901  33.833  1.00  0.00     0.167 HD
ATOM     49  C   UNL A   1      40.492  32.920  37.548  1.00  0.00     0.037 A 
ATOM     50  C   UNL A   1      39.943  29.398  31.542  1.00  0.00     0.037 A 
ATOM     51  C   UNL A   1      41.577  32.016  37.271  1.00  0.00     0.049 A 
ATOM     52  C   UNL A   1      41.166  29.289  32.421  1.00  0.00     0.074 A 
ATOM     53  C   UNL A   1      42.682  31.736  38.058  1.00  0.00     0.029 A 
ATOM     54  N   UNL A   1      41.707  31.264  36.116  1.00  0.00    -0.354 N 
ATOM     55  N   UNL A   1      41.396  29.829  33.593  1.00  0.00    -0.248 NA
ATOM     56  C   UNL A   1      42.280  28.469  31.916  1.00  0.00     0.031 C 
ATOM     57  C   UNL A   1      43.514  30.868  37.346  1.00  0.00     0.029 A 
ATOM     58  C   UNL A   1      42.896  30.556  36.147  1.00  0.00     0.049 A 
ATOM     59  H   UNL A   1      41.051  31.236  35.382  1.00  0.00     0.167 HD
ATOM     60  C   UNL A   1      42.662  29.396  33.973  1.00  0.00     0.074 A 
ATOM     61  C   UNL A   1      43.145  28.534  32.918  1.00  0.00     0.031 C 
ATOM     62  C   UNL A   1      43.363  29.690  35.095  1.00  0.00     0.037 A 
BRANCH  49  63
ATOM     63  C   UNL A   1      40.580  33.755  38.790  1.00  0.00     0.057 A 
ATOM     64  C   UNL A   1      41.324  34.940  38.842  1.00  0.00     0.134 A 
ATOM     65  C   UNL A   1      39.841  33.403  39.928  1.00  0.00     0.134 A 
ATOM     66  F   UNL A   1      42.061  35.326  37.790  1.00  0.00    -0.206 F 
ATOM     67  C   UNL A   1      41.336  35.742  39.984  1.00  0.00     0.040 A 
ATOM     68  C   UNL A   1      39.824  34.209  41.066  1.00  0.00     0.040 A 
ATOM     69  F   UNL A   1      39.103  32.283  39.942  1.00  0.00    -0.206 F 
ATOM     70  C   UNL A   1      40.576  35.382  41.097  1.00  0.00     0.006 A 
ENDBRANCH  49  63
BRANCH  50  71
ATOM     71  C   UNL A   1      39.918  28.718  30.217  1.00  0.00     0.057 A 
ATOM     72  C   UNL A   1      40.492  29.309  29.085  1.00  0.00     0.134 A 
ATOM     73  C   UNL A   1      39.261  27.494  30.039  1.00  0.00     0.134 A 
ATOM     74  F   UNL A   1      41.107  30.497  29.181  1.00  0.00    -0.206 F 
ATOM     75  C   UNL A   1      40.389  28.722  27.820  1.00  0.00     0.040 A 
ATOM     76  C   UNL A   1      39.179  26.880  28.788  1.00  0.00     0.040 A 
ATOM     77  F   UNL A   1      38.682  26.877  31.079  1.00  0.00    -0.206 F 
ATOM     78  C   UNL A   1      39.734  27.502  27.671  1.00  0.00     0.006 A 
ENDBRANCH  50  71
BRANCH  62  79
ATOM     79  C   UNL A   1      44.713  29.053  35.265  1.00  0.00     0.057 A 
ATOM     80  C   UNL A   1      45.890  29.690  34.852  1.00  0.00     0.134 A 
ATOM     81  C   UNL A   1      44.843  27.817  35.914  1.00  0.00     0.134 A 
ATOM     82  F   UNL A   1      45.838  30.870  34.215  1.00  0.00    -0.206 F 
ATOM     83  C   UNL A   1      47.145  29.115  35.065  1.00  0.00     0.040 A 
ATOM     84  C   UNL A   1      46.093  27.246  36.158  1.00  0.00     0.040 A 
ATOM     85  F   UNL A   1      43.757  27.157  36.346  1.00  0.00    -0.206 F 
ATOM     86  C   UNL A   1      47.249  27.894  35.730  1.00  0.00     0.006 A 
ENDBRANCH  62  79
ENDBRANCH  36  37
ENDBRANCH  29  31
ENDBRANCH  28  29
ENDBRANCH  27  28
ENDBRANCH  26  27
ENDBRANCH  25  26
ENDBRANCH  24  25
ENDBRANCH   1  24
TORSDOF 22
ENDMDL
MODEL 2
REMARK VINA RESULT:      -9.6      1.935      6.812
REMARK SMILES [NH3+][C@@H](Cc1ccc(OC(F)F)cc1)C(=O)OCCOCCOCCOC(=O)c1ccc(-c2c3nc(c(-c4c(F)cccc4F)c4ccc([nH]4)c(-c4c(F)cccc4F)c4nc(c(-c5c(F)cccc5F)c5ccc2[nH]5)C=C4)C=C3)cc1
REMARK SMILES IDX 20 1 19 2 18 3 17 4 16 5 14 6 15 7 2 8 1 9 3 13 4 14 5 15
REMARK SMILES IDX 13 16 6 17 12 18 7 19 8 20 9 21 10 22 11 23 21 24 22 25
REMARK SMILES IDX 23 26 24 27 25 28 26 29 27 30 28 31 29 32 81 33 30 34 80 35
REMARK SMILES IDX 31 36 32 37 33 38 74 39 34 40 79 41 73 42 75 43 35 44 78 45
REMARK SMILES IDX 72 46 71 47 36 49 62 50 45 51 61 52 46 53 49 54 60 55 76 56
REMARK SMILES IDX 47 57 48 58 59 60 77 61 50 62 37 63 38 64 43 65 39 66 40 67
REMARK SMILES IDX 42 68 44 69 41 70 63 71 64 72 69 73 65 74 66 75 68 76 70 77
REMARK SMILES IDX 67 78 51 79 52 80 57 81 53 82 54 83 56 84 58 85 55 86
REMARK H PARENT 1 10 1 11 1 12 75 48 49 59
REMARK Flexibility Score: inf
ROOT
ATOM      1  C   UNL A   1      32.866  27.867  26.435  1.00  0.00     0.188 C 
ENDROOT
BRANCH   1   2
ATOM      2  O   UNL A   1      33.491  27.269  25.306  1.00  0.00    -0.376 OA
BRANCH   2   3
ATOM      3  C   UNL A   1      33.935  25.922  25.403  1.00  0.00     0.202 C 
BRANCH   3   4
ATOM      4  C   UNL A   1      33.068  24.887  26.140  1.00  0.00     0.261 C 
BRANCH   4   5
ATOM      5  O   UNL A   1      31.936  24.376  25.407  1.00  0.00    -0.459 OA
BRANCH   5   6
ATOM      6  C   UNL A   1      30.830  25.176  25.368  1.00  0.00     0.365 C 
ATOM      7  O   UNL A   1      30.170  25.497  26.353  1.00  0.00    -0.245 OA
BRANCH   6   8
ATOM      8  C   UNL A   1      30.426  25.616  23.946  1.00  0.00     0.296 C 
BRANCH   8   9
ATOM      9  N   UNL A   1      30.600  24.583  22.902  1.00  0.00    -0.346 N 
ATOM     10  H   UNL A   1      30.286  23.681  23.259  1.00  0.00     0.345 HD
ATOM     11  H   UNL A   1      31.585  24.523  22.644  1.00  0.00     0.345 HD
ATOM     12  H   UNL A   1      30.050  24.834  22.080  1.00  0.00     0.345 HD
ENDBRANCH   8   9
BRANCH   8  13
ATOM     13  C   UNL A   1      29.007  26.200  23.935  1.00  0.00     0.113 C 
BRANCH  13  14
ATOM     14  C   UNL A   1      28.881  27.603  23.385  1.00  0.00    -0.041 A 
ATOM     15  C   UNL A   1      29.959  28.280  22.800  1.00  0.00     0.008 A 
ATOM     16  C   UNL A   1      27.646  28.254  23.460  1.00  0.00     0.008 A 
ATOM     17  C   UNL A   1      29.792  29.566  22.281  1.00  0.00     0.047 A 
ATOM     18  C   UNL A   1      27.489  29.553  22.970  1.00  0.00     0.047 A 
ATOM     19  C   UNL A   1      28.561  30.218  22.379  1.00  0.00     0.126 A 
BRANCH  19  20
ATOM     20  O   UNL A   1      28.541  31.484  21.869  1.00  0.00    -0.435 OA
BRANCH  20  21
ATOM     21  C   UNL A   1      27.838  31.693  20.651  1.00  0.00     0.542 C 
ATOM     22  F   UNL A   1      28.543  32.521  19.846  1.00  0.00    -0.167 F 
ATOM     23  F   UNL A   1      27.662  30.514  20.003  1.00  0.00    -0.167 F 
ENDBRANCH  20  21
ENDBRANCH  19  20
ENDBRANCH  13  14
ENDBRANCH   8  13
ENDBRANCH   6   8
ENDBRANCH   5   6
ENDBRANCH   4   5
ENDBRANCH   3   4
ENDBRANCH   2   3
ENDBRANCH   1   2
BRANCH   1  24
ATOM     24  C   UNL A   1      31.659  28.800  26.224  1.00  0.00     0.188 C 
BRANCH  24  25
ATOM     25  O   UNL A   1      31.971  30.137  25.939  1.00  0.00    -0.376 OA
BRANCH  25  26
ATOM     26  C   UNL A   1      32.567  30.929  26.943  1.00  0.00     0.202 C 
BRANCH  26  27
ATOM     27  C   UNL A   1      32.103  32.359  27.300  1.00  0.00     0.261 C 
BRANCH  27  28
ATOM     28  O   UNL A   1      33.067  33.424  27.290  1.00  0.00    -0.460 OA
BRANCH  28  29
ATOM     29  C   UNL A   1      33.239  34.123  28.438  1.00  0.00     0.338 C 
ATOM     30  O   UNL A   1      32.441  34.885  28.964  1.00  0.00    -0.246 OA
BRANCH  29  31
ATOM     31  C   UNL A   1      34.486  33.653  29.084  1.00  0.00     0.060 A 
ATOM     32  C   UNL A   1      35.721  34.207  28.702  1.00  0.00     0.016 A 
ATOM     33  C   UNL A   1      34.437  32.681  30.082  1.00  0.00     0.016 A 
ATOM     34  C   UNL A   1      36.903  33.804  29.333  1.00  0.00     0.010 A 
ATOM     35  C   UNL A   1      35.625  32.254  30.686  1.00  0.00     0.010 A 
ATOM     36  C   UNL A   1      36.865  32.806  30.313  1.00  0.00    -0.014 A 
BRANCH  36  37
ATOM     37  C   UNL A   1      38.112  32.224  30.875  1.00  0.00     0.031 A 
ATOM     38  C   UNL A   1      38.788  31.112  30.125  1.00  0.00     0.074 A 
ATOM     39  C   UNL A   1      38.596  32.621  32.066  1.00  0.00     0.049 A 
ATOM     40  N   UNL A   1      39.751  30.313  30.509  1.00  0.00    -0.248 NA
ATOM     41  C   UNL A   1      38.305  30.859  28.757  1.00  0.00     0.031 C 
ATOM     42  C   UNL A   1      38.068  33.718  32.874  1.00  0.00     0.029 A 
ATOM     43  N   UNL A   1      39.625  32.111  32.823  1.00  0.00    -0.354 N 
ATOM     44  C   UNL A   1      39.965  29.444  29.447  1.00  0.00     0.074 A 
ATOM     45  C   UNL A   1      39.034  29.811  28.402  1.00  0.00     0.031 C 
ATOM     46  C   UNL A   1      38.746  33.770  34.034  1.00  0.00     0.029 A 
ATOM     47  C   UNL A   1      39.721  32.680  34.071  1.00  0.00     0.049 A 
ATOM     48  H   UNL A   1      40.233  31.405  32.504  1.00  0.00     0.167 HD
ATOM     49  C   UNL A   1      40.851  28.424  29.359  1.00  0.00     0.037 A 
ATOM     50  C   UNL A   1      40.468  32.328  35.138  1.00  0.00     0.037 A 
ATOM     51  C   UNL A   1      41.784  28.069  30.396  1.00  0.00     0.049 A 
ATOM     52  C   UNL A   1      41.392  31.137  35.041  1.00  0.00     0.074 A 
ATOM     53  C   UNL A   1      42.760  27.087  30.373  1.00  0.00     0.029 A 
ATOM     54  N   UNL A   1      41.845  28.666  31.645  1.00  0.00    -0.354 N 
ATOM     55  N   UNL A   1      41.624  30.349  34.019  1.00  0.00    -0.248 NA
ATOM     56  C   UNL A   1      42.151  30.781  36.250  1.00  0.00     0.031 C 
ATOM     57  C   UNL A   1      43.364  27.043  31.632  1.00  0.00     0.029 A 
ATOM     58  C   UNL A   1      42.810  28.042  32.417  1.00  0.00     0.049 A 
ATOM     59  H   UNL A   1      41.287  29.422  31.939  1.00  0.00     0.167 HD
ATOM     60  C   UNL A   1      42.569  29.426  34.454  1.00  0.00     0.074 A 
ATOM     61  C   UNL A   1      42.882  29.760  35.825  1.00  0.00     0.031 C 
ATOM     62  C   UNL A   1      43.124  28.390  33.778  1.00  0.00     0.037 A 
BRANCH  49  63
ATOM     63  C   UNL A   1      40.837  27.584  28.118  1.00  0.00     0.057 A 
ATOM     64  C   UNL A   1      41.567  27.929  26.974  1.00  0.00     0.134 A 
ATOM     65  C   UNL A   1      40.142  26.368  28.100  1.00  0.00     0.134 A 
ATOM     66  F   UNL A   1      42.244  29.085  26.923  1.00  0.00    -0.206 F 
ATOM     67  C   UNL A   1      41.599  27.098  25.853  1.00  0.00     0.040 A 
ATOM     68  C   UNL A   1      40.187  25.515  26.997  1.00  0.00     0.040 A 
ATOM     69  F   UNL A   1      39.427  25.975  29.167  1.00  0.00    -0.206 F 
ATOM     70  C   UNL A   1      40.916  25.881  25.868  1.00  0.00     0.006 A 
ENDBRANCH  49  63
BRANCH  50  71
ATOM     71  C   UNL A   1      40.337  33.062  36.427  1.00  0.00     0.057 A 
ATOM     72  C   UNL A   1      39.325  32.749  37.343  1.00  0.00     0.134 A 
ATOM     73  C   UNL A   1      41.178  34.137  36.743  1.00  0.00     0.134 A 
ATOM     74  F   UNL A   1      38.466  31.752  37.086  1.00  0.00    -0.206 F 
ATOM     75  C   UNL A   1      39.136  33.495  38.510  1.00  0.00     0.040 A 
ATOM     76  C   UNL A   1      41.022  34.870  37.920  1.00  0.00     0.040 A 
ATOM     77  F   UNL A   1      42.162  34.496  35.905  1.00  0.00    -0.206 F 
ATOM     78  C   UNL A   1      39.990  34.557  38.802  1.00  0.00     0.006 A 
ENDBRANCH  50  71
BRANCH  62  79
ATOM     79  C   UNL A   1      44.153  27.560  34.491  1.00  0.00     0.057 A 
ATOM     80  C   UNL A   1      43.817  26.374  35.156  1.00  0.00     0.134 A 
ATOM     81  C   UNL A   1      45.509  27.915  34.452  1.00  0.00     0.134 A 
ATOM     82  F   UNL A   1      42.537  25.981  35.241  1.00  0.00    -0.206 F 
ATOM     83  C   UNL A   1      44.789  25.579  35.768  1.00  0.00     0.040 A 
ATOM     84  C   UNL A   1      46.493  27.114  35.035  1.00  0.00     0.040 A 
ATOM     85  F   UNL A   1      45.902  29.032  33.822  1.00  0.00    -0.206 F 
ATOM     86  C   UNL A   1      46.133  25.944  35.699  1.00  0.00     0.006 A 
ENDBRANCH  62  79
ENDBRANCH  36  37
ENDBRANCH  29  31
ENDBRANCH  28  29
ENDBRANCH  27  28
ENDBRANCH  26  27
ENDBRANCH  25  26
ENDBRANCH  24  25
ENDBRANCH   1  24
TORSDOF 22
ENDMDL
MODEL 3
REMARK VINA RESULT:      -9.5      2.141      6.848
REMARK SMILES [NH3+][C@@H](Cc1ccc(OC(F)F)cc1)C(=O)OCCOCCOCCOC(=O)c1ccc(-c2c3nc(c(-c4c(F)cccc4F)c4ccc([nH]4)c(-c4c(F)cccc4F)c4nc(c(-c5c(F)cccc5F)c5ccc2[nH]5)C=C4)C=C3)cc1
REMARK SMILES IDX 20 1 19 2 18 3 17 4 16 5 14 6 15 7 2 8 1 9 3 13 4 14 5 15
REMARK SMILES IDX 13 16 6 17 12 18 7 19 8 20 9 21 10 22 11 23 21 24 22 25
REMARK SMILES IDX 23 26 24 27 25 28 26 29 27 30 28 31 29 32 81 33 30 34 80 35
REMARK SMILES IDX 31 36 32 37 33 38 74 39 34 40 79 41 73 42 75 43 35 44 78 45
REMARK SMILES IDX 72 46 71 47 36 49 62 50 45 51 61 52 46 53 49 54 60 55 76 56
REMARK SMILES IDX 47 57 48 58 59 60 77 61 50 62 37 63 38 64 43 65 39 66 40 67
REMARK SMILES IDX 42 68 44 69 41 70 63 71 64 72 69 73 65 74 66 75 68 76 70 77
REMARK SMILES IDX 67 78 51 79 52 80 57 81 53 82 54 83 56 84 58 85 55 86
REMARK H PARENT 1 10 1 11 1 12 75 48 49 59
REMARK Flexibility Score: inf
ROOT
ATOM      1  C   UNL A   1      32.800  29.407  24.899  1.00  0.00     0.188 C 
ENDROOT
BRANCH   1   2
ATOM      2  O   UNL A   1      33.909  28.542  25.118  1.00  0.00    -0.376 OA
BRANCH   2   3
ATOM      3  C   UNL A   1      33.718  27.139  24.986  1.00  0.00     0.202 C 
BRANCH   3   4
ATOM      4  C   UNL A   1      32.983  26.364  26.092  1.00  0.00     0.261 C 
BRANCH   4   5
ATOM      5  O   UNL A   1      33.295  24.960  26.193  1.00  0.00    -0.459 OA
BRANCH   5   6
ATOM      6  C   UNL A   1      32.238  24.117  26.382  1.00  0.00     0.365 C 
ATOM      7  O   UNL A   1      31.486  24.154  27.352  1.00  0.00    -0.245 OA
BRANCH   6   8
ATOM      8  C   UNL A   1      32.087  23.047  25.282  1.00  0.00     0.296 C 
BRANCH   8   9
ATOM      9  N   UNL A   1      32.136  21.648  25.762  1.00  0.00    -0.346 N 
ATOM     10  H   UNL A   1      31.896  21.620  26.753  1.00  0.00     0.345 HD
ATOM     11  H   UNL A   1      33.075  21.276  25.628  1.00  0.00     0.345 HD
ATOM     12  H   UNL A   1      31.469  21.084  25.235  1.00  0.00     0.345 HD
ENDBRANCH   8   9
BRANCH   8  13
ATOM     13  C   UNL A   1      30.839  23.310  24.429  1.00  0.00     0.113 C 
BRANCH  13  14
ATOM     14  C   UNL A   1      30.760  24.678  23.789  1.00  0.00    -0.041 A 
ATOM     15  C   UNL A   1      29.842  25.650  24.207  1.00  0.00     0.008 A 
ATOM     16  C   UNL A   1      31.631  24.989  22.740  1.00  0.00     0.008 A 
ATOM     17  C   UNL A   1      29.820  26.911  23.606  1.00  0.00     0.047 A 
ATOM     18  C   UNL A   1      31.585  26.239  22.118  1.00  0.00     0.047 A 
ATOM     19  C   UNL A   1      30.678  27.207  22.544  1.00  0.00     0.126 A 
BRANCH  19  20
ATOM     20  O   UNL A   1      30.529  28.459  22.020  1.00  0.00    -0.435 OA
BRANCH  20  21
ATOM     21  C   UNL A   1      29.560  29.311  22.615  1.00  0.00     0.542 C 
ATOM     22  F   UNL A   1      29.897  30.606  22.414  1.00  0.00    -0.167 F 
ATOM     23  F   UNL A   1      28.341  29.096  22.061  1.00  0.00    -0.167 F 
ENDBRANCH  20  21
ENDBRANCH  19  20
ENDBRANCH  13  14
ENDBRANCH   8  13
ENDBRANCH   6   8
ENDBRANCH   5   6
ENDBRANCH   4   5
ENDBRANCH   3   4
ENDBRANCH   2   3
ENDBRANCH   1   2
BRANCH   1  24
ATOM     24  C   UNL A   1      31.746  29.579  26.010  1.00  0.00     0.188 C 
BRANCH  24  25
ATOM     25  O   UNL A   1      32.116  30.420  27.068  1.00  0.00    -0.376 OA
BRANCH  25  26
ATOM     26  C   UNL A   1      31.919  31.811  26.938  1.00  0.00     0.202 C 
BRANCH  26  27
ATOM     27  C   UNL A   1      32.735  32.872  27.709  1.00  0.00     0.261 C 
BRANCH  27  28
ATOM     28  O   UNL A   1      32.288  34.237  27.691  1.00  0.00    -0.460 OA
BRANCH  28  29
ATOM     29  C   UNL A   1      32.839  35.088  28.592  1.00  0.00     0.338 C 
ATOM     30  O   UNL A   1      32.345  36.113  29.037  1.00  0.00    -0.246 OA
BRANCH  29  31
ATOM     31  C   UNL A   1      34.072  34.462  29.125  1.00  0.00     0.060 A 
ATOM     32  C   UNL A   1      34.028  33.762  30.343  1.00  0.00     0.016 A 
ATOM     33  C   UNL A   1      35.267  34.550  28.414  1.00  0.00     0.016 A 
ATOM     34  C   UNL A   1      35.174  33.130  30.838  1.00  0.00     0.010 A 
ATOM     35  C   UNL A   1      36.420  33.946  28.928  1.00  0.00     0.010 A 
ATOM     36  C   UNL A   1      36.384  33.239  30.145  1.00  0.00    -0.014 A 
BRANCH  36  37
ATOM     37  C   UNL A   1      37.657  32.739  30.726  1.00  0.00     0.031 A 
ATOM     38  C   UNL A   1      38.312  31.540  30.101  1.00  0.00     0.074 A 
ATOM     39  C   UNL A   1      38.186  33.291  31.835  1.00  0.00     0.049 A 
ATOM     40  N   UNL A   1      39.297  30.803  30.546  1.00  0.00    -0.248 NA
ATOM     41  C   UNL A   1      37.776  31.109  28.799  1.00  0.00     0.031 C 
ATOM     42  C   UNL A   1      37.683  34.482  32.513  1.00  0.00     0.029 A 
ATOM     43  N   UNL A   1      39.250  32.887  32.609  1.00  0.00    -0.354 N 
ATOM     44  C   UNL A   1      39.475  29.802  29.599  1.00  0.00     0.074 A 
ATOM     45  C   UNL A   1      38.499  30.027  28.554  1.00  0.00     0.031 C 
ATOM     46  C   UNL A   1      38.407  34.688  33.627  1.00  0.00     0.029 A 
ATOM     47  C   UNL A   1      39.391  33.615  33.767  1.00  0.00     0.049 A 
ATOM     48  H   UNL A   1      39.850  32.148  32.359  1.00  0.00     0.167 HD
ATOM     49  C   UNL A   1      40.366  28.783  29.608  1.00  0.00     0.037 A 
ATOM     50  C   UNL A   1      40.184  33.408  34.838  1.00  0.00     0.037 A 
ATOM     51  C   UNL A   1      41.343  28.570  30.643  1.00  0.00     0.049 A 
ATOM     52  C   UNL A   1      41.113  32.218  34.859  1.00  0.00     0.074 A 
ATOM     53  C   UNL A   1      42.326  27.596  30.708  1.00  0.00     0.029 A 
ATOM     54  N   UNL A   1      41.450  29.325  31.799  1.00  0.00    -0.354 N 
ATOM     55  N   UNL A   1      41.311  31.303  33.941  1.00  0.00    -0.248 NA
ATOM     56  C   UNL A   1      41.924  32.025  36.072  1.00  0.00     0.031 C 
ATOM     57  C   UNL A   1      42.980  27.719  31.936  1.00  0.00     0.029 A 
ATOM     58  C   UNL A   1      42.451  28.810  32.606  1.00  0.00     0.049 A 
ATOM     59  H   UNL A   1      40.898  30.111  32.015  1.00  0.00     0.167 HD
ATOM     60  C   UNL A   1      42.280  30.448  34.452  1.00  0.00     0.074 A 
ATOM     61  C   UNL A   1      42.647  30.960  35.754  1.00  0.00     0.031 C 
ATOM     62  C   UNL A   1      42.816  29.335  33.896  1.00  0.00     0.037 A 
BRANCH  49  63
ATOM     63  C   UNL A   1      40.308  27.787  28.489  1.00  0.00     0.057 A 
ATOM     64  C   UNL A   1      40.985  27.984  27.279  1.00  0.00     0.134 A 
ATOM     65  C   UNL A   1      39.627  26.575  28.661  1.00  0.00     0.134 A 
ATOM     66  F   UNL A   1      41.646  29.127  27.048  1.00  0.00    -0.206 F 
ATOM     67  C   UNL A   1      40.979  27.013  26.276  1.00  0.00     0.040 A 
ATOM     68  C   UNL A   1      39.635  25.586  27.677  1.00  0.00     0.040 A 
ATOM     69  F   UNL A   1      38.963  26.321  29.799  1.00  0.00    -0.206 F 
ATOM     70  C   UNL A   1      40.311  25.805  26.479  1.00  0.00     0.006 A 
ENDBRANCH  49  63
BRANCH  50  71
ATOM     71  C   UNL A   1      40.100  34.304  36.024  1.00  0.00     0.057 A 
ATOM     72  C   UNL A   1      40.926  35.427  36.149  1.00  0.00     0.134 A 
ATOM     73  C   UNL A   1      39.238  34.020  37.092  1.00  0.00     0.134 A 
ATOM     74  F   UNL A   1      41.798  35.736  35.178  1.00  0.00    -0.206 F 
ATOM     75  C   UNL A   1      40.920  36.218  37.302  1.00  0.00     0.040 A 
ATOM     76  C   UNL A   1      39.198  34.819  38.235  1.00  0.00     0.040 A 
ATOM     77  F   UNL A   1      38.426  32.955  37.042  1.00  0.00    -0.206 F 
ATOM     78  C   UNL A   1      40.050  35.915  38.348  1.00  0.00     0.006 A 
ENDBRANCH  50  71
BRANCH  62  79
ATOM     79  C   UNL A   1      43.881  28.608  34.668  1.00  0.00     0.057 A 
ATOM     80  C   UNL A   1      43.577  27.545  35.527  1.00  0.00     0.134 A 
ATOM     81  C   UNL A   1      45.234  28.931  34.495  1.00  0.00     0.134 A 
ATOM     82  F   UNL A   1      42.302  27.191  35.747  1.00  0.00    -0.206 F 
ATOM     83  C   UNL A   1      44.579  26.839  36.197  1.00  0.00     0.040 A 
ATOM     84  C   UNL A   1      46.246  28.214  35.136  1.00  0.00     0.040 A 
ATOM     85  F   UNL A   1      45.597  29.931  33.677  1.00  0.00    -0.206 F 
ATOM     86  C   UNL A   1      45.918  27.167  35.994  1.00  0.00     0.006 A 
ENDBRANCH  62  79
ENDBRANCH  36  37
ENDBRANCH  29  31
ENDBRANCH  28  29
ENDBRANCH  27  28
ENDBRANCH  26  27
ENDBRANCH  25  26
ENDBRANCH  24  25
ENDBRANCH   1  24
TORSDOF 22
ENDMDL
