MODEL 1
REMARK VINA RESULT:     -10.8      0.000      0.000
REMARK SMILES CSCC[C@H](NC(=O)Nc1cccc(-c2nc3ccccc3o2)c1)C(=O)OCCOCCOCCOC(=O)c1ccc(-c2c3nc(c(-c4c(F)cccc4F)c4ccc([nH]4)c(-c4c(F)cccc4F)c4nc(c(-c5c(F)cccc5F)c5ccc2[nH]5)C=C4)C=C3)cc1
REMARK SMILES IDX 31 1 30 2 29 3 28 4 27 5 25 6 26 7 5 8 4 9 3 10 2 11 1 12
REMARK SMILES IDX 6 13 7 14 8 16 9 17 10 19 11 20 24 21 12 22 14 23 13 24
REMARK SMILES IDX 15 25 16 26 23 27 17 28 22 29 18 30 21 31 19 32 20 33 32 34
REMARK SMILES IDX 33 35 34 36 35 37 36 38 37 39 38 40 39 41 40 42 92 43 41 44
REMARK SMILES IDX 91 45 42 46 43 47 44 48 85 49 45 50 90 51 84 52 86 53 46 54
REMARK SMILES IDX 89 55 83 56 82 57 47 59 73 60 56 61 72 62 57 63 60 64 71 65
REMARK SMILES IDX 87 66 58 67 59 68 70 70 88 71 61 72 48 73 49 74 54 75 50 76
REMARK SMILES IDX 51 77 53 78 55 79 52 80 74 81 75 82 80 83 76 84 77 85 79 86
REMARK SMILES IDX 81 87 78 88 62 89 63 90 68 91 64 92 65 93 67 94 69 95 66 96
REMARK H PARENT 6 15 9 18 86 58 60 69
REMARK Flexibility Score: inf
ROOT
ATOM      1  C   UNL A   1      35.590  21.473  25.679  1.00  0.00     0.188 C 
ENDROOT
BRANCH   1   2
ATOM      2  O   UNL A   1      34.634  22.524  25.808  1.00  0.00    -0.376 OA
BRANCH   2   3
ATOM      3  C   UNL A   1      35.131  23.821  25.482  1.00  0.00     0.202 C 
BRANCH   3   4
ATOM      4  C   UNL A   1      34.089  24.962  25.497  1.00  0.00     0.261 C 
BRANCH   4   5
ATOM      5  O   UNL A   1      33.270  24.991  26.692  1.00  0.00    -0.462 OA
BRANCH   5   6
ATOM      6  C   UNL A   1      31.905  25.080  26.622  1.00  0.00     0.328 C 
ATOM      7  O   UNL A   1      31.138  24.239  27.070  1.00  0.00    -0.250 OA
BRANCH   6   8
ATOM      8  C   UNL A   1      31.454  26.475  26.059  1.00  0.00     0.194 C 
BRANCH   8   9
ATOM      9  C   UNL A   1      31.675  27.624  27.055  1.00  0.00     0.048 C 
BRANCH   9  10
ATOM     10  C   UNL A   1      32.166  28.919  26.384  1.00  0.00     0.072 C 
BRANCH  10  11
ATOM     11  S   UNL A   1      33.929  28.794  25.923  1.00  0.00    -0.165 SA
ATOM     12  C   UNL A   1      34.717  29.289  27.480  1.00  0.00     0.085 C 
ENDBRANCH  10  11
ENDBRANCH   9  10
ENDBRANCH   8   9
BRANCH   8  13
ATOM     13  N   UNL A   1      30.092  26.427  25.548  1.00  0.00    -0.324 N 
ATOM     14  C   UNL A   1      29.498  25.996  24.441  1.00  0.00     0.319 C 
ATOM     15  H   UNL A   1      29.448  26.813  26.185  1.00  0.00     0.166 HD
ATOM     16  O   UNL A   1      28.330  26.370  24.274  1.00  0.00    -0.248 OA
ATOM     17  N   UNL A   1      29.993  25.212  23.477  1.00  0.00    -0.308 N 
ATOM     18  H   UNL A   1      29.426  25.276  22.675  1.00  0.00     0.171 HD
BRANCH  17  19
ATOM     19  C   UNL A   1      31.057  24.326  23.234  1.00  0.00     0.043 A 
ATOM     20  C   UNL A   1      32.110  24.800  22.456  1.00  0.00     0.026 A 
ATOM     21  C   UNL A   1      31.125  22.994  23.573  1.00  0.00     0.040 A 
ATOM     22  C   UNL A   1      33.209  23.989  22.123  1.00  0.00     0.003 A 
ATOM     23  C   UNL A   1      32.209  22.147  23.280  1.00  0.00     0.039 A 
ATOM     24  C   UNL A   1      33.270  22.659  22.554  1.00  0.00     0.014 A 
BRANCH  23  25
ATOM     25  C   UNL A   1      32.012  20.745  23.646  1.00  0.00     0.227 A 
ATOM     26  N   UNL A   1      32.091  20.283  24.880  1.00  0.00    -0.209 NA
ATOM     27  O   UNL A   1      32.257  19.801  22.677  1.00  0.00    -0.436 OA
ATOM     28  C   UNL A   1      32.527  19.001  24.741  1.00  0.00     0.110 A 
ATOM     29  C   UNL A   1      32.591  18.678  23.398  1.00  0.00     0.155 A 
ATOM     30  C   UNL A   1      32.946  18.075  25.705  1.00  0.00     0.032 A 
ATOM     31  C   UNL A   1      33.001  17.439  22.924  1.00  0.00     0.049 A 
ATOM     32  C   UNL A   1      33.423  16.838  25.263  1.00  0.00     0.003 A 
ATOM     33  C   UNL A   1      33.430  16.522  23.899  1.00  0.00     0.004 A 
ENDBRANCH  23  25
ENDBRANCH  17  19
ENDBRANCH   8  13
ENDBRANCH   6   8
ENDBRANCH   5   6
ENDBRANCH   4   5
ENDBRANCH   3   4
ENDBRANCH   2   3
ENDBRANCH   1   2
BRANCH   1  34
ATOM     34  C   UNL A   1      37.017  22.006  25.671  1.00  0.00     0.188 C 
BRANCH  34  35
ATOM     35  O   UNL A   1      37.975  21.362  24.844  1.00  0.00    -0.376 OA
BRANCH  35  36
ATOM     36  C   UNL A   1      38.076  19.957  24.962  1.00  0.00     0.202 C 
BRANCH  36  37
ATOM     37  C   UNL A   1      39.178  19.414  25.882  1.00  0.00     0.261 C 
BRANCH  37  38
ATOM     38  O   UNL A   1      40.509  19.390  25.335  1.00  0.00    -0.460 OA
BRANCH  38  39
ATOM     39  C   UNL A   1      41.513  19.539  26.240  1.00  0.00     0.338 C 
ATOM     40  O   UNL A   1      42.277  18.668  26.631  1.00  0.00    -0.246 OA
BRANCH  39  41
ATOM     41  C   UNL A   1      41.602  20.960  26.682  1.00  0.00     0.060 A 
ATOM     42  C   UNL A   1      41.342  21.977  25.756  1.00  0.00     0.016 A 
ATOM     43  C   UNL A   1      41.998  21.305  27.980  1.00  0.00     0.016 A 
ATOM     44  C   UNL A   1      41.492  23.326  26.113  1.00  0.00     0.010 A 
ATOM     45  C   UNL A   1      42.167  22.656  28.333  1.00  0.00     0.010 A 
ATOM     46  C   UNL A   1      41.938  23.679  27.397  1.00  0.00    -0.014 A 
BRANCH  46  47
ATOM     47  C   UNL A   1      42.316  25.093  27.690  1.00  0.00     0.031 A 
ATOM     48  C   UNL A   1      43.665  25.592  27.246  1.00  0.00     0.074 A 
ATOM     49  C   UNL A   1      41.486  25.951  28.314  1.00  0.00     0.049 A 
ATOM     50  N   UNL A   1      44.164  26.800  27.311  1.00  0.00    -0.248 NA
ATOM     51  C   UNL A   1      44.566  24.594  26.651  1.00  0.00     0.031 C 
ATOM     52  C   UNL A   1      40.156  25.625  28.802  1.00  0.00     0.029 A 
ATOM     53  N   UNL A   1      41.637  27.278  28.646  1.00  0.00    -0.354 N 
ATOM     54  C   UNL A   1      45.428  26.717  26.742  1.00  0.00     0.074 A 
ATOM     55  C   UNL A   1      45.635  25.329  26.383  1.00  0.00     0.031 C 
ATOM     56  C   UNL A   1      39.602  26.708  29.369  1.00  0.00     0.029 A 
ATOM     57  C   UNL A   1      40.550  27.814  29.298  1.00  0.00     0.049 A 
ATOM     58  H   UNL A   1      42.446  27.796  28.436  1.00  0.00     0.167 HD
ATOM     59  C   UNL A   1      46.329  27.705  26.525  1.00  0.00     0.037 A 
ATOM     60  C   UNL A   1      40.333  29.052  29.785  1.00  0.00     0.037 A 
ATOM     61  C   UNL A   1      46.149  29.080  26.915  1.00  0.00     0.049 A 
ATOM     62  C   UNL A   1      41.376  30.118  29.591  1.00  0.00     0.074 A 
ATOM     63  C   UNL A   1      47.007  30.150  26.720  1.00  0.00     0.029 A 
ATOM     64  N   UNL A   1      45.051  29.574  27.604  1.00  0.00    -0.354 N 
ATOM     65  N   UNL A   1      42.534  30.041  28.984  1.00  0.00    -0.248 NA
ATOM     66  C   UNL A   1      41.072  31.449  30.135  1.00  0.00     0.031 C 
ATOM     67  C   UNL A   1      46.458  31.275  27.347  1.00  0.00     0.029 A 
ATOM     68  C   UNL A   1      45.224  30.924  27.870  1.00  0.00     0.049 A 
ATOM     69  H   UNL A   1      44.264  29.044  27.865  1.00  0.00     0.167 HD
ATOM     70  C   UNL A   1      43.081  31.318  29.040  1.00  0.00     0.074 A 
ATOM     71  C   UNL A   1      42.118  32.153  29.727  1.00  0.00     0.031 C 
ATOM     72  C   UNL A   1      44.270  31.757  28.559  1.00  0.00     0.037 A 
BRANCH  59  73
ATOM     73  C   UNL A   1      47.615  27.316  25.855  1.00  0.00     0.057 A 
ATOM     74  C   UNL A   1      48.719  26.852  26.583  1.00  0.00     0.134 A 
ATOM     75  C   UNL A   1      47.747  27.394  24.463  1.00  0.00     0.134 A 
ATOM     76  F   UNL A   1      48.663  26.764  27.921  1.00  0.00    -0.206 F 
ATOM     77  C   UNL A   1      49.918  26.510  25.954  1.00  0.00     0.040 A 
ATOM     78  C   UNL A   1      48.931  27.027  23.820  1.00  0.00     0.040 A 
ATOM     79  F   UNL A   1      46.729  27.824  23.704  1.00  0.00    -0.206 F 
ATOM     80  C   UNL A   1      50.023  26.593  24.568  1.00  0.00     0.006 A 
ENDBRANCH  59  73
BRANCH  60  81
ATOM     81  C   UNL A   1      39.065  29.365  30.499  1.00  0.00     0.057 A 
ATOM     82  C   UNL A   1      38.922  29.136  31.872  1.00  0.00     0.134 A 
ATOM     83  C   UNL A   1      37.951  29.866  29.812  1.00  0.00     0.134 A 
ATOM     84  F   UNL A   1      39.944  28.636  32.583  1.00  0.00    -0.206 F 
ATOM     85  C   UNL A   1      37.714  29.369  32.533  1.00  0.00     0.040 A 
ATOM     86  C   UNL A   1      36.745  30.128  30.465  1.00  0.00     0.040 A 
ATOM     87  F   UNL A   1      38.020  30.111  28.496  1.00  0.00    -0.206 F 
ATOM     88  C   UNL A   1      36.621  29.870  31.828  1.00  0.00     0.006 A 
ENDBRANCH  60  81
BRANCH  72  89
ATOM     89  C   UNL A   1      44.582  33.220  28.722  1.00  0.00     0.057 A 
ATOM     90  C   UNL A   1      44.232  34.173  27.756  1.00  0.00     0.134 A 
ATOM     91  C   UNL A   1      45.239  33.683  29.870  1.00  0.00     0.134 A 
ATOM     92  F   UNL A   1      43.612  33.800  26.625  1.00  0.00    -0.206 F 
ATOM     93  C   UNL A   1      44.558  35.523  27.907  1.00  0.00     0.040 A 
ATOM     94  C   UNL A   1      45.539  35.034  30.050  1.00  0.00     0.040 A 
ATOM     95  F   UNL A   1      45.595  32.830  30.843  1.00  0.00    -0.206 F 
ATOM     96  C   UNL A   1      45.209  35.958  29.060  1.00  0.00     0.006 A 
ENDBRANCH  72  89
ENDBRANCH  46  47
ENDBRANCH  39  41
ENDBRANCH  38  39
ENDBRANCH  37  38
ENDBRANCH  36  37
ENDBRANCH  35  36
ENDBRANCH  34  35
ENDBRANCH   1  34
TORSDOF 23
ENDMDL
MODEL 2
REMARK VINA RESULT:     -10.7      0.572      5.724
REMARK SMILES CSCC[C@H](NC(=O)Nc1cccc(-c2nc3ccccc3o2)c1)C(=O)OCCOCCOCCOC(=O)c1ccc(-c2c3nc(c(-c4c(F)cccc4F)c4ccc([nH]4)c(-c4c(F)cccc4F)c4nc(c(-c5c(F)cccc5F)c5ccc2[nH]5)C=C4)C=C3)cc1
REMARK SMILES IDX 31 1 30 2 29 3 28 4 27 5 25 6 26 7 5 8 4 9 3 10 2 11 1 12
REMARK SMILES IDX 6 13 7 14 8 16 9 17 10 19 11 20 24 21 12 22 14 23 13 24
REMARK SMILES IDX 15 25 16 26 23 27 17 28 22 29 18 30 21 31 19 32 20 33 32 34
REMARK SMILES IDX 33 35 34 36 35 37 36 38 37 39 38 40 39 41 40 42 92 43 41 44
REMARK SMILES IDX 91 45 42 46 43 47 44 48 85 49 45 50 90 51 84 52 86 53 46 54
REMARK SMILES IDX 89 55 83 56 82 57 47 59 73 60 56 61 72 62 57 63 60 64 71 65
REMARK SMILES IDX 87 66 58 67 59 68 70 70 88 71 61 72 48 73 49 74 54 75 50 76
REMARK SMILES IDX 51 77 53 78 55 79 52 80 74 81 75 82 80 83 76 84 77 85 79 86
REMARK SMILES IDX 81 87 78 88 62 89 63 90 68 91 64 92 65 93 67 94 69 95 66 96
REMARK H PARENT 6 15 9 18 86 58 60 69
REMARK Flexibility Score: inf
ROOT
ATOM      1  C   UNL A   1      35.637  21.526  25.497  1.00  0.00     0.188 C 
ENDROOT
BRANCH   1   2
ATOM      2  O   UNL A   1      34.737  22.575  25.851  1.00  0.00    -0.376 OA
BRANCH   2   3
ATOM      3  C   UNL A   1      35.110  23.864  25.364  1.00  0.00     0.202 C 
BRANCH   3   4
ATOM      4  C   UNL A   1      34.023  24.958  25.467  1.00  0.00     0.261 C 
BRANCH   4   5
ATOM      5  O   UNL A   1      33.215  24.870  26.666  1.00  0.00    -0.462 OA
BRANCH   5   6
ATOM      6  C   UNL A   1      31.856  25.036  26.627  1.00  0.00     0.328 C 
ATOM      7  O   UNL A   1      31.055  24.268  27.140  1.00  0.00    -0.250 OA
BRANCH   6   8
ATOM      8  C   UNL A   1      31.472  26.425  26.000  1.00  0.00     0.194 C 
BRANCH   8   9
ATOM      9  C   UNL A   1      31.716  27.602  26.956  1.00  0.00     0.048 C 
BRANCH   9  10
ATOM     10  C   UNL A   1      32.000  28.925  26.224  1.00  0.00     0.072 C 
BRANCH  10  11
ATOM     11  S   UNL A   1      33.064  30.019  27.228  1.00  0.00    -0.165 SA
ATOM     12  C   UNL A   1      34.696  29.306  26.883  1.00  0.00     0.085 C 
ENDBRANCH  10  11
ENDBRANCH   9  10
ENDBRANCH   8   9
BRANCH   8  13
ATOM     13  N   UNL A   1      30.120  26.409  25.462  1.00  0.00    -0.324 N 
ATOM     14  C   UNL A   1      29.541  26.003  24.338  1.00  0.00     0.319 C 
ATOM     15  H   UNL A   1      29.470  26.798  26.090  1.00  0.00     0.166 HD
ATOM     16  O   UNL A   1      28.384  26.401  24.151  1.00  0.00    -0.248 OA
ATOM     17  N   UNL A   1      30.040  25.223  23.372  1.00  0.00    -0.308 N 
ATOM     18  H   UNL A   1      29.491  25.309  22.560  1.00  0.00     0.171 HD
BRANCH  17  19
ATOM     19  C   UNL A   1      31.093  24.321  23.139  1.00  0.00     0.043 A 
ATOM     20  C   UNL A   1      32.142  24.766  22.338  1.00  0.00     0.026 A 
ATOM     21  C   UNL A   1      31.153  22.997  23.509  1.00  0.00     0.040 A 
ATOM     22  C   UNL A   1      33.229  23.936  22.012  1.00  0.00     0.003 A 
ATOM     23  C   UNL A   1      32.225  22.133  23.225  1.00  0.00     0.039 A 
ATOM     24  C   UNL A   1      33.282  22.616  22.474  1.00  0.00     0.014 A 
BRANCH  23  25
ATOM     25  C   UNL A   1      32.019  20.742  23.628  1.00  0.00     0.227 A 
ATOM     26  N   UNL A   1      32.095  20.311  24.873  1.00  0.00    -0.209 NA
ATOM     27  O   UNL A   1      32.257  19.772  22.683  1.00  0.00    -0.436 OA
ATOM     28  C   UNL A   1      32.523  19.024  24.767  1.00  0.00     0.110 A 
ATOM     29  C   UNL A   1      32.584  18.666  23.433  1.00  0.00     0.155 A 
ATOM     30  C   UNL A   1      32.936  18.120  25.755  1.00  0.00     0.032 A 
ATOM     31  C   UNL A   1      32.986  17.412  22.992  1.00  0.00     0.049 A 
ATOM     32  C   UNL A   1      33.405  16.869  25.345  1.00  0.00     0.003 A 
ATOM     33  C   UNL A   1      33.409  16.517  23.990  1.00  0.00     0.004 A 
ENDBRANCH  23  25
ENDBRANCH  17  19
ENDBRANCH   8  13
ENDBRANCH   6   8
ENDBRANCH   5   6
ENDBRANCH   4   5
ENDBRANCH   3   4
ENDBRANCH   2   3
ENDBRANCH   1   2
BRANCH   1  34
ATOM     34  C   UNL A   1      37.088  21.923  25.732  1.00  0.00     0.188 C 
BRANCH  34  35
ATOM     35  O   UNL A   1      38.089  21.349  24.903  1.00  0.00    -0.376 OA
BRANCH  35  36
ATOM     36  C   UNL A   1      38.213  19.942  24.937  1.00  0.00     0.202 C 
BRANCH  36  37
ATOM     37  C   UNL A   1      39.251  19.358  25.908  1.00  0.00     0.261 C 
BRANCH  37  38
ATOM     38  O   UNL A   1      40.591  19.225  25.401  1.00  0.00    -0.460 OA
BRANCH  38  39
ATOM     39  C   UNL A   1      41.579  19.368  26.325  1.00  0.00     0.338 C 
ATOM     40  O   UNL A   1      42.260  18.474  26.807  1.00  0.00    -0.246 OA
BRANCH  39  41
ATOM     41  C   UNL A   1      41.770  20.808  26.657  1.00  0.00     0.060 A 
ATOM     42  C   UNL A   1      41.586  21.767  25.653  1.00  0.00     0.016 A 
ATOM     43  C   UNL A   1      42.187  21.223  27.927  1.00  0.00     0.016 A 
ATOM     44  C   UNL A   1      41.833  23.126  25.907  1.00  0.00     0.010 A 
ATOM     45  C   UNL A   1      42.454  22.581  28.177  1.00  0.00     0.010 A 
ATOM     46  C   UNL A   1      42.301  23.543  27.163  1.00  0.00    -0.014 A 
BRANCH  46  47
ATOM     47  C   UNL A   1      42.780  24.944  27.350  1.00  0.00     0.031 A 
ATOM     48  C   UNL A   1      41.857  25.952  27.979  1.00  0.00     0.074 A 
ATOM     49  C   UNL A   1      44.021  25.338  27.001  1.00  0.00     0.049 A 
ATOM     50  N   UNL A   1      42.093  27.193  28.321  1.00  0.00    -0.248 NA
ATOM     51  C   UNL A   1      40.487  25.496  28.258  1.00  0.00     0.031 C 
ATOM     52  C   UNL A   1      45.028  24.489  26.387  1.00  0.00     0.029 A 
ATOM     53  N   UNL A   1      44.650  26.556  27.116  1.00  0.00    -0.354 N 
ATOM     54  C   UNL A   1      40.911  27.661  28.880  1.00  0.00     0.074 A 
ATOM     55  C   UNL A   1      39.947  26.585  28.786  1.00  0.00     0.031 C 
ATOM     56  C   UNL A   1      46.149  25.196  26.175  1.00  0.00     0.029 A 
ATOM     57  C   UNL A   1      45.937  26.565  26.629  1.00  0.00     0.049 A 
ATOM     58  H   UNL A   1      44.220  27.349  27.510  1.00  0.00     0.167 HD
ATOM     59  C   UNL A   1      40.654  28.871  29.434  1.00  0.00     0.037 A 
ATOM     60  C   UNL A   1      46.848  27.555  26.554  1.00  0.00     0.037 A 
ATOM     61  C   UNL A   1      41.593  29.962  29.496  1.00  0.00     0.049 A 
ATOM     62  C   UNL A   1      46.517  28.910  27.116  1.00  0.00     0.074 A 
ATOM     63  C   UNL A   1      41.419  31.218  30.053  1.00  0.00     0.029 A 
ATOM     64  N   UNL A   1      42.872  29.941  28.960  1.00  0.00    -0.354 N 
ATOM     65  N   UNL A   1      45.421  29.315  27.709  1.00  0.00    -0.248 NA
ATOM     66  C   UNL A   1      47.559  29.942  27.014  1.00  0.00     0.031 C 
ATOM     67  C   UNL A   1      42.566  31.977  29.798  1.00  0.00     0.029 A 
ATOM     68  C   UNL A   1      43.485  31.171  29.145  1.00  0.00     0.049 A 
ATOM     69  H   UNL A   1      43.285  29.166  28.515  1.00  0.00     0.167 HD
ATOM     70  C   UNL A   1      45.654  30.633  28.083  1.00  0.00     0.074 A 
ATOM     71  C   UNL A   1      47.001  30.954  27.663  1.00  0.00     0.031 C 
ATOM     72  C   UNL A   1      44.826  31.496  28.723  1.00  0.00     0.037 A 
BRANCH  59  73
ATOM     73  C   UNL A   1      39.276  29.083  29.993  1.00  0.00     0.057 A 
ATOM     74  C   UNL A   1      38.950  28.737  31.311  1.00  0.00     0.134 A 
ATOM     75  C   UNL A   1      38.267  29.652  29.206  1.00  0.00     0.134 A 
ATOM     76  F   UNL A   1      39.867  28.177  32.114  1.00  0.00    -0.206 F 
ATOM     77  C   UNL A   1      37.661  28.920  31.816  1.00  0.00     0.040 A 
ATOM     78  C   UNL A   1      36.983  29.868  29.710  1.00  0.00     0.040 A 
ATOM     79  F   UNL A   1      38.512  30.012  27.938  1.00  0.00    -0.206 F 
ATOM     80  C   UNL A   1      36.675  29.492  31.015  1.00  0.00     0.006 A 
ENDBRANCH  59  73
BRANCH  60  81
ATOM     81  C   UNL A   1      48.177  27.306  25.931  1.00  0.00     0.057 A 
ATOM     82  C   UNL A   1      49.295  26.966  26.702  1.00  0.00     0.134 A 
ATOM     83  C   UNL A   1      48.367  27.440  24.549  1.00  0.00     0.134 A 
ATOM     84  F   UNL A   1      49.185  26.844  28.033  1.00  0.00    -0.206 F 
ATOM     85  C   UNL A   1      50.557  26.795  26.129  1.00  0.00     0.040 A 
ATOM     86  C   UNL A   1      49.616  27.245  23.959  1.00  0.00     0.040 A 
ATOM     87  F   UNL A   1      47.337  27.760  23.752  1.00  0.00    -0.206 F 
ATOM     88  C   UNL A   1      50.719  26.931  24.751  1.00  0.00     0.006 A 
ENDBRANCH  60  81
BRANCH  72  89
ATOM     89  C   UNL A   1      45.367  32.861  29.046  1.00  0.00     0.057 A 
ATOM     90  C   UNL A   1      45.222  33.951  28.176  1.00  0.00     0.134 A 
ATOM     91  C   UNL A   1      46.039  33.092  30.254  1.00  0.00     0.134 A 
ATOM     92  F   UNL A   1      44.599  33.801  26.996  1.00  0.00    -0.206 F 
ATOM     93  C   UNL A   1      45.758  35.204  28.477  1.00  0.00     0.040 A 
ATOM     94  C   UNL A   1      46.550  34.349  30.582  1.00  0.00     0.040 A 
ATOM     95  F   UNL A   1      46.207  32.099  31.141  1.00  0.00    -0.206 F 
ATOM     96  C   UNL A   1      46.421  35.408  29.685  1.00  0.00     0.006 A 
ENDBRANCH  72  89
ENDBRANCH  46  47
ENDBRANCH  39  41
ENDBRANCH  38  39
ENDBRANCH  37  38
ENDBRANCH  36  37
ENDBRANCH  35  36
ENDBRANCH  34  35
ENDBRANCH   1  34
TORSDOF 23
ENDMDL
MODEL 3
REMARK VINA RESULT:     -10.6      1.764      5.806
REMARK SMILES CSCC[C@H](NC(=O)Nc1cccc(-c2nc3ccccc3o2)c1)C(=O)OCCOCCOCCOC(=O)c1ccc(-c2c3nc(c(-c4c(F)cccc4F)c4ccc([nH]4)c(-c4c(F)cccc4F)c4nc(c(-c5c(F)cccc5F)c5ccc2[nH]5)C=C4)C=C3)cc1
REMARK SMILES IDX 31 1 30 2 29 3 28 4 27 5 25 6 26 7 5 8 4 9 3 10 2 11 1 12
REMARK SMILES IDX 6 13 7 14 8 16 9 17 10 19 11 20 24 21 12 22 14 23 13 24
REMARK SMILES IDX 15 25 16 26 23 27 17 28 22 29 18 30 21 31 19 32 20 33 32 34
REMARK SMILES IDX 33 35 34 36 35 37 36 38 37 39 38 40 39 41 40 42 92 43 41 44
REMARK SMILES IDX 91 45 42 46 43 47 44 48 85 49 45 50 90 51 84 52 86 53 46 54
REMARK SMILES IDX 89 55 83 56 82 57 47 59 73 60 56 61 72 62 57 63 60 64 71 65
REMARK SMILES IDX 87 66 58 67 59 68 70 70 88 71 61 72 48 73 49 74 54 75 50 76
REMARK SMILES IDX 51 77 53 78 55 79 52 80 74 81 75 82 80 83 76 84 77 85 79 86
REMARK SMILES IDX 81 87 78 88 62 89 63 90 68 91 64 92 65 93 67 94 69 95 66 96
REMARK H PARENT 6 15 9 18 86 58 60 69
REMARK Flexibility Score: inf
ROOT
ATOM      1  C   UNL A   1      36.101  21.980  25.990  1.00  0.00     0.188 C 
ENDROOT
BRANCH   1   2
ATOM      2  O   UNL A   1      35.451  23.185  26.393  1.00  0.00    -0.376 OA
BRANCH   2   3
ATOM      3  C   UNL A   1      35.291  24.149  25.353  1.00  0.00     0.202 C 
BRANCH   3   4
ATOM      4  C   UNL A   1      33.994  24.986  25.410  1.00  0.00     0.261 C 
BRANCH   4   5
ATOM      5  O   UNL A   1      33.221  24.788  26.620  1.00  0.00    -0.462 OA
BRANCH   5   6
ATOM      6  C   UNL A   1      31.868  24.994  26.646  1.00  0.00     0.328 C 
ATOM      7  O   UNL A   1      31.065  24.218  27.145  1.00  0.00    -0.250 OA
BRANCH   6   8
ATOM      8  C   UNL A   1      31.501  26.428  26.119  1.00  0.00     0.194 C 
BRANCH   8   9
ATOM      9  C   UNL A   1      31.745  27.530  27.160  1.00  0.00     0.048 C 
BRANCH   9  10
ATOM     10  C   UNL A   1      32.941  28.434  26.812  1.00  0.00     0.072 C 
BRANCH  10  11
ATOM     11  S   UNL A   1      32.472  29.706  25.589  1.00  0.00    -0.165 SA
ATOM     12  C   UNL A   1      33.093  28.948  24.063  1.00  0.00     0.085 C 
ENDBRANCH  10  11
ENDBRANCH   9  10
ENDBRANCH   8   9
BRANCH   8  13
ATOM     13  N   UNL A   1      30.154  26.462  25.570  1.00  0.00    -0.324 N 
ATOM     14  C   UNL A   1      29.591  26.207  24.394  1.00  0.00     0.319 C 
ATOM     15  H   UNL A   1      29.491  26.748  26.239  1.00  0.00     0.166 HD
ATOM     16  O   UNL A   1      28.428  26.606  24.252  1.00  0.00    -0.248 OA
ATOM     17  N   UNL A   1      30.113  25.577  23.335  1.00  0.00    -0.308 N 
ATOM     18  H   UNL A   1      29.569  25.765  22.537  1.00  0.00     0.171 HD
BRANCH  17  19
ATOM     19  C   UNL A   1      31.185  24.735  22.989  1.00  0.00     0.043 A 
ATOM     20  C   UNL A   1      32.068  25.201  22.019  1.00  0.00     0.026 A 
ATOM     21  C   UNL A   1      31.397  23.443  23.411  1.00  0.00     0.040 A 
ATOM     22  C   UNL A   1      33.154  24.427  21.574  1.00  0.00     0.003 A 
ATOM     23  C   UNL A   1      32.478  22.636  23.011  1.00  0.00     0.039 A 
ATOM     24  C   UNL A   1      33.374  23.144  22.087  1.00  0.00     0.014 A 
BRANCH  23  25
ATOM     25  C   UNL A   1      32.437  21.261  23.508  1.00  0.00     0.227 A 
ATOM     26  N   UNL A   1      33.203  20.801  24.480  1.00  0.00    -0.209 NA
ATOM     27  O   UNL A   1      31.988  20.292  22.641  1.00  0.00    -0.436 OA
ATOM     28  C   UNL A   1      33.377  19.483  24.188  1.00  0.00     0.110 A 
ATOM     29  C   UNL A   1      32.604  19.147  23.091  1.00  0.00     0.155 A 
ATOM     30  C   UNL A   1      34.219  18.528  24.770  1.00  0.00     0.032 A 
ATOM     31  C   UNL A   1      32.562  17.872  22.543  1.00  0.00     0.049 A 
ATOM     32  C   UNL A   1      34.249  17.249  24.207  1.00  0.00     0.003 A 
ATOM     33  C   UNL A   1      33.420  16.925  23.127  1.00  0.00     0.004 A 
ENDBRANCH  23  25
ENDBRANCH  17  19
ENDBRANCH   8  13
ENDBRANCH   6   8
ENDBRANCH   5   6
ENDBRANCH   4   5
ENDBRANCH   3   4
ENDBRANCH   2   3
ENDBRANCH   1   2
BRANCH   1  34
ATOM     34  C   UNL A   1      37.588  22.196  25.742  1.00  0.00     0.188 C 
BRANCH  34  35
ATOM     35  O   UNL A   1      38.242  21.370  24.789  1.00  0.00    -0.376 OA
BRANCH  35  36
ATOM     36  C   UNL A   1      38.086  19.974  24.945  1.00  0.00     0.202 C 
BRANCH  36  37
ATOM     37  C   UNL A   1      39.202  19.228  25.692  1.00  0.00     0.261 C 
BRANCH  37  38
ATOM     38  O   UNL A   1      40.533  19.385  25.168  1.00  0.00    -0.460 OA
BRANCH  38  39
ATOM     39  C   UNL A   1      41.521  19.442  26.099  1.00  0.00     0.338 C 
ATOM     40  O   UNL A   1      42.244  18.521  26.452  1.00  0.00    -0.246 OA
BRANCH  39  41
ATOM     41  C   UNL A   1      41.654  20.830  26.626  1.00  0.00     0.060 A 
ATOM     42  C   UNL A   1      41.921  21.874  25.732  1.00  0.00     0.016 A 
ATOM     43  C   UNL A   1      41.580  21.109  27.996  1.00  0.00     0.016 A 
ATOM     44  C   UNL A   1      42.130  23.181  26.199  1.00  0.00     0.010 A 
ATOM     45  C   UNL A   1      41.809  22.414  28.467  1.00  0.00     0.010 A 
ATOM     46  C   UNL A   1      42.108  23.459  27.574  1.00  0.00    -0.014 A 
BRANCH  46  47
ATOM     47  C   UNL A   1      42.561  24.792  28.071  1.00  0.00     0.031 A 
ATOM     48  C   UNL A   1      41.542  25.884  28.255  1.00  0.00     0.074 A 
ATOM     49  C   UNL A   1      43.845  25.050  28.388  1.00  0.00     0.049 A 
ATOM     50  N   UNL A   1      41.693  27.082  28.759  1.00  0.00    -0.248 NA
ATOM     51  C   UNL A   1      40.174  25.580  27.810  1.00  0.00     0.031 C 
ATOM     52  C   UNL A   1      44.943  24.105  28.269  1.00  0.00     0.029 A 
ATOM     53  N   UNL A   1      44.446  26.186  28.879  1.00  0.00    -0.354 N 
ATOM     54  C   UNL A   1      40.435  27.670  28.718  1.00  0.00     0.074 A 
ATOM     55  C   UNL A   1      39.545  26.712  28.095  1.00  0.00     0.031 C 
ATOM     56  C   UNL A   1      46.085  24.685  28.671  1.00  0.00     0.029 A 
ATOM     57  C   UNL A   1      45.802  26.059  29.069  1.00  0.00     0.049 A 
ATOM     58  H   UNL A   1      43.951  27.013  29.077  1.00  0.00     0.167 HD
ATOM     59  C   UNL A   1      40.051  28.888  29.169  1.00  0.00     0.037 A 
ATOM     60  C   UNL A   1      46.721  26.940  29.512  1.00  0.00     0.037 A 
ATOM     61  C   UNL A   1      40.936  29.864  29.753  1.00  0.00     0.049 A 
ATOM     62  C   UNL A   1      46.281  28.312  29.946  1.00  0.00     0.074 A 
ATOM     63  C   UNL A   1      40.626  31.119  30.250  1.00  0.00     0.029 A 
ATOM     64  N   UNL A   1      42.307  29.709  29.894  1.00  0.00    -0.354 N 
ATOM     65  N   UNL A   1      45.076  28.825  29.972  1.00  0.00    -0.248 NA
ATOM     66  C   UNL A   1      47.330  29.221  30.431  1.00  0.00     0.031 C 
ATOM     67  C   UNL A   1      41.817  31.748  30.631  1.00  0.00     0.029 A 
ATOM     68  C   UNL A   1      42.861  30.858  30.439  1.00  0.00     0.049 A 
ATOM     69  H   UNL A   1      42.813  28.902  29.644  1.00  0.00     0.167 HD
ATOM     70  C   UNL A   1      45.215  30.100  30.508  1.00  0.00     0.074 A 
ATOM     71  C   UNL A   1      46.620  30.275  30.807  1.00  0.00     0.031 C 
ATOM     72  C   UNL A   1      44.261  31.037  30.735  1.00  0.00     0.037 A 
BRANCH  59  73
ATOM     73  C   UNL A   1      38.600  29.243  29.015  1.00  0.00     0.057 A 
ATOM     74  C   UNL A   1      38.064  29.654  27.786  1.00  0.00     0.134 A 
ATOM     75  C   UNL A   1      37.724  29.160  30.105  1.00  0.00     0.134 A 
ATOM     76  F   UNL A   1      38.851  29.766  26.706  1.00  0.00    -0.206 F 
ATOM     77  C   UNL A   1      36.718  30.001  27.656  1.00  0.00     0.040 A 
ATOM     78  C   UNL A   1      36.370  29.475  29.979  1.00  0.00     0.040 A 
ATOM     79  F   UNL A   1      38.168  28.767  31.308  1.00  0.00    -0.206 F 
ATOM     80  C   UNL A   1      35.867  29.907  28.754  1.00  0.00     0.006 A 
ENDBRANCH  59  73
BRANCH  60  81
ATOM     81  C   UNL A   1      48.156  26.556  29.584  1.00  0.00     0.057 A 
ATOM     82  C   UNL A   1      49.038  26.820  28.529  1.00  0.00     0.134 A 
ATOM     83  C   UNL A   1      48.671  25.878  30.697  1.00  0.00     0.134 A 
ATOM     84  F   UNL A   1      48.603  27.445  27.425  1.00  0.00    -0.206 F 
ATOM     85  C   UNL A   1      50.371  26.404  28.566  1.00  0.00     0.040 A 
ATOM     86  C   UNL A   1      50.008  25.480  30.759  1.00  0.00     0.040 A 
ATOM     87  F   UNL A   1      47.882  25.597  31.743  1.00  0.00    -0.206 F 
ATOM     88  C   UNL A   1      50.860  25.734  29.686  1.00  0.00     0.006 A 
ENDBRANCH  60  81
BRANCH  72  89
ATOM     89  C   UNL A   1      44.698  32.325  31.378  1.00  0.00     0.057 A 
ATOM     90  C   UNL A   1      45.090  33.442  30.628  1.00  0.00     0.134 A 
ATOM     91  C   UNL A   1      44.719  32.451  32.773  1.00  0.00     0.134 A 
ATOM     92  F   UNL A   1      45.106  33.389  29.286  1.00  0.00    -0.206 F 
ATOM     93  C   UNL A   1      45.523  34.620  31.240  1.00  0.00     0.040 A 
ATOM     94  C   UNL A   1      45.118  33.634  33.398  1.00  0.00     0.040 A 
ATOM     95  F   UNL A   1      44.348  31.427  33.557  1.00  0.00    -0.206 F 
ATOM     96  C   UNL A   1      45.533  34.721  32.630  1.00  0.00     0.006 A 
ENDBRANCH  72  89
ENDBRANCH  46  47
ENDBRANCH  39  41
ENDBRANCH  38  39
ENDBRANCH  37  38
ENDBRANCH  36  37
ENDBRANCH  35  36
ENDBRANCH  34  35
ENDBRANCH   1  34
TORSDOF 23
ENDMDL
