MODEL 1
REMARK VINA RESULT:     -10.6      0.000      0.000
REMARK SMILES O=C(OCCOCCOCCOC(=O)c1ccc(-c2c3nc(c(-c4c(F)cccc4F)c4ccc([nH]4)c(-c4c(F)cccc4F)c4nc(c(-c5c(F)cccc5F)c5ccc2[nH]5)C=C4)C=C3)cc1)c1ccc(N[C@H]2OC[C@@H](O)[C@@H](O)[C@H]2O)cc1
REMARK SMILES IDX 7 1 6 2 5 3 4 4 3 5 2 6 1 7 69 8 70 9 84 10 71 11 83 12
REMARK SMILES IDX 72 13 73 14 74 16 75 17 81 18 76 19 79 20 77 21 82 22 80 24
REMARK SMILES IDX 78 26 8 28 9 29 10 30 11 31 12 32 13 33 14 34 15 35 16 36
REMARK SMILES IDX 68 37 17 38 67 39 18 40 19 41 20 42 61 43 21 44 66 45 60 46
REMARK SMILES IDX 62 47 22 48 65 49 59 50 58 51 23 53 49 54 32 55 48 56 33 57
REMARK SMILES IDX 36 58 47 59 63 60 34 61 35 62 46 64 64 65 37 66 24 67 25 68
REMARK SMILES IDX 30 69 26 70 27 71 29 72 31 73 28 74 50 75 51 76 56 77 52 78
REMARK SMILES IDX 53 79 55 80 57 81 54 82 38 83 39 84 44 85 40 86 41 87 43 88
REMARK SMILES IDX 45 89 42 90
REMARK H PARENT 73 15 82 23 80 25 78 27 62 52 36 63
REMARK Flexibility Score: inf
ROOT
ATOM      1  C   UNL A   1      44.815  18.886  24.605  1.00  0.00     0.188 C 
ENDROOT
BRANCH   1   2
ATOM      2  O   UNL A   1      43.673  18.670  25.447  1.00  0.00    -0.376 OA
BRANCH   2   3
ATOM      3  C   UNL A   1      42.962  19.869  25.765  1.00  0.00     0.202 C 
BRANCH   3   4
ATOM      4  C   UNL A   1      41.673  19.635  26.557  1.00  0.00     0.261 C 
BRANCH   4   5
ATOM      5  O   UNL A   1      40.558  20.319  25.959  1.00  0.00    -0.460 OA
BRANCH   5   6
ATOM      6  C   UNL A   1      39.812  21.299  26.526  1.00  0.00     0.338 C 
ATOM      7  O   UNL A   1      40.144  21.765  27.613  1.00  0.00    -0.246 OA
BRANCH   6   8
ATOM      8  C   UNL A   1      38.644  21.904  25.831  1.00  0.00     0.060 A 
ATOM      9  C   UNL A   1      37.799  21.207  24.969  1.00  0.00     0.018 A 
ATOM     10  C   UNL A   1      38.320  23.227  26.146  1.00  0.00     0.018 A 
ATOM     11  C   UNL A   1      36.721  21.851  24.348  1.00  0.00     0.026 A 
ATOM     12  C   UNL A   1      37.212  23.852  25.556  1.00  0.00     0.026 A 
ATOM     13  C   UNL A   1      36.413  23.186  24.617  1.00  0.00     0.036 A 
BRANCH  13  14
ATOM     14  N   UNL A   1      35.346  23.856  24.043  1.00  0.00    -0.358 N 
ATOM     15  H   UNL A   1      35.493  24.320  23.188  1.00  0.00     0.163 HD
BRANCH  14  16
ATOM     16  C   UNL A   1      34.016  23.911  24.637  1.00  0.00     0.244 C 
ATOM     17  O   UNL A   1      33.851  25.150  25.329  1.00  0.00    -0.353 OA
ATOM     18  C   UNL A   1      32.965  23.854  23.503  1.00  0.00     0.195 C 
ATOM     19  C   UNL A   1      32.588  25.245  25.999  1.00  0.00     0.197 C 
ATOM     20  C   UNL A   1      31.566  23.926  24.124  1.00  0.00     0.178 C 
ATOM     21  C   UNL A   1      31.420  25.173  25.010  1.00  0.00     0.171 C 
BRANCH  18  22
ATOM     22  O   UNL A   1      33.150  24.979  22.607  1.00  0.00    -0.386 OA
ATOM     23  H   UNL A   1      33.370  25.770  23.125  1.00  0.00     0.211 HD
ENDBRANCH  18  22
BRANCH  20  24
ATOM     24  O   UNL A   1      30.571  23.928  23.098  1.00  0.00    -0.387 OA
ATOM     25  H   UNL A   1      29.711  23.693  23.481  1.00  0.00     0.211 HD
ENDBRANCH  20  24
BRANCH  21  26
ATOM     26  O   UNL A   1      31.399  26.357  24.199  1.00  0.00    -0.388 OA
ATOM     27  H   UNL A   1      30.480  26.626  24.044  1.00  0.00     0.211 HD
ENDBRANCH  21  26
ENDBRANCH  14  16
ENDBRANCH  13  14
ENDBRANCH   6   8
ENDBRANCH   5   6
ENDBRANCH   4   5
ENDBRANCH   3   4
ENDBRANCH   2   3
ENDBRANCH   1   2
BRANCH   1  28
ATOM     28  C   UNL A   1      46.032  19.283  25.447  1.00  0.00     0.188 C 
BRANCH  28  29
ATOM     29  O   UNL A   1      46.770  20.398  24.938  1.00  0.00    -0.376 OA
BRANCH  29  30
ATOM     30  C   UNL A   1      46.013  21.541  24.541  1.00  0.00     0.202 C 
BRANCH  30  31
ATOM     31  C   UNL A   1      45.689  22.542  25.655  1.00  0.00     0.261 C 
BRANCH  31  32
ATOM     32  O   UNL A   1      45.164  23.795  25.178  1.00  0.00    -0.460 OA
BRANCH  32  33
ATOM     33  C   UNL A   1      43.840  23.774  24.895  1.00  0.00     0.338 C 
ATOM     34  O   UNL A   1      43.248  23.015  24.145  1.00  0.00    -0.246 OA
BRANCH  33  35
ATOM     35  C   UNL A   1      43.120  24.828  25.628  1.00  0.00     0.060 A 
ATOM     36  C   UNL A   1      43.788  26.021  25.920  1.00  0.00     0.016 A 
ATOM     37  C   UNL A   1      41.900  24.527  26.239  1.00  0.00     0.016 A 
ATOM     38  C   UNL A   1      43.262  26.891  26.878  1.00  0.00     0.010 A 
ATOM     39  C   UNL A   1      41.372  25.405  27.193  1.00  0.00     0.010 A 
ATOM     40  C   UNL A   1      42.077  26.565  27.555  1.00  0.00    -0.014 A 
BRANCH  40  41
ATOM     41  C   UNL A   1      41.663  27.366  28.737  1.00  0.00     0.031 A 
ATOM     42  C   UNL A   1      42.439  27.252  30.025  1.00  0.00     0.074 A 
ATOM     43  C   UNL A   1      40.628  28.220  28.657  1.00  0.00     0.049 A 
ATOM     44  N   UNL A   1      42.261  27.884  31.160  1.00  0.00    -0.248 NA
ATOM     45  C   UNL A   1      43.561  26.302  30.037  1.00  0.00     0.031 C 
ATOM     46  C   UNL A   1      39.798  28.436  27.475  1.00  0.00     0.029 A 
ATOM     47  N   UNL A   1      40.105  29.071  29.601  1.00  0.00    -0.354 N 
ATOM     48  C   UNL A   1      43.250  27.413  32.015  1.00  0.00     0.074 A 
ATOM     49  C   UNL A   1      44.002  26.417  31.282  1.00  0.00     0.031 C 
ATOM     50  C   UNL A   1      38.867  29.361  27.762  1.00  0.00     0.029 A 
ATOM     51  C   UNL A   1      39.026  29.790  29.151  1.00  0.00     0.049 A 
ATOM     52  H   UNL A   1      40.469  29.156  30.511  1.00  0.00     0.167 HD
ATOM     53  C   UNL A   1      43.521  27.785  33.289  1.00  0.00     0.037 A 
ATOM     54  C   UNL A   1      38.253  30.688  29.790  1.00  0.00     0.037 A 
ATOM     55  C   UNL A   1      42.783  28.773  34.031  1.00  0.00     0.049 A 
ATOM     56  C   UNL A   1      38.555  31.065  31.214  1.00  0.00     0.074 A 
ATOM     57  C   UNL A   1      42.993  29.218  35.326  1.00  0.00     0.029 A 
ATOM     58  N   UNL A   1      41.690  29.471  33.543  1.00  0.00    -0.354 N 
ATOM     59  N   UNL A   1      39.510  30.633  32.000  1.00  0.00    -0.248 NA
ATOM     60  C   UNL A   1      37.675  32.066  31.836  1.00  0.00     0.031 C 
ATOM     61  C   UNL A   1      42.008  30.165  35.631  1.00  0.00     0.029 A 
ATOM     62  C   UNL A   1      41.207  30.335  34.514  1.00  0.00     0.049 A 
ATOM     63  H   UNL A   1      41.312  29.368  32.639  1.00  0.00     0.167 HD
ATOM     64  C   UNL A   1      39.357  31.318  33.199  1.00  0.00     0.074 A 
ATOM     65  C   UNL A   1      38.228  32.209  33.032  1.00  0.00     0.031 C 
ATOM     66  C   UNL A   1      40.084  31.216  34.339  1.00  0.00     0.037 A 
BRANCH  53  67
ATOM     67  C   UNL A   1      44.678  27.116  33.970  1.00  0.00     0.057 A 
ATOM     68  C   UNL A   1      45.967  27.663  33.927  1.00  0.00     0.134 A 
ATOM     69  C   UNL A   1      44.494  25.943  34.712  1.00  0.00     0.134 A 
ATOM     70  F   UNL A   1      46.209  28.780  33.225  1.00  0.00    -0.206 F 
ATOM     71  C   UNL A   1      47.038  27.055  34.586  1.00  0.00     0.040 A 
ATOM     72  C   UNL A   1      45.553  25.338  35.391  1.00  0.00     0.040 A 
ATOM     73  F   UNL A   1      43.282  25.374  34.799  1.00  0.00    -0.206 F 
ATOM     74  C   UNL A   1      46.830  25.893  35.326  1.00  0.00     0.006 A 
ENDBRANCH  53  67
BRANCH  54  75
ATOM     75  C   UNL A   1      37.104  31.304  29.082  1.00  0.00     0.057 A 
ATOM     76  C   UNL A   1      37.155  32.627  28.631  1.00  0.00     0.134 A 
ATOM     77  C   UNL A   1      35.921  30.589  28.865  1.00  0.00     0.134 A 
ATOM     78  F   UNL A   1      38.254  33.368  28.834  1.00  0.00    -0.206 F 
ATOM     79  C   UNL A   1      36.062  33.224  28.002  1.00  0.00     0.040 A 
ATOM     80  C   UNL A   1      34.827  31.167  28.222  1.00  0.00     0.040 A 
ATOM     81  F   UNL A   1      35.814  29.316  29.273  1.00  0.00    -0.206 F 
ATOM     82  C   UNL A   1      34.894  32.492  27.793  1.00  0.00     0.006 A 
ENDBRANCH  54  75
BRANCH  66  83
ATOM     83  C   UNL A   1      39.692  32.102  35.483  1.00  0.00     0.057 A 
ATOM     84  C   UNL A   1      38.721  31.713  36.415  1.00  0.00     0.134 A 
ATOM     85  C   UNL A   1      40.304  33.348  35.667  1.00  0.00     0.134 A 
ATOM     86  F   UNL A   1      38.089  30.537  36.287  1.00  0.00    -0.206 F 
ATOM     87  C   UNL A   1      38.357  32.543  37.477  1.00  0.00     0.040 A 
ATOM     88  C   UNL A   1      39.962  34.177  36.736  1.00  0.00     0.040 A 
ATOM     89  F   UNL A   1      41.247  33.776  34.814  1.00  0.00    -0.206 F 
ATOM     90  C   UNL A   1      38.980  33.778  37.641  1.00  0.00     0.006 A 
ENDBRANCH  66  83
ENDBRANCH  40  41
ENDBRANCH  33  35
ENDBRANCH  32  33
ENDBRANCH  31  32
ENDBRANCH  30  31
ENDBRANCH  29  30
ENDBRANCH  28  29
ENDBRANCH   1  28
TORSDOF 22
ENDMDL
MODEL 2
REMARK VINA RESULT:     -10.4      4.535     11.595
REMARK SMILES O=C(OCCOCCOCCOC(=O)c1ccc(-c2c3nc(c(-c4c(F)cccc4F)c4ccc([nH]4)c(-c4c(F)cccc4F)c4nc(c(-c5c(F)cccc5F)c5ccc2[nH]5)C=C4)C=C3)cc1)c1ccc(N[C@H]2OC[C@@H](O)[C@@H](O)[C@H]2O)cc1
REMARK SMILES IDX 7 1 6 2 5 3 4 4 3 5 2 6 1 7 69 8 70 9 84 10 71 11 83 12
REMARK SMILES IDX 72 13 73 14 74 16 75 17 81 18 76 19 79 20 77 21 82 22 80 24
REMARK SMILES IDX 78 26 8 28 9 29 10 30 11 31 12 32 13 33 14 34 15 35 16 36
REMARK SMILES IDX 68 37 17 38 67 39 18 40 19 41 20 42 61 43 21 44 66 45 60 46
REMARK SMILES IDX 62 47 22 48 65 49 59 50 58 51 23 53 49 54 32 55 48 56 33 57
REMARK SMILES IDX 36 58 47 59 63 60 34 61 35 62 46 64 64 65 37 66 24 67 25 68
REMARK SMILES IDX 30 69 26 70 27 71 29 72 31 73 28 74 50 75 51 76 56 77 52 78
REMARK SMILES IDX 53 79 55 80 57 81 54 82 38 83 39 84 44 85 40 86 41 87 43 88
REMARK SMILES IDX 45 89 42 90
REMARK H PARENT 73 15 82 23 80 25 78 27 62 52 36 63
REMARK Flexibility Score: inf
ROOT
ATOM      1  C   UNL A   1      32.973  36.786  30.625  1.00  0.00     0.188 C 
ENDROOT
BRANCH   1   2
ATOM      2  O   UNL A   1      33.117  35.785  31.645  1.00  0.00    -0.376 OA
BRANCH   2   3
ATOM      3  C   UNL A   1      34.282  35.959  32.455  1.00  0.00     0.202 C 
BRANCH   3   4
ATOM      4  C   UNL A   1      35.112  34.685  32.628  1.00  0.00     0.261 C 
BRANCH   4   5
ATOM      5  O   UNL A   1      36.515  34.983  32.739  1.00  0.00    -0.460 OA
BRANCH   5   6
ATOM      6  C   UNL A   1      37.541  34.230  32.272  1.00  0.00     0.338 C 
ATOM      7  O   UNL A   1      38.049  34.499  31.186  1.00  0.00    -0.246 OA
BRANCH   6   8
ATOM      8  C   UNL A   1      38.146  33.134  33.076  1.00  0.00     0.060 A 
ATOM      9  C   UNL A   1      39.248  33.295  33.914  1.00  0.00     0.018 A 
ATOM     10  C   UNL A   1      37.501  31.894  33.065  1.00  0.00     0.018 A 
ATOM     11  C   UNL A   1      39.762  32.210  34.636  1.00  0.00     0.026 A 
ATOM     12  C   UNL A   1      37.993  30.825  33.826  1.00  0.00     0.026 A 
ATOM     13  C   UNL A   1      39.156  30.953  34.598  1.00  0.00     0.036 A 
BRANCH  13  14
ATOM     14  N   UNL A   1      39.616  29.859  35.312  1.00  0.00    -0.358 N 
ATOM     15  H   UNL A   1      38.998  29.420  35.939  1.00  0.00     0.163 HD
BRANCH  14  16
ATOM     16  C   UNL A   1      40.965  29.323  35.185  1.00  0.00     0.244 C 
ATOM     17  O   UNL A   1      41.168  28.299  36.160  1.00  0.00    -0.353 OA
ATOM     18  C   UNL A   1      41.114  28.685  33.783  1.00  0.00     0.195 C 
ATOM     19  C   UNL A   1      42.501  27.773  36.140  1.00  0.00     0.197 C 
ATOM     20  C   UNL A   1      42.528  28.108  33.652  1.00  0.00     0.178 C 
ATOM     21  C   UNL A   1      42.828  27.122  34.792  1.00  0.00     0.171 C 
BRANCH  18  22
ATOM     22  O   UNL A   1      40.145  27.618  33.626  1.00  0.00    -0.386 OA
ATOM     23  H   UNL A   1      39.488  27.671  34.339  1.00  0.00     0.211 HD
ENDBRANCH  18  22
BRANCH  20  24
ATOM     24  O   UNL A   1      42.682  27.464  32.386  1.00  0.00    -0.387 OA
ATOM     25  H   UNL A   1      43.516  27.745  31.979  1.00  0.00     0.211 HD
ENDBRANCH  20  24
BRANCH  21  26
ATOM     26  O   UNL A   1      42.051  25.926  34.631  1.00  0.00    -0.388 OA
ATOM     27  H   UNL A   1      41.109  26.156  34.586  1.00  0.00     0.211 HD
ENDBRANCH  21  26
ENDBRANCH  14  16
ENDBRANCH  13  14
ENDBRANCH   6   8
ENDBRANCH   5   6
ENDBRANCH   4   5
ENDBRANCH   3   4
ENDBRANCH   2   3
ENDBRANCH   1   2
BRANCH   1  28
ATOM     28  C   UNL A   1      33.282  36.193  29.247  1.00  0.00     0.188 C 
BRANCH  28  29
ATOM     29  O   UNL A   1      32.684  34.917  29.000  1.00  0.00    -0.376 OA
BRANCH  29  30
ATOM     30  C   UNL A   1      33.398  34.029  28.143  1.00  0.00     0.202 C 
BRANCH  30  31
ATOM     31  C   UNL A   1      34.752  33.542  28.670  1.00  0.00     0.261 C 
BRANCH  31  32
ATOM     32  O   UNL A   1      34.697  32.258  29.319  1.00  0.00    -0.460 OA
BRANCH  32  33
ATOM     33  C   UNL A   1      34.597  31.207  28.471  1.00  0.00     0.338 C 
ATOM     34  O   UNL A   1      33.684  30.951  27.704  1.00  0.00    -0.246 OA
BRANCH  33  35
ATOM     35  C   UNL A   1      35.777  30.333  28.560  1.00  0.00     0.060 A 
ATOM     36  C   UNL A   1      36.150  29.832  29.811  1.00  0.00     0.016 A 
ATOM     37  C   UNL A   1      36.643  30.235  27.467  1.00  0.00     0.016 A 
ATOM     38  C   UNL A   1      37.423  29.283  29.985  1.00  0.00     0.010 A 
ATOM     39  C   UNL A   1      37.915  29.679  27.644  1.00  0.00     0.010 A 
ATOM     40  C   UNL A   1      38.330  29.248  28.915  1.00  0.00    -0.014 A 
BRANCH  40  41
ATOM     41  C   UNL A   1      39.752  28.897  29.169  1.00  0.00     0.031 A 
ATOM     42  C   UNL A   1      40.633  29.854  29.934  1.00  0.00     0.074 A 
ATOM     43  C   UNL A   1      40.251  27.718  28.760  1.00  0.00     0.049 A 
ATOM     44  N   UNL A   1      41.888  29.726  30.287  1.00  0.00    -0.248 NA
ATOM     45  C   UNL A   1      40.018  31.122  30.355  1.00  0.00     0.031 C 
ATOM     46  C   UNL A   1      39.512  26.698  28.020  1.00  0.00     0.029 A 
ATOM     47  N   UNL A   1      41.506  27.183  28.917  1.00  0.00    -0.354 N 
ATOM     48  C   UNL A   1      42.210  30.889  30.975  1.00  0.00     0.074 A 
ATOM     49  C   UNL A   1      41.031  31.729  30.959  1.00  0.00     0.031 C 
ATOM     50  C   UNL A   1      40.328  25.657  27.786  1.00  0.00     0.029 A 
ATOM     51  C   UNL A   1      41.648  25.943  28.345  1.00  0.00     0.049 A 
ATOM     52  H   UNL A   1      42.233  27.644  29.394  1.00  0.00     0.167 HD
ATOM     53  C   UNL A   1      43.374  31.226  31.581  1.00  0.00     0.037 A 
ATOM     54  C   UNL A   1      42.723  25.135  28.278  1.00  0.00     0.037 A 
ATOM     55  C   UNL A   1      44.555  30.403  31.605  1.00  0.00     0.049 A 
ATOM     56  C   UNL A   1      44.014  25.543  28.933  1.00  0.00     0.074 A 
ATOM     57  C   UNL A   1      45.778  30.663  32.202  1.00  0.00     0.029 A 
ATOM     58  N   UNL A   1      44.661  29.159  31.005  1.00  0.00    -0.354 N 
ATOM     59  N   UNL A   1      44.295  26.632  29.603  1.00  0.00    -0.248 NA
ATOM     60  C   UNL A   1      45.137  24.598  28.829  1.00  0.00     0.031 C 
ATOM     61  C   UNL A   1      46.633  29.586  31.938  1.00  0.00     0.029 A 
ATOM     62  C   UNL A   1      45.932  28.643  31.207  1.00  0.00     0.049 A 
ATOM     63  H   UNL A   1      43.940  28.708  30.508  1.00  0.00     0.167 HD
ATOM     64  C   UNL A   1      45.615  26.498  30.014  1.00  0.00     0.074 A 
ATOM     65  C   UNL A   1      46.076  25.212  29.534  1.00  0.00     0.031 C 
ATOM     66  C   UNL A   1      46.380  27.364  30.724  1.00  0.00     0.037 A 
BRANCH  53  67
ATOM     67  C   UNL A   1      43.429  32.553  32.276  1.00  0.00     0.057 A 
ATOM     68  C   UNL A   1      43.281  32.657  33.665  1.00  0.00     0.134 A 
ATOM     69  C   UNL A   1      43.679  33.730  31.560  1.00  0.00     0.134 A 
ATOM     70  F   UNL A   1      43.030  31.567  34.406  1.00  0.00    -0.206 F 
ATOM     71  C   UNL A   1      43.362  33.891  34.316  1.00  0.00     0.040 A 
ATOM     72  C   UNL A   1      43.782  34.965  32.202  1.00  0.00     0.040 A 
ATOM     73  F   UNL A   1      43.839  33.697  30.228  1.00  0.00    -0.206 F 
ATOM     74  C   UNL A   1      43.620  35.048  33.584  1.00  0.00     0.006 A 
ENDBRANCH  53  67
BRANCH  54  75
ATOM     75  C   UNL A   1      42.627  23.843  27.556  1.00  0.00     0.057 A 
ATOM     76  C   UNL A   1      42.739  23.781  26.163  1.00  0.00     0.134 A 
ATOM     77  C   UNL A   1      42.394  22.646  28.243  1.00  0.00     0.134 A 
ATOM     78  F   UNL A   1      42.938  24.899  25.451  1.00  0.00    -0.206 F 
ATOM     79  C   UNL A   1      42.608  22.574  25.475  1.00  0.00     0.040 A 
ATOM     80  C   UNL A   1      42.278  21.430  27.570  1.00  0.00     0.040 A 
ATOM     81  F   UNL A   1      42.280  22.643  29.579  1.00  0.00    -0.206 F 
ATOM     82  C   UNL A   1      42.379  21.393  26.181  1.00  0.00     0.006 A 
ENDBRANCH  54  75
BRANCH  66  83
ATOM     83  C   UNL A   1      47.784  26.940  31.038  1.00  0.00     0.057 A 
ATOM     84  C   UNL A   1      48.079  26.136  32.147  1.00  0.00     0.134 A 
ATOM     85  C   UNL A   1      48.849  27.322  30.213  1.00  0.00     0.134 A 
ATOM     86  F   UNL A   1      47.104  25.747  32.983  1.00  0.00    -0.206 F 
ATOM     87  C   UNL A   1      49.388  25.748  32.437  1.00  0.00     0.040 A 
ATOM     88  C   UNL A   1      50.159  26.922  30.483  1.00  0.00     0.040 A 
ATOM     89  F   UNL A   1      48.633  28.085  29.131  1.00  0.00    -0.206 F 
ATOM     90  C   UNL A   1      50.432  26.138  31.602  1.00  0.00     0.006 A 
ENDBRANCH  66  83
ENDBRANCH  40  41
ENDBRANCH  33  35
ENDBRANCH  32  33
ENDBRANCH  31  32
ENDBRANCH  30  31
ENDBRANCH  29  30
ENDBRANCH  28  29
ENDBRANCH   1  28
TORSDOF 22
ENDMDL
MODEL 3
REMARK VINA RESULT:     -10.4      4.952     11.602
REMARK SMILES O=C(OCCOCCOCCOC(=O)c1ccc(-c2c3nc(c(-c4c(F)cccc4F)c4ccc([nH]4)c(-c4c(F)cccc4F)c4nc(c(-c5c(F)cccc5F)c5ccc2[nH]5)C=C4)C=C3)cc1)c1ccc(N[C@H]2OC[C@@H](O)[C@@H](O)[C@H]2O)cc1
REMARK SMILES IDX 7 1 6 2 5 3 4 4 3 5 2 6 1 7 69 8 70 9 84 10 71 11 83 12
REMARK SMILES IDX 72 13 73 14 74 16 75 17 81 18 76 19 79 20 77 21 82 22 80 24
REMARK SMILES IDX 78 26 8 28 9 29 10 30 11 31 12 32 13 33 14 34 15 35 16 36
REMARK SMILES IDX 68 37 17 38 67 39 18 40 19 41 20 42 61 43 21 44 66 45 60 46
REMARK SMILES IDX 62 47 22 48 65 49 59 50 58 51 23 53 49 54 32 55 48 56 33 57
REMARK SMILES IDX 36 58 47 59 63 60 34 61 35 62 46 64 64 65 37 66 24 67 25 68
REMARK SMILES IDX 30 69 26 70 27 71 29 72 31 73 28 74 50 75 51 76 56 77 52 78
REMARK SMILES IDX 53 79 55 80 57 81 54 82 38 83 39 84 44 85 40 86 41 87 43 88
REMARK SMILES IDX 45 89 42 90
REMARK H PARENT 73 15 82 23 80 25 78 27 62 52 36 63
REMARK Flexibility Score: inf
ROOT
ATOM      1  C   UNL A   1      35.758  34.486  33.977  1.00  0.00     0.188 C 
ENDROOT
BRANCH   1   2
ATOM      2  O   UNL A   1      37.066  34.920  34.382  1.00  0.00    -0.376 OA
BRANCH   2   3
ATOM      3  C   UNL A   1      37.692  34.045  35.323  1.00  0.00     0.202 C 
BRANCH   3   4
ATOM      4  C   UNL A   1      37.393  32.563  35.085  1.00  0.00     0.261 C 
BRANCH   4   5
ATOM      5  O   UNL A   1      38.285  31.998  34.108  1.00  0.00    -0.460 OA
BRANCH   5   6
ATOM      6  C   UNL A   1      38.209  30.756  33.566  1.00  0.00     0.338 C 
ATOM      7  O   UNL A   1      37.179  30.402  33.000  1.00  0.00    -0.246 OA
BRANCH   6   8
ATOM      8  C   UNL A   1      39.373  29.830  33.549  1.00  0.00     0.060 A 
ATOM      9  C   UNL A   1      39.424  28.651  32.808  1.00  0.00     0.018 A 
ATOM     10  C   UNL A   1      40.522  30.225  34.241  1.00  0.00     0.018 A 
ATOM     11  C   UNL A   1      40.558  27.829  32.849  1.00  0.00     0.026 A 
ATOM     12  C   UNL A   1      41.669  29.420  34.241  1.00  0.00     0.026 A 
ATOM     13  C   UNL A   1      41.695  28.187  33.575  1.00  0.00     0.036 A 
BRANCH  13  14
ATOM     14  N   UNL A   1      42.845  27.416  33.626  1.00  0.00    -0.358 N 
ATOM     15  H   UNL A   1      43.677  27.797  33.264  1.00  0.00     0.163 HD
BRANCH  14  16
ATOM     16  C   UNL A   1      42.889  26.072  34.187  1.00  0.00     0.244 C 
ATOM     17  O   UNL A   1      44.135  25.456  33.857  1.00  0.00    -0.353 OA
ATOM     18  C   UNL A   1      42.801  26.176  35.729  1.00  0.00     0.195 C 
ATOM     19  C   UNL A   1      44.221  24.101  34.319  1.00  0.00     0.197 C 
ATOM     20  C   UNL A   1      42.862  24.764  36.322  1.00  0.00     0.178 C 
ATOM     21  C   UNL A   1      44.119  24.020  35.845  1.00  0.00     0.171 C 
BRANCH  18  22
ATOM     22  O   UNL A   1      43.916  26.955  36.231  1.00  0.00    -0.386 OA
ATOM     23  H   UNL A   1      43.589  27.804  36.571  1.00  0.00     0.211 HD
ENDBRANCH  18  22
BRANCH  20  24
ATOM     24  O   UNL A   1      42.835  24.828  37.749  1.00  0.00    -0.387 OA
ATOM     25  H   UNL A   1      42.639  23.948  38.108  1.00  0.00     0.211 HD
ENDBRANCH  20  24
BRANCH  21  26
ATOM     26  O   UNL A   1      45.291  24.596  36.440  1.00  0.00    -0.388 OA
ATOM     27  H   UNL A   1      45.751  25.144  35.784  1.00  0.00     0.211 HD
ENDBRANCH  21  26
ENDBRANCH  14  16
ENDBRANCH  13  14
ENDBRANCH   6   8
ENDBRANCH   5   6
ENDBRANCH   4   5
ENDBRANCH   3   4
ENDBRANCH   2   3
ENDBRANCH   1   2
BRANCH   1  28
ATOM     28  C   UNL A   1      35.230  35.370  32.843  1.00  0.00     0.188 C 
BRANCH  28  29
ATOM     29  O   UNL A   1      33.828  35.647  32.909  1.00  0.00    -0.376 OA
BRANCH  29  30
ATOM     30  C   UNL A   1      33.355  36.752  32.141  1.00  0.00     0.202 C 
BRANCH  30  31
ATOM     31  C   UNL A   1      32.898  36.423  30.715  1.00  0.00     0.261 C 
BRANCH  31  32
ATOM     32  O   UNL A   1      32.769  35.012  30.457  1.00  0.00    -0.460 OA
BRANCH  32  33
ATOM     33  C   UNL A   1      33.110  34.642  29.199  1.00  0.00     0.338 C 
ATOM     34  O   UNL A   1      32.573  34.967  28.154  1.00  0.00    -0.246 OA
BRANCH  33  35
ATOM     35  C   UNL A   1      34.275  33.743  29.204  1.00  0.00     0.060 A 
ATOM     36  C   UNL A   1      34.433  32.851  30.269  1.00  0.00     0.016 A 
ATOM     37  C   UNL A   1      35.321  33.971  28.306  1.00  0.00     0.016 A 
ATOM     38  C   UNL A   1      35.667  32.230  30.473  1.00  0.00     0.010 A 
ATOM     39  C   UNL A   1      36.555  33.341  28.510  1.00  0.00     0.010 A 
ATOM     40  C   UNL A   1      36.749  32.509  29.624  1.00  0.00    -0.014 A 
BRANCH  40  41
ATOM     41  C   UNL A   1      38.112  32.042  29.993  1.00  0.00     0.031 A 
ATOM     42  C   UNL A   1      38.615  30.719  29.472  1.00  0.00     0.074 A 
ATOM     43  C   UNL A   1      38.915  32.807  30.752  1.00  0.00     0.049 A 
ATOM     44  N   UNL A   1      39.780  30.146  29.650  1.00  0.00    -0.248 NA
ATOM     45  C   UNL A   1      37.683  29.940  28.643  1.00  0.00     0.031 C 
ATOM     46  C   UNL A   1      38.561  34.108  31.315  1.00  0.00     0.029 A 
ATOM     47  N   UNL A   1      40.203  32.591  31.177  1.00  0.00    -0.354 N 
ATOM     48  C   UNL A   1      39.723  28.946  28.952  1.00  0.00     0.074 A 
ATOM     49  C   UNL A   1      38.398  28.855  28.377  1.00  0.00     0.031 C 
ATOM     50  C   UNL A   1      39.609  34.577  32.013  1.00  0.00     0.029 A 
ATOM     51  C   UNL A   1      40.699  33.604  31.959  1.00  0.00     0.049 A 
ATOM     52  H   UNL A   1      40.721  31.787  30.943  1.00  0.00     0.167 HD
ATOM     53  C   UNL A   1      40.689  28.010  28.788  1.00  0.00     0.037 A 
ATOM     54  C   UNL A   1      41.895  33.729  32.565  1.00  0.00     0.037 A 
ATOM     55  C   UNL A   1      42.010  28.086  29.353  1.00  0.00     0.049 A 
ATOM     56  C   UNL A   1      42.942  32.663  32.392  1.00  0.00     0.074 A 
ATOM     57  C   UNL A   1      43.056  27.185  29.232  1.00  0.00     0.029 A 
ATOM     58  N   UNL A   1      42.469  29.124  30.147  1.00  0.00    -0.354 N 
ATOM     59  N   UNL A   1      42.884  31.548  31.707  1.00  0.00    -0.248 NA
ATOM     60  C   UNL A   1      44.228  32.881  33.072  1.00  0.00     0.031 C 
ATOM     61  C   UNL A   1      44.138  27.665  29.978  1.00  0.00     0.029 A 
ATOM     62  C   UNL A   1      43.778  28.881  30.534  1.00  0.00     0.049 A 
ATOM     63  H   UNL A   1      41.943  29.917  30.401  1.00  0.00     0.167 HD
ATOM     64  C   UNL A   1      44.125  30.942  31.857  1.00  0.00     0.074 A 
ATOM     65  C   UNL A   1      44.924  31.821  32.685  1.00  0.00     0.031 C 
ATOM     66  C   UNL A   1      44.564  29.761  31.358  1.00  0.00     0.037 A 
BRANCH  53  67
ATOM     67  C   UNL A   1      40.350  26.811  27.954  1.00  0.00     0.057 A 
ATOM     68  C   UNL A   1      40.840  26.665  26.650  1.00  0.00     0.134 A 
ATOM     69  C   UNL A   1      39.568  25.772  28.473  1.00  0.00     0.134 A 
ATOM     70  F   UNL A   1      41.587  27.630  26.092  1.00  0.00    -0.206 F 
ATOM     71  C   UNL A   1      40.548  25.534  25.884  1.00  0.00     0.040 A 
ATOM     72  C   UNL A   1      39.286  24.629  27.724  1.00  0.00     0.040 A 
ATOM     73  F   UNL A   1      39.075  25.847  29.718  1.00  0.00    -0.206 F 
ATOM     74  C   UNL A   1      39.775  24.509  26.424  1.00  0.00     0.006 A 
ENDBRANCH  53  67
BRANCH  54  75
ATOM     75  C   UNL A   1      42.174  34.922  33.401  1.00  0.00     0.057 A 
ATOM     76  C   UNL A   1      41.755  34.986  34.735  1.00  0.00     0.134 A 
ATOM     77  C   UNL A   1      42.843  36.033  32.876  1.00  0.00     0.134 A 
ATOM     78  F   UNL A   1      41.088  33.961  35.283  1.00  0.00    -0.206 F 
ATOM     79  C   UNL A   1      41.978  36.122  35.513  1.00  0.00     0.040 A 
ATOM     80  C   UNL A   1      43.089  37.168  33.648  1.00  0.00     0.040 A 
ATOM     81  F   UNL A   1      43.271  36.028  31.605  1.00  0.00    -0.206 F 
ATOM     82  C   UNL A   1      42.650  37.217  34.970  1.00  0.00     0.006 A 
ENDBRANCH  54  75
BRANCH  66  83
ATOM     83  C   UNL A   1      45.973  29.363  31.678  1.00  0.00     0.057 A 
ATOM     84  C   UNL A   1      46.316  28.803  32.915  1.00  0.00     0.134 A 
ATOM     85  C   UNL A   1      46.995  29.522  30.733  1.00  0.00     0.134 A 
ATOM     86  F   UNL A   1      45.386  28.636  33.867  1.00  0.00    -0.206 F 
ATOM     87  C   UNL A   1      47.632  28.438  33.210  1.00  0.00     0.040 A 
ATOM     88  C   UNL A   1      48.309  29.141  31.010  1.00  0.00     0.040 A 
ATOM     89  F   UNL A   1      46.731  30.045  29.526  1.00  0.00    -0.206 F 
ATOM     90  C   UNL A   1      48.631  28.604  32.254  1.00  0.00     0.006 A 
ENDBRANCH  66  83
ENDBRANCH  40  41
ENDBRANCH  33  35
ENDBRANCH  32  33
ENDBRANCH  31  32
ENDBRANCH  30  31
ENDBRANCH  29  30
ENDBRANCH  28  29
ENDBRANCH   1  28
TORSDOF 22
ENDMDL
