MODEL 1
REMARK VINA RESULT:     -11.8      0.000      0.000
REMARK SMILES O=C(COCC(=O)OCCOCCOCCOC(=O)c1ccc(-c2c3nc(c(-c4c(F)cccc4F)c4ccc([nH]4)c(-c4c(F)cccc4F)c4nc(c(-c5c(F)cccc5F)c5ccc2[nH]5)C=C4)C=C3)cc1)/[NH+]=C1\S[C@@H]2CS(=O)(=O)C[C@H]2N1c1ccc(Cl)cc1
REMARK SMILES IDX 12 1 11 2 10 3 9 4 8 5 6 6 7 7 5 8 4 9 3 10 2 11 1 12 74 13
REMARK SMILES IDX 75 14 76 16 84 17 77 18 83 19 78 20 82 21 79 22 80 23 81 24
REMARK SMILES IDX 85 25 86 26 91 27 87 28 90 29 88 30 89 31 13 32 14 33 15 34
REMARK SMILES IDX 16 35 17 36 18 37 19 38 20 39 21 40 73 41 22 42 72 43 23 44
REMARK SMILES IDX 24 45 25 46 66 47 26 48 71 49 65 50 67 51 27 52 70 53 64 54
REMARK SMILES IDX 63 55 28 57 54 58 37 59 53 60 38 61 41 62 52 63 68 64 39 65
REMARK SMILES IDX 40 66 51 68 69 69 42 70 29 71 30 72 35 73 31 74 32 75 34 76
REMARK SMILES IDX 36 77 33 78 55 79 56 80 61 81 57 82 58 83 60 84 62 85 59 86
REMARK SMILES IDX 43 87 44 88 49 89 45 90 46 91 48 92 50 93 47 94
REMARK H PARENT 74 15 67 56 41 67
REMARK Flexibility Score: inf
ROOT
ATOM      1  C   UNL A   1      45.089  19.477  23.954  1.00  0.00     0.188 C 
ENDROOT
BRANCH   1   2
ATOM      2  O   UNL A   1      44.322  18.426  24.533  1.00  0.00    -0.376 OA
BRANCH   2   3
ATOM      3  C   UNL A   1      44.017  18.565  25.917  1.00  0.00     0.202 C 
BRANCH   3   4
ATOM      4  C   UNL A   1      42.688  19.251  26.276  1.00  0.00     0.261 C 
BRANCH   4   5
ATOM      5  O   UNL A   1      41.495  18.645  25.737  1.00  0.00    -0.462 OA
BRANCH   5   6
ATOM      6  C   UNL A   1      40.374  19.423  25.758  1.00  0.00     0.332 C 
ATOM      7  O   UNL A   1      39.269  19.064  25.364  1.00  0.00    -0.250 OA
BRANCH   6   8
ATOM      8  C   UNL A   1      40.609  20.839  26.327  1.00  0.00     0.283 C 
BRANCH   8   9
ATOM      9  O   UNL A   1      39.975  22.005  25.822  1.00  0.00    -0.358 OA
BRANCH   9  10
ATOM     10  C   UNL A   1      38.774  22.315  26.503  1.00  0.00     0.288 C 
BRANCH  10  11
ATOM     11  C   UNL A   1      38.075  23.672  26.244  1.00  0.00     0.333 C 
ATOM     12  O   UNL A   1      38.745  24.694  26.415  1.00  0.00    -0.244 OA
ATOM     13  N   UNL A   1      36.734  23.770  25.965  1.00  0.00    -0.202 N 
ATOM     14  C   UNL A   1      36.019  22.945  25.283  1.00  0.00     0.319 C 
ATOM     15  H   UNL A   1      36.268  24.558  26.328  1.00  0.00     0.316 HD
ATOM     16  S   UNL A   1      36.594  21.451  24.500  1.00  0.00    -0.029 SA
ATOM     17  N   UNL A   1      34.625  22.984  25.148  1.00  0.00    -0.217 N 
ATOM     18  C   UNL A   1      35.094  20.674  25.098  1.00  0.00     0.120 C 
ATOM     19  C   UNL A   1      34.056  21.716  24.649  1.00  0.00     0.212 C 
ATOM     20  C   UNL A   1      34.657  19.318  24.629  1.00  0.00     0.156 C 
ATOM     21  C   UNL A   1      32.770  21.174  25.225  1.00  0.00     0.188 C 
ATOM     22  S   UNL A   1      32.881  19.414  24.866  1.00  0.00     0.155 S 
ATOM     23  O   UNL A   1      32.527  18.685  26.059  1.00  0.00    -0.229 OA
ATOM     24  O   UNL A   1      32.247  19.169  23.584  1.00  0.00    -0.229 OA
BRANCH  17  25
ATOM     25  C   UNL A   1      33.865  24.163  25.158  1.00  0.00     0.128 A 
ATOM     26  C   UNL A   1      34.024  25.138  24.163  1.00  0.00     0.053 A 
ATOM     27  C   UNL A   1      32.887  24.400  26.141  1.00  0.00     0.053 A 
ATOM     28  C   UNL A   1      33.255  26.308  24.150  1.00  0.00     0.025 A 
ATOM     29  C   UNL A   1      32.117  25.573  26.138  1.00  0.00     0.025 A 
ATOM     30  C   UNL A   1      32.305  26.523  25.141  1.00  0.00     0.041 A 
ATOM     31  Cl  UNL A   1      31.357  27.958  25.114  1.00  0.00    -0.084 Cl
ENDBRANCH  17  25
ENDBRANCH  10  11
ENDBRANCH   9  10
ENDBRANCH   8   9
ENDBRANCH   6   8
ENDBRANCH   5   6
ENDBRANCH   4   5
ENDBRANCH   3   4
ENDBRANCH   2   3
ENDBRANCH   1   2
BRANCH   1  32
ATOM     32  C   UNL A   1      46.395  19.817  24.680  1.00  0.00     0.188 C 
BRANCH  32  33
ATOM     33  O   UNL A   1      46.377  21.060  25.368  1.00  0.00    -0.376 OA
BRANCH  33  34
ATOM     34  C   UNL A   1      46.398  22.264  24.595  1.00  0.00     0.202 C 
BRANCH  34  35
ATOM     35  C   UNL A   1      46.136  23.648  25.237  1.00  0.00     0.261 C 
BRANCH  35  36
ATOM     36  O   UNL A   1      45.096  24.446  24.637  1.00  0.00    -0.460 OA
BRANCH  36  37
ATOM     37  C   UNL A   1      43.833  23.974  24.736  1.00  0.00     0.338 C 
ATOM     38  O   UNL A   1      43.408  22.949  24.231  1.00  0.00    -0.246 OA
BRANCH  37  39
ATOM     39  C   UNL A   1      43.110  24.749  25.782  1.00  0.00     0.060 A 
ATOM     40  C   UNL A   1      43.281  26.137  25.762  1.00  0.00     0.016 A 
ATOM     41  C   UNL A   1      42.235  24.179  26.712  1.00  0.00     0.016 A 
ATOM     42  C   UNL A   1      42.611  26.955  26.674  1.00  0.00     0.010 A 
ATOM     43  C   UNL A   1      41.582  25.001  27.650  1.00  0.00     0.010 A 
ATOM     44  C   UNL A   1      41.789  26.395  27.656  1.00  0.00    -0.014 A 
BRANCH  44  45
ATOM     45  C   UNL A   1      41.353  27.257  28.792  1.00  0.00     0.031 A 
ATOM     46  C   UNL A   1      42.166  27.227  30.062  1.00  0.00     0.074 A 
ATOM     47  C   UNL A   1      40.343  28.142  28.688  1.00  0.00     0.049 A 
ATOM     48  N   UNL A   1      42.011  27.900  31.175  1.00  0.00    -0.248 NA
ATOM     49  C   UNL A   1      43.323  26.319  30.067  1.00  0.00     0.031 C 
ATOM     50  C   UNL A   1      39.531  28.367  27.495  1.00  0.00     0.029 A 
ATOM     51  N   UNL A   1      39.844  29.037  29.607  1.00  0.00    -0.354 N 
ATOM     52  C   UNL A   1      43.034  27.481  32.017  1.00  0.00     0.074 A 
ATOM     53  C   UNL A   1      43.790  26.480  31.293  1.00  0.00     0.031 C 
ATOM     54  C   UNL A   1      38.638  29.342  27.752  1.00  0.00     0.029 A 
ATOM     55  C   UNL A   1      38.791  29.786  29.138  1.00  0.00     0.049 A 
ATOM     56  H   UNL A   1      40.207  29.131  30.517  1.00  0.00     0.167 HD
ATOM     57  C   UNL A   1      43.330  27.892  33.274  1.00  0.00     0.037 A 
ATOM     58  C   UNL A   1      38.032  30.714  29.756  1.00  0.00     0.037 A 
ATOM     59  C   UNL A   1      42.593  28.894  33.999  1.00  0.00     0.049 A 
ATOM     60  C   UNL A   1      38.312  31.078  31.194  1.00  0.00     0.074 A 
ATOM     61  C   UNL A   1      42.828  29.378  35.275  1.00  0.00     0.029 A 
ATOM     62  N   UNL A   1      41.474  29.559  33.521  1.00  0.00    -0.354 N 
ATOM     63  N   UNL A   1      39.277  30.672  31.983  1.00  0.00    -0.248 NA
ATOM     64  C   UNL A   1      37.390  32.036  31.825  1.00  0.00     0.031 C 
ATOM     65  C   UNL A   1      41.810  30.285  35.595  1.00  0.00     0.029 A 
ATOM     66  C   UNL A   1      40.985  30.422  34.491  1.00  0.00     0.049 A 
ATOM     67  H   UNL A   1      41.084  29.437  32.625  1.00  0.00     0.167 HD
ATOM     68  C   UNL A   1      39.100  31.351  33.186  1.00  0.00     0.074 A 
ATOM     69  C   UNL A   1      37.945  32.205  33.016  1.00  0.00     0.031 C 
ATOM     70  C   UNL A   1      39.833  31.273  34.324  1.00  0.00     0.037 A 
BRANCH  57  71
ATOM     71  C   UNL A   1      44.468  27.200  33.968  1.00  0.00     0.057 A 
ATOM     72  C   UNL A   1      45.775  27.705  33.961  1.00  0.00     0.134 A 
ATOM     73  C   UNL A   1      44.248  25.997  34.653  1.00  0.00     0.134 A 
ATOM     74  F   UNL A   1      46.061  28.842  33.308  1.00  0.00    -0.206 F 
ATOM     75  C   UNL A   1      46.826  27.020  34.574  1.00  0.00     0.040 A 
ATOM     76  C   UNL A   1      45.283  25.321  35.299  1.00  0.00     0.040 A 
ATOM     77  F   UNL A   1      43.019  25.458  34.706  1.00  0.00    -0.206 F 
ATOM     78  C   UNL A   1      46.580  25.827  35.250  1.00  0.00     0.006 A 
ENDBRANCH  57  71
BRANCH  58  79
ATOM     79  C   UNL A   1      36.908  31.371  29.033  1.00  0.00     0.057 A 
ATOM     80  C   UNL A   1      36.992  32.705  28.614  1.00  0.00     0.134 A 
ATOM     81  C   UNL A   1      35.702  30.699  28.797  1.00  0.00     0.134 A 
ATOM     82  F   UNL A   1      38.104  33.418  28.846  1.00  0.00    -0.206 F 
ATOM     83  C   UNL A   1      35.915  33.350  28.001  1.00  0.00     0.040 A 
ATOM     84  C   UNL A   1      34.628  31.323  28.159  1.00  0.00     0.040 A 
ATOM     85  F   UNL A   1      35.548  29.426  29.188  1.00  0.00    -0.206 F 
ATOM     86  C   UNL A   1      34.730  32.655  27.766  1.00  0.00     0.006 A 
ENDBRANCH  58  79
BRANCH  70  87
ATOM     87  C   UNL A   1      39.438  32.173  35.466  1.00  0.00     0.057 A 
ATOM     88  C   UNL A   1      38.445  31.820  36.389  1.00  0.00     0.134 A 
ATOM     89  C   UNL A   1      40.070  33.411  35.649  1.00  0.00     0.134 A 
ATOM     90  F   UNL A   1      37.792  30.653  36.274  1.00  0.00    -0.206 F 
ATOM     91  C   UNL A   1      38.064  32.680  37.422  1.00  0.00     0.040 A 
ATOM     92  C   UNL A   1      39.723  34.265  36.699  1.00  0.00     0.040 A 
ATOM     93  F   UNL A   1      41.041  33.811  34.816  1.00  0.00    -0.206 F 
ATOM     94  C   UNL A   1      38.707  33.906  37.581  1.00  0.00     0.006 A 
ENDBRANCH  70  87
ENDBRANCH  44  45
ENDBRANCH  37  39
ENDBRANCH  36  37
ENDBRANCH  35  36
ENDBRANCH  34  35
ENDBRANCH  33  34
ENDBRANCH  32  33
ENDBRANCH   1  32
TORSDOF 21
ENDMDL
MODEL 2
REMARK VINA RESULT:     -11.6      0.652      5.844
REMARK SMILES O=C(COCC(=O)OCCOCCOCCOC(=O)c1ccc(-c2c3nc(c(-c4c(F)cccc4F)c4ccc([nH]4)c(-c4c(F)cccc4F)c4nc(c(-c5c(F)cccc5F)c5ccc2[nH]5)C=C4)C=C3)cc1)/[NH+]=C1\S[C@@H]2CS(=O)(=O)C[C@H]2N1c1ccc(Cl)cc1
REMARK SMILES IDX 12 1 11 2 10 3 9 4 8 5 6 6 7 7 5 8 4 9 3 10 2 11 1 12 74 13
REMARK SMILES IDX 75 14 76 16 84 17 77 18 83 19 78 20 82 21 79 22 80 23 81 24
REMARK SMILES IDX 85 25 86 26 91 27 87 28 90 29 88 30 89 31 13 32 14 33 15 34
REMARK SMILES IDX 16 35 17 36 18 37 19 38 20 39 21 40 73 41 22 42 72 43 23 44
REMARK SMILES IDX 24 45 25 46 66 47 26 48 71 49 65 50 67 51 27 52 70 53 64 54
REMARK SMILES IDX 63 55 28 57 54 58 37 59 53 60 38 61 41 62 52 63 68 64 39 65
REMARK SMILES IDX 40 66 51 68 69 69 42 70 29 71 30 72 35 73 31 74 32 75 34 76
REMARK SMILES IDX 36 77 33 78 55 79 56 80 61 81 57 82 58 83 60 84 62 85 59 86
REMARK SMILES IDX 43 87 44 88 49 89 45 90 46 91 48 92 50 93 47 94
REMARK H PARENT 74 15 67 56 41 67
REMARK Flexibility Score: inf
ROOT
ATOM      1  C   UNL A   1      45.242  19.560  23.888  1.00  0.00     0.188 C 
ENDROOT
BRANCH   1   2
ATOM      2  O   UNL A   1      44.464  18.460  24.351  1.00  0.00    -0.376 OA
BRANCH   2   3
ATOM      3  C   UNL A   1      44.299  18.362  25.762  1.00  0.00     0.202 C 
BRANCH   3   4
ATOM      4  C   UNL A   1      42.956  18.833  26.345  1.00  0.00     0.261 C 
BRANCH   4   5
ATOM      5  O   UNL A   1      42.000  19.354  25.397  1.00  0.00    -0.462 OA
BRANCH   5   6
ATOM      6  C   UNL A   1      40.759  19.626  25.895  1.00  0.00     0.332 C 
ATOM      7  O   UNL A   1      39.748  18.980  25.641  1.00  0.00    -0.250 OA
BRANCH   6   8
ATOM      8  C   UNL A   1      40.718  20.857  26.828  1.00  0.00     0.283 C 
BRANCH   8   9
ATOM      9  O   UNL A   1      40.254  22.136  26.423  1.00  0.00    -0.358 OA
BRANCH   9  10
ATOM     10  C   UNL A   1      38.843  22.225  26.400  1.00  0.00     0.288 C 
BRANCH  10  11
ATOM     11  C   UNL A   1      38.166  23.598  26.170  1.00  0.00     0.333 C 
ATOM     12  O   UNL A   1      38.858  24.605  26.340  1.00  0.00    -0.244 OA
ATOM     13  N   UNL A   1      36.822  23.725  25.918  1.00  0.00    -0.202 N 
ATOM     14  C   UNL A   1      36.078  22.923  25.240  1.00  0.00     0.319 C 
ATOM     15  H   UNL A   1      36.378  24.518  26.298  1.00  0.00     0.316 HD
ATOM     16  S   UNL A   1      36.610  21.428  24.430  1.00  0.00    -0.029 SA
ATOM     17  N   UNL A   1      34.683  22.990  25.131  1.00  0.00    -0.217 N 
ATOM     18  C   UNL A   1      35.106  20.672  25.046  1.00  0.00     0.120 C 
ATOM     19  C   UNL A   1      34.080  21.739  24.628  1.00  0.00     0.212 C 
ATOM     20  C   UNL A   1      34.634  19.330  24.570  1.00  0.00     0.156 C 
ATOM     21  C   UNL A   1      32.795  21.215  25.223  1.00  0.00     0.188 C 
ATOM     22  S   UNL A   1      32.865  19.457  24.842  1.00  0.00     0.155 S 
ATOM     23  O   UNL A   1      32.519  18.722  26.033  1.00  0.00    -0.229 OA
ATOM     24  O   UNL A   1      32.203  19.240  23.569  1.00  0.00    -0.229 OA
BRANCH  17  25
ATOM     25  C   UNL A   1      33.947  24.183  25.169  1.00  0.00     0.128 A 
ATOM     26  C   UNL A   1      33.062  24.457  26.223  1.00  0.00     0.053 A 
ATOM     27  C   UNL A   1      34.089  25.169  24.176  1.00  0.00     0.053 A 
ATOM     28  C   UNL A   1      32.339  25.653  26.284  1.00  0.00     0.025 A 
ATOM     29  C   UNL A   1      33.362  26.369  24.227  1.00  0.00     0.025 A 
ATOM     30  C   UNL A   1      32.489  26.605  25.283  1.00  0.00     0.041 A 
ATOM     31  Cl  UNL A   1      31.604  28.078  25.368  1.00  0.00    -0.084 Cl
ENDBRANCH  17  25
ENDBRANCH  10  11
ENDBRANCH   9  10
ENDBRANCH   8   9
ENDBRANCH   6   8
ENDBRANCH   5   6
ENDBRANCH   4   5
ENDBRANCH   3   4
ENDBRANCH   2   3
ENDBRANCH   1   2
BRANCH   1  32
ATOM     32  C   UNL A   1      46.364  20.015  24.828  1.00  0.00     0.188 C 
BRANCH  32  33
ATOM     33  O   UNL A   1      46.091  21.223  25.525  1.00  0.00    -0.376 OA
BRANCH  33  34
ATOM     34  C   UNL A   1      46.204  22.459  24.812  1.00  0.00     0.202 C 
BRANCH  34  35
ATOM     35  C   UNL A   1      46.125  23.825  25.536  1.00  0.00     0.261 C 
BRANCH  35  36
ATOM     36  O   UNL A   1      45.172  24.772  25.014  1.00  0.00    -0.460 OA
BRANCH  36  37
ATOM     37  C   UNL A   1      43.866  24.439  25.114  1.00  0.00     0.338 C 
ATOM     38  O   UNL A   1      43.322  23.494  24.567  1.00  0.00    -0.246 OA
BRANCH  37  39
ATOM     39  C   UNL A   1      43.247  25.235  26.210  1.00  0.00     0.060 A 
ATOM     40  C   UNL A   1      43.654  26.569  26.321  1.00  0.00     0.016 A 
ATOM     41  C   UNL A   1      42.253  24.748  27.064  1.00  0.00     0.016 A 
ATOM     42  C   UNL A   1      43.101  27.409  27.288  1.00  0.00     0.010 A 
ATOM     43  C   UNL A   1      41.716  25.588  28.059  1.00  0.00     0.010 A 
ATOM     44  C   UNL A   1      42.159  26.918  28.197  1.00  0.00    -0.014 A 
BRANCH  44  45
ATOM     45  C   UNL A   1      41.835  27.742  29.397  1.00  0.00     0.031 A 
ATOM     46  C   UNL A   1      40.615  28.625  29.347  1.00  0.00     0.074 A 
ATOM     47  C   UNL A   1      42.515  27.637  30.556  1.00  0.00     0.049 A 
ATOM     48  N   UNL A   1      40.107  29.411  30.264  1.00  0.00    -0.248 NA
ATOM     49  C   UNL A   1      39.855  28.605  28.088  1.00  0.00     0.031 C 
ATOM     50  C   UNL A   1      43.650  26.751  30.798  1.00  0.00     0.029 A 
ATOM     51  N   UNL A   1      42.325  28.276  31.760  1.00  0.00    -0.354 N 
ATOM     52  C   UNL A   1      38.985  29.993  29.686  1.00  0.00     0.074 A 
ATOM     53  C   UNL A   1      38.900  29.487  28.332  1.00  0.00     0.031 C 
ATOM     54  C   UNL A   1      44.054  26.897  32.074  1.00  0.00     0.029 A 
ATOM     55  C   UNL A   1      43.229  27.912  32.730  1.00  0.00     0.049 A 
ATOM     56  H   UNL A   1      41.610  28.935  31.912  1.00  0.00     0.167 HD
ATOM     57  C   UNL A   1      38.099  30.863  30.227  1.00  0.00     0.037 A 
ATOM     58  C   UNL A   1      43.381  28.353  33.996  1.00  0.00     0.037 A 
ATOM     59  C   UNL A   1      38.167  31.365  31.574  1.00  0.00     0.049 A 
ATOM     60  C   UNL A   1      42.446  29.404  34.543  1.00  0.00     0.074 A 
ATOM     61  C   UNL A   1      37.305  32.244  32.210  1.00  0.00     0.029 A 
ATOM     62  N   UNL A   1      39.155  31.044  32.493  1.00  0.00    -0.354 N 
ATOM     63  N   UNL A   1      41.393  29.954  33.986  1.00  0.00    -0.248 NA
ATOM     64  C   UNL A   1      42.726  29.896  35.902  1.00  0.00     0.031 C 
ATOM     65  C   UNL A   1      37.810  32.508  33.488  1.00  0.00     0.029 A 
ATOM     66  C   UNL A   1      38.945  31.736  33.677  1.00  0.00     0.049 A 
ATOM     67  H   UNL A   1      39.896  30.416  32.330  1.00  0.00     0.167 HD
ATOM     68  C   UNL A   1      40.866  30.823  34.938  1.00  0.00     0.074 A 
ATOM     69  C   UNL A   1      41.708  30.716  36.111  1.00  0.00     0.031 C 
ATOM     70  C   UNL A   1      39.782  31.632  34.846  1.00  0.00     0.037 A 
BRANCH  57  71
ATOM     71  C   UNL A   1      37.013  31.379  29.326  1.00  0.00     0.057 A 
ATOM     72  C   UNL A   1      37.043  32.663  28.766  1.00  0.00     0.134 A 
ATOM     73  C   UNL A   1      35.910  30.569  29.020  1.00  0.00     0.134 A 
ATOM     74  F   UNL A   1      38.060  33.497  29.032  1.00  0.00    -0.206 F 
ATOM     75  C   UNL A   1      35.999  33.137  27.969  1.00  0.00     0.040 A 
ATOM     76  C   UNL A   1      34.877  31.019  28.196  1.00  0.00     0.040 A 
ATOM     77  F   UNL A   1      35.818  29.326  29.517  1.00  0.00    -0.206 F 
ATOM     78  C   UNL A   1      34.915  32.311  27.678  1.00  0.00     0.006 A 
ENDBRANCH  57  71
BRANCH  58  79
ATOM     79  C   UNL A   1      44.476  27.820  34.852  1.00  0.00     0.057 A 
ATOM     80  C   UNL A   1      44.287  26.689  35.656  1.00  0.00     0.134 A 
ATOM     81  C   UNL A   1      45.717  28.464  34.933  1.00  0.00     0.134 A 
ATOM     82  F   UNL A   1      43.108  26.049  35.657  1.00  0.00    -0.206 F 
ATOM     83  C   UNL A   1      45.285  26.226  36.517  1.00  0.00     0.040 A 
ATOM     84  C   UNL A   1      46.733  27.996  35.768  1.00  0.00     0.040 A 
ATOM     85  F   UNL A   1      45.959  29.563  34.204  1.00  0.00    -0.206 F 
ATOM     86  C   UNL A   1      46.516  26.878  36.569  1.00  0.00     0.006 A 
ENDBRANCH  58  79
BRANCH  70  87
ATOM     87  C   UNL A   1      39.409  32.434  36.066  1.00  0.00     0.057 A 
ATOM     88  C   UNL A   1      38.454  31.991  36.991  1.00  0.00     0.134 A 
ATOM     89  C   UNL A   1      40.024  33.666  36.323  1.00  0.00     0.134 A 
ATOM     90  F   UNL A   1      37.818  30.823  36.807  1.00  0.00    -0.206 F 
ATOM     91  C   UNL A   1      38.092  32.762  38.098  1.00  0.00     0.040 A 
ATOM     92  C   UNL A   1      39.697  34.431  37.446  1.00  0.00     0.040 A 
ATOM     93  F   UNL A   1      40.960  34.149  35.492  1.00  0.00    -0.206 F 
ATOM     94  C   UNL A   1      38.718  33.985  38.330  1.00  0.00     0.006 A 
ENDBRANCH  70  87
ENDBRANCH  44  45
ENDBRANCH  37  39
ENDBRANCH  36  37
ENDBRANCH  35  36
ENDBRANCH  34  35
ENDBRANCH  33  34
ENDBRANCH  32  33
ENDBRANCH   1  32
TORSDOF 21
ENDMDL
MODEL 3
REMARK VINA RESULT:     -10.0      6.463     13.198
REMARK SMILES O=C(COCC(=O)OCCOCCOCCOC(=O)c1ccc(-c2c3nc(c(-c4c(F)cccc4F)c4ccc([nH]4)c(-c4c(F)cccc4F)c4nc(c(-c5c(F)cccc5F)c5ccc2[nH]5)C=C4)C=C3)cc1)/[NH+]=C1\S[C@@H]2CS(=O)(=O)C[C@H]2N1c1ccc(Cl)cc1
REMARK SMILES IDX 12 1 11 2 10 3 9 4 8 5 6 6 7 7 5 8 4 9 3 10 2 11 1 12 74 13
REMARK SMILES IDX 75 14 76 16 84 17 77 18 83 19 78 20 82 21 79 22 80 23 81 24
REMARK SMILES IDX 85 25 86 26 91 27 87 28 90 29 88 30 89 31 13 32 14 33 15 34
REMARK SMILES IDX 16 35 17 36 18 37 19 38 20 39 21 40 73 41 22 42 72 43 23 44
REMARK SMILES IDX 24 45 25 46 66 47 26 48 71 49 65 50 67 51 27 52 70 53 64 54
REMARK SMILES IDX 63 55 28 57 54 58 37 59 53 60 38 61 41 62 52 63 68 64 39 65
REMARK SMILES IDX 40 66 51 68 69 69 42 70 29 71 30 72 35 73 31 74 32 75 34 76
REMARK SMILES IDX 36 77 33 78 55 79 56 80 61 81 57 82 58 83 60 84 62 85 59 86
REMARK SMILES IDX 43 87 44 88 49 89 45 90 46 91 48 92 50 93 47 94
REMARK H PARENT 74 15 67 56 41 67
REMARK Flexibility Score: inf
ROOT
ATOM      1  C   UNL A   1      33.249  36.843  30.412  1.00  0.00     0.188 C 
ENDROOT
BRANCH   1   2
ATOM      2  O   UNL A   1      32.360  36.782  31.524  1.00  0.00    -0.376 OA
BRANCH   2   3
ATOM      3  C   UNL A   1      32.965  36.575  32.796  1.00  0.00     0.202 C 
BRANCH   3   4
ATOM      4  C   UNL A   1      34.383  35.982  32.810  1.00  0.00     0.261 C 
BRANCH   4   5
ATOM      5  O   UNL A   1      34.581  34.828  33.655  1.00  0.00    -0.462 OA
BRANCH   5   6
ATOM      6  C   UNL A   1      34.267  33.624  33.096  1.00  0.00     0.332 C 
ATOM      7  O   UNL A   1      33.195  33.046  33.242  1.00  0.00    -0.250 OA
BRANCH   6   8
ATOM      8  C   UNL A   1      35.405  33.016  32.246  1.00  0.00     0.283 C 
BRANCH   8   9
ATOM      9  O   UNL A   1      36.087  31.818  32.586  1.00  0.00    -0.358 OA
BRANCH   9  10
ATOM     10  C   UNL A   1      36.984  31.986  33.666  1.00  0.00     0.288 C 
BRANCH  10  11
ATOM     11  C   UNL A   1      38.211  32.915  33.504  1.00  0.00     0.333 C 
ATOM     12  O   UNL A   1      38.573  33.179  32.355  1.00  0.00    -0.244 OA
ATOM     13  N   UNL A   1      38.964  33.336  34.573  1.00  0.00    -0.202 N 
ATOM     14  C   UNL A   1      38.545  33.619  35.757  1.00  0.00     0.319 C 
ATOM     15  H   UNL A   1      39.932  33.432  34.417  1.00  0.00     0.316 HD
ATOM     16  S   UNL A   1      36.855  33.552  36.319  1.00  0.00    -0.029 SA
ATOM     17  N   UNL A   1      39.350  33.892  36.870  1.00  0.00    -0.217 N 
ATOM     18  C   UNL A   1      37.485  32.809  37.824  1.00  0.00     0.120 C 
ATOM     19  C   UNL A   1      38.621  33.792  38.151  1.00  0.00     0.212 C 
ATOM     20  C   UNL A   1      36.630  32.628  39.043  1.00  0.00     0.156 C 
ATOM     21  C   UNL A   1      39.273  33.157  39.356  1.00  0.00     0.188 C 
ATOM     22  S   UNL A   1      37.863  32.638  40.347  1.00  0.00     0.155 S 
ATOM     23  O   UNL A   1      38.091  31.283  40.785  1.00  0.00    -0.229 OA
ATOM     24  O   UNL A   1      37.531  33.711  41.264  1.00  0.00    -0.229 OA
BRANCH  17  25
ATOM     25  C   UNL A   1      40.608  34.508  36.801  1.00  0.00     0.128 A 
ATOM     26  C   UNL A   1      41.789  33.752  36.826  1.00  0.00     0.053 A 
ATOM     27  C   UNL A   1      40.739  35.902  36.666  1.00  0.00     0.053 A 
ATOM     28  C   UNL A   1      43.050  34.353  36.735  1.00  0.00     0.025 A 
ATOM     29  C   UNL A   1      42.000  36.513  36.580  1.00  0.00     0.025 A 
ATOM     30  C   UNL A   1      43.151  35.734  36.615  1.00  0.00     0.041 A 
ATOM     31  Cl  UNL A   1      44.702  36.467  36.494  1.00  0.00    -0.084 Cl
ENDBRANCH  17  25
ENDBRANCH  10  11
ENDBRANCH   9  10
ENDBRANCH   8   9
ENDBRANCH   6   8
ENDBRANCH   5   6
ENDBRANCH   4   5
ENDBRANCH   3   4
ENDBRANCH   2   3
ENDBRANCH   1   2
BRANCH   1  32
ATOM     32  C   UNL A   1      32.915  35.902  29.249  1.00  0.00     0.188 C 
BRANCH  32  33
ATOM     33  O   UNL A   1      33.154  34.527  29.520  1.00  0.00    -0.376 OA
BRANCH  33  34
ATOM     34  C   UNL A   1      33.818  33.744  28.522  1.00  0.00     0.202 C 
BRANCH  34  35
ATOM     35  C   UNL A   1      34.337  32.317  28.821  1.00  0.00     0.261 C 
BRANCH  35  36
ATOM     36  O   UNL A   1      34.477  31.436  27.688  1.00  0.00    -0.460 OA
BRANCH  36  37
ATOM     37  C   UNL A   1      34.610  30.117  27.956  1.00  0.00     0.338 C 
ATOM     38  O   UNL A   1      33.781  29.252  27.734  1.00  0.00    -0.246 OA
BRANCH  37  39
ATOM     39  C   UNL A   1      36.029  29.839  28.311  1.00  0.00     0.060 A 
ATOM     40  C   UNL A   1      36.983  30.091  27.319  1.00  0.00     0.016 A 
ATOM     41  C   UNL A   1      36.451  29.420  29.576  1.00  0.00     0.016 A 
ATOM     42  C   UNL A   1      38.343  29.903  27.568  1.00  0.00     0.010 A 
ATOM     43  C   UNL A   1      37.821  29.203  29.819  1.00  0.00     0.010 A 
ATOM     44  C   UNL A   1      38.776  29.415  28.805  1.00  0.00    -0.014 A 
BRANCH  44  45
ATOM     45  C   UNL A   1      40.181  28.930  28.924  1.00  0.00     0.031 A 
ATOM     46  C   UNL A   1      41.184  29.817  29.617  1.00  0.00     0.074 A 
ATOM     47  C   UNL A   1      40.557  27.692  28.549  1.00  0.00     0.049 A 
ATOM     48  N   UNL A   1      42.453  29.613  29.871  1.00  0.00    -0.248 NA
ATOM     49  C   UNL A   1      40.677  31.110  30.101  1.00  0.00     0.031 C 
ATOM     50  C   UNL A   1      39.683  26.679  27.964  1.00  0.00     0.029 A 
ATOM     51  N   UNL A   1      41.783  27.072  28.630  1.00  0.00    -0.354 N 
ATOM     52  C   UNL A   1      42.898  30.757  30.523  1.00  0.00     0.074 A 
ATOM     53  C   UNL A   1      41.769  31.660  30.605  1.00  0.00     0.031 C 
ATOM     54  C   UNL A   1      40.399  25.560  27.743  1.00  0.00     0.029 A 
ATOM     55  C   UNL A   1      41.789  25.788  28.139  1.00  0.00     0.049 A 
ATOM     56  H   UNL A   1      42.583  27.507  29.003  1.00  0.00     0.167 HD
ATOM     57  C   UNL A   1      44.128  31.035  31.017  1.00  0.00     0.037 A 
ATOM     58  C   UNL A   1      42.799  24.902  28.012  1.00  0.00     0.037 A 
ATOM     59  C   UNL A   1      45.255  30.141  30.952  1.00  0.00     0.049 A 
ATOM     60  C   UNL A   1      44.187  25.275  28.472  1.00  0.00     0.074 A 
ATOM     61  C   UNL A   1      46.538  30.338  31.435  1.00  0.00     0.029 A 
ATOM     62  N   UNL A   1      45.242  28.887  30.359  1.00  0.00    -0.354 N 
ATOM     63  N   UNL A   1      44.600  26.361  29.080  1.00  0.00    -0.248 NA
ATOM     64  C   UNL A   1      45.253  24.290  28.224  1.00  0.00     0.031 C 
ATOM     65  C   UNL A   1      47.318  29.233  31.074  1.00  0.00     0.029 A 
ATOM     66  C   UNL A   1      46.503  28.315  30.432  1.00  0.00     0.049 A 
ATOM     67  H   UNL A   1      44.453  28.466  29.948  1.00  0.00     0.167 HD
ATOM     68  C   UNL A   1      45.958  26.174  29.321  1.00  0.00     0.074 A 
ATOM     69  C   UNL A   1      46.295  24.864  28.805  1.00  0.00     0.031 C 
ATOM     70  C   UNL A   1      46.842  27.011  29.918  1.00  0.00     0.037 A 
BRANCH  57  71
ATOM     71  C   UNL A   1      44.331  32.398  31.616  1.00  0.00     0.057 A 
ATOM     72  C   UNL A   1      44.728  33.505  30.854  1.00  0.00     0.134 A 
ATOM     73  C   UNL A   1      44.127  32.601  32.988  1.00  0.00     0.134 A 
ATOM     74  F   UNL A   1      44.959  33.378  29.538  1.00  0.00    -0.206 F 
ATOM     75  C   UNL A   1      44.955  34.752  31.441  1.00  0.00     0.040 A 
ATOM     76  C   UNL A   1      44.317  33.850  33.579  1.00  0.00     0.040 A 
ATOM     77  F   UNL A   1      43.740  31.586  33.776  1.00  0.00    -0.206 F 
ATOM     78  C   UNL A   1      44.744  34.927  32.807  1.00  0.00     0.006 A 
ENDBRANCH  57  71
BRANCH  58  79
ATOM     79  C   UNL A   1      42.556  23.564  27.406  1.00  0.00     0.057 A 
ATOM     80  C   UNL A   1      42.270  22.446  28.200  1.00  0.00     0.134 A 
ATOM     81  C   UNL A   1      42.662  23.359  26.025  1.00  0.00     0.134 A 
ATOM     82  F   UNL A   1      42.194  22.566  29.534  1.00  0.00    -0.206 F 
ATOM     83  C   UNL A   1      42.113  21.174  27.645  1.00  0.00     0.040 A 
ATOM     84  C   UNL A   1      42.480  22.098  25.454  1.00  0.00     0.040 A 
ATOM     85  F   UNL A   1      42.952  24.383  25.208  1.00  0.00    -0.206 F 
ATOM     86  C   UNL A   1      42.212  20.999  26.266  1.00  0.00     0.006 A 
ENDBRANCH  58  79
BRANCH  70  87
ATOM     87  C   UNL A   1      48.255  26.519  30.093  1.00  0.00     0.057 A 
ATOM     88  C   UNL A   1      49.247  26.730  29.126  1.00  0.00     0.134 A 
ATOM     89  C   UNL A   1      48.630  25.829  31.254  1.00  0.00     0.134 A 
ATOM     90  F   UNL A   1      48.960  27.377  27.986  1.00  0.00    -0.206 F 
ATOM     91  C   UNL A   1      50.544  26.236  29.286  1.00  0.00     0.040 A 
ATOM     92  C   UNL A   1      49.933  25.361  31.442  1.00  0.00     0.040 A 
ATOM     93  F   UNL A   1      47.740  25.602  32.231  1.00  0.00    -0.206 F 
ATOM     94  C   UNL A   1      50.891  25.552  30.449  1.00  0.00     0.006 A 
ENDBRANCH  70  87
ENDBRANCH  44  45
ENDBRANCH  37  39
ENDBRANCH  36  37
ENDBRANCH  35  36
ENDBRANCH  34  35
ENDBRANCH  33  34
ENDBRANCH  32  33
ENDBRANCH   1  32
TORSDOF 21
ENDMDL
