MODEL 1
REMARK VINA RESULT:      -9.2      0.000      0.000
REMARK SMILES CCN(Cc1ccccn1)C(=O)NC(CC)(CC)C(=O)OCCOCCOCCOC(=O)c1ccc(-c2c3nc(c(-c4c(F)cccc4F)c4ccc([nH]4)c(-c4c(F)cccc4F)c4nc(c(-c5c(F)cccc5F)c5ccc2[nH]5)C=C4)C=C3)cc1
REMARK SMILES IDX 25 1 24 2 23 3 22 4 21 5 19 6 20 7 14 8 13 9 11 10 12 11
REMARK SMILES IDX 3 13 2 14 1 15 4 16 5 17 6 18 10 19 7 20 9 21 8 22 15 23
REMARK SMILES IDX 16 24 17 25 18 26 26 27 27 28 28 29 29 30 30 31 31 32 32 33
REMARK SMILES IDX 33 34 34 35 86 36 35 37 85 38 36 39 37 40 38 41 79 42 39 43
REMARK SMILES IDX 84 44 78 45 80 46 40 47 83 48 77 49 76 50 41 52 67 53 50 54
REMARK SMILES IDX 66 55 51 56 54 57 65 58 81 59 52 60 53 61 64 63 82 64 55 65
REMARK SMILES IDX 42 66 43 67 48 68 44 69 45 70 47 71 49 72 46 73 68 74 69 75
REMARK SMILES IDX 74 76 70 77 71 78 73 79 75 80 72 81 56 82 57 83 62 84 58 85
REMARK SMILES IDX 59 86 61 87 63 88 60 89
REMARK H PARENT 13 12 80 51 54 62
REMARK Flexibility Score: inf
ROOT
ATOM      1  C   UNL A   1      34.956  30.450  27.556  1.00  0.00     0.188 C 
ENDROOT
BRANCH   1   2
ATOM      2  O   UNL A   1      33.820  29.837  26.966  1.00  0.00    -0.376 OA
BRANCH   2   3
ATOM      3  C   UNL A   1      32.638  30.625  26.871  1.00  0.00     0.202 C 
BRANCH   3   4
ATOM      4  C   UNL A   1      31.473  30.029  26.064  1.00  0.00     0.261 C 
BRANCH   4   5
ATOM      5  O   UNL A   1      31.737  28.633  25.809  1.00  0.00    -0.461 OA
BRANCH   5   6
ATOM      6  C   UNL A   1      31.650  28.149  24.552  1.00  0.00     0.331 C 
ATOM      7  O   UNL A   1      31.423  28.863  23.582  1.00  0.00    -0.249 OA
BRANCH   6   8
ATOM      8  C   UNL A   1      31.768  26.587  24.503  1.00  0.00     0.139 C 
BRANCH   8   9
ATOM      9  N   UNL A   1      31.640  25.792  25.768  1.00  0.00    -0.322 N 
ATOM     10  C   UNL A   1      31.801  24.581  26.310  1.00  0.00     0.318 C 
ATOM     11  O   UNL A   1      31.010  24.394  27.247  1.00  0.00    -0.249 OA
ATOM     12  H   UNL A   1      31.309  26.396  26.471  1.00  0.00     0.166 HD
BRANCH  10  13
ATOM     13  N   UNL A   1      32.780  23.671  26.054  1.00  0.00    -0.319 N 
BRANCH  13  14
ATOM     14  C   UNL A   1      32.317  22.443  25.375  1.00  0.00     0.118 C 
ATOM     15  C   UNL A   1      31.964  22.691  23.904  1.00  0.00     0.027 C 
ENDBRANCH  13  14
BRANCH  13  16
ATOM     16  C   UNL A   1      34.180  23.631  26.465  1.00  0.00     0.177 C 
BRANCH  16  17
ATOM     17  C   UNL A   1      35.176  22.922  25.576  1.00  0.00     0.060 A 
ATOM     18  C   UNL A   1      35.652  23.582  24.439  1.00  0.00     0.026 A 
ATOM     19  N   UNL A   1      35.662  21.718  25.958  1.00  0.00    -0.259 NA
ATOM     20  C   UNL A   1      36.574  22.952  23.613  1.00  0.00     0.004 A 
ATOM     21  C   UNL A   1      36.582  21.138  25.151  1.00  0.00     0.111 A 
ATOM     22  C   UNL A   1      37.048  21.700  23.972  1.00  0.00     0.020 A 
ENDBRANCH  16  17
ENDBRANCH  13  16
ENDBRANCH  10  13
ENDBRANCH   8   9
BRANCH   8  23
ATOM     23  C   UNL A   1      33.141  26.235  23.838  1.00  0.00     0.037 C 
ATOM     24  C   UNL A   1      33.297  26.594  22.355  1.00  0.00     0.007 C 
ENDBRANCH   8  23
BRANCH   8  25
ATOM     25  C   UNL A   1      30.598  26.133  23.513  1.00  0.00     0.037 C 
ATOM     26  C   UNL A   1      29.145  26.547  23.766  1.00  0.00     0.007 C 
ENDBRANCH   8  25
ENDBRANCH   6   8
ENDBRANCH   5   6
ENDBRANCH   4   5
ENDBRANCH   3   4
ENDBRANCH   2   3
ENDBRANCH   1   2
BRANCH   1  27
ATOM     27  C   UNL A   1      34.727  31.876  28.058  1.00  0.00     0.188 C 
BRANCH  27  28
ATOM     28  O   UNL A   1      35.605  32.928  27.693  1.00  0.00    -0.376 OA
BRANCH  28  29
ATOM     29  C   UNL A   1      36.082  33.784  28.717  1.00  0.00     0.202 C 
BRANCH  29  30
ATOM     30  C   UNL A   1      35.980  33.311  30.175  1.00  0.00     0.261 C 
BRANCH  30  31
ATOM     31  O   UNL A   1      37.120  32.592  30.676  1.00  0.00    -0.460 OA
BRANCH  31  32
ATOM     32  C   UNL A   1      36.903  31.271  30.925  1.00  0.00     0.338 C 
ATOM     33  O   UNL A   1      35.904  30.766  31.391  1.00  0.00    -0.246 OA
BRANCH  32  34
ATOM     34  C   UNL A   1      38.016  30.474  30.349  1.00  0.00     0.060 A 
ATOM     35  C   UNL A   1      38.977  29.942  31.225  1.00  0.00     0.016 A 
ATOM     36  C   UNL A   1      38.137  30.284  28.974  1.00  0.00     0.016 A 
ATOM     37  C   UNL A   1      40.080  29.247  30.730  1.00  0.00     0.010 A 
ATOM     38  C   UNL A   1      39.267  29.626  28.475  1.00  0.00     0.010 A 
ATOM     39  C   UNL A   1      40.262  29.142  29.348  1.00  0.00    -0.014 A 
BRANCH  39  40
ATOM     40  C   UNL A   1      41.598  28.794  28.803  1.00  0.00     0.031 A 
ATOM     41  C   UNL A   1      41.842  27.361  28.420  1.00  0.00     0.074 A 
ATOM     42  C   UNL A   1      42.573  29.706  28.642  1.00  0.00     0.049 A 
ATOM     43  N   UNL A   1      42.950  26.772  28.053  1.00  0.00    -0.248 NA
ATOM     44  C   UNL A   1      40.668  26.472  28.449  1.00  0.00     0.031 C 
ATOM     45  C   UNL A   1      42.435  31.141  28.856  1.00  0.00     0.029 A 
ATOM     46  N   UNL A   1      43.886  29.542  28.277  1.00  0.00    -0.354 N 
ATOM     47  C   UNL A   1      42.605  25.449  27.807  1.00  0.00     0.074 A 
ATOM     48  C   UNL A   1      41.197  25.311  28.100  1.00  0.00     0.031 C 
ATOM     49  C   UNL A   1      43.633  31.726  28.677  1.00  0.00     0.029 A 
ATOM     50  C   UNL A   1      44.622  30.700  28.354  1.00  0.00     0.049 A 
ATOM     51  H   UNL A   1      44.264  28.681  27.988  1.00  0.00     0.167 HD
ATOM     52  C   UNL A   1      43.392  24.441  27.363  1.00  0.00     0.037 A 
ATOM     53  C   UNL A   1      45.946  30.899  28.208  1.00  0.00     0.037 A 
ATOM     54  C   UNL A   1      44.795  24.578  27.080  1.00  0.00     0.049 A 
ATOM     55  C   UNL A   1      46.831  29.735  27.848  1.00  0.00     0.074 A 
ATOM     56  C   UNL A   1      45.682  23.615  26.634  1.00  0.00     0.029 A 
ATOM     57  N   UNL A   1      45.515  25.753  27.223  1.00  0.00    -0.354 N 
ATOM     58  N   UNL A   1      46.505  28.484  27.626  1.00  0.00    -0.248 NA
ATOM     59  C   UNL A   1      48.268  30.012  27.705  1.00  0.00     0.031 C 
ATOM     60  C   UNL A   1      46.952  24.197  26.556  1.00  0.00     0.029 A 
ATOM     61  C   UNL A   1      46.843  25.535  26.899  1.00  0.00     0.049 A 
ATOM     62  H   UNL A   1      45.138  26.617  27.512  1.00  0.00     0.167 HD
ATOM     63  C   UNL A   1      47.683  27.838  27.272  1.00  0.00     0.074 A 
ATOM     64  C   UNL A   1      48.734  28.834  27.314  1.00  0.00     0.031 C 
ATOM     65  C   UNL A   1      47.876  26.539  26.934  1.00  0.00     0.037 A 
BRANCH  52  66
ATOM     66  C   UNL A   1      42.749  23.098  27.192  1.00  0.00     0.057 A 
ATOM     67  C   UNL A   1      42.462  22.268  28.284  1.00  0.00     0.134 A 
ATOM     68  C   UNL A   1      42.403  22.631  25.918  1.00  0.00     0.134 A 
ATOM     69  F   UNL A   1      42.788  22.647  29.530  1.00  0.00    -0.206 F 
ATOM     70  C   UNL A   1      41.877  21.013  28.112  1.00  0.00     0.040 A 
ATOM     71  C   UNL A   1      41.793  21.390  25.736  1.00  0.00     0.040 A 
ATOM     72  F   UNL A   1      42.652  23.375  24.830  1.00  0.00    -0.206 F 
ATOM     73  C   UNL A   1      41.534  20.573  26.835  1.00  0.00     0.006 A 
ENDBRANCH  52  66
BRANCH  53  74
ATOM     74  C   UNL A   1      46.524  32.252  28.411  1.00  0.00     0.057 A 
ATOM     75  C   UNL A   1      47.021  32.650  29.657  1.00  0.00     0.134 A 
ATOM     76  C   UNL A   1      46.568  33.189  27.371  1.00  0.00     0.134 A 
ATOM     77  F   UNL A   1      46.979  31.808  30.700  1.00  0.00    -0.206 F 
ATOM     78  C   UNL A   1      47.527  33.935  29.868  1.00  0.00     0.040 A 
ATOM     79  C   UNL A   1      47.092  34.470  27.561  1.00  0.00     0.040 A 
ATOM     80  F   UNL A   1      46.102  32.873  26.154  1.00  0.00    -0.206 F 
ATOM     81  C   UNL A   1      47.568  34.846  28.815  1.00  0.00     0.006 A 
ENDBRANCH  53  74
BRANCH  65  82
ATOM     82  C   UNL A   1      49.262  26.129  26.531  1.00  0.00     0.057 A 
ATOM     83  C   UNL A   1      49.753  26.340  25.236  1.00  0.00     0.134 A 
ATOM     84  C   UNL A   1      50.132  25.552  27.466  1.00  0.00     0.134 A 
ATOM     85  F   UNL A   1      48.968  26.877  24.290  1.00  0.00    -0.206 F 
ATOM     86  C   UNL A   1      51.052  25.973  24.881  1.00  0.00     0.040 A 
ATOM     87  C   UNL A   1      51.441  25.208  27.130  1.00  0.00     0.040 A 
ATOM     88  F   UNL A   1      49.729  25.332  28.726  1.00  0.00    -0.206 F 
ATOM     89  C   UNL A   1      51.902  25.412  25.831  1.00  0.00     0.006 A 
ENDBRANCH  65  82
ENDBRANCH  39  40
ENDBRANCH  32  34
ENDBRANCH  31  32
ENDBRANCH  30  31
ENDBRANCH  29  30
ENDBRANCH  28  29
ENDBRANCH  27  28
ENDBRANCH   1  27
TORSDOF 24
ENDMDL
MODEL 2
REMARK VINA RESULT:      -9.0      1.812      2.535
REMARK SMILES CCN(Cc1ccccn1)C(=O)NC(CC)(CC)C(=O)OCCOCCOCCOC(=O)c1ccc(-c2c3nc(c(-c4c(F)cccc4F)c4ccc([nH]4)c(-c4c(F)cccc4F)c4nc(c(-c5c(F)cccc5F)c5ccc2[nH]5)C=C4)C=C3)cc1
REMARK SMILES IDX 25 1 24 2 23 3 22 4 21 5 19 6 20 7 14 8 13 9 11 10 12 11
REMARK SMILES IDX 3 13 2 14 1 15 4 16 5 17 6 18 10 19 7 20 9 21 8 22 15 23
REMARK SMILES IDX 16 24 17 25 18 26 26 27 27 28 28 29 29 30 30 31 31 32 32 33
REMARK SMILES IDX 33 34 34 35 86 36 35 37 85 38 36 39 37 40 38 41 79 42 39 43
REMARK SMILES IDX 84 44 78 45 80 46 40 47 83 48 77 49 76 50 41 52 67 53 50 54
REMARK SMILES IDX 66 55 51 56 54 57 65 58 81 59 52 60 53 61 64 63 82 64 55 65
REMARK SMILES IDX 42 66 43 67 48 68 44 69 45 70 47 71 49 72 46 73 68 74 69 75
REMARK SMILES IDX 74 76 70 77 71 78 73 79 75 80 72 81 56 82 57 83 62 84 58 85
REMARK SMILES IDX 59 86 61 87 63 88 60 89
REMARK H PARENT 13 12 80 51 54 62
REMARK Flexibility Score: inf
ROOT
ATOM      1  C   UNL A   1      33.511  30.074  26.745  1.00  0.00     0.188 C 
ENDROOT
BRANCH   1   2
ATOM      2  O   UNL A   1      32.364  30.060  25.910  1.00  0.00    -0.376 OA
BRANCH   2   3
ATOM      3  C   UNL A   1      31.812  28.786  25.593  1.00  0.00     0.202 C 
BRANCH   3   4
ATOM      4  C   UNL A   1      31.872  27.714  26.694  1.00  0.00     0.261 C 
BRANCH   4   5
ATOM      5  O   UNL A   1      31.553  26.428  26.123  1.00  0.00    -0.461 OA
BRANCH   5   6
ATOM      6  C   UNL A   1      32.543  25.625  25.677  1.00  0.00     0.331 C 
ATOM      7  O   UNL A   1      33.604  26.060  25.245  1.00  0.00    -0.249 OA
BRANCH   6   8
ATOM      8  C   UNL A   1      32.132  24.112  25.680  1.00  0.00     0.139 C 
BRANCH   8   9
ATOM      9  N   UNL A   1      32.966  23.118  26.432  1.00  0.00    -0.322 N 
ATOM     10  C   UNL A   1      33.330  21.834  26.495  1.00  0.00     0.318 C 
ATOM     11  O   UNL A   1      33.599  21.494  27.658  1.00  0.00    -0.249 OA
ATOM     12  H   UNL A   1      33.420  23.597  27.162  1.00  0.00     0.166 HD
BRANCH  10  13
ATOM     13  N   UNL A   1      33.568  20.978  25.464  1.00  0.00    -0.319 N 
BRANCH  13  14
ATOM     14  C   UNL A   1      34.962  20.974  24.977  1.00  0.00     0.118 C 
ATOM     15  C   UNL A   1      35.352  22.307  24.325  1.00  0.00     0.027 C 
ENDBRANCH  13  14
BRANCH  13  16
ATOM     16  C   UNL A   1      32.655  20.173  24.660  1.00  0.00     0.177 C 
BRANCH  16  17
ATOM     17  C   UNL A   1      32.824  18.672  24.655  1.00  0.00     0.060 A 
ATOM     18  C   UNL A   1      33.457  18.069  23.564  1.00  0.00     0.026 A 
ATOM     19  N   UNL A   1      32.458  17.963  25.749  1.00  0.00    -0.259 NA
ATOM     20  C   UNL A   1      33.631  16.691  23.544  1.00  0.00     0.004 A 
ATOM     21  C   UNL A   1      32.663  16.625  25.715  1.00  0.00     0.111 A 
ATOM     22  C   UNL A   1      33.221  15.949  24.640  1.00  0.00     0.020 A 
ENDBRANCH  16  17
ENDBRANCH  13  16
ENDBRANCH  10  13
ENDBRANCH   8   9
BRANCH   8  23
ATOM     23  C   UNL A   1      32.033  23.644  24.190  1.00  0.00     0.037 C 
ATOM     24  C   UNL A   1      30.800  24.107  23.406  1.00  0.00     0.007 C 
ENDBRANCH   8  23
BRANCH   8  25
ATOM     25  C   UNL A   1      30.663  24.103  26.310  1.00  0.00     0.037 C 
ATOM     26  C   UNL A   1      30.075  22.829  26.926  1.00  0.00     0.007 C 
ENDBRANCH   8  25
ENDBRANCH   6   8
ENDBRANCH   5   6
ENDBRANCH   4   5
ENDBRANCH   3   4
ENDBRANCH   2   3
ENDBRANCH   1   2
BRANCH   1  27
ATOM     27  C   UNL A   1      33.657  31.325  27.614  1.00  0.00     0.188 C 
BRANCH  27  28
ATOM     28  O   UNL A   1      34.932  31.892  27.866  1.00  0.00    -0.376 OA
BRANCH  28  29
ATOM     29  C   UNL A   1      35.140  32.537  29.111  1.00  0.00     0.202 C 
BRANCH  29  30
ATOM     30  C   UNL A   1      35.659  31.703  30.292  1.00  0.00     0.261 C 
BRANCH  30  31
ATOM     31  O   UNL A   1      36.053  30.357  29.977  1.00  0.00    -0.460 OA
BRANCH  31  32
ATOM     32  C   UNL A   1      36.901  29.781  30.873  1.00  0.00     0.338 C 
ATOM     33  O   UNL A   1      36.604  29.147  31.862  1.00  0.00    -0.246 OA
BRANCH  32  34
ATOM     34  C   UNL A   1      38.292  29.867  30.358  1.00  0.00     0.060 A 
ATOM     35  C   UNL A   1      38.491  29.830  28.968  1.00  0.00     0.016 A 
ATOM     36  C   UNL A   1      39.382  29.942  31.222  1.00  0.00     0.016 A 
ATOM     37  C   UNL A   1      39.779  29.836  28.435  1.00  0.00     0.010 A 
ATOM     38  C   UNL A   1      40.676  29.902  30.689  1.00  0.00     0.010 A 
ATOM     39  C   UNL A   1      40.879  29.807  29.298  1.00  0.00    -0.014 A 
BRANCH  39  40
ATOM     40  C   UNL A   1      42.209  29.393  28.786  1.00  0.00     0.031 A 
ATOM     41  C   UNL A   1      42.391  27.948  28.411  1.00  0.00     0.074 A 
ATOM     42  C   UNL A   1      43.230  30.255  28.645  1.00  0.00     0.049 A 
ATOM     43  N   UNL A   1      43.477  27.304  28.071  1.00  0.00    -0.248 NA
ATOM     44  C   UNL A   1      41.174  27.119  28.414  1.00  0.00     0.031 C 
ATOM     45  C   UNL A   1      43.159  31.696  28.853  1.00  0.00     0.029 A 
ATOM     46  N   UNL A   1      44.543  30.027  28.311  1.00  0.00    -0.354 N 
ATOM     47  C   UNL A   1      43.074  26.000  27.819  1.00  0.00     0.074 A 
ATOM     48  C   UNL A   1      41.654  25.931  28.080  1.00  0.00     0.031 C 
ATOM     49  C   UNL A   1      44.387  32.222  28.701  1.00  0.00     0.029 A 
ATOM     50  C   UNL A   1      45.333  31.147  28.404  1.00  0.00     0.049 A 
ATOM     51  H   UNL A   1      44.885  29.147  28.033  1.00  0.00     0.167 HD
ATOM     52  C   UNL A   1      43.820  24.952  27.397  1.00  0.00     0.037 A 
ATOM     53  C   UNL A   1      46.667  31.281  28.288  1.00  0.00     0.037 A 
ATOM     54  C   UNL A   1      45.234  25.020  27.146  1.00  0.00     0.049 A 
ATOM     55  C   UNL A   1      47.503  30.074  27.952  1.00  0.00     0.074 A 
ATOM     56  C   UNL A   1      46.083  24.014  26.723  1.00  0.00     0.029 A 
ATOM     57  N   UNL A   1      46.008  26.159  27.304  1.00  0.00    -0.354 N 
ATOM     58  N   UNL A   1      47.121  28.839  27.725  1.00  0.00    -0.248 NA
ATOM     59  C   UNL A   1      48.954  30.280  27.842  1.00  0.00     0.031 C 
ATOM     60  C   UNL A   1      47.382  24.532  26.673  1.00  0.00     0.029 A 
ATOM     61  C   UNL A   1      47.331  25.875  27.012  1.00  0.00     0.049 A 
ATOM     62  H   UNL A   1      45.667  27.041  27.583  1.00  0.00     0.167 HD
ATOM     63  C   UNL A   1      48.274  28.135  27.400  1.00  0.00     0.074 A 
ATOM     64  C   UNL A   1      49.371  29.079  27.464  1.00  0.00     0.031 C 
ATOM     65  C   UNL A   1      48.411  26.828  27.069  1.00  0.00     0.037 A 
BRANCH  52  66
ATOM     66  C   UNL A   1      43.116  23.642  27.213  1.00  0.00     0.057 A 
ATOM     67  C   UNL A   1      42.901  22.760  28.280  1.00  0.00     0.134 A 
ATOM     68  C   UNL A   1      42.640  23.261  25.953  1.00  0.00     0.134 A 
ATOM     69  F   UNL A   1      43.352  23.056  29.509  1.00  0.00    -0.206 F 
ATOM     70  C   UNL A   1      42.258  21.536  28.095  1.00  0.00     0.040 A 
ATOM     71  C   UNL A   1      41.972  22.051  25.761  1.00  0.00     0.040 A 
ATOM     72  F   UNL A   1      42.815  24.058  24.888  1.00  0.00    -0.206 F 
ATOM     73  C   UNL A   1      41.785  21.181  26.834  1.00  0.00     0.006 A 
ENDBRANCH  52  66
BRANCH  53  74
ATOM     74  C   UNL A   1      47.306  32.604  28.502  1.00  0.00     0.057 A 
ATOM     75  C   UNL A   1      47.474  33.509  27.447  1.00  0.00     0.134 A 
ATOM     76  C   UNL A   1      47.787  32.986  29.760  1.00  0.00     0.134 A 
ATOM     77  F   UNL A   1      47.061  33.189  26.212  1.00  0.00    -0.206 F 
ATOM     78  C   UNL A   1      48.111  34.738  27.631  1.00  0.00     0.040 A 
ATOM     79  C   UNL A   1      48.406  34.221  29.964  1.00  0.00     0.040 A 
ATOM     80  F   UNL A   1      47.664  32.163  30.812  1.00  0.00    -0.206 F 
ATOM     81  C   UNL A   1      48.575  35.098  28.894  1.00  0.00     0.006 A 
ENDBRANCH  53  74
BRANCH  65  82
ATOM     82  C   UNL A   1      49.784  26.349  26.699  1.00  0.00     0.057 A 
ATOM     83  C   UNL A   1      50.245  26.362  25.377  1.00  0.00     0.134 A 
ATOM     84  C   UNL A   1      50.673  25.908  27.690  1.00  0.00     0.134 A 
ATOM     85  F   UNL A   1      49.441  26.761  24.380  1.00  0.00    -0.206 F 
ATOM     86  C   UNL A   1      51.533  25.934  25.050  1.00  0.00     0.040 A 
ATOM     87  C   UNL A   1      51.971  25.505  27.378  1.00  0.00     0.040 A 
ATOM     88  F   UNL A   1      50.299  25.881  28.977  1.00  0.00    -0.206 F 
ATOM     89  C   UNL A   1      52.402  25.510  26.053  1.00  0.00     0.006 A 
ENDBRANCH  65  82
ENDBRANCH  39  40
ENDBRANCH  32  34
ENDBRANCH  31  32
ENDBRANCH  30  31
ENDBRANCH  29  30
ENDBRANCH  28  29
ENDBRANCH  27  28
ENDBRANCH   1  27
TORSDOF 24
ENDMDL
MODEL 3
REMARK VINA RESULT:      -9.0      5.342      9.857
REMARK SMILES CCN(Cc1ccccn1)C(=O)NC(CC)(CC)C(=O)OCCOCCOCCOC(=O)c1ccc(-c2c3nc(c(-c4c(F)cccc4F)c4ccc([nH]4)c(-c4c(F)cccc4F)c4nc(c(-c5c(F)cccc5F)c5ccc2[nH]5)C=C4)C=C3)cc1
REMARK SMILES IDX 25 1 24 2 23 3 22 4 21 5 19 6 20 7 14 8 13 9 11 10 12 11
REMARK SMILES IDX 3 13 2 14 1 15 4 16 5 17 6 18 10 19 7 20 9 21 8 22 15 23
REMARK SMILES IDX 16 24 17 25 18 26 26 27 27 28 28 29 29 30 30 31 31 32 32 33
REMARK SMILES IDX 33 34 34 35 86 36 35 37 85 38 36 39 37 40 38 41 79 42 39 43
REMARK SMILES IDX 84 44 78 45 80 46 40 47 83 48 77 49 76 50 41 52 67 53 50 54
REMARK SMILES IDX 66 55 51 56 54 57 65 58 81 59 52 60 53 61 64 63 82 64 55 65
REMARK SMILES IDX 42 66 43 67 48 68 44 69 45 70 47 71 49 72 46 73 68 74 69 75
REMARK SMILES IDX 74 76 70 77 71 78 73 79 75 80 72 81 56 82 57 83 62 84 58 85
REMARK SMILES IDX 59 86 61 87 63 88 60 89
REMARK H PARENT 13 12 80 51 54 62
REMARK Flexibility Score: inf
ROOT
ATOM      1  C   UNL A   1      39.610  22.195  26.424  1.00  0.00     0.188 C 
ENDROOT
BRANCH   1   2
ATOM      2  O   UNL A   1      39.120  23.507  26.197  1.00  0.00    -0.376 OA
BRANCH   2   3
ATOM      3  C   UNL A   1      37.705  23.674  26.187  1.00  0.00     0.202 C 
BRANCH   3   4
ATOM      4  C   UNL A   1      36.949  23.085  24.984  1.00  0.00     0.261 C 
BRANCH   4   5
ATOM      5  O   UNL A   1      36.036  24.075  24.466  1.00  0.00    -0.461 OA
BRANCH   5   6
ATOM      6  C   UNL A   1      35.088  23.716  23.574  1.00  0.00     0.331 C 
ATOM      7  O   UNL A   1      35.344  23.084  22.555  1.00  0.00    -0.249 OA
BRANCH   6   8
ATOM      8  C   UNL A   1      33.674  24.284  23.942  1.00  0.00     0.139 C 
BRANCH   8   9
ATOM      9  N   UNL A   1      32.756  23.484  24.817  1.00  0.00    -0.322 N 
ATOM     10  C   UNL A   1      32.499  22.260  25.287  1.00  0.00     0.318 C 
ATOM     11  O   UNL A   1      31.290  22.108  25.520  1.00  0.00    -0.249 OA
ATOM     12  H   UNL A   1      32.082  24.098  25.187  1.00  0.00     0.166 HD
BRANCH  10  13
ATOM     13  N   UNL A   1      33.389  21.299  25.655  1.00  0.00    -0.319 N 
BRANCH  13  14
ATOM     14  C   UNL A   1      33.709  21.275  27.097  1.00  0.00     0.118 C 
ATOM     15  C   UNL A   1      34.329  22.593  27.575  1.00  0.00     0.027 C 
ENDBRANCH  13  14
BRANCH  13  16
ATOM     16  C   UNL A   1      34.195  20.384  24.852  1.00  0.00     0.177 C 
BRANCH  16  17
ATOM     17  C   UNL A   1      33.788  18.931  24.781  1.00  0.00     0.060 A 
ATOM     18  C   UNL A   1      34.716  17.994  24.317  1.00  0.00     0.026 A 
ATOM     19  N   UNL A   1      32.580  18.559  25.267  1.00  0.00    -0.259 NA
ATOM     20  C   UNL A   1      34.365  16.651  24.252  1.00  0.00     0.004 A 
ATOM     21  C   UNL A   1      32.274  17.240  25.218  1.00  0.00     0.111 A 
ATOM     22  C   UNL A   1      33.115  16.264  24.707  1.00  0.00     0.020 A 
ENDBRANCH  16  17
ENDBRANCH  13  16
ENDBRANCH  10  13
ENDBRANCH   8   9
BRANCH   8  23
ATOM     23  C   UNL A   1      32.927  24.600  22.603  1.00  0.00     0.037 C 
ATOM     24  C   UNL A   1      31.415  24.830  22.698  1.00  0.00     0.007 C 
ENDBRANCH   8  23
BRANCH   8  25
ATOM     25  C   UNL A   1      33.985  25.666  24.683  1.00  0.00     0.037 C 
ATOM     26  C   UNL A   1      33.419  25.959  26.077  1.00  0.00     0.007 C 
ENDBRANCH   8  25
ENDBRANCH   6   8
ENDBRANCH   5   6
ENDBRANCH   4   5
ENDBRANCH   3   4
ENDBRANCH   2   3
ENDBRANCH   1   2
BRANCH   1  27
ATOM     27  C   UNL A   1      40.835  22.117  27.338  1.00  0.00     0.188 C 
BRANCH  27  28
ATOM     28  O   UNL A   1      42.121  21.838  26.810  1.00  0.00    -0.376 OA
BRANCH  28  29
ATOM     29  C   UNL A   1      42.464  22.405  25.557  1.00  0.00     0.202 C 
BRANCH  29  30
ATOM     30  C   UNL A   1      42.651  23.926  25.466  1.00  0.00     0.261 C 
BRANCH  30  31
ATOM     31  O   UNL A   1      43.997  24.399  25.639  1.00  0.00    -0.460 OA
BRANCH  31  32
ATOM     32  C   UNL A   1      44.450  24.387  26.924  1.00  0.00     0.338 C 
ATOM     33  O   UNL A   1      45.426  23.812  27.353  1.00  0.00    -0.246 OA
BRANCH  32  34
ATOM     34  C   UNL A   1      43.674  25.368  27.726  1.00  0.00     0.060 A 
ATOM     35  C   UNL A   1      44.127  26.697  27.773  1.00  0.00     0.016 A 
ATOM     36  C   UNL A   1      42.549  24.984  28.451  1.00  0.00     0.016 A 
ATOM     37  C   UNL A   1      43.477  27.641  28.568  1.00  0.00     0.010 A 
ATOM     38  C   UNL A   1      41.924  25.919  29.284  1.00  0.00     0.010 A 
ATOM     39  C   UNL A   1      42.410  27.239  29.377  1.00  0.00    -0.014 A 
BRANCH  39  40
ATOM     40  C   UNL A   1      41.986  28.090  30.516  1.00  0.00     0.031 A 
ATOM     41  C   UNL A   1      40.826  29.020  30.295  1.00  0.00     0.074 A 
ATOM     42  C   UNL A   1      42.593  28.049  31.715  1.00  0.00     0.049 A 
ATOM     43  N   UNL A   1      40.347  29.957  31.071  1.00  0.00    -0.248 NA
ATOM     44  C   UNL A   1      40.102  28.863  29.022  1.00  0.00     0.031 C 
ATOM     45  C   UNL A   1      43.643  27.116  32.103  1.00  0.00     0.029 A 
ATOM     46  N   UNL A   1      42.418  28.841  32.823  1.00  0.00    -0.354 N 
ATOM     47  C   UNL A   1      39.268  30.497  30.383  1.00  0.00     0.074 A 
ATOM     48  C   UNL A   1      39.184  29.813  29.113  1.00  0.00     0.031 C 
ATOM     49  C   UNL A   1      44.065  27.422  33.342  1.00  0.00     0.029 A 
ATOM     50  C   UNL A   1      43.325  28.587  33.824  1.00  0.00     0.049 A 
ATOM     51  H   UNL A   1      41.712  29.523  32.895  1.00  0.00     0.167 HD
ATOM     52  C   UNL A   1      38.416  31.471  30.779  1.00  0.00     0.037 A 
ATOM     53  C   UNL A   1      43.546  29.239  34.981  1.00  0.00     0.037 A 
ATOM     54  C   UNL A   1      38.507  32.157  32.040  1.00  0.00     0.049 A 
ATOM     55  C   UNL A   1      42.674  30.412  35.345  1.00  0.00     0.074 A 
ATOM     56  C   UNL A   1      37.698  33.164  32.533  1.00  0.00     0.029 A 
ATOM     57  N   UNL A   1      39.473  31.909  33.003  1.00  0.00    -0.354 N 
ATOM     58  N   UNL A   1      41.662  30.927  34.688  1.00  0.00    -0.248 NA
ATOM     59  C   UNL A   1      42.966  31.086  36.618  1.00  0.00     0.031 C 
ATOM     60  C   UNL A   1      38.205  33.561  33.775  1.00  0.00     0.029 A 
ATOM     61  C   UNL A   1      39.296  32.763  34.079  1.00  0.00     0.049 A 
ATOM     62  H   UNL A   1      40.180  31.227  32.933  1.00  0.00     0.167 HD
ATOM     63  C   UNL A   1      41.169  31.951  35.487  1.00  0.00     0.074 A 
ATOM     64  C   UNL A   1      41.995  31.988  36.676  1.00  0.00     0.031 C 
ATOM     65  C   UNL A   1      40.120  32.780  35.261  1.00  0.00     0.037 A 
BRANCH  52  66
ATOM     66  C   UNL A   1      37.335  31.866  29.819  1.00  0.00     0.057 A 
ATOM     67  C   UNL A   1      36.149  31.130  29.697  1.00  0.00     0.134 A 
ATOM     68  C   UNL A   1      37.478  33.001  29.013  1.00  0.00     0.134 A 
ATOM     69  F   UNL A   1      35.958  30.019  30.425  1.00  0.00    -0.206 F 
ATOM     70  C   UNL A   1      35.154  31.497  28.789  1.00  0.00     0.040 A 
ATOM     71  C   UNL A   1      36.480  33.393  28.121  1.00  0.00     0.040 A 
ATOM     72  F   UNL A   1      38.591  33.747  29.079  1.00  0.00    -0.206 F 
ATOM     73  C   UNL A   1      35.316  32.636  28.002  1.00  0.00     0.006 A 
ENDBRANCH  52  66
BRANCH  53  74
ATOM     74  C   UNL A   1      44.647  28.809  35.880  1.00  0.00     0.057 A 
ATOM     75  C   UNL A   1      45.942  29.324  35.741  1.00  0.00     0.134 A 
ATOM     76  C   UNL A   1      44.439  27.854  36.882  1.00  0.00     0.134 A 
ATOM     77  F   UNL A   1      46.211  30.220  34.780  1.00  0.00    -0.206 F 
ATOM     78  C   UNL A   1      46.992  28.894  36.554  1.00  0.00     0.040 A 
ATOM     79  C   UNL A   1      45.474  27.431  37.718  1.00  0.00     0.040 A 
ATOM     80  F   UNL A   1      43.224  27.316  37.064  1.00  0.00    -0.206 F 
ATOM     81  C   UNL A   1      46.757  27.948  37.550  1.00  0.00     0.006 A 
ENDBRANCH  53  74
BRANCH  65  82
ATOM     82  C   UNL A   1      39.770  33.762  36.340  1.00  0.00     0.057 A 
ATOM     83  C   UNL A   1      38.958  33.415  37.427  1.00  0.00     0.134 A 
ATOM     84  C   UNL A   1      40.292  35.063  36.312  1.00  0.00     0.134 A 
ATOM     85  F   UNL A   1      38.418  32.190  37.508  1.00  0.00    -0.206 F 
ATOM     86  C   UNL A   1      38.659  34.333  38.435  1.00  0.00     0.040 A 
ATOM     87  C   UNL A   1      40.023  35.980  37.328  1.00  0.00     0.040 A 
ATOM     88  F   UNL A   1      41.086  35.457  35.305  1.00  0.00    -0.206 F 
ATOM     89  C   UNL A   1      39.198  35.617  38.391  1.00  0.00     0.006 A 
ENDBRANCH  65  82
ENDBRANCH  39  40
ENDBRANCH  32  34
ENDBRANCH  31  32
ENDBRANCH  30  31
ENDBRANCH  29  30
ENDBRANCH  28  29
ENDBRANCH  27  28
ENDBRANCH   1  27
TORSDOF 24
ENDMDL
