MODEL 1
REMARK VINA RESULT:     -10.6      0.000      0.000
REMARK SMILES O=C(CC1CN(C(=O)C[C@H]2CCCCO2)C1)OCCOCCOCCOC(=O)c1ccc(-c2c3nc(c(-c4c(F)cccc4F)c4ccc([nH]4)c(-c4c(F)cccc4F)c4nc(c(-c5c(F)cccc5F)c5ccc2[nH]5)C=C4)C=C3)cc1
REMARK SMILES IDX 21 1 20 2 19 3 18 4 17 5 2 6 1 7 3 8 4 9 5 10 16 11 6 12
REMARK SMILES IDX 7 13 8 14 9 15 10 16 11 17 15 18 12 19 14 20 13 21 22 22
REMARK SMILES IDX 23 23 24 24 25 25 26 26 27 27 28 28 29 29 30 30 82 31 31 32
REMARK SMILES IDX 81 33 32 34 33 35 34 36 75 37 35 38 80 39 74 40 76 41 36 42
REMARK SMILES IDX 79 43 73 44 72 45 37 47 63 48 46 49 62 50 47 51 50 52 61 53
REMARK SMILES IDX 77 54 48 55 49 56 60 58 78 59 51 60 38 61 39 62 44 63 40 64
REMARK SMILES IDX 41 65 43 66 45 67 42 68 64 69 65 70 70 71 66 72 67 73 69 74
REMARK SMILES IDX 71 75 68 76 52 77 53 78 58 79 54 80 55 81 57 82 59 83 56 84
REMARK H PARENT 76 46 50 57
REMARK Flexibility Score: inf
ROOT
ATOM      1  C   UNL A   1      46.204  18.840  25.376  1.00  0.00     0.188 C 
ENDROOT
BRANCH   1   2
ATOM      2  O   UNL A   1      44.981  18.127  25.267  1.00  0.00    -0.376 OA
BRANCH   2   3
ATOM      3  C   UNL A   1      43.836  18.775  24.741  1.00  0.00     0.202 C 
BRANCH   3   4
ATOM      4  C   UNL A   1      42.669  19.098  25.667  1.00  0.00     0.261 C 
BRANCH   4   5
ATOM      5  O   UNL A   1      42.874  20.209  26.536  1.00  0.00    -0.463 OA
BRANCH   5   6
ATOM      6  C   UNL A   1      42.331  21.419  26.272  1.00  0.00     0.306 C 
ATOM      7  O   UNL A   1      42.464  21.926  25.162  1.00  0.00    -0.252 OA
BRANCH   6   8
ATOM      8  C   UNL A   1      41.699  22.193  27.401  1.00  0.00     0.130 C 
BRANCH   8   9
ATOM      9  C   UNL A   1      40.181  22.246  27.444  1.00  0.00     0.039 C 
ATOM     10  C   UNL A   1      39.495  23.517  26.873  1.00  0.00     0.125 C 
ATOM     11  C   UNL A   1      39.533  21.474  26.283  1.00  0.00     0.125 C 
ATOM     12  N   UNL A   1      38.658  22.611  26.123  1.00  0.00    -0.342 N 
ATOM     13  C   UNL A   1      37.500  22.845  25.446  1.00  0.00     0.225 C 
ATOM     14  O   UNL A   1      36.971  23.955  25.408  1.00  0.00    -0.275 OA
BRANCH  13  15
ATOM     15  C   UNL A   1      36.910  21.662  24.719  1.00  0.00     0.132 C 
BRANCH  15  16
ATOM     16  C   UNL A   1      35.405  21.526  24.947  1.00  0.00     0.127 C 
ATOM     17  C   UNL A   1      34.576  22.291  23.907  1.00  0.00     0.033 C 
ATOM     18  O   UNL A   1      35.111  20.122  24.860  1.00  0.00    -0.378 OA
ATOM     19  C   UNL A   1      33.089  21.977  24.007  1.00  0.00     0.005 C 
ATOM     20  C   UNL A   1      33.734  19.827  25.085  1.00  0.00     0.160 C 
ATOM     21  C   UNL A   1      32.872  20.472  24.009  1.00  0.00     0.029 C 
ENDBRANCH  15  16
ENDBRANCH  13  15
ENDBRANCH   8   9
ENDBRANCH   6   8
ENDBRANCH   5   6
ENDBRANCH   4   5
ENDBRANCH   3   4
ENDBRANCH   2   3
ENDBRANCH   1   2
BRANCH   1  22
ATOM     22  C   UNL A   1      46.346  20.311  24.949  1.00  0.00     0.188 C 
BRANCH  22  23
ATOM     23  O   UNL A   1      45.902  21.352  25.798  1.00  0.00    -0.376 OA
BRANCH  23  24
ATOM     24  C   UNL A   1      46.253  22.700  25.503  1.00  0.00     0.202 C 
BRANCH  24  25
ATOM     25  C   UNL A   1      45.734  23.333  24.217  1.00  0.00     0.261 C 
BRANCH  25  26
ATOM     26  O   UNL A   1      44.637  24.230  24.470  1.00  0.00    -0.460 OA
BRANCH  26  27
ATOM     27  C   UNL A   1      45.009  25.436  24.954  1.00  0.00     0.338 C 
ATOM     28  O   UNL A   1      46.077  26.001  24.790  1.00  0.00    -0.246 OA
BRANCH  27  29
ATOM     29  C   UNL A   1      43.893  26.095  25.650  1.00  0.00     0.060 A 
ATOM     30  C   UNL A   1      43.927  27.492  25.741  1.00  0.00     0.016 A 
ATOM     31  C   UNL A   1      42.956  25.353  26.373  1.00  0.00     0.016 A 
ATOM     32  C   UNL A   1      43.085  28.148  26.634  1.00  0.00     0.010 A 
ATOM     33  C   UNL A   1      42.118  26.014  27.277  1.00  0.00     0.010 A 
ATOM     34  C   UNL A   1      42.229  27.404  27.457  1.00  0.00    -0.014 A 
BRANCH  34  35
ATOM     35  C   UNL A   1      41.664  28.056  28.665  1.00  0.00     0.031 A 
ATOM     36  C   UNL A   1      42.417  27.930  29.964  1.00  0.00     0.074 A 
ATOM     37  C   UNL A   1      40.550  28.803  28.603  1.00  0.00     0.049 A 
ATOM     38  N   UNL A   1      42.151  28.451  31.136  1.00  0.00    -0.248 NA
ATOM     39  C   UNL A   1      43.637  27.106  29.938  1.00  0.00     0.031 C 
ATOM     40  C   UNL A   1      39.752  29.039  27.402  1.00  0.00     0.029 A 
ATOM     41  N   UNL A   1      39.902  29.510  29.586  1.00  0.00    -0.354 N 
ATOM     42  C   UNL A   1      43.165  28.017  31.980  1.00  0.00     0.074 A 
ATOM     43  C   UNL A   1      44.034  27.165  31.200  1.00  0.00     0.031 C 
ATOM     44  C   UNL A   1      38.717  29.838  27.719  1.00  0.00     0.029 A 
ATOM     45  C   UNL A   1      38.774  30.156  29.147  1.00  0.00     0.049 A 
ATOM     46  H   UNL A   1      40.218  29.550  30.517  1.00  0.00     0.167 HD
ATOM     47  C   UNL A   1      43.365  28.310  33.288  1.00  0.00     0.037 A 
ATOM     48  C   UNL A   1      37.890  30.914  29.823  1.00  0.00     0.037 A 
ATOM     49  C   UNL A   1      42.509  29.159  34.070  1.00  0.00     0.049 A 
ATOM     50  C   UNL A   1      38.106  31.184  31.290  1.00  0.00     0.074 A 
ATOM     51  C   UNL A   1      42.637  29.524  35.399  1.00  0.00     0.029 A 
ATOM     52  N   UNL A   1      41.362  29.772  33.594  1.00  0.00    -0.354 N 
ATOM     53  N   UNL A   1      39.087  30.797  32.069  1.00  0.00    -0.248 NA
ATOM     54  C   UNL A   1      37.094  32.008  31.967  1.00  0.00     0.031 C 
ATOM     55  C   UNL A   1      41.543  30.330  35.738  1.00  0.00     0.029 A 
ATOM     56  C   UNL A   1      40.761  30.501  34.607  1.00  0.00     0.049 A 
ATOM     57  H   UNL A   1      41.023  29.701  32.672  1.00  0.00     0.167 HD
ATOM     58  C   UNL A   1      38.832  31.364  33.313  1.00  0.00     0.074 A 
ATOM     59  C   UNL A   1      37.607  32.123  33.183  1.00  0.00     0.031 C 
ATOM     60  C   UNL A   1      39.553  31.270  34.458  1.00  0.00     0.037 A 
BRANCH  47  61
ATOM     61  C   UNL A   1      44.551  27.680  33.956  1.00  0.00     0.057 A 
ATOM     62  C   UNL A   1      44.452  26.470  34.653  1.00  0.00     0.134 A 
ATOM     63  C   UNL A   1      45.811  28.288  33.888  1.00  0.00     0.134 A 
ATOM     64  F   UNL A   1      43.269  25.847  34.769  1.00  0.00    -0.206 F 
ATOM     65  C   UNL A   1      45.560  25.896  35.279  1.00  0.00     0.040 A 
ATOM     66  C   UNL A   1      46.932  27.712  34.489  1.00  0.00     0.040 A 
ATOM     67  F   UNL A   1      45.975  29.447  33.234  1.00  0.00    -0.206 F 
ATOM     68  C   UNL A   1      46.806  26.515  35.193  1.00  0.00     0.006 A 
ENDBRANCH  47  61
BRANCH  48  69
ATOM     69  C   UNL A   1      36.717  31.493  29.121  1.00  0.00     0.057 A 
ATOM     70  C   UNL A   1      35.603  30.708  28.805  1.00  0.00     0.134 A 
ATOM     71  C   UNL A   1      36.699  32.833  28.719  1.00  0.00     0.134 A 
ATOM     72  F   UNL A   1      35.574  29.410  29.143  1.00  0.00    -0.206 F 
ATOM     73  C   UNL A   1      34.522  31.227  28.093  1.00  0.00     0.040 A 
ATOM     74  C   UNL A   1      35.614  33.373  28.026  1.00  0.00     0.040 A 
ATOM     75  F   UNL A   1      37.735  33.639  28.995  1.00  0.00    -0.206 F 
ATOM     76  C   UNL A   1      34.525  32.566  27.703  1.00  0.00     0.006 A 
ENDBRANCH  48  69
BRANCH  60  77
ATOM     77  C   UNL A   1      39.068  32.050  35.646  1.00  0.00     0.057 A 
ATOM     78  C   UNL A   1      38.258  31.477  36.633  1.00  0.00     0.134 A 
ATOM     79  C   UNL A   1      39.451  33.387  35.818  1.00  0.00     0.134 A 
ATOM     80  F   UNL A   1      37.849  30.204  36.522  1.00  0.00    -0.206 F 
ATOM     81  C   UNL A   1      37.824  32.212  37.738  1.00  0.00     0.040 A 
ATOM     82  C   UNL A   1      39.044  34.126  36.931  1.00  0.00     0.040 A 
ATOM     83  F   UNL A   1      40.235  33.994  34.914  1.00  0.00    -0.206 F 
ATOM     84  C   UNL A   1      38.223  33.540  37.890  1.00  0.00     0.006 A 
ENDBRANCH  60  77
ENDBRANCH  34  35
ENDBRANCH  27  29
ENDBRANCH  26  27
ENDBRANCH  25  26
ENDBRANCH  24  25
ENDBRANCH  23  24
ENDBRANCH  22  23
ENDBRANCH   1  22
TORSDOF 20
ENDMDL
MODEL 2
REMARK VINA RESULT:     -10.2      2.086      4.297
REMARK SMILES O=C(CC1CN(C(=O)C[C@H]2CCCCO2)C1)OCCOCCOCCOC(=O)c1ccc(-c2c3nc(c(-c4c(F)cccc4F)c4ccc([nH]4)c(-c4c(F)cccc4F)c4nc(c(-c5c(F)cccc5F)c5ccc2[nH]5)C=C4)C=C3)cc1
REMARK SMILES IDX 21 1 20 2 19 3 18 4 17 5 2 6 1 7 3 8 4 9 5 10 16 11 6 12
REMARK SMILES IDX 7 13 8 14 9 15 10 16 11 17 15 18 12 19 14 20 13 21 22 22
REMARK SMILES IDX 23 23 24 24 25 25 26 26 27 27 28 28 29 29 30 30 82 31 31 32
REMARK SMILES IDX 81 33 32 34 33 35 34 36 75 37 35 38 80 39 74 40 76 41 36 42
REMARK SMILES IDX 79 43 73 44 72 45 37 47 63 48 46 49 62 50 47 51 50 52 61 53
REMARK SMILES IDX 77 54 48 55 49 56 60 58 78 59 51 60 38 61 39 62 44 63 40 64
REMARK SMILES IDX 41 65 43 66 45 67 42 68 64 69 65 70 70 71 66 72 67 73 69 74
REMARK SMILES IDX 71 75 68 76 52 77 53 78 58 79 54 80 55 81 57 82 59 83 56 84
REMARK H PARENT 76 46 50 57
REMARK Flexibility Score: inf
ROOT
ATOM      1  C   UNL A   1      39.617  21.439  26.143  1.00  0.00     0.188 C 
ENDROOT
BRANCH   1   2
ATOM      2  O   UNL A   1      38.809  22.576  26.410  1.00  0.00    -0.376 OA
BRANCH   2   3
ATOM      3  C   UNL A   1      37.764  22.919  25.518  1.00  0.00     0.202 C 
BRANCH   3   4
ATOM      4  C   UNL A   1      36.856  21.822  24.976  1.00  0.00     0.261 C 
BRANCH   4   5
ATOM      5  O   UNL A   1      35.964  21.246  25.928  1.00  0.00    -0.463 OA
BRANCH   5   6
ATOM      6  C   UNL A   1      34.646  21.107  25.664  1.00  0.00     0.306 C 
ATOM      7  O   UNL A   1      34.278  20.582  24.617  1.00  0.00    -0.252 OA
BRANCH   6   8
ATOM      8  C   UNL A   1      33.647  21.741  26.598  1.00  0.00     0.130 C 
BRANCH   8   9
ATOM      9  C   UNL A   1      32.372  22.292  25.983  1.00  0.00     0.039 C 
ATOM     10  C   UNL A   1      31.355  22.976  26.939  1.00  0.00     0.125 C 
ATOM     11  C   UNL A   1      32.577  23.676  25.345  1.00  0.00     0.125 C 
ATOM     12  N   UNL A   1      31.350  24.069  25.995  1.00  0.00    -0.342 N 
ATOM     13  C   UNL A   1      30.495  25.122  25.880  1.00  0.00     0.225 C 
ATOM     14  O   UNL A   1      29.526  25.270  26.623  1.00  0.00    -0.275 OA
BRANCH  13  15
ATOM     15  C   UNL A   1      30.820  26.121  24.796  1.00  0.00     0.132 C 
BRANCH  15  16
ATOM     16  C   UNL A   1      31.421  27.412  25.353  1.00  0.00     0.127 C 
ATOM     17  C   UNL A   1      32.223  27.185  26.641  1.00  0.00     0.033 C 
ATOM     18  O   UNL A   1      32.288  27.924  24.328  1.00  0.00    -0.378 OA
ATOM     19  C   UNL A   1      32.995  28.427  27.068  1.00  0.00     0.005 C 
ATOM     20  C   UNL A   1      32.906  29.158  24.690  1.00  0.00     0.160 C 
ATOM     21  C   UNL A   1      33.808  28.964  25.900  1.00  0.00     0.029 C 
ENDBRANCH  15  16
ENDBRANCH  13  15
ENDBRANCH   8   9
ENDBRANCH   6   8
ENDBRANCH   5   6
ENDBRANCH   4   5
ENDBRANCH   3   4
ENDBRANCH   2   3
ENDBRANCH   1   2
BRANCH   1  22
ATOM     22  C   UNL A   1      41.070  21.321  26.634  1.00  0.00     0.188 C 
BRANCH  22  23
ATOM     23  O   UNL A   1      42.102  20.952  25.740  1.00  0.00    -0.376 OA
BRANCH  23  24
ATOM     24  C   UNL A   1      43.415  21.474  25.926  1.00  0.00     0.202 C 
BRANCH  24  25
ATOM     25  C   UNL A   1      44.096  22.186  24.763  1.00  0.00     0.261 C 
BRANCH  25  26
ATOM     26  O   UNL A   1      43.441  23.427  24.441  1.00  0.00    -0.460 OA
BRANCH  26  27
ATOM     27  C   UNL A   1      44.072  24.525  24.915  1.00  0.00     0.338 C 
ATOM     28  O   UNL A   1      45.244  24.825  24.767  1.00  0.00    -0.246 OA
BRANCH  27  29
ATOM     29  C   UNL A   1      43.125  25.437  25.575  1.00  0.00     0.060 A 
ATOM     30  C   UNL A   1      43.535  26.761  25.765  1.00  0.00     0.016 A 
ATOM     31  C   UNL A   1      41.960  24.954  26.176  1.00  0.00     0.016 A 
ATOM     32  C   UNL A   1      42.832  27.585  26.640  1.00  0.00     0.010 A 
ATOM     33  C   UNL A   1      41.261  25.780  27.063  1.00  0.00     0.010 A 
ATOM     34  C   UNL A   1      41.736  27.074  27.347  1.00  0.00    -0.014 A 
BRANCH  34  35
ATOM     35  C   UNL A   1      41.271  27.801  28.554  1.00  0.00     0.031 A 
ATOM     36  C   UNL A   1      42.045  27.629  29.835  1.00  0.00     0.074 A 
ATOM     37  C   UNL A   1      40.230  28.650  28.505  1.00  0.00     0.049 A 
ATOM     38  N   UNL A   1      41.862  28.197  31.002  1.00  0.00    -0.248 NA
ATOM     39  C   UNL A   1      43.179  26.692  29.795  1.00  0.00     0.031 C 
ATOM     40  C   UNL A   1      39.425  28.936  27.321  1.00  0.00     0.029 A 
ATOM     41  N   UNL A   1      39.681  29.435  29.488  1.00  0.00    -0.354 N 
ATOM     42  C   UNL A   1      42.855  27.685  31.829  1.00  0.00     0.074 A 
ATOM     43  C   UNL A   1      43.616  26.738  31.045  1.00  0.00     0.031 C 
ATOM     44  C   UNL A   1      38.480  29.838  27.647  1.00  0.00     0.029 A 
ATOM     45  C   UNL A   1      38.608  30.176  29.064  1.00  0.00     0.049 A 
ATOM     46  H   UNL A   1      40.026  29.463  30.410  1.00  0.00     0.167 HD
ATOM     47  C   UNL A   1      43.118  27.982  33.124  1.00  0.00     0.037 A 
ATOM     48  C   UNL A   1      37.819  31.029  29.747  1.00  0.00     0.037 A 
ATOM     49  C   UNL A   1      42.370  28.925  33.909  1.00  0.00     0.049 A 
ATOM     50  C   UNL A   1      38.102  31.306  31.201  1.00  0.00     0.074 A 
ATOM     51  C   UNL A   1      42.569  29.303  35.225  1.00  0.00     0.029 A 
ATOM     52  N   UNL A   1      41.273  29.635  33.449  1.00  0.00    -0.354 N 
ATOM     53  N   UNL A   1      39.063  30.843  31.963  1.00  0.00    -0.248 NA
ATOM     54  C   UNL A   1      37.192  32.237  31.886  1.00  0.00     0.031 C 
ATOM     55  C   UNL A   1      41.567  30.216  35.575  1.00  0.00     0.029 A 
ATOM     56  C   UNL A   1      40.773  30.438  34.461  1.00  0.00     0.049 A 
ATOM     57  H   UNL A   1      40.902  29.578  32.539  1.00  0.00     0.167 HD
ATOM     58  C   UNL A   1      38.899  31.456  33.199  1.00  0.00     0.074 A 
ATOM     59  C   UNL A   1      37.748  32.326  33.085  1.00  0.00     0.031 C 
ATOM     60  C   UNL A   1      39.640  31.316  34.327  1.00  0.00     0.037 A 
BRANCH  47  61
ATOM     61  C   UNL A   1      44.258  27.256  33.775  1.00  0.00     0.057 A 
ATOM     62  C   UNL A   1      45.576  27.721  33.691  1.00  0.00     0.134 A 
ATOM     63  C   UNL A   1      44.029  26.085  34.507  1.00  0.00     0.134 A 
ATOM     64  F   UNL A   1      45.863  28.829  32.989  1.00  0.00    -0.206 F 
ATOM     65  C   UNL A   1      46.631  27.034  34.293  1.00  0.00     0.040 A 
ATOM     66  C   UNL A   1      45.073  25.401  35.134  1.00  0.00     0.040 A 
ATOM     67  F   UNL A   1      42.790  25.587  34.628  1.00  0.00    -0.206 F 
ATOM     68  C   UNL A   1      46.380  25.873  35.022  1.00  0.00     0.006 A 
ENDBRANCH  47  61
BRANCH  48  69
ATOM     69  C   UNL A   1      36.687  31.704  29.063  1.00  0.00     0.057 A 
ATOM     70  C   UNL A   1      36.767  33.050  28.690  1.00  0.00     0.134 A 
ATOM     71  C   UNL A   1      35.489  31.030  28.801  1.00  0.00     0.134 A 
ATOM     72  F   UNL A   1      37.882  33.754  28.937  1.00  0.00    -0.206 F 
ATOM     73  C   UNL A   1      35.688  33.710  28.101  1.00  0.00     0.040 A 
ATOM     74  C   UNL A   1      34.409  31.670  28.192  1.00  0.00     0.040 A 
ATOM     75  F   UNL A   1      35.351  29.738  29.132  1.00  0.00    -0.206 F 
ATOM     76  C   UNL A   1      34.505  33.018  27.849  1.00  0.00     0.006 A 
ENDBRANCH  48  69
BRANCH  60  77
ATOM     77  C   UNL A   1      39.265  32.162  35.509  1.00  0.00     0.057 A 
ATOM     78  C   UNL A   1      39.698  33.487  35.644  1.00  0.00     0.134 A 
ATOM     79  C   UNL A   1      38.427  31.650  36.509  1.00  0.00     0.134 A 
ATOM     80  F   UNL A   1      40.511  34.033  34.726  1.00  0.00    -0.206 F 
ATOM     81  C   UNL A   1      39.333  34.265  36.744  1.00  0.00     0.040 A 
ATOM     82  C   UNL A   1      38.035  32.427  37.601  1.00  0.00     0.040 A 
ATOM     83  F   UNL A   1      37.968  30.392  36.436  1.00  0.00    -0.206 F 
ATOM     84  C   UNL A   1      38.494  33.736  37.724  1.00  0.00     0.006 A 
ENDBRANCH  60  77
ENDBRANCH  34  35
ENDBRANCH  27  29
ENDBRANCH  26  27
ENDBRANCH  25  26
ENDBRANCH  24  25
ENDBRANCH  23  24
ENDBRANCH  22  23
ENDBRANCH   1  22
TORSDOF 20
ENDMDL
MODEL 3
REMARK VINA RESULT:     -10.0      0.672      6.136
REMARK SMILES O=C(CC1CN(C(=O)C[C@H]2CCCCO2)C1)OCCOCCOCCOC(=O)c1ccc(-c2c3nc(c(-c4c(F)cccc4F)c4ccc([nH]4)c(-c4c(F)cccc4F)c4nc(c(-c5c(F)cccc5F)c5ccc2[nH]5)C=C4)C=C3)cc1
REMARK SMILES IDX 21 1 20 2 19 3 18 4 17 5 2 6 1 7 3 8 4 9 5 10 16 11 6 12
REMARK SMILES IDX 7 13 8 14 9 15 10 16 11 17 15 18 12 19 14 20 13 21 22 22
REMARK SMILES IDX 23 23 24 24 25 25 26 26 27 27 28 28 29 29 30 30 82 31 31 32
REMARK SMILES IDX 81 33 32 34 33 35 34 36 75 37 35 38 80 39 74 40 76 41 36 42
REMARK SMILES IDX 79 43 73 44 72 45 37 47 63 48 46 49 62 50 47 51 50 52 61 53
REMARK SMILES IDX 77 54 48 55 49 56 60 58 78 59 51 60 38 61 39 62 44 63 40 64
REMARK SMILES IDX 41 65 43 66 45 67 42 68 64 69 65 70 70 71 66 72 67 73 69 74
REMARK SMILES IDX 71 75 68 76 52 77 53 78 58 79 54 80 55 81 57 82 59 83 56 84
REMARK H PARENT 76 46 50 57
REMARK Flexibility Score: inf
ROOT
ATOM      1  C   UNL A   1      46.018  19.093  25.088  1.00  0.00     0.188 C 
ENDROOT
BRANCH   1   2
ATOM      2  O   UNL A   1      44.848  18.378  25.458  1.00  0.00    -0.376 OA
BRANCH   2   3
ATOM      3  C   UNL A   1      43.581  18.825  25.008  1.00  0.00     0.202 C 
BRANCH   3   4
ATOM      4  C   UNL A   1      42.512  19.191  26.029  1.00  0.00     0.261 C 
BRANCH   4   5
ATOM      5  O   UNL A   1      42.708  20.437  26.693  1.00  0.00    -0.463 OA
BRANCH   5   6
ATOM      6  C   UNL A   1      42.223  21.591  26.182  1.00  0.00     0.306 C 
ATOM      7  O   UNL A   1      42.443  21.888  25.012  1.00  0.00    -0.252 OA
BRANCH   6   8
ATOM      8  C   UNL A   1      41.547  22.568  27.110  1.00  0.00     0.130 C 
BRANCH   8   9
ATOM      9  C   UNL A   1      40.039  22.457  27.259  1.00  0.00     0.039 C 
ATOM     10  C   UNL A   1      39.195  23.722  26.939  1.00  0.00     0.125 C 
ATOM     11  C   UNL A   1      39.374  21.804  26.035  1.00  0.00     0.125 C 
ATOM     12  N   UNL A   1      38.388  22.855  26.111  1.00  0.00    -0.342 N 
ATOM     13  C   UNL A   1      37.163  23.067  25.556  1.00  0.00     0.225 C 
ATOM     14  O   UNL A   1      36.533  24.109  25.726  1.00  0.00    -0.275 OA
BRANCH  13  15
ATOM     15  C   UNL A   1      36.629  21.951  24.692  1.00  0.00     0.132 C 
BRANCH  15  16
ATOM     16  C   UNL A   1      35.135  21.707  24.908  1.00  0.00     0.127 C 
ATOM     17  C   UNL A   1      34.274  22.253  23.762  1.00  0.00     0.033 C 
ATOM     18  O   UNL A   1      34.971  20.283  25.000  1.00  0.00    -0.378 OA
ATOM     19  C   UNL A   1      32.818  21.819  23.875  1.00  0.00     0.005 C 
ATOM     20  C   UNL A   1      33.619  19.894  25.235  1.00  0.00     0.160 C 
ATOM     21  C   UNL A   1      32.737  20.313  24.069  1.00  0.00     0.029 C 
ENDBRANCH  15  16
ENDBRANCH  13  15
ENDBRANCH   8   9
ENDBRANCH   6   8
ENDBRANCH   5   6
ENDBRANCH   4   5
ENDBRANCH   3   4
ENDBRANCH   2   3
ENDBRANCH   1   2
BRANCH   1  22
ATOM     22  C   UNL A   1      46.050  20.627  24.975  1.00  0.00     0.188 C 
BRANCH  22  23
ATOM     23  O   UNL A   1      45.792  21.437  26.106  1.00  0.00    -0.376 OA
BRANCH  23  24
ATOM     24  C   UNL A   1      45.698  22.850  25.954  1.00  0.00     0.202 C 
BRANCH  24  25
ATOM     25  C   UNL A   1      45.391  23.425  24.576  1.00  0.00     0.261 C 
BRANCH  25  26
ATOM     26  O   UNL A   1      44.472  24.529  24.653  1.00  0.00    -0.460 OA
BRANCH  26  27
ATOM     27  C   UNL A   1      44.964  25.615  25.290  1.00  0.00     0.338 C 
ATOM     28  O   UNL A   1      46.081  26.090  25.186  1.00  0.00    -0.246 OA
BRANCH  27  29
ATOM     29  C   UNL A   1      43.921  26.279  26.088  1.00  0.00     0.060 A 
ATOM     30  C   UNL A   1      43.873  27.677  26.048  1.00  0.00     0.016 A 
ATOM     31  C   UNL A   1      43.156  25.562  27.011  1.00  0.00     0.016 A 
ATOM     32  C   UNL A   1      43.130  28.372  26.998  1.00  0.00     0.010 A 
ATOM     33  C   UNL A   1      42.418  26.262  27.972  1.00  0.00     0.010 A 
ATOM     34  C   UNL A   1      42.459  27.668  28.007  1.00  0.00    -0.014 A 
BRANCH  34  35
ATOM     35  C   UNL A   1      42.038  28.405  29.224  1.00  0.00     0.031 A 
ATOM     36  C   UNL A   1      40.730  29.154  29.190  1.00  0.00     0.074 A 
ATOM     37  C   UNL A   1      42.757  28.357  30.358  1.00  0.00     0.049 A 
ATOM     38  N   UNL A   1      40.130  29.826  30.141  1.00  0.00    -0.248 NA
ATOM     39  C   UNL A   1      40.001  29.141  27.912  1.00  0.00     0.031 C 
ATOM     40  C   UNL A   1      44.015  27.636  30.535  1.00  0.00     0.029 A 
ATOM     41  N   UNL A   1      42.516  28.928  31.583  1.00  0.00    -0.354 N 
ATOM     42  C   UNL A   1      38.959  30.314  29.574  1.00  0.00     0.074 A 
ATOM     43  C   UNL A   1      38.945  29.891  28.192  1.00  0.00     0.031 C 
ATOM     44  C   UNL A   1      44.439  27.809  31.801  1.00  0.00     0.029 A 
ATOM     45  C   UNL A   1      43.489  28.664  32.514  1.00  0.00     0.049 A 
ATOM     46  H   UNL A   1      41.721  29.476  31.775  1.00  0.00     0.167 HD
ATOM     47  C   UNL A   1      37.974  31.041  30.154  1.00  0.00     0.037 A 
ATOM     48  C   UNL A   1      43.598  29.069  33.794  1.00  0.00     0.037 A 
ATOM     49  C   UNL A   1      37.977  31.462  31.529  1.00  0.00     0.049 A 
ATOM     50  C   UNL A   1      42.513  29.920  34.403  1.00  0.00     0.074 A 
ATOM     51  C   UNL A   1      37.018  32.191  32.210  1.00  0.00     0.029 A 
ATOM     52  N   UNL A   1      38.995  31.196  32.430  1.00  0.00    -0.354 N 
ATOM     53  N   UNL A   1      41.394  30.345  33.869  1.00  0.00    -0.248 NA
ATOM     54  C   UNL A   1      42.704  30.336  35.800  1.00  0.00     0.031 C 
ATOM     55  C   UNL A   1      37.474  32.398  33.517  1.00  0.00     0.029 A 
ATOM     56  C   UNL A   1      38.695  31.759  33.659  1.00  0.00     0.049 A 
ATOM     57  H   UNL A   1      39.809  30.682  32.228  1.00  0.00     0.167 HD
ATOM     58  C   UNL A   1      40.732  31.041  34.873  1.00  0.00     0.074 A 
ATOM     59  C   UNL A   1      41.573  30.977  36.050  1.00  0.00     0.031 C 
ATOM     60  C   UNL A   1      39.531  31.670  34.828  1.00  0.00     0.037 A 
BRANCH  47  61
ATOM     61  C   UNL A   1      36.819  31.444  29.286  1.00  0.00     0.057 A 
ATOM     62  C   UNL A   1      35.781  30.556  28.976  1.00  0.00     0.134 A 
ATOM     63  C   UNL A   1      36.738  32.743  28.768  1.00  0.00     0.134 A 
ATOM     64  F   UNL A   1      35.810  29.293  29.428  1.00  0.00    -0.206 F 
ATOM     65  C   UNL A   1      34.716  30.938  28.160  1.00  0.00     0.040 A 
ATOM     66  C   UNL A   1      35.665  33.144  27.970  1.00  0.00     0.040 A 
ATOM     67  F   UNL A   1      37.698  33.642  29.029  1.00  0.00    -0.206 F 
ATOM     68  C   UNL A   1      34.652  32.238  27.659  1.00  0.00     0.006 A 
ENDBRANCH  47  61
BRANCH  48  69
ATOM     69  C   UNL A   1      44.774  28.664  34.604  1.00  0.00     0.057 A 
ATOM     70  C   UNL A   1      44.750  27.499  35.381  1.00  0.00     0.134 A 
ATOM     71  C   UNL A   1      45.931  29.448  34.651  1.00  0.00     0.134 A 
ATOM     72  F   UNL A   1      43.659  26.719  35.395  1.00  0.00    -0.206 F 
ATOM     73  C   UNL A   1      45.827  27.141  36.192  1.00  0.00     0.040 A 
ATOM     74  C   UNL A   1      47.025  29.091  35.440  1.00  0.00     0.040 A 
ATOM     75  F   UNL A   1      46.016  30.575  33.927  1.00  0.00    -0.206 F 
ATOM     76  C   UNL A   1      46.971  27.938  36.221  1.00  0.00     0.006 A 
ENDBRANCH  48  69
BRANCH  60  77
ATOM     77  C   UNL A   1      39.028  32.290  36.099  1.00  0.00     0.057 A 
ATOM     78  C   UNL A   1      39.374  33.592  36.480  1.00  0.00     0.134 A 
ATOM     79  C   UNL A   1      38.153  31.582  36.934  1.00  0.00     0.134 A 
ATOM     80  F   UNL A   1      40.215  34.319  35.729  1.00  0.00    -0.206 F 
ATOM     81  C   UNL A   1      38.889  34.160  37.660  1.00  0.00     0.040 A 
ATOM     82  C   UNL A   1      37.641  32.148  38.104  1.00  0.00     0.040 A 
ATOM     83  F   UNL A   1      37.773  30.334  36.622  1.00  0.00    -0.206 F 
ATOM     84  C   UNL A   1      38.015  33.437  38.473  1.00  0.00     0.006 A 
ENDBRANCH  60  77
ENDBRANCH  34  35
ENDBRANCH  27  29
ENDBRANCH  26  27
ENDBRANCH  25  26
ENDBRANCH  24  25
ENDBRANCH  23  24
ENDBRANCH  22  23
ENDBRANCH   1  22
TORSDOF 20
ENDMDL
