MODEL 1
REMARK VINA RESULT:     -11.4      0.000      0.000
REMARK SMILES Cc1cc(C(=O)N[C@@H]2C(=O)N3C(C(=O)OCCOCCOCCOC(=O)c4ccc(-c5c6nc(c(-c7c(F)cccc7F)c7ccc([nH]7)c(-c7c(F)cccc7F)c7nc(c(-c8c(F)cccc8F)c8ccc5[nH]8)C=C7)C=C6)cc4)=C(CSc4nnc(C)s4)CS[C@H]23)n(C)n1
REMARK SMILES IDX 19 1 18 2 17 3 16 4 15 5 13 6 14 7 12 8 8 9 9 10 92 11 10 12
REMARK SMILES IDX 11 13 91 14 90 15 81 16 7 17 5 18 6 19 4 21 1 22 2 23 3 24
REMARK SMILES IDX 95 25 93 26 94 27 82 28 83 29 84 30 85 31 89 32 86 33 87 34
REMARK SMILES IDX 88 35 20 36 21 37 22 38 23 39 24 40 25 41 26 42 27 43 28 44
REMARK SMILES IDX 80 45 29 46 79 47 30 48 31 49 32 50 73 51 33 52 78 53 72 54
REMARK SMILES IDX 74 55 34 56 77 57 71 58 70 59 35 61 61 62 44 63 60 64 45 65
REMARK SMILES IDX 48 66 59 67 75 68 46 69 47 70 58 72 76 73 49 74 36 75 37 76
REMARK SMILES IDX 42 77 38 78 39 79 41 80 43 81 40 82 62 83 63 84 68 85 64 86
REMARK SMILES IDX 65 87 67 88 69 89 66 90 50 91 51 92 56 93 52 94 53 95 55 96
REMARK SMILES IDX 57 97 54 98
REMARK H PARENT 7 20 74 60 48 71
REMARK Flexibility Score: inf
ROOT
ATOM      1  C   UNL A   1      33.344  31.303  27.071  1.00  0.00     0.188 C 
ENDROOT
BRANCH   1   2
ATOM      2  O   UNL A   1      33.139  29.903  27.084  1.00  0.00    -0.376 OA
BRANCH   2   3
ATOM      3  C   UNL A   1      33.751  29.106  26.079  1.00  0.00     0.202 C 
BRANCH   3   4
ATOM      4  C   UNL A   1      33.223  29.048  24.635  1.00  0.00     0.261 C 
BRANCH   4   5
ATOM      5  O   UNL A   1      34.053  28.322  23.711  1.00  0.00    -0.459 OA
BRANCH   5   6
ATOM      6  C   UNL A   1      33.414  27.417  22.932  1.00  0.00     0.355 C 
ATOM      7  O   UNL A   1      33.607  27.241  21.736  1.00  0.00    -0.244 OA
BRANCH   6   8
ATOM      8  C   UNL A   1      32.446  26.556  23.693  1.00  0.00     0.132 C 
ATOM      9  C   UNL A   1      33.644  23.758  25.263  1.00  0.00     0.206 C 
ATOM     10  C   UNL A   1      34.094  25.235  25.130  1.00  0.00     0.253 C 
ATOM     11  C   UNL A   1      32.345  24.258  24.564  1.00  0.00     0.181 C 
ATOM     12  O   UNL A   1      35.024  25.898  25.541  1.00  0.00    -0.272 OA
ATOM     13  N   UNL A   1      33.015  25.509  24.366  1.00  0.00    -0.289 N 
ATOM     14  S   UNL A   1      30.893  24.627  25.572  1.00  0.00    -0.129 SA
ATOM     15  C   UNL A   1      30.158  25.601  24.232  1.00  0.00     0.106 C 
ATOM     16  C   UNL A   1      31.089  26.669  23.649  1.00  0.00    -0.019 C 
BRANCH   9  17
ATOM     17  N   UNL A   1      33.501  23.082  26.576  1.00  0.00    -0.336 N 
ATOM     18  C   UNL A   1      33.463  21.712  26.805  1.00  0.00     0.270 C 
ATOM     19  O   UNL A   1      33.283  21.329  27.958  1.00  0.00    -0.268 OA
ATOM     20  H   UNL A   1      33.424  23.663  27.366  1.00  0.00     0.164 HD
BRANCH  18  21
ATOM     21  C   UNL A   1      33.554  20.818  25.666  1.00  0.00     0.126 A 
ATOM     22  C   UNL A   1      32.490  17.884  23.798  1.00  0.00     0.069 C 
ATOM     23  C   UNL A   1      33.171  19.085  24.338  1.00  0.00     0.060 A 
ATOM     24  C   UNL A   1      32.575  20.248  24.863  1.00  0.00     0.059 A 
ATOM     25  N   UNL A   1      34.497  19.132  24.467  1.00  0.00    -0.178 NA
ATOM     26  N   UNL A   1      34.714  20.285  25.145  1.00  0.00    -0.263 N 
ATOM     27  C   UNL A   1      36.067  20.782  25.213  1.00  0.00     0.174 C 
ENDBRANCH  18  21
ENDBRANCH   9  17
BRANCH  16  28
ATOM     28  C   UNL A   1      30.317  27.732  22.908  1.00  0.00     0.111 C 
BRANCH  28  29
ATOM     29  S   UNL A   1      28.564  27.966  23.262  1.00  0.00    -0.089 SA
BRANCH  29  30
ATOM     30  C   UNL A   1      28.062  29.590  22.865  1.00  0.00     0.174 A 
ATOM     31  N   UNL A   1      27.417  30.401  23.667  1.00  0.00    -0.132 NA
ATOM     32  S   UNL A   1      28.403  30.294  21.327  1.00  0.00    -0.091 S 
ATOM     33  N   UNL A   1      27.259  31.669  23.143  1.00  0.00    -0.143 NA
ATOM     34  C   UNL A   1      27.794  31.776  21.946  1.00  0.00     0.115 A 
ATOM     35  C   UNL A   1      27.892  33.035  21.164  1.00  0.00     0.081 C 
ENDBRANCH  29  30
ENDBRANCH  28  29
ENDBRANCH  16  28
ENDBRANCH   6   8
ENDBRANCH   5   6
ENDBRANCH   4   5
ENDBRANCH   3   4
ENDBRANCH   2   3
ENDBRANCH   1   2
BRANCH   1  36
ATOM     36  C   UNL A   1      34.047  31.963  28.271  1.00  0.00     0.188 C 
BRANCH  36  37
ATOM     37  O   UNL A   1      33.715  33.288  28.606  1.00  0.00    -0.376 OA
BRANCH  37  38
ATOM     38  C   UNL A   1      34.424  33.972  29.619  1.00  0.00     0.202 C 
BRANCH  38  39
ATOM     39  C   UNL A   1      34.330  33.675  31.126  1.00  0.00     0.261 C 
BRANCH  39  40
ATOM     40  O   UNL A   1      34.632  32.352  31.574  1.00  0.00    -0.460 OA
BRANCH  40  41
ATOM     41  C   UNL A   1      35.667  32.250  32.448  1.00  0.00     0.338 C 
ATOM     42  O   UNL A   1      35.674  32.568  33.624  1.00  0.00    -0.246 OA
BRANCH  41  43
ATOM     43  C   UNL A   1      36.756  31.494  31.794  1.00  0.00     0.060 A 
ATOM     44  C   UNL A   1      37.708  30.841  32.591  1.00  0.00     0.016 A 
ATOM     45  C   UNL A   1      36.840  31.441  30.403  1.00  0.00     0.016 A 
ATOM     46  C   UNL A   1      38.760  30.147  31.993  1.00  0.00     0.010 A 
ATOM     47  C   UNL A   1      37.908  30.765  29.808  1.00  0.00     0.010 A 
ATOM     48  C   UNL A   1      38.886  30.135  30.599  1.00  0.00    -0.014 A 
BRANCH  48  49
ATOM     49  C   UNL A   1      40.130  29.627  29.968  1.00  0.00     0.031 A 
ATOM     50  C   UNL A   1      41.283  30.576  29.792  1.00  0.00     0.074 A 
ATOM     51  C   UNL A   1      40.242  28.353  29.555  1.00  0.00     0.049 A 
ATOM     52  N   UNL A   1      42.432  30.393  29.195  1.00  0.00    -0.248 NA
ATOM     53  C   UNL A   1      41.109  31.920  30.367  1.00  0.00     0.031 C 
ATOM     54  C   UNL A   1      39.222  27.318  29.707  1.00  0.00     0.029 A 
ATOM     55  N   UNL A   1      41.272  27.721  28.900  1.00  0.00    -0.354 N 
ATOM     56  C   UNL A   1      43.114  31.597  29.314  1.00  0.00     0.074 A 
ATOM     57  C   UNL A   1      42.236  32.514  30.009  1.00  0.00     0.031 C 
ATOM     58  C   UNL A   1      39.668  26.184  29.137  1.00  0.00     0.029 A 
ATOM     59  C   UNL A   1      40.988  26.423  28.554  1.00  0.00     0.049 A 
ATOM     60  H   UNL A   1      42.131  28.157  28.700  1.00  0.00     0.167 HD
ATOM     61  C   UNL A   1      44.361  31.911  28.887  1.00  0.00     0.037 A 
ATOM     62  C   UNL A   1      41.701  25.542  27.824  1.00  0.00     0.037 A 
ATOM     63  C   UNL A   1      45.229  31.002  28.185  1.00  0.00     0.049 A 
ATOM     64  C   UNL A   1      43.049  25.941  27.278  1.00  0.00     0.074 A 
ATOM     65  C   UNL A   1      46.517  31.224  27.727  1.00  0.00     0.029 A 
ATOM     66  N   UNL A   1      44.894  29.706  27.827  1.00  0.00    -0.354 N 
ATOM     67  N   UNL A   1      43.699  27.072  27.415  1.00  0.00    -0.248 NA
ATOM     68  C   UNL A   1      43.766  24.937  26.476  1.00  0.00     0.031 C 
ATOM     69  C   UNL A   1      46.934  30.084  27.032  1.00  0.00     0.029 A 
ATOM     70  C   UNL A   1      45.938  29.126  27.122  1.00  0.00     0.049 A 
ATOM     71  H   UNL A   1      44.042  29.262  28.042  1.00  0.00     0.167 HD
ATOM     72  C   UNL A   1      44.911  26.902  26.752  1.00  0.00     0.074 A 
ATOM     73  C   UNL A   1      44.910  25.556  26.221  1.00  0.00     0.031 C 
ATOM     74  C   UNL A   1      45.933  27.782  26.601  1.00  0.00     0.037 A 
BRANCH  61  75
ATOM     75  C   UNL A   1      44.840  33.313  29.134  1.00  0.00     0.057 A 
ATOM     76  C   UNL A   1      44.588  34.357  28.235  1.00  0.00     0.134 A 
ATOM     77  C   UNL A   1      45.552  33.624  30.301  1.00  0.00     0.134 A 
ATOM     78  F   UNL A   1      43.924  34.127  27.092  1.00  0.00    -0.206 F 
ATOM     79  C   UNL A   1      45.055  35.652  28.471  1.00  0.00     0.040 A 
ATOM     80  C   UNL A   1      45.995  34.921  30.562  1.00  0.00     0.040 A 
ATOM     81  F   UNL A   1      45.824  32.674  31.207  1.00  0.00    -0.206 F 
ATOM     82  C   UNL A   1      45.754  35.938  29.641  1.00  0.00     0.006 A 
ENDBRANCH  61  75
BRANCH  62  83
ATOM     83  C   UNL A   1      41.150  24.190  27.542  1.00  0.00     0.057 A 
ATOM     84  C   UNL A   1      40.107  24.006  26.627  1.00  0.00     0.134 A 
ATOM     85  C   UNL A   1      41.630  23.054  28.207  1.00  0.00     0.134 A 
ATOM     86  F   UNL A   1      39.584  25.058  25.979  1.00  0.00    -0.206 F 
ATOM     87  C   UNL A   1      39.549  22.748  26.396  1.00  0.00     0.040 A 
ATOM     88  C   UNL A   1      41.101  21.785  27.963  1.00  0.00     0.040 A 
ATOM     89  F   UNL A   1      42.623  23.161  29.101  1.00  0.00    -0.206 F 
ATOM     90  C   UNL A   1      40.050  21.631  27.062  1.00  0.00     0.006 A 
ENDBRANCH  62  83
BRANCH  74  91
ATOM     91  C   UNL A   1      47.161  27.306  25.873  1.00  0.00     0.057 A 
ATOM     92  C   UNL A   1      48.213  26.653  26.527  1.00  0.00     0.134 A 
ATOM     93  C   UNL A   1      47.270  27.467  24.484  1.00  0.00     0.134 A 
ATOM     94  F   UNL A   1      48.181  26.473  27.857  1.00  0.00    -0.206 F 
ATOM     95  C   UNL A   1      49.340  26.203  25.834  1.00  0.00     0.040 A 
ATOM     96  C   UNL A   1      48.375  26.992  23.775  1.00  0.00     0.040 A 
ATOM     97  F   UNL A   1      46.295  28.072  23.789  1.00  0.00    -0.206 F 
ATOM     98  C   UNL A   1      49.418  26.365  24.452  1.00  0.00     0.006 A 
ENDBRANCH  74  91
ENDBRANCH  48  49
ENDBRANCH  41  43
ENDBRANCH  40  41
ENDBRANCH  39  40
ENDBRANCH  38  39
ENDBRANCH  37  38
ENDBRANCH  36  37
ENDBRANCH   1  36
TORSDOF 22
ENDMDL
MODEL 2
REMARK VINA RESULT:     -11.0      1.884      6.325
REMARK SMILES Cc1cc(C(=O)N[C@@H]2C(=O)N3C(C(=O)OCCOCCOCCOC(=O)c4ccc(-c5c6nc(c(-c7c(F)cccc7F)c7ccc([nH]7)c(-c7c(F)cccc7F)c7nc(c(-c8c(F)cccc8F)c8ccc5[nH]8)C=C7)C=C6)cc4)=C(CSc4nnc(C)s4)CS[C@H]23)n(C)n1
REMARK SMILES IDX 19 1 18 2 17 3 16 4 15 5 13 6 14 7 12 8 8 9 9 10 92 11 10 12
REMARK SMILES IDX 11 13 91 14 90 15 81 16 7 17 5 18 6 19 4 21 1 22 2 23 3 24
REMARK SMILES IDX 95 25 93 26 94 27 82 28 83 29 84 30 85 31 89 32 86 33 87 34
REMARK SMILES IDX 88 35 20 36 21 37 22 38 23 39 24 40 25 41 26 42 27 43 28 44
REMARK SMILES IDX 80 45 29 46 79 47 30 48 31 49 32 50 73 51 33 52 78 53 72 54
REMARK SMILES IDX 74 55 34 56 77 57 71 58 70 59 35 61 61 62 44 63 60 64 45 65
REMARK SMILES IDX 48 66 59 67 75 68 46 69 47 70 58 72 76 73 49 74 36 75 37 76
REMARK SMILES IDX 42 77 38 78 39 79 41 80 43 81 40 82 62 83 63 84 68 85 64 86
REMARK SMILES IDX 65 87 67 88 69 89 66 90 50 91 51 92 56 93 52 94 53 95 55 96
REMARK SMILES IDX 57 97 54 98
REMARK H PARENT 7 20 74 60 48 71
REMARK Flexibility Score: inf
ROOT
ATOM      1  C   UNL A   1      34.663  30.919  28.061  1.00  0.00     0.188 C 
ENDROOT
BRANCH   1   2
ATOM      2  O   UNL A   1      34.087  30.298  26.927  1.00  0.00    -0.376 OA
BRANCH   2   3
ATOM      3  C   UNL A   1      32.673  30.289  26.789  1.00  0.00     0.202 C 
BRANCH   3   4
ATOM      4  C   UNL A   1      31.805  29.102  27.241  1.00  0.00     0.261 C 
BRANCH   4   5
ATOM      5  O   UNL A   1      32.316  27.805  26.890  1.00  0.00    -0.459 OA
BRANCH   5   6
ATOM      6  C   UNL A   1      31.391  26.888  26.521  1.00  0.00     0.355 C 
ATOM      7  O   UNL A   1      30.290  26.736  27.036  1.00  0.00    -0.244 OA
BRANCH   6   8
ATOM      8  C   UNL A   1      31.807  26.069  25.331  1.00  0.00     0.132 C 
ATOM      9  C   UNL A   1      33.729  23.286  25.863  1.00  0.00     0.206 C 
ATOM     10  C   UNL A   1      32.468  23.906  26.517  1.00  0.00     0.253 C 
ATOM     11  C   UNL A   1      33.515  24.387  24.782  1.00  0.00     0.181 C 
ATOM     12  O   UNL A   1      31.736  23.611  27.439  1.00  0.00    -0.272 OA
ATOM     13  N   UNL A   1      32.495  24.926  25.634  1.00  0.00    -0.289 N 
ATOM     14  S   UNL A   1      32.690  23.949  23.236  1.00  0.00    -0.129 SA
ATOM     15  C   UNL A   1      32.341  25.692  22.880  1.00  0.00     0.106 C 
ATOM     16  C   UNL A   1      31.663  26.443  24.029  1.00  0.00    -0.019 C 
BRANCH   9  17
ATOM     17  N   UNL A   1      33.781  21.875  25.406  1.00  0.00    -0.336 N 
ATOM     18  C   UNL A   1      34.913  21.164  25.029  1.00  0.00     0.270 C 
ATOM     19  O   UNL A   1      34.759  20.016  24.623  1.00  0.00    -0.268 OA
ATOM     20  H   UNL A   1      32.924  21.393  25.365  1.00  0.00     0.164 HD
BRANCH  18  21
ATOM     21  C   UNL A   1      36.196  21.843  25.056  1.00  0.00     0.126 A 
ATOM     22  C   UNL A   1      38.806  23.700  26.778  1.00  0.00     0.069 C 
ATOM     23  C   UNL A   1      37.918  23.021  25.805  1.00  0.00     0.060 A 
ATOM     24  C   UNL A   1      37.242  21.795  25.968  1.00  0.00     0.059 A 
ATOM     25  N   UNL A   1      37.584  23.596  24.650  1.00  0.00    -0.178 NA
ATOM     26  N   UNL A   1      36.643  22.768  24.137  1.00  0.00    -0.263 N 
ATOM     27  C   UNL A   1      36.265  22.950  22.757  1.00  0.00     0.174 C 
ENDBRANCH  18  21
ENDBRANCH   9  17
BRANCH  16  28
ATOM     28  C   UNL A   1      30.979  27.697  23.543  1.00  0.00     0.111 C 
BRANCH  28  29
ATOM     29  S   UNL A   1      29.224  27.647  23.126  1.00  0.00    -0.089 SA
BRANCH  29  30
ATOM     30  C   UNL A   1      28.583  29.261  22.949  1.00  0.00     0.174 A 
ATOM     31  N   UNL A   1      27.482  29.704  23.505  1.00  0.00    -0.132 NA
ATOM     32  S   UNL A   1      29.388  30.459  22.003  1.00  0.00    -0.091 S 
ATOM     33  N   UNL A   1      27.277  31.054  23.302  1.00  0.00    -0.143 NA
ATOM     34  C   UNL A   1      28.241  31.596  22.589  1.00  0.00     0.115 A 
ATOM     35  C   UNL A   1      28.374  33.045  22.292  1.00  0.00     0.081 C 
ENDBRANCH  29  30
ENDBRANCH  28  29
ENDBRANCH  16  28
ENDBRANCH   6   8
ENDBRANCH   5   6
ENDBRANCH   4   5
ENDBRANCH   3   4
ENDBRANCH   2   3
ENDBRANCH   1   2
BRANCH   1  36
ATOM     36  C   UNL A   1      34.856  32.446  28.055  1.00  0.00     0.188 C 
BRANCH  36  37
ATOM     37  O   UNL A   1      35.389  33.065  29.199  1.00  0.00    -0.376 OA
BRANCH  37  38
ATOM     38  C   UNL A   1      34.780  32.886  30.463  1.00  0.00     0.202 C 
BRANCH  38  39
ATOM     39  C   UNL A   1      35.293  31.951  31.572  1.00  0.00     0.261 C 
BRANCH  39  40
ATOM     40  O   UNL A   1      36.651  31.509  31.509  1.00  0.00    -0.460 OA
BRANCH  40  41
ATOM     41  C   UNL A   1      36.832  30.230  31.090  1.00  0.00     0.338 C 
ATOM     42  O   UNL A   1      35.990  29.352  31.012  1.00  0.00    -0.246 OA
BRANCH  41  43
ATOM     43  C   UNL A   1      38.200  30.108  30.543  1.00  0.00     0.060 A 
ATOM     44  C   UNL A   1      38.389  30.172  29.155  1.00  0.00     0.016 A 
ATOM     45  C   UNL A   1      39.286  29.920  31.398  1.00  0.00     0.016 A 
ATOM     46  C   UNL A   1      39.668  30.031  28.617  1.00  0.00     0.010 A 
ATOM     47  C   UNL A   1      40.563  29.756  30.855  1.00  0.00     0.010 A 
ATOM     48  C   UNL A   1      40.757  29.785  29.462  1.00  0.00    -0.014 A 
BRANCH  48  49
ATOM     49  C   UNL A   1      42.065  29.378  28.891  1.00  0.00     0.031 A 
ATOM     50  C   UNL A   1      42.244  27.949  28.458  1.00  0.00     0.074 A 
ATOM     51  C   UNL A   1      43.080  30.249  28.758  1.00  0.00     0.049 A 
ATOM     52  N   UNL A   1      43.312  27.338  28.015  1.00  0.00    -0.248 NA
ATOM     53  C   UNL A   1      41.050  27.092  28.543  1.00  0.00     0.031 C 
ATOM     54  C   UNL A   1      43.027  31.671  29.093  1.00  0.00     0.029 A 
ATOM     55  N   UNL A   1      44.367  30.051  28.319  1.00  0.00    -0.354 N 
ATOM     56  C   UNL A   1      42.922  26.025  27.776  1.00  0.00     0.074 A 
ATOM     57  C   UNL A   1      41.530  25.921  28.157  1.00  0.00     0.031 C 
ATOM     58  C   UNL A   1      44.238  32.213  28.870  1.00  0.00     0.029 A 
ATOM     59  C   UNL A   1      45.156  31.171  28.410  1.00  0.00     0.049 A 
ATOM     60  H   UNL A   1      44.691  29.190  27.972  1.00  0.00     0.167 HD
ATOM     61  C   UNL A   1      43.656  25.000  27.281  1.00  0.00     0.037 A 
ATOM     62  C   UNL A   1      46.475  31.326  28.176  1.00  0.00     0.037 A 
ATOM     63  C   UNL A   1      45.044  25.101  26.914  1.00  0.00     0.049 A 
ATOM     64  C   UNL A   1      47.296  30.149  27.712  1.00  0.00     0.074 A 
ATOM     65  C   UNL A   1      45.868  24.121  26.387  1.00  0.00     0.029 A 
ATOM     66  N   UNL A   1      45.817  26.244  27.048  1.00  0.00    -0.354 N 
ATOM     67  N   UNL A   1      46.918  28.918  27.465  1.00  0.00    -0.248 NA
ATOM     68  C   UNL A   1      48.732  30.385  27.492  1.00  0.00     0.031 C 
ATOM     69  C   UNL A   1      47.156  24.653  26.267  1.00  0.00     0.029 A 
ATOM     70  C   UNL A   1      47.118  25.984  26.647  1.00  0.00     0.049 A 
ATOM     71  H   UNL A   1      45.490  27.112  27.378  1.00  0.00     0.167 HD
ATOM     72  C   UNL A   1      48.054  28.247  27.026  1.00  0.00     0.074 A 
ATOM     73  C   UNL A   1      49.135  29.209  27.032  1.00  0.00     0.031 C 
ATOM     74  C   UNL A   1      48.189  26.950  26.649  1.00  0.00     0.037 A 
BRANCH  61  75
ATOM     75  C   UNL A   1      42.975  23.668  27.149  1.00  0.00     0.057 A 
ATOM     76  C   UNL A   1      42.770  22.822  28.247  1.00  0.00     0.134 A 
ATOM     77  C   UNL A   1      42.504  23.232  25.903  1.00  0.00     0.134 A 
ATOM     78  F   UNL A   1      43.209  23.170  29.466  1.00  0.00    -0.206 F 
ATOM     79  C   UNL A   1      42.151  21.579  28.106  1.00  0.00     0.040 A 
ATOM     80  C   UNL A   1      41.854  22.006  25.756  1.00  0.00     0.040 A 
ATOM     81  F   UNL A   1      42.661  23.994  24.811  1.00  0.00    -0.206 F 
ATOM     82  C   UNL A   1      41.684  21.172  26.858  1.00  0.00     0.006 A 
ENDBRANCH  61  75
BRANCH  62  83
ATOM     83  C   UNL A   1      47.119  32.649  28.393  1.00  0.00     0.057 A 
ATOM     84  C   UNL A   1      47.227  33.584  27.356  1.00  0.00     0.134 A 
ATOM     85  C   UNL A   1      47.671  32.996  29.633  1.00  0.00     0.134 A 
ATOM     86  F   UNL A   1      46.744  33.300  26.138  1.00  0.00    -0.206 F 
ATOM     87  C   UNL A   1      47.877  34.806  27.538  1.00  0.00     0.040 A 
ATOM     88  C   UNL A   1      48.297  34.228  29.836  1.00  0.00     0.040 A 
ATOM     89  F   UNL A   1      47.608  32.144  30.665  1.00  0.00    -0.206 F 
ATOM     90  C   UNL A   1      48.409  35.133  28.783  1.00  0.00     0.006 A 
ENDBRANCH  62  83
BRANCH  74  91
ATOM     91  C   UNL A   1      49.540  26.502  26.163  1.00  0.00     0.057 A 
ATOM     92  C   UNL A   1      50.423  25.772  26.969  1.00  0.00     0.134 A 
ATOM     93  C   UNL A   1      49.946  26.768  24.847  1.00  0.00     0.134 A 
ATOM     94  F   UNL A   1      50.105  25.490  28.242  1.00  0.00    -0.206 F 
ATOM     95  C   UNL A   1      51.668  25.350  26.497  1.00  0.00     0.040 A 
ATOM     96  C   UNL A   1      51.173  26.323  24.352  1.00  0.00     0.040 A 
ATOM     97  F   UNL A   1      49.147  27.451  24.012  1.00  0.00    -0.206 F 
ATOM     98  C   UNL A   1      52.042  25.618  25.181  1.00  0.00     0.006 A 
ENDBRANCH  74  91
ENDBRANCH  48  49
ENDBRANCH  41  43
ENDBRANCH  40  41
ENDBRANCH  39  40
ENDBRANCH  38  39
ENDBRANCH  37  38
ENDBRANCH  36  37
ENDBRANCH   1  36
TORSDOF 22
ENDMDL
MODEL 3
REMARK VINA RESULT:     -10.5      1.988      6.404
REMARK SMILES Cc1cc(C(=O)N[C@@H]2C(=O)N3C(C(=O)OCCOCCOCCOC(=O)c4ccc(-c5c6nc(c(-c7c(F)cccc7F)c7ccc([nH]7)c(-c7c(F)cccc7F)c7nc(c(-c8c(F)cccc8F)c8ccc5[nH]8)C=C7)C=C6)cc4)=C(CSc4nnc(C)s4)CS[C@H]23)n(C)n1
REMARK SMILES IDX 19 1 18 2 17 3 16 4 15 5 13 6 14 7 12 8 8 9 9 10 92 11 10 12
REMARK SMILES IDX 11 13 91 14 90 15 81 16 7 17 5 18 6 19 4 21 1 22 2 23 3 24
REMARK SMILES IDX 95 25 93 26 94 27 82 28 83 29 84 30 85 31 89 32 86 33 87 34
REMARK SMILES IDX 88 35 20 36 21 37 22 38 23 39 24 40 25 41 26 42 27 43 28 44
REMARK SMILES IDX 80 45 29 46 79 47 30 48 31 49 32 50 73 51 33 52 78 53 72 54
REMARK SMILES IDX 74 55 34 56 77 57 71 58 70 59 35 61 61 62 44 63 60 64 45 65
REMARK SMILES IDX 48 66 59 67 75 68 46 69 47 70 58 72 76 73 49 74 36 75 37 76
REMARK SMILES IDX 42 77 38 78 39 79 41 80 43 81 40 82 62 83 63 84 68 85 64 86
REMARK SMILES IDX 65 87 67 88 69 89 66 90 50 91 51 92 56 93 52 94 53 95 55 96
REMARK SMILES IDX 57 97 54 98
REMARK H PARENT 7 20 74 60 48 71
REMARK Flexibility Score: inf
ROOT
ATOM      1  C   UNL A   1      34.470  31.576  28.612  1.00  0.00     0.188 C 
ENDROOT
BRANCH   1   2
ATOM      2  O   UNL A   1      34.516  31.193  27.250  1.00  0.00    -0.376 OA
BRANCH   2   3
ATOM      3  C   UNL A   1      33.568  30.251  26.765  1.00  0.00     0.202 C 
BRANCH   3   4
ATOM      4  C   UNL A   1      33.047  29.086  27.625  1.00  0.00     0.261 C 
BRANCH   4   5
ATOM      5  O   UNL A   1      33.274  27.776  27.077  1.00  0.00    -0.459 OA
BRANCH   5   6
ATOM      6  C   UNL A   1      32.167  27.102  26.684  1.00  0.00     0.355 C 
ATOM      7  O   UNL A   1      31.043  27.242  27.149  1.00  0.00    -0.244 OA
BRANCH   6   8
ATOM      8  C   UNL A   1      32.416  26.168  25.534  1.00  0.00     0.132 C 
ATOM      9  C   UNL A   1      32.457  22.801  26.153  1.00  0.00     0.206 C 
ATOM     10  C   UNL A   1      31.556  23.994  26.562  1.00  0.00     0.253 C 
ATOM     11  C   UNL A   1      33.123  23.836  25.200  1.00  0.00     0.181 C 
ATOM     12  O   UNL A   1      30.558  24.135  27.239  1.00  0.00    -0.272 OA
ATOM     13  N   UNL A   1      32.327  24.839  25.845  1.00  0.00    -0.289 N 
ATOM     14  S   UNL A   1      32.639  23.864  23.460  1.00  0.00    -0.129 SA
ATOM     15  C   UNL A   1      33.323  25.529  23.252  1.00  0.00     0.106 C 
ATOM     16  C   UNL A   1      32.834  26.542  24.293  1.00  0.00    -0.019 C 
BRANCH   9  17
ATOM     17  N   UNL A   1      31.913  21.559  25.548  1.00  0.00    -0.336 N 
ATOM     18  C   UNL A   1      32.629  20.423  25.197  1.00  0.00     0.270 C 
ATOM     19  O   UNL A   1      32.019  19.506  24.653  1.00  0.00    -0.268 OA
ATOM     20  H   UNL A   1      30.944  21.540  25.377  1.00  0.00     0.164 HD
BRANCH  18  21
ATOM     21  C   UNL A   1      34.064  20.416  25.415  1.00  0.00     0.126 A 
ATOM     22  C   UNL A   1      37.292  22.084  25.580  1.00  0.00     0.069 C 
ATOM     23  C   UNL A   1      36.160  21.128  25.537  1.00  0.00     0.060 A 
ATOM     24  C   UNL A   1      34.890  21.273  26.131  1.00  0.00     0.059 A 
ATOM     25  N   UNL A   1      36.218  20.015  24.806  1.00  0.00    -0.178 NA
ATOM     26  N   UNL A   1      34.961  19.515  24.880  1.00  0.00    -0.263 N 
ATOM     27  C   UNL A   1      34.745  18.164  24.424  1.00  0.00     0.174 C 
ENDBRANCH  18  21
ENDBRANCH   9  17
BRANCH  16  28
ATOM     28  C   UNL A   1      33.032  27.961  23.820  1.00  0.00     0.111 C 
BRANCH  28  29
ATOM     29  S   UNL A   1      32.366  28.465  22.221  1.00  0.00    -0.089 SA
BRANCH  29  30
ATOM     30  C   UNL A   1      30.671  28.861  22.353  1.00  0.00     0.174 A 
ATOM     31  N   UNL A   1      30.021  29.682  21.564  1.00  0.00    -0.132 NA
ATOM     32  S   UNL A   1      29.669  28.164  23.572  1.00  0.00    -0.091 S 
ATOM     33  N   UNL A   1      28.664  29.714  21.815  1.00  0.00    -0.143 NA
ATOM     34  C   UNL A   1      28.327  28.908  22.799  1.00  0.00     0.115 A 
ATOM     35  C   UNL A   1      26.935  28.630  23.237  1.00  0.00     0.081 C 
ENDBRANCH  29  30
ENDBRANCH  28  29
ENDBRANCH  16  28
ENDBRANCH   6   8
ENDBRANCH   5   6
ENDBRANCH   4   5
ENDBRANCH   3   4
ENDBRANCH   2   3
ENDBRANCH   1   2
BRANCH   1  36
ATOM     36  C   UNL A   1      34.556  33.071  28.968  1.00  0.00     0.188 C 
BRANCH  36  37
ATOM     37  O   UNL A   1      34.968  33.436  30.262  1.00  0.00    -0.376 OA
BRANCH  37  38
ATOM     38  C   UNL A   1      34.648  32.624  31.374  1.00  0.00     0.202 C 
BRANCH  38  39
ATOM     39  C   UNL A   1      35.666  31.854  32.233  1.00  0.00     0.261 C 
BRANCH  39  40
ATOM     40  O   UNL A   1      36.941  31.553  31.664  1.00  0.00    -0.460 OA
BRANCH  40  41
ATOM     41  C   UNL A   1      37.104  30.276  31.230  1.00  0.00     0.338 C 
ATOM     42  O   UNL A   1      36.251  29.410  31.149  1.00  0.00    -0.246 OA
BRANCH  41  43
ATOM     43  C   UNL A   1      38.465  30.144  30.671  1.00  0.00     0.060 A 
ATOM     44  C   UNL A   1      38.643  30.211  29.281  1.00  0.00     0.016 A 
ATOM     45  C   UNL A   1      39.558  29.943  31.515  1.00  0.00     0.016 A 
ATOM     46  C   UNL A   1      39.916  30.060  28.732  1.00  0.00     0.010 A 
ATOM     47  C   UNL A   1      40.828  29.768  30.961  1.00  0.00     0.010 A 
ATOM     48  C   UNL A   1      41.011  29.801  29.567  1.00  0.00    -0.014 A 
BRANCH  48  49
ATOM     49  C   UNL A   1      42.310  29.384  28.983  1.00  0.00     0.031 A 
ATOM     50  C   UNL A   1      42.468  27.957  28.534  1.00  0.00     0.074 A 
ATOM     51  C   UNL A   1      43.334  30.244  28.853  1.00  0.00     0.049 A 
ATOM     52  N   UNL A   1      43.525  27.338  28.077  1.00  0.00    -0.248 NA
ATOM     53  C   UNL A   1      41.264  27.114  28.618  1.00  0.00     0.031 C 
ATOM     54  C   UNL A   1      43.301  31.663  29.202  1.00  0.00     0.029 A 
ATOM     55  N   UNL A   1      44.616  30.035  28.403  1.00  0.00    -0.354 N 
ATOM     56  C   UNL A   1      43.118  26.033  27.829  1.00  0.00     0.074 A 
ATOM     57  C   UNL A   1      41.727  25.941  28.217  1.00  0.00     0.031 C 
ATOM     58  C   UNL A   1      44.517  32.192  28.977  1.00  0.00     0.029 A 
ATOM     59  C   UNL A   1      45.419  31.144  28.499  1.00  0.00     0.049 A 
ATOM     60  H   UNL A   1      44.927  29.173  28.045  1.00  0.00     0.167 HD
ATOM     61  C   UNL A   1      43.836  25.004  27.318  1.00  0.00     0.037 A 
ATOM     62  C   UNL A   1      46.739  31.285  28.258  1.00  0.00     0.037 A 
ATOM     63  C   UNL A   1      45.223  25.091  26.942  1.00  0.00     0.049 A 
ATOM     64  C   UNL A   1      47.542  30.103  27.778  1.00  0.00     0.074 A 
ATOM     65  C   UNL A   1      46.031  24.107  26.400  1.00  0.00     0.029 A 
ATOM     66  N   UNL A   1      46.010  26.223  27.083  1.00  0.00    -0.354 N 
ATOM     67  N   UNL A   1      47.147  28.879  27.520  1.00  0.00    -0.248 NA
ATOM     68  C   UNL A   1      48.979  30.323  27.551  1.00  0.00     0.031 C 
ATOM     69  C   UNL A   1      47.325  24.624  26.277  1.00  0.00     0.029 A 
ATOM     70  C   UNL A   1      47.306  25.952  26.671  1.00  0.00     0.049 A 
ATOM     71  H   UNL A   1      45.696  27.092  27.424  1.00  0.00     0.167 HD
ATOM     72  C   UNL A   1      48.272  28.199  27.067  1.00  0.00     0.074 A 
ATOM     73  C   UNL A   1      49.365  29.148  27.076  1.00  0.00     0.031 C 
ATOM     74  C   UNL A   1      48.389  26.904  26.676  1.00  0.00     0.037 A 
BRANCH  61  75
ATOM     75  C   UNL A   1      43.138  23.681  27.177  1.00  0.00     0.057 A 
ATOM     76  C   UNL A   1      42.640  23.228  25.948  1.00  0.00     0.134 A 
ATOM     77  C   UNL A   1      42.977  22.841  28.286  1.00  0.00     0.134 A 
ATOM     78  F   UNL A   1      42.747  23.988  24.847  1.00  0.00    -0.206 F 
ATOM     79  C   UNL A   1      41.979  22.004  25.835  1.00  0.00     0.040 A 
ATOM     80  C   UNL A   1      42.348  21.600  28.179  1.00  0.00     0.040 A 
ATOM     81  F   UNL A   1      43.435  23.209  29.492  1.00  0.00    -0.206 F 
ATOM     82  C   UNL A   1      41.839  21.182  26.951  1.00  0.00     0.006 A 
ENDBRANCH  61  75
BRANCH  62  83
ATOM     83  C   UNL A   1      47.400  32.598  28.485  1.00  0.00     0.057 A 
ATOM     84  C   UNL A   1      47.907  32.948  29.743  1.00  0.00     0.134 A 
ATOM     85  C   UNL A   1      47.512  33.545  27.459  1.00  0.00     0.134 A 
ATOM     86  F   UNL A   1      47.804  32.097  30.774  1.00  0.00    -0.206 F 
ATOM     87  C   UNL A   1      48.481  34.199  29.977  1.00  0.00     0.040 A 
ATOM     88  C   UNL A   1      48.112  34.787  27.673  1.00  0.00     0.040 A 
ATOM     89  F   UNL A   1      47.042  33.275  26.234  1.00  0.00    -0.206 F 
ATOM     90  C   UNL A   1      48.591  35.121  28.938  1.00  0.00     0.006 A 
ENDBRANCH  62  83
BRANCH  74  91
ATOM     91  C   UNL A   1      49.731  26.445  26.176  1.00  0.00     0.057 A 
ATOM     92  C   UNL A   1      50.193  26.743  24.888  1.00  0.00     0.134 A 
ATOM     93  C   UNL A   1      50.595  25.728  27.017  1.00  0.00     0.134 A 
ATOM     94  F   UNL A   1      49.416  27.417  24.026  1.00  0.00    -0.206 F 
ATOM     95  C   UNL A   1      51.449  26.321  24.445  1.00  0.00     0.040 A 
ATOM     96  C   UNL A   1      51.865  25.330  26.598  1.00  0.00     0.040 A 
ATOM     97  F   UNL A   1      50.225  25.417  28.269  1.00  0.00    -0.206 F 
ATOM     98  C   UNL A   1      52.293  25.620  25.304  1.00  0.00     0.006 A 
ENDBRANCH  74  91
ENDBRANCH  48  49
ENDBRANCH  41  43
ENDBRANCH  40  41
ENDBRANCH  39  40
ENDBRANCH  38  39
ENDBRANCH  37  38
ENDBRANCH  36  37
ENDBRANCH   1  36
TORSDOF 22
ENDMDL
