MODEL 1
REMARK VINA RESULT:     -10.6      0.000      0.000
REMARK SMILES CC(C)(C)OC(=O)N1CCC2(CC1)CNc1ccc(C(=O)OCCOCCOCCOC(=O)c3ccc(-c4c5nc(c(-c6c(F)cccc6F)c6ccc([nH]6)c(-c6c(F)cccc6F)c6nc(c(-c7c(F)cccc7F)c7ccc4[nH]7)C=C6)C=C5)cc3)cc12
REMARK SMILES IDX 26 1 25 2 24 3 23 4 22 5 20 6 21 7 19 8 6 9 7 10 8 11 9 12
REMARK SMILES IDX 13 13 10 14 12 15 11 16 14 17 89 18 15 19 16 20 88 21 17 23
REMARK SMILES IDX 18 24 5 25 2 26 1 27 3 28 4 29 27 30 28 31 29 32 30 33 31 34
REMARK SMILES IDX 32 35 33 36 34 37 35 38 87 39 36 40 86 41 37 42 38 43 39 44
REMARK SMILES IDX 80 45 40 46 85 47 79 48 81 49 41 50 84 51 78 52 77 53 42 55
REMARK SMILES IDX 68 56 51 57 67 58 52 59 55 60 66 61 82 62 53 63 54 64 65 66
REMARK SMILES IDX 83 67 56 68 43 69 44 70 49 71 45 72 46 73 48 74 50 75 47 76
REMARK SMILES IDX 69 77 70 78 75 79 71 80 72 81 74 82 76 83 73 84 57 85 58 86
REMARK SMILES IDX 63 87 59 88 60 89 62 90 64 91 61 92
REMARK H PARENT 15 22 81 54 55 65
REMARK Flexibility Score: inf
ROOT
ATOM      1  C   UNL A   1      34.113  34.916  29.342  1.00  0.00     0.188 C 
ENDROOT
BRANCH   1   2
ATOM      2  O   UNL A   1      35.348  34.243  29.190  1.00  0.00    -0.376 OA
BRANCH   2   3
ATOM      3  C   UNL A   1      35.560  33.339  28.119  1.00  0.00     0.202 C 
BRANCH   3   4
ATOM      4  C   UNL A   1      35.284  31.844  28.290  1.00  0.00     0.261 C 
BRANCH   4   5
ATOM      5  O   UNL A   1      34.564  31.255  27.201  1.00  0.00    -0.460 OA
BRANCH   5   6
ATOM      6  C   UNL A   1      34.452  29.904  27.251  1.00  0.00     0.338 C 
ATOM      7  O   UNL A   1      35.068  29.143  27.978  1.00  0.00    -0.246 OA
BRANCH   6   8
ATOM      8  C   UNL A   1      33.332  29.456  26.395  1.00  0.00     0.060 A 
ATOM      9  C   UNL A   1      33.444  22.463  23.818  1.00  0.00     0.410 C 
ATOM     10  O   UNL A   1      32.824  21.491  24.227  1.00  0.00    -0.224 OA
ATOM     11  N   UNL A   1      32.869  23.702  23.619  1.00  0.00    -0.308 N 
ATOM     12  C   UNL A   1      31.602  24.003  24.263  1.00  0.00     0.124 C 
ATOM     13  C   UNL A   1      33.470  24.745  22.797  1.00  0.00     0.124 C 
ATOM     14  C   UNL A   1      31.715  25.299  25.077  1.00  0.00     0.035 C 
ATOM     15  C   UNL A   1      33.603  26.043  23.577  1.00  0.00     0.035 C 
ATOM     16  C   UNL A   1      32.266  26.459  24.218  1.00  0.00     0.018 C 
ATOM     17  C   UNL A   1      31.202  26.910  23.161  1.00  0.00     0.124 C 
ATOM     18  C   UNL A   1      32.403  27.749  24.994  1.00  0.00    -0.016 A 
ATOM     19  N   UNL A   1      30.466  28.029  23.751  1.00  0.00    -0.384 N 
ATOM     20  C   UNL A   1      31.344  28.601  24.672  1.00  0.00     0.038 A 
ATOM     21  C   UNL A   1      33.411  28.167  25.848  1.00  0.00     0.022 A 
ATOM     22  H   UNL A   1      29.548  28.315  23.544  1.00  0.00     0.160 HD
ATOM     23  C   UNL A   1      31.212  29.841  25.269  1.00  0.00     0.027 A 
ATOM     24  C   UNL A   1      32.224  30.282  26.129  1.00  0.00     0.018 A 
BRANCH   9  25
ATOM     25  O   UNL A   1      34.778  22.508  23.610  1.00  0.00    -0.444 OA
BRANCH  25  26
ATOM     26  C   UNL A   1      35.731  22.377  24.691  1.00  0.00     0.106 C 
ATOM     27  C   UNL A   1      37.021  22.931  24.091  1.00  0.00     0.056 C 
ATOM     28  C   UNL A   1      35.921  20.899  25.026  1.00  0.00     0.056 C 
ATOM     29  C   UNL A   1      35.406  23.189  25.951  1.00  0.00     0.056 C 
ENDBRANCH  25  26
ENDBRANCH   9  25
ENDBRANCH   6   8
ENDBRANCH   5   6
ENDBRANCH   4   5
ENDBRANCH   3   4
ENDBRANCH   2   3
ENDBRANCH   1   2
BRANCH   1  30
ATOM     30  C   UNL A   1      33.358  34.945  30.689  1.00  0.00     0.188 C 
BRANCH  30  31
ATOM     31  O   UNL A   1      34.052  34.798  31.913  1.00  0.00    -0.376 OA
BRANCH  31  32
ATOM     32  C   UNL A   1      33.986  33.559  32.603  1.00  0.00     0.202 C 
BRANCH  32  33
ATOM     33  C   UNL A   1      34.772  32.364  32.061  1.00  0.00     0.261 C 
BRANCH  33  34
ATOM     34  O   UNL A   1      35.940  32.074  32.845  1.00  0.00    -0.460 OA
BRANCH  34  35
ATOM     35  C   UNL A   1      36.992  32.909  32.665  1.00  0.00     0.338 C 
ATOM     36  O   UNL A   1      37.161  34.011  33.154  1.00  0.00    -0.246 OA
BRANCH  35  37
ATOM     37  C   UNL A   1      38.033  32.190  31.906  1.00  0.00     0.060 A 
ATOM     38  C   UNL A   1      38.105  32.304  30.517  1.00  0.00     0.016 A 
ATOM     39  C   UNL A   1      38.942  31.387  32.607  1.00  0.00     0.016 A 
ATOM     40  C   UNL A   1      39.109  31.619  29.826  1.00  0.00     0.010 A 
ATOM     41  C   UNL A   1      39.934  30.692  31.914  1.00  0.00     0.010 A 
ATOM     42  C   UNL A   1      40.032  30.816  30.519  1.00  0.00    -0.014 A 
BRANCH  42  43
ATOM     43  C   UNL A   1      41.195  30.244  29.799  1.00  0.00     0.031 A 
ATOM     44  C   UNL A   1      41.187  28.838  29.274  1.00  0.00     0.074 A 
ATOM     45  C   UNL A   1      42.269  31.037  29.633  1.00  0.00     0.049 A 
ATOM     46  N   UNL A   1      42.048  28.238  28.489  1.00  0.00    -0.248 NA
ATOM     47  C   UNL A   1      40.067  27.990  29.699  1.00  0.00     0.031 C 
ATOM     48  C   UNL A   1      42.377  32.416  30.119  1.00  0.00     0.029 A 
ATOM     49  N   UNL A   1      43.462  30.812  28.999  1.00  0.00    -0.354 N 
ATOM     50  C   UNL A   1      41.570  26.942  28.306  1.00  0.00     0.074 A 
ATOM     51  C   UNL A   1      40.360  26.842  29.099  1.00  0.00     0.031 C 
ATOM     52  C   UNL A   1      43.556  32.926  29.730  1.00  0.00     0.029 A 
ATOM     53  C   UNL A   1      44.290  31.907  28.990  1.00  0.00     0.049 A 
ATOM     54  H   UNL A   1      43.702  29.949  28.591  1.00  0.00     0.167 HD
ATOM     55  C   UNL A   1      42.113  25.935  27.568  1.00  0.00     0.037 A 
ATOM     56  C   UNL A   1      45.501  32.070  28.430  1.00  0.00     0.037 A 
ATOM     57  C   UNL A   1      43.393  26.044  26.900  1.00  0.00     0.049 A 
ATOM     58  C   UNL A   1      46.108  30.920  27.681  1.00  0.00     0.074 A 
ATOM     59  C   UNL A   1      44.058  25.101  26.134  1.00  0.00     0.029 A 
ATOM     60  N   UNL A   1      44.231  27.155  26.961  1.00  0.00    -0.354 N 
ATOM     61  N   UNL A   1      45.603  29.737  27.424  1.00  0.00    -0.248 NA
ATOM     62  C   UNL A   1      47.458  31.132  27.144  1.00  0.00     0.031 C 
ATOM     63  C   UNL A   1      45.333  25.593  25.833  1.00  0.00     0.029 A 
ATOM     64  C   UNL A   1      45.431  26.888  26.315  1.00  0.00     0.049 A 
ATOM     65  H   UNL A   1      44.005  28.007  27.399  1.00  0.00     0.167 HD
ATOM     66  C   UNL A   1      46.563  29.070  26.679  1.00  0.00     0.074 A 
ATOM     67  C   UNL A   1      47.669  29.991  26.505  1.00  0.00     0.031 C 
ATOM     68  C   UNL A   1      46.533  27.809  26.181  1.00  0.00     0.037 A 
BRANCH  55  69
ATOM     69  C   UNL A   1      41.366  24.613  27.518  1.00  0.00     0.057 A 
ATOM     70  C   UNL A   1      40.235  24.423  26.707  1.00  0.00     0.134 A 
ATOM     71  C   UNL A   1      41.765  23.508  28.284  1.00  0.00     0.134 A 
ATOM     72  F   UNL A   1      39.695  25.438  26.016  1.00  0.00    -0.206 F 
ATOM     73  C   UNL A   1      39.596  23.186  26.589  1.00  0.00     0.040 A 
ATOM     74  C   UNL A   1      41.141  22.261  28.170  1.00  0.00     0.040 A 
ATOM     75  F   UNL A   1      42.802  23.606  29.131  1.00  0.00    -0.206 F 
ATOM     76  C   UNL A   1      40.062  22.093  27.308  1.00  0.00     0.006 A 
ENDBRANCH  55  69
BRANCH  56  77
ATOM     77  C   UNL A   1      46.194  33.378  28.510  1.00  0.00     0.057 A 
ATOM     78  C   UNL A   1      47.046  33.698  29.572  1.00  0.00     0.134 A 
ATOM     79  C   UNL A   1      46.027  34.337  27.504  1.00  0.00     0.134 A 
ATOM     80  F   UNL A   1      47.243  32.825  30.570  1.00  0.00    -0.206 F 
ATOM     81  C   UNL A   1      47.707  34.926  29.633  1.00  0.00     0.040 A 
ATOM     82  C   UNL A   1      46.698  35.560  27.541  1.00  0.00     0.040 A 
ATOM     83  F   UNL A   1      45.234  34.082  26.453  1.00  0.00    -0.206 F 
ATOM     84  C   UNL A   1      47.540  35.858  28.611  1.00  0.00     0.006 A 
ENDBRANCH  56  77
BRANCH  68  85
ATOM     85  C   UNL A   1      47.737  27.369  25.393  1.00  0.00     0.057 A 
ATOM     86  C   UNL A   1      47.794  27.576  24.009  1.00  0.00     0.134 A 
ATOM     87  C   UNL A   1      48.835  26.745  25.998  1.00  0.00     0.134 A 
ATOM     88  F   UNL A   1      46.774  28.164  23.364  1.00  0.00    -0.206 F 
ATOM     89  C   UNL A   1      48.901  27.181  23.256  1.00  0.00     0.040 A 
ATOM     90  C   UNL A   1      49.962  26.374  25.260  1.00  0.00     0.040 A 
ATOM     91  F   UNL A   1      48.854  26.531  27.322  1.00  0.00    -0.206 F 
ATOM     92  C   UNL A   1      49.993  26.587  23.883  1.00  0.00     0.006 A 
ENDBRANCH  68  85
ENDBRANCH  42  43
ENDBRANCH  35  37
ENDBRANCH  34  35
ENDBRANCH  33  34
ENDBRANCH  32  33
ENDBRANCH  31  32
ENDBRANCH  30  31
ENDBRANCH   1  30
TORSDOF 19
ENDMDL
MODEL 2
REMARK VINA RESULT:     -10.2      0.587      5.952
REMARK SMILES CC(C)(C)OC(=O)N1CCC2(CC1)CNc1ccc(C(=O)OCCOCCOCCOC(=O)c3ccc(-c4c5nc(c(-c6c(F)cccc6F)c6ccc([nH]6)c(-c6c(F)cccc6F)c6nc(c(-c7c(F)cccc7F)c7ccc4[nH]7)C=C6)C=C5)cc3)cc12
REMARK SMILES IDX 26 1 25 2 24 3 23 4 22 5 20 6 21 7 19 8 6 9 7 10 8 11 9 12
REMARK SMILES IDX 13 13 10 14 12 15 11 16 14 17 89 18 15 19 16 20 88 21 17 23
REMARK SMILES IDX 18 24 5 25 2 26 1 27 3 28 4 29 27 30 28 31 29 32 30 33 31 34
REMARK SMILES IDX 32 35 33 36 34 37 35 38 87 39 36 40 86 41 37 42 38 43 39 44
REMARK SMILES IDX 80 45 40 46 85 47 79 48 81 49 41 50 84 51 78 52 77 53 42 55
REMARK SMILES IDX 68 56 51 57 67 58 52 59 55 60 66 61 82 62 53 63 54 64 65 66
REMARK SMILES IDX 83 67 56 68 43 69 44 70 49 71 45 72 46 73 48 74 50 75 47 76
REMARK SMILES IDX 69 77 70 78 75 79 71 80 72 81 74 82 76 83 73 84 57 85 58 86
REMARK SMILES IDX 63 87 59 88 60 89 62 90 64 91 61 92
REMARK H PARENT 15 22 81 54 55 65
REMARK Flexibility Score: inf
ROOT
ATOM      1  C   UNL A   1      34.384  34.744  29.616  1.00  0.00     0.188 C 
ENDROOT
BRANCH   1   2
ATOM      2  O   UNL A   1      35.658  34.167  29.399  1.00  0.00    -0.376 OA
BRANCH   2   3
ATOM      3  C   UNL A   1      35.821  33.068  28.518  1.00  0.00     0.202 C 
BRANCH   3   4
ATOM      4  C   UNL A   1      35.401  31.659  28.937  1.00  0.00     0.261 C 
BRANCH   4   5
ATOM      5  O   UNL A   1      34.358  31.097  28.132  1.00  0.00    -0.460 OA
BRANCH   5   6
ATOM      6  C   UNL A   1      34.701  29.977  27.447  1.00  0.00     0.338 C 
ATOM      7  O   UNL A   1      35.719  29.318  27.582  1.00  0.00    -0.246 OA
BRANCH   6   8
ATOM      8  C   UNL A   1      33.575  29.539  26.593  1.00  0.00     0.060 A 
ATOM      9  C   UNL A   1      33.496  22.474  24.218  1.00  0.00     0.410 C 
ATOM     10  O   UNL A   1      32.843  21.534  24.649  1.00  0.00    -0.224 OA
ATOM     11  N   UNL A   1      32.961  23.724  23.979  1.00  0.00    -0.308 N 
ATOM     12  C   UNL A   1      31.698  24.082  24.601  1.00  0.00     0.124 C 
ATOM     13  C   UNL A   1      33.601  24.724  23.134  1.00  0.00     0.124 C 
ATOM     14  C   UNL A   1      31.843  25.397  25.379  1.00  0.00     0.035 C 
ATOM     15  C   UNL A   1      33.767  26.040  23.878  1.00  0.00     0.035 C 
ATOM     16  C   UNL A   1      32.437  26.515  24.492  1.00  0.00     0.018 C 
ATOM     17  C   UNL A   1      31.397  26.967  23.413  1.00  0.00     0.124 C 
ATOM     18  C   UNL A   1      32.607  27.821  25.233  1.00  0.00    -0.016 A 
ATOM     19  N   UNL A   1      30.691  28.124  23.964  1.00  0.00    -0.384 N 
ATOM     20  C   UNL A   1      31.578  28.696  24.876  1.00  0.00     0.038 A 
ATOM     21  C   UNL A   1      33.620  28.232  26.085  1.00  0.00     0.022 A 
ATOM     22  H   UNL A   1      29.784  28.433  23.739  1.00  0.00     0.160 HD
ATOM     23  C   UNL A   1      31.479  29.956  25.436  1.00  0.00     0.027 A 
ATOM     24  C   UNL A   1      32.496  30.390  26.293  1.00  0.00     0.018 A 
BRANCH   9  25
ATOM     25  O   UNL A   1      34.832  22.473  24.023  1.00  0.00    -0.444 OA
BRANCH  25  26
ATOM     26  C   UNL A   1      35.771  22.498  25.123  1.00  0.00     0.106 C 
ATOM     27  C   UNL A   1      36.861  23.449  24.632  1.00  0.00     0.056 C 
ATOM     28  C   UNL A   1      36.365  21.105  25.319  1.00  0.00     0.056 C 
ATOM     29  C   UNL A   1      35.219  23.052  26.442  1.00  0.00     0.056 C 
ENDBRANCH  25  26
ENDBRANCH   9  25
ENDBRANCH   6   8
ENDBRANCH   5   6
ENDBRANCH   4   5
ENDBRANCH   3   4
ENDBRANCH   2   3
ENDBRANCH   1   2
BRANCH   1  30
ATOM     30  C   UNL A   1      33.667  34.650  30.981  1.00  0.00     0.188 C 
BRANCH  30  31
ATOM     31  O   UNL A   1      34.395  34.727  32.190  1.00  0.00    -0.376 OA
BRANCH  31  32
ATOM     32  C   UNL A   1      34.407  33.609  33.065  1.00  0.00     0.202 C 
BRANCH  32  33
ATOM     33  C   UNL A   1      35.239  32.381  32.691  1.00  0.00     0.261 C 
BRANCH  33  34
ATOM     34  O   UNL A   1      36.358  32.188  33.569  1.00  0.00    -0.460 OA
BRANCH  34  35
ATOM     35  C   UNL A   1      37.394  33.046  33.402  1.00  0.00     0.338 C 
ATOM     36  O   UNL A   1      37.585  34.103  33.974  1.00  0.00    -0.246 OA
BRANCH  35  37
ATOM     37  C   UNL A   1      38.391  32.407  32.523  1.00  0.00     0.060 A 
ATOM     38  C   UNL A   1      38.359  32.614  31.143  1.00  0.00     0.016 A 
ATOM     39  C   UNL A   1      39.367  31.585  33.101  1.00  0.00     0.016 A 
ATOM     40  C   UNL A   1      39.324  32.003  30.337  1.00  0.00     0.010 A 
ATOM     41  C   UNL A   1      40.320  30.963  32.292  1.00  0.00     0.010 A 
ATOM     42  C   UNL A   1      40.312  31.181  30.906  1.00  0.00    -0.014 A 
BRANCH  42  43
ATOM     43  C   UNL A   1      41.432  30.690  30.066  1.00  0.00     0.031 A 
ATOM     44  C   UNL A   1      42.639  31.535  29.785  1.00  0.00     0.074 A 
ATOM     45  C   UNL A   1      41.325  29.448  29.560  1.00  0.00     0.049 A 
ATOM     46  N   UNL A   1      43.770  31.205  29.210  1.00  0.00    -0.248 NA
ATOM     47  C   UNL A   1      42.559  32.943  30.193  1.00  0.00     0.031 C 
ATOM     48  C   UNL A   1      40.183  28.553  29.768  1.00  0.00     0.029 A 
ATOM     49  N   UNL A   1      42.186  28.716  28.787  1.00  0.00    -0.354 N 
ATOM     50  C   UNL A   1      44.551  32.359  29.200  1.00  0.00     0.074 A 
ATOM     51  C   UNL A   1      43.740  33.403  29.795  1.00  0.00     0.031 C 
ATOM     52  C   UNL A   1      40.433  27.377  29.171  1.00  0.00     0.029 A 
ATOM     53  C   UNL A   1      41.737  27.446  28.523  1.00  0.00     0.049 A 
ATOM     54  H   UNL A   1      43.043  29.068  28.453  1.00  0.00     0.167 HD
ATOM     55  C   UNL A   1      45.812  32.524  28.712  1.00  0.00     0.037 A 
ATOM     56  C   UNL A   1      42.326  26.445  27.847  1.00  0.00     0.037 A 
ATOM     57  C   UNL A   1      46.531  31.483  28.007  1.00  0.00     0.049 A 
ATOM     58  C   UNL A   1      43.687  26.676  27.258  1.00  0.00     0.074 A 
ATOM     59  C   UNL A   1      47.801  31.523  27.456  1.00  0.00     0.029 A 
ATOM     60  N   UNL A   1      46.018  30.223  27.710  1.00  0.00    -0.354 N 
ATOM     61  N   UNL A   1      44.460  27.732  27.345  1.00  0.00    -0.248 NA
ATOM     62  C   UNL A   1      44.256  25.571  26.477  1.00  0.00     0.031 C 
ATOM     63  C   UNL A   1      48.009  30.342  26.734  1.00  0.00     0.029 A 
ATOM     64  C   UNL A   1      46.915  29.514  26.921  1.00  0.00     0.049 A 
ATOM     65  H   UNL A   1      45.147  29.883  28.015  1.00  0.00     0.167 HD
ATOM     66  C   UNL A   1      45.615  27.413  26.647  1.00  0.00     0.074 A 
ATOM     67  C   UNL A   1      45.449  26.056  26.165  1.00  0.00     0.031 C 
ATOM     68  C   UNL A   1      46.716  28.174  26.424  1.00  0.00     0.037 A 
BRANCH  55  69
ATOM     69  C   UNL A   1      46.450  33.896  28.851  1.00  0.00     0.057 A 
ATOM     70  C   UNL A   1      46.304  34.892  27.870  1.00  0.00     0.134 A 
ATOM     71  C   UNL A   1      47.226  34.242  29.967  1.00  0.00     0.134 A 
ATOM     72  F   UNL A   1      45.679  34.641  26.710  1.00  0.00    -0.206 F 
ATOM     73  C   UNL A   1      46.814  36.182  28.030  1.00  0.00     0.040 A 
ATOM     74  C   UNL A   1      47.735  35.533  30.146  1.00  0.00     0.040 A 
ATOM     75  F   UNL A   1      47.468  33.341  30.932  1.00  0.00    -0.206 F 
ATOM     76  C   UNL A   1      47.516  36.512  29.182  1.00  0.00     0.006 A 
ENDBRANCH  55  69
BRANCH  56  77
ATOM     77  C   UNL A   1      41.662  25.124  27.733  1.00  0.00     0.057 A 
ATOM     78  C   UNL A   1      42.071  24.023  28.493  1.00  0.00     0.134 A 
ATOM     79  C   UNL A   1      40.582  24.941  26.861  1.00  0.00     0.134 A 
ATOM     80  F   UNL A   1      43.103  24.132  29.341  1.00  0.00    -0.206 F 
ATOM     81  C   UNL A   1      41.431  22.787  28.390  1.00  0.00     0.040 A 
ATOM     82  C   UNL A   1      39.919  23.717  26.764  1.00  0.00     0.040 A 
ATOM     83  F   UNL A   1      40.135  25.964  26.117  1.00  0.00    -0.206 F 
ATOM     84  C   UNL A   1      40.346  22.634  27.529  1.00  0.00     0.006 A 
ENDBRANCH  56  77
BRANCH  68  85
ATOM     85  C   UNL A   1      47.823  27.536  25.632  1.00  0.00     0.057 A 
ATOM     86  C   UNL A   1      48.888  26.900  26.283  1.00  0.00     0.134 A 
ATOM     87  C   UNL A   1      47.840  27.549  24.231  1.00  0.00     0.134 A 
ATOM     88  F   UNL A   1      48.939  26.855  27.623  1.00  0.00    -0.206 F 
ATOM     89  C   UNL A   1      49.926  26.297  25.571  1.00  0.00     0.040 A 
ATOM     90  C   UNL A   1      48.856  26.922  23.506  1.00  0.00     0.040 A 
ATOM     91  F   UNL A   1      46.843  28.125  23.543  1.00  0.00    -0.206 F 
ATOM     92  C   UNL A   1      49.906  26.298  24.178  1.00  0.00     0.006 A 
ENDBRANCH  68  85
ENDBRANCH  42  43
ENDBRANCH  35  37
ENDBRANCH  34  35
ENDBRANCH  33  34
ENDBRANCH  32  33
ENDBRANCH  31  32
ENDBRANCH  30  31
ENDBRANCH   1  30
TORSDOF 19
ENDMDL
MODEL 3
REMARK VINA RESULT:     -10.1      4.647      7.237
REMARK SMILES CC(C)(C)OC(=O)N1CCC2(CC1)CNc1ccc(C(=O)OCCOCCOCCOC(=O)c3ccc(-c4c5nc(c(-c6c(F)cccc6F)c6ccc([nH]6)c(-c6c(F)cccc6F)c6nc(c(-c7c(F)cccc7F)c7ccc4[nH]7)C=C6)C=C5)cc3)cc12
REMARK SMILES IDX 26 1 25 2 24 3 23 4 22 5 20 6 21 7 19 8 6 9 7 10 8 11 9 12
REMARK SMILES IDX 13 13 10 14 12 15 11 16 14 17 89 18 15 19 16 20 88 21 17 23
REMARK SMILES IDX 18 24 5 25 2 26 1 27 3 28 4 29 27 30 28 31 29 32 30 33 31 34
REMARK SMILES IDX 32 35 33 36 34 37 35 38 87 39 36 40 86 41 37 42 38 43 39 44
REMARK SMILES IDX 80 45 40 46 85 47 79 48 81 49 41 50 84 51 78 52 77 53 42 55
REMARK SMILES IDX 68 56 51 57 67 58 52 59 55 60 66 61 82 62 53 63 54 64 65 66
REMARK SMILES IDX 83 67 56 68 43 69 44 70 49 71 45 72 46 73 48 74 50 75 47 76
REMARK SMILES IDX 69 77 70 78 75 79 71 80 72 81 74 82 76 83 73 84 57 85 58 86
REMARK SMILES IDX 63 87 59 88 60 89 62 90 64 91 61 92
REMARK H PARENT 15 22 81 54 55 65
REMARK Flexibility Score: inf
ROOT
ATOM      1  C   UNL A   1      34.341  32.836  27.925  1.00  0.00     0.188 C 
ENDROOT
BRANCH   1   2
ATOM      2  O   UNL A   1      34.188  31.518  28.415  1.00  0.00    -0.376 OA
BRANCH   2   3
ATOM      3  C   UNL A   1      33.451  30.550  27.687  1.00  0.00     0.202 C 
BRANCH   3   4
ATOM      4  C   UNL A   1      33.993  29.974  26.379  1.00  0.00     0.261 C 
BRANCH   4   5
ATOM      5  O   UNL A   1      33.046  29.974  25.304  1.00  0.00    -0.460 OA
BRANCH   5   6
ATOM      6  C   UNL A   1      33.327  29.117  24.291  1.00  0.00     0.338 C 
ATOM      7  O   UNL A   1      34.362  29.056  23.648  1.00  0.00    -0.246 OA
BRANCH   6   8
ATOM      8  C   UNL A   1      32.246  28.117  24.157  1.00  0.00     0.060 A 
ATOM      9  C   UNL A   1      33.996  20.912  24.925  1.00  0.00     0.410 C 
ATOM     10  O   UNL A   1      33.826  20.187  25.895  1.00  0.00    -0.224 OA
ATOM     11  N   UNL A   1      33.028  21.765  24.435  1.00  0.00    -0.308 N 
ATOM     12  C   UNL A   1      31.909  22.127  25.289  1.00  0.00     0.124 C 
ATOM     13  C   UNL A   1      33.065  22.341  23.097  1.00  0.00     0.124 C 
ATOM     14  C   UNL A   1      31.783  23.654  25.381  1.00  0.00     0.035 C 
ATOM     15  C   UNL A   1      32.949  23.856  23.153  1.00  0.00     0.035 C 
ATOM     16  C   UNL A   1      31.729  24.301  23.979  1.00  0.00     0.018 C 
ATOM     17  C   UNL A   1      30.368  23.973  23.277  1.00  0.00     0.124 C 
ATOM     18  C   UNL A   1      31.619  25.808  24.034  1.00  0.00    -0.016 A 
ATOM     19  N   UNL A   1      29.468  25.092  23.554  1.00  0.00    -0.384 N 
ATOM     20  C   UNL A   1      30.300  26.188  23.774  1.00  0.00     0.038 A 
ATOM     21  C   UNL A   1      32.607  26.762  24.218  1.00  0.00     0.022 A 
ATOM     22  H   UNL A   1      28.484  25.074  23.581  1.00  0.00     0.160 HD
ATOM     23  C   UNL A   1      29.918  27.517  23.794  1.00  0.00     0.027 A 
ATOM     24  C   UNL A   1      30.903  28.495  23.973  1.00  0.00     0.018 A 
BRANCH   9  25
ATOM     25  O   UNL A   1      35.163  21.074  24.266  1.00  0.00    -0.444 OA
BRANCH  25  26
ATOM     26  C   UNL A   1      36.185  21.991  24.723  1.00  0.00     0.106 C 
ATOM     27  C   UNL A   1      37.373  21.076  25.012  1.00  0.00     0.056 C 
ATOM     28  C   UNL A   1      35.730  22.655  26.020  1.00  0.00     0.056 C 
ATOM     29  C   UNL A   1      36.632  23.038  23.695  1.00  0.00     0.056 C 
ENDBRANCH  25  26
ENDBRANCH   9  25
ENDBRANCH   6   8
ENDBRANCH   5   6
ENDBRANCH   4   5
ENDBRANCH   3   4
ENDBRANCH   2   3
ENDBRANCH   1   2
BRANCH   1  30
ATOM     30  C   UNL A   1      34.391  34.058  28.869  1.00  0.00     0.188 C 
BRANCH  30  31
ATOM     31  O   UNL A   1      34.516  35.369  28.353  1.00  0.00    -0.376 OA
BRANCH  31  32
ATOM     32  C   UNL A   1      33.709  36.406  28.890  1.00  0.00     0.202 C 
BRANCH  32  33
ATOM     33  C   UNL A   1      32.618  36.051  29.901  1.00  0.00     0.261 C 
BRANCH  33  34
ATOM     34  O   UNL A   1      32.902  36.557  31.215  1.00  0.00    -0.460 OA
BRANCH  34  35
ATOM     35  C   UNL A   1      32.676  35.698  32.239  1.00  0.00     0.338 C 
ATOM     36  O   UNL A   1      31.622  35.471  32.803  1.00  0.00    -0.246 OA
BRANCH  35  37
ATOM     37  C   UNL A   1      33.902  34.909  32.463  1.00  0.00     0.060 A 
ATOM     38  C   UNL A   1      35.159  35.461  32.209  1.00  0.00     0.016 A 
ATOM     39  C   UNL A   1      33.780  33.595  32.931  1.00  0.00     0.016 A 
ATOM     40  C   UNL A   1      36.303  34.694  32.442  1.00  0.00     0.010 A 
ATOM     41  C   UNL A   1      34.923  32.824  33.147  1.00  0.00     0.010 A 
ATOM     42  C   UNL A   1      36.193  33.375  32.918  1.00  0.00    -0.014 A 
BRANCH  42  43
ATOM     43  C   UNL A   1      37.413  32.639  33.331  1.00  0.00     0.031 A 
ATOM     44  C   UNL A   1      38.021  31.571  32.470  1.00  0.00     0.074 A 
ATOM     45  C   UNL A   1      37.958  32.964  34.517  1.00  0.00     0.049 A 
ATOM     46  N   UNL A   1      39.166  30.947  32.603  1.00  0.00    -0.248 NA
ATOM     47  C   UNL A   1      37.231  31.139  31.310  1.00  0.00     0.031 C 
ATOM     48  C   UNL A   1      37.432  33.981  35.432  1.00  0.00     0.029 A 
ATOM     49  N   UNL A   1      39.077  32.493  35.149  1.00  0.00    -0.354 N 
ATOM     50  C   UNL A   1      39.249  30.055  31.535  1.00  0.00     0.074 A 
ATOM     51  C   UNL A   1      38.014  30.202  30.789  1.00  0.00     0.031 C 
ATOM     52  C   UNL A   1      38.251  34.084  36.489  1.00  0.00     0.029 A 
ATOM     53  C   UNL A   1      39.342  33.130  36.336  1.00  0.00     0.049 A 
ATOM     54  H   UNL A   1      39.637  31.768  34.788  1.00  0.00     0.167 HD
ATOM     55  C   UNL A   1      40.251  29.184  31.234  1.00  0.00     0.037 A 
ATOM     56  C   UNL A   1      40.364  32.969  37.194  1.00  0.00     0.037 A 
ATOM     57  C   UNL A   1      41.406  28.982  32.084  1.00  0.00     0.049 A 
ATOM     58  C   UNL A   1      41.420  31.952  36.873  1.00  0.00     0.074 A 
ATOM     59  C   UNL A   1      42.481  28.128  31.903  1.00  0.00     0.029 A 
ATOM     60  N   UNL A   1      41.611  29.608  33.312  1.00  0.00    -0.354 N 
ATOM     61  N   UNL A   1      41.545  31.192  35.812  1.00  0.00    -0.248 NA
ATOM     62  C   UNL A   1      42.479  31.773  37.875  1.00  0.00     0.031 C 
ATOM     63  C   UNL A   1      43.268  28.152  33.060  1.00  0.00     0.029 A 
ATOM     64  C   UNL A   1      42.749  29.101  33.925  1.00  0.00     0.049 A 
ATOM     65  H   UNL A   1      41.033  30.309  33.689  1.00  0.00     0.167 HD
ATOM     66  C   UNL A   1      42.706  30.459  36.006  1.00  0.00     0.074 A 
ATOM     67  C   UNL A   1      43.259  30.885  37.277  1.00  0.00     0.031 C 
ATOM     68  C   UNL A   1      43.265  29.517  35.207  1.00  0.00     0.037 A 
BRANCH  55  69
ATOM     69  C   UNL A   1      40.099  28.335  29.984  1.00  0.00     0.057 A 
ATOM     70  C   UNL A   1      40.701  28.686  28.763  1.00  0.00     0.134 A 
ATOM     71  C   UNL A   1      39.344  27.153  29.979  1.00  0.00     0.134 A 
ATOM     72  F   UNL A   1      41.353  29.848  28.617  1.00  0.00    -0.206 F 
ATOM     73  C   UNL A   1      40.638  27.866  27.634  1.00  0.00     0.040 A 
ATOM     74  C   UNL A   1      39.280  26.317  28.859  1.00  0.00     0.040 A 
ATOM     75  F   UNL A   1      38.687  26.762  31.082  1.00  0.00    -0.206 F 
ATOM     76  C   UNL A   1      39.942  26.666  27.685  1.00  0.00     0.006 A 
ENDBRANCH  55  69
BRANCH  56  77
ATOM     77  C   UNL A   1      40.468  33.818  38.405  1.00  0.00     0.057 A 
ATOM     78  C   UNL A   1      41.245  34.981  38.427  1.00  0.00     0.134 A 
ATOM     79  C   UNL A   1      39.770  33.485  39.573  1.00  0.00     0.134 A 
ATOM     80  F   UNL A   1      41.942  35.351  37.344  1.00  0.00    -0.206 F 
ATOM     81  C   UNL A   1      41.326  35.783  39.567  1.00  0.00     0.040 A 
ATOM     82  C   UNL A   1      39.825  34.289  40.712  1.00  0.00     0.040 A 
ATOM     83  F   UNL A   1      38.998  32.390  39.607  1.00  0.00    -0.206 F 
ATOM     84  C   UNL A   1      40.608  35.442  40.711  1.00  0.00     0.006 A 
ENDBRANCH  56  77
BRANCH  68  85
ATOM     85  C   UNL A   1      44.549  28.901  35.691  1.00  0.00     0.057 A 
ATOM     86  C   UNL A   1      45.783  29.465  35.345  1.00  0.00     0.134 A 
ATOM     87  C   UNL A   1      44.567  27.755  36.498  1.00  0.00     0.134 A 
ATOM     88  F   UNL A   1      45.840  30.560  34.570  1.00  0.00    -0.206 F 
ATOM     89  C   UNL A   1      46.988  28.915  35.785  1.00  0.00     0.040 A 
ATOM     90  C   UNL A   1      45.765  27.214  36.971  1.00  0.00     0.040 A 
ATOM     91  F   UNL A   1      43.421  27.174  36.881  1.00  0.00    -0.206 F 
ATOM     92  C   UNL A   1      46.980  27.792  36.609  1.00  0.00     0.006 A 
ENDBRANCH  68  85
ENDBRANCH  42  43
ENDBRANCH  35  37
ENDBRANCH  34  35
ENDBRANCH  33  34
ENDBRANCH  32  33
ENDBRANCH  31  32
ENDBRANCH  30  31
ENDBRANCH   1  30
TORSDOF 19
ENDMDL
