MODEL 1
REMARK VINA RESULT:     -11.4      0.000      0.000
REMARK SMILES C[NH+]1CCN(C(=O)c2ccc3c(c2)N(CC(=O)OCCOCCOCCOC(=O)c2ccc(-c4c5nc(c(-c6c(F)cccc6F)c6ccc([nH]6)c(-c6c(F)cccc6F)c6nc(c(-c7c(F)cccc7F)c7ccc4[nH]7)C=C6)C=C5)cc2)C(=O)CO3)CC1
REMARK SMILES IDX 22 1 21 2 20 3 19 4 18 5 16 6 17 7 15 8 14 9 8 10 9 11 13 12
REMARK SMILES IDX 10 13 12 14 11 15 87 16 84 17 86 18 85 19 6 20 1 21 2 22
REMARK SMILES IDX 3 23 89 24 4 26 88 27 5 28 7 29 23 30 24 31 25 32 26 33
REMARK SMILES IDX 27 34 28 35 29 36 30 37 31 38 83 39 32 40 82 41 33 42 34 43
REMARK SMILES IDX 35 44 76 45 36 46 81 47 75 48 77 49 37 50 80 51 74 52 73 53
REMARK SMILES IDX 38 55 64 56 47 57 63 58 48 59 51 60 62 61 78 62 49 63 50 64
REMARK SMILES IDX 61 66 79 67 52 68 39 69 40 70 45 71 41 72 42 73 44 74 46 75
REMARK SMILES IDX 43 76 65 77 66 78 71 79 67 80 68 81 70 82 72 83 69 84 53 85
REMARK SMILES IDX 54 86 59 87 55 88 56 89 58 90 60 91 57 92
REMARK H PARENT 2 25 77 54 51 65
REMARK Flexibility Score: inf
ROOT
ATOM      1  C   UNL A   1      41.972  20.261  27.322  1.00  0.00     0.188 C 
ENDROOT
BRANCH   1   2
ATOM      2  O   UNL A   1      40.739  20.810  27.715  1.00  0.00    -0.376 OA
BRANCH   2   3
ATOM      3  C   UNL A   1      40.264  21.926  26.960  1.00  0.00     0.202 C 
BRANCH   3   4
ATOM      4  C   UNL A   1      39.084  21.692  25.977  1.00  0.00     0.261 C 
BRANCH   4   5
ATOM      5  O   UNL A   1      38.058  22.751  25.887  1.00  0.00    -0.462 OA
BRANCH   5   6
ATOM      6  C   UNL A   1      37.045  22.524  24.991  1.00  0.00     0.326 C 
ATOM      7  O   UNL A   1      37.004  23.087  23.893  1.00  0.00    -0.250 OA
BRANCH   6   8
ATOM      8  C   UNL A   1      35.931  21.443  25.341  1.00  0.00     0.248 C 
BRANCH   8   9
ATOM      9  N   UNL A   1      34.634  21.151  24.713  1.00  0.00    -0.295 N 
ATOM     10  C   UNL A   1      32.852  24.412  23.476  1.00  0.00     0.042 A 
ATOM     11  C   UNL A   1      31.745  23.791  22.902  1.00  0.00     0.018 A 
ATOM     12  C   UNL A   1      33.558  23.514  24.383  1.00  0.00     0.044 A 
ATOM     13  C   UNL A   1      31.511  22.398  23.061  1.00  0.00     0.049 A 
ATOM     14  C   UNL A   1      33.545  22.078  24.335  1.00  0.00     0.087 A 
ATOM     15  C   UNL A   1      32.429  21.547  23.704  1.00  0.00     0.143 A 
ATOM     16  O   UNL A   1      32.157  20.207  23.618  1.00  0.00    -0.482 OA
ATOM     17  C   UNL A   1      34.405  19.775  24.624  1.00  0.00     0.265 C 
ATOM     18  C   UNL A   1      32.950  19.393  24.462  1.00  0.00     0.330 C 
ATOM     19  O   UNL A   1      35.283  18.930  24.801  1.00  0.00    -0.270 OA
BRANCH  10  20
ATOM     20  C   UNL A   1      32.992  26.006  23.242  1.00  0.00     0.254 C 
ATOM     21  C   UNL A   1      31.814  29.954  27.035  1.00  0.00     0.332 C 
ATOM     22  N   UNL A   1      32.840  29.431  26.105  1.00  0.00    -0.334 N 
ATOM     23  C   UNL A   1      32.375  29.478  24.702  1.00  0.00     0.283 C 
ATOM     24  C   UNL A   1      33.225  28.067  26.503  1.00  0.00     0.283 C 
ATOM     25  H   UNL A   1      33.665  30.028  26.161  1.00  0.00     0.347 HD
ATOM     26  C   UNL A   1      33.133  28.549  23.649  1.00  0.00     0.181 C 
ATOM     27  C   UNL A   1      34.092  27.300  25.443  1.00  0.00     0.181 C 
ATOM     28  N   UNL A   1      33.405  27.145  24.123  1.00  0.00    -0.327 N 
ATOM     29  O   UNL A   1      32.688  26.303  22.074  1.00  0.00    -0.269 OA
ENDBRANCH  10  20
ENDBRANCH   8   9
ENDBRANCH   6   8
ENDBRANCH   5   6
ENDBRANCH   4   5
ENDBRANCH   3   4
ENDBRANCH   2   3
ENDBRANCH   1   2
BRANCH   1  30
ATOM     30  C   UNL A   1      42.541  20.764  26.024  1.00  0.00     0.188 C 
BRANCH  30  31
ATOM     31  O   UNL A   1      43.391  20.020  25.195  1.00  0.00    -0.376 OA
BRANCH  31  32
ATOM     32  C   UNL A   1      44.558  20.806  24.948  1.00  0.00     0.202 C 
BRANCH  32  33
ATOM     33  C   UNL A   1      44.457  22.140  24.128  1.00  0.00     0.261 C 
BRANCH  33  34
ATOM     34  O   UNL A   1      43.960  23.535  24.604  1.00  0.00    -0.460 OA
BRANCH  34  35
ATOM     35  C   UNL A   1      44.556  24.708  25.020  1.00  0.00     0.338 C 
ATOM     36  O   UNL A   1      45.668  25.092  24.671  1.00  0.00    -0.246 OA
BRANCH  35  37
ATOM     37  C   UNL A   1      43.911  25.525  26.130  1.00  0.00     0.060 A 
ATOM     38  C   UNL A   1      42.869  24.971  26.883  1.00  0.00     0.016 A 
ATOM     39  C   UNL A   1      44.163  26.863  26.358  1.00  0.00     0.016 A 
ATOM     40  C   UNL A   1      42.106  25.758  27.765  1.00  0.00     0.010 A 
ATOM     41  C   UNL A   1      43.480  27.655  27.280  1.00  0.00     0.010 A 
ATOM     42  C   UNL A   1      42.456  27.096  28.023  1.00  0.00    -0.014 A 
BRANCH  42  43
ATOM     43  C   UNL A   1      42.038  27.786  29.269  1.00  0.00     0.031 A 
ATOM     44  C   UNL A   1      42.690  27.557  30.606  1.00  0.00     0.074 A 
ATOM     45  C   UNL A   1      40.874  28.463  29.179  1.00  0.00     0.049 A 
ATOM     46  N   UNL A   1      42.364  28.055  31.772  1.00  0.00    -0.248 NA
ATOM     47  C   UNL A   1      43.802  26.595  30.664  1.00  0.00     0.031 C 
ATOM     48  C   UNL A   1      40.038  28.523  27.972  1.00  0.00     0.029 A 
ATOM     49  N   UNL A   1      40.183  29.217  30.084  1.00  0.00    -0.354 N 
ATOM     50  C   UNL A   1      43.194  27.439  32.705  1.00  0.00     0.074 A 
ATOM     51  C   UNL A   1      44.018  26.503  31.971  1.00  0.00     0.031 C 
ATOM     52  C   UNL A   1      39.013  29.352  28.175  1.00  0.00     0.029 A 
ATOM     53  C   UNL A   1      39.078  29.832  29.543  1.00  0.00     0.049 A 
ATOM     54  H   UNL A   1      40.448  29.310  31.028  1.00  0.00     0.167 HD
ATOM     55  C   UNL A   1      43.252  27.652  34.045  1.00  0.00     0.037 A 
ATOM     56  C   UNL A   1      38.220  30.710  30.085  1.00  0.00     0.037 A 
ATOM     57  C   UNL A   1      42.429  28.633  34.717  1.00  0.00     0.049 A 
ATOM     58  C   UNL A   1      38.453  31.104  31.503  1.00  0.00     0.074 A 
ATOM     59  C   UNL A   1      42.476  29.053  36.035  1.00  0.00     0.029 A 
ATOM     60  N   UNL A   1      41.407  29.351  34.107  1.00  0.00    -0.354 N 
ATOM     61  N   UNL A   1      39.329  30.615  32.350  1.00  0.00    -0.248 NA
ATOM     62  C   UNL A   1      37.609  32.170  32.041  1.00  0.00     0.031 C 
ATOM     63  C   UNL A   1      41.470  30.009  36.225  1.00  0.00     0.029 A 
ATOM     64  C   UNL A   1      40.822  30.215  35.017  1.00  0.00     0.049 A 
ATOM     65  H   UNL A   1      41.139  29.259  33.164  1.00  0.00     0.167 HD
ATOM     66  C   UNL A   1      39.140  31.309  33.530  1.00  0.00     0.074 A 
ATOM     67  C   UNL A   1      38.092  32.282  33.271  1.00  0.00     0.031 C 
ATOM     68  C   UNL A   1      39.763  31.148  34.722  1.00  0.00     0.037 A 
BRANCH  55  69
ATOM     69  C   UNL A   1      44.238  26.858  34.867  1.00  0.00     0.057 A 
ATOM     70  C   UNL A   1      43.933  25.586  35.372  1.00  0.00     0.134 A 
ATOM     71  C   UNL A   1      45.540  27.332  35.092  1.00  0.00     0.134 A 
ATOM     72  F   UNL A   1      42.713  25.059  35.195  1.00  0.00    -0.206 F 
ATOM     73  C   UNL A   1      44.868  24.831  36.087  1.00  0.00     0.040 A 
ATOM     74  C   UNL A   1      46.493  26.574  35.781  1.00  0.00     0.040 A 
ATOM     75  F   UNL A   1      45.919  28.533  34.631  1.00  0.00    -0.206 F 
ATOM     76  C   UNL A   1      46.157  25.320  36.286  1.00  0.00     0.006 A 
ENDBRANCH  55  69
BRANCH  56  77
ATOM     77  C   UNL A   1      37.180  31.322  29.222  1.00  0.00     0.057 A 
ATOM     78  C   UNL A   1      35.971  30.658  28.992  1.00  0.00     0.134 A 
ATOM     79  C   UNL A   1      37.298  32.634  28.744  1.00  0.00     0.134 A 
ATOM     80  F   UNL A   1      35.794  29.405  29.436  1.00  0.00    -0.206 F 
ATOM     81  C   UNL A   1      34.913  31.274  28.322  1.00  0.00     0.040 A 
ATOM     82  C   UNL A   1      36.239  33.272  28.094  1.00  0.00     0.040 A 
ATOM     83  F   UNL A   1      38.416  33.339  28.972  1.00  0.00    -0.206 F 
ATOM     84  C   UNL A   1      35.042  32.591  27.882  1.00  0.00     0.006 A 
ENDBRANCH  56  77
BRANCH  68  85
ATOM     85  C   UNL A   1      39.299  32.051  35.820  1.00  0.00     0.057 A 
ATOM     86  C   UNL A   1      39.847  33.328  35.994  1.00  0.00     0.134 A 
ATOM     87  C   UNL A   1      38.311  31.633  36.716  1.00  0.00     0.134 A 
ATOM     88  F   UNL A   1      40.812  33.771  35.172  1.00  0.00    -0.206 F 
ATOM     89  C   UNL A   1      39.452  34.147  37.048  1.00  0.00     0.040 A 
ATOM     90  C   UNL A   1      37.889  32.454  37.761  1.00  0.00     0.040 A 
ATOM     91  F   UNL A   1      37.748  30.421  36.595  1.00  0.00    -0.206 F 
ATOM     92  C   UNL A   1      38.468  33.710  37.934  1.00  0.00     0.006 A 
ENDBRANCH  68  85
ENDBRANCH  42  43
ENDBRANCH  35  37
ENDBRANCH  34  35
ENDBRANCH  33  34
ENDBRANCH  32  33
ENDBRANCH  31  32
ENDBRANCH  30  31
ENDBRANCH   1  30
TORSDOF 19
ENDMDL
MODEL 2
REMARK VINA RESULT:     -11.2      2.670      8.709
REMARK SMILES C[NH+]1CCN(C(=O)c2ccc3c(c2)N(CC(=O)OCCOCCOCCOC(=O)c2ccc(-c4c5nc(c(-c6c(F)cccc6F)c6ccc([nH]6)c(-c6c(F)cccc6F)c6nc(c(-c7c(F)cccc7F)c7ccc4[nH]7)C=C6)C=C5)cc2)C(=O)CO3)CC1
REMARK SMILES IDX 22 1 21 2 20 3 19 4 18 5 16 6 17 7 15 8 14 9 8 10 9 11 13 12
REMARK SMILES IDX 10 13 12 14 11 15 87 16 84 17 86 18 85 19 6 20 1 21 2 22
REMARK SMILES IDX 3 23 89 24 4 26 88 27 5 28 7 29 23 30 24 31 25 32 26 33
REMARK SMILES IDX 27 34 28 35 29 36 30 37 31 38 83 39 32 40 82 41 33 42 34 43
REMARK SMILES IDX 35 44 76 45 36 46 81 47 75 48 77 49 37 50 80 51 74 52 73 53
REMARK SMILES IDX 38 55 64 56 47 57 63 58 48 59 51 60 62 61 78 62 49 63 50 64
REMARK SMILES IDX 61 66 79 67 52 68 39 69 40 70 45 71 41 72 42 73 44 74 46 75
REMARK SMILES IDX 43 76 65 77 66 78 71 79 67 80 68 81 70 82 72 83 69 84 53 85
REMARK SMILES IDX 54 86 59 87 55 88 56 89 58 90 60 91 57 92
REMARK H PARENT 2 25 77 54 51 65
REMARK Flexibility Score: inf
ROOT
ATOM      1  C   UNL A   1      30.437  27.649  22.394  1.00  0.00     0.188 C 
ENDROOT
BRANCH   1   2
ATOM      2  O   UNL A   1      30.300  26.339  22.882  1.00  0.00    -0.376 OA
BRANCH   2   3
ATOM      3  C   UNL A   1      31.206  25.363  22.363  1.00  0.00     0.202 C 
BRANCH   3   4
ATOM      4  C   UNL A   1      32.218  25.814  21.274  1.00  0.00     0.261 C 
BRANCH   4   5
ATOM      5  O   UNL A   1      33.648  25.827  21.645  1.00  0.00    -0.462 OA
BRANCH   5   6
ATOM      6  C   UNL A   1      33.990  26.674  22.669  1.00  0.00     0.326 C 
ATOM      7  O   UNL A   1      34.032  27.899  22.519  1.00  0.00    -0.250 OA
BRANCH   6   8
ATOM      8  C   UNL A   1      34.262  26.069  24.115  1.00  0.00     0.248 C 
BRANCH   8   9
ATOM      9  N   UNL A   1      33.343  25.525  25.125  1.00  0.00    -0.295 N 
ATOM     10  C   UNL A   1      33.559  21.620  25.338  1.00  0.00     0.042 A 
ATOM     11  C   UNL A   1      32.655  21.458  26.386  1.00  0.00     0.018 A 
ATOM     12  C   UNL A   1      33.440  22.940  24.728  1.00  0.00     0.044 A 
ATOM     13  C   UNL A   1      31.891  22.550  26.881  1.00  0.00     0.049 A 
ATOM     14  C   UNL A   1      32.930  24.124  25.363  1.00  0.00     0.087 A 
ATOM     15  C   UNL A   1      32.076  23.869  26.426  1.00  0.00     0.143 A 
ATOM     16  O   UNL A   1      31.403  24.837  27.123  1.00  0.00    -0.482 OA
ATOM     17  C   UNL A   1      32.692  26.544  25.828  1.00  0.00     0.265 C 
ATOM     18  C   UNL A   1      31.413  26.114  26.510  1.00  0.00     0.330 C 
ATOM     19  O   UNL A   1      33.043  27.723  25.789  1.00  0.00    -0.270 OA
BRANCH  10  20
ATOM     20  C   UNL A   1      34.349  20.297  24.851  1.00  0.00     0.254 C 
ATOM     21  C   UNL A   1      32.652  15.022  25.670  1.00  0.00     0.332 C 
ATOM     22  N   UNL A   1      33.094  16.014  24.663  1.00  0.00    -0.334 N 
ATOM     23  C   UNL A   1      34.471  16.483  24.932  1.00  0.00     0.283 C 
ATOM     24  C   UNL A   1      32.141  17.134  24.614  1.00  0.00     0.283 C 
ATOM     25  H   UNL A   1      33.110  15.564  23.748  1.00  0.00     0.347 HD
ATOM     26  C   UNL A   1      34.922  17.854  24.252  1.00  0.00     0.181 C 
ATOM     27  C   UNL A   1      32.638  18.377  23.795  1.00  0.00     0.181 C 
ATOM     28  N   UNL A   1      33.906  18.964  24.330  1.00  0.00    -0.327 N 
ATOM     29  O   UNL A   1      35.578  20.465  24.942  1.00  0.00    -0.269 OA
ENDBRANCH  10  20
ENDBRANCH   8   9
ENDBRANCH   6   8
ENDBRANCH   5   6
ENDBRANCH   4   5
ENDBRANCH   3   4
ENDBRANCH   2   3
ENDBRANCH   1   2
BRANCH   1  30
ATOM     30  C   UNL A   1      29.368  28.625  22.800  1.00  0.00     0.188 C 
BRANCH  30  31
ATOM     31  O   UNL A   1      29.604  29.793  23.538  1.00  0.00    -0.376 OA
BRANCH  31  32
ATOM     32  C   UNL A   1      30.830  29.618  24.250  1.00  0.00     0.202 C 
BRANCH  32  33
ATOM     33  C   UNL A   1      31.236  30.619  25.388  1.00  0.00     0.261 C 
BRANCH  33  34
ATOM     34  O   UNL A   1      32.630  30.817  26.052  1.00  0.00    -0.460 OA
BRANCH  34  35
ATOM     35  C   UNL A   1      33.127  31.563  27.101  1.00  0.00     0.338 C 
ATOM     36  O   UNL A   1      32.702  32.661  27.445  1.00  0.00    -0.246 OA
BRANCH  35  37
ATOM     37  C   UNL A   1      34.407  31.120  27.795  1.00  0.00     0.060 A 
ATOM     38  C   UNL A   1      35.383  32.070  28.122  1.00  0.00     0.016 A 
ATOM     39  C   UNL A   1      34.771  29.803  27.990  1.00  0.00     0.016 A 
ATOM     40  C   UNL A   1      36.661  31.683  28.564  1.00  0.00     0.010 A 
ATOM     41  C   UNL A   1      35.999  29.384  28.499  1.00  0.00     0.010 A 
ATOM     42  C   UNL A   1      36.954  30.331  28.825  1.00  0.00    -0.014 A 
BRANCH  42  43
ATOM     43  C   UNL A   1      38.050  29.933  29.743  1.00  0.00     0.031 A 
ATOM     44  C   UNL A   1      38.173  30.433  31.158  1.00  0.00     0.074 A 
ATOM     45  C   UNL A   1      39.070  29.273  29.156  1.00  0.00     0.049 A 
ATOM     46  N   UNL A   1      39.125  30.204  32.027  1.00  0.00    -0.248 NA
ATOM     47  C   UNL A   1      37.142  31.365  31.641  1.00  0.00     0.031 C 
ATOM     48  C   UNL A   1      39.148  28.969  27.720  1.00  0.00     0.029 A 
ATOM     49  N   UNL A   1      40.225  28.744  29.658  1.00  0.00    -0.354 N 
ATOM     50  C   UNL A   1      38.836  30.992  33.137  1.00  0.00     0.074 A 
ATOM     51  C   UNL A   1      37.635  31.733  32.818  1.00  0.00     0.031 C 
ATOM     52  C   UNL A   1      40.226  28.222  27.476  1.00  0.00     0.029 A 
ATOM     53  C   UNL A   1      40.951  28.047  28.721  1.00  0.00     0.049 A 
ATOM     54  H   UNL A   1      40.510  28.852  30.594  1.00  0.00     0.167 HD
ATOM     55  C   UNL A   1      39.518  31.071  34.309  1.00  0.00     0.037 A 
ATOM     56  C   UNL A   1      42.072  27.322  28.853  1.00  0.00     0.037 A 
ATOM     57  C   UNL A   1      40.691  30.273  34.587  1.00  0.00     0.049 A 
ATOM     58  C   UNL A   1      42.672  27.238  30.215  1.00  0.00     0.074 A 
ATOM     59  C   UNL A   1      41.399  30.146  35.770  1.00  0.00     0.029 A 
ATOM     60  N   UNL A   1      41.325  29.459  33.655  1.00  0.00    -0.354 N 
ATOM     61  N   UNL A   1      42.316  27.883  31.302  1.00  0.00    -0.248 NA
ATOM     62  C   UNL A   1      43.805  26.328  30.385  1.00  0.00     0.031 C 
ATOM     63  C   UNL A   1      42.470  29.271  35.546  1.00  0.00     0.029 A 
ATOM     64  C   UNL A   1      42.408  28.821  34.237  1.00  0.00     0.049 A 
ATOM     65  H   UNL A   1      41.044  29.350  32.718  1.00  0.00     0.167 HD
ATOM     66  C   UNL A   1      43.186  27.463  32.291  1.00  0.00     0.074 A 
ATOM     67  C   UNL A   1      44.059  26.476  31.678  1.00  0.00     0.031 C 
ATOM     68  C   UNL A   1      43.266  27.865  33.582  1.00  0.00     0.037 A 
BRANCH  55  69
ATOM     69  C   UNL A   1      39.016  32.006  35.383  1.00  0.00     0.057 A 
ATOM     70  C   UNL A   1      38.203  31.564  36.435  1.00  0.00     0.134 A 
ATOM     71  C   UNL A   1      39.413  33.353  35.414  1.00  0.00     0.134 A 
ATOM     72  F   UNL A   1      37.784  30.290  36.481  1.00  0.00    -0.206 F 
ATOM     73  C   UNL A   1      37.784  32.422  37.457  1.00  0.00     0.040 A 
ATOM     74  C   UNL A   1      39.024  34.214  36.446  1.00  0.00     0.040 A 
ATOM     75  F   UNL A   1      40.202  33.855  34.453  1.00  0.00    -0.206 F 
ATOM     76  C   UNL A   1      38.202  33.750  37.470  1.00  0.00     0.006 A 
ENDBRANCH  55  69
BRANCH  56  77
ATOM     77  C   UNL A   1      42.574  26.556  27.686  1.00  0.00     0.057 A 
ATOM     78  C   UNL A   1      42.077  25.277  27.412  1.00  0.00     0.134 A 
ATOM     79  C   UNL A   1      43.428  27.134  26.738  1.00  0.00     0.134 A 
ATOM     80  F   UNL A   1      41.246  24.677  28.276  1.00  0.00    -0.206 F 
ATOM     81  C   UNL A   1      42.407  24.601  26.237  1.00  0.00     0.040 A 
ATOM     82  C   UNL A   1      43.746  26.479  25.546  1.00  0.00     0.040 A 
ATOM     83  F   UNL A   1      43.900  28.376  26.921  1.00  0.00    -0.206 F 
ATOM     84  C   UNL A   1      43.234  25.208  25.294  1.00  0.00     0.006 A 
ENDBRANCH  56  77
BRANCH  68  85
ATOM     85  C   UNL A   1      44.351  27.228  34.390  1.00  0.00     0.057 A 
ATOM     86  C   UNL A   1      45.618  27.814  34.499  1.00  0.00     0.134 A 
ATOM     87  C   UNL A   1      44.129  26.015  35.048  1.00  0.00     0.134 A 
ATOM     88  F   UNL A   1      45.889  28.970  33.871  1.00  0.00    -0.206 F 
ATOM     89  C   UNL A   1      46.643  27.193  35.208  1.00  0.00     0.040 A 
ATOM     90  C   UNL A   1      45.140  25.397  35.782  1.00  0.00     0.040 A 
ATOM     91  F   UNL A   1      42.933  25.411  34.981  1.00  0.00    -0.206 F 
ATOM     92  C   UNL A   1      46.403  25.981  35.854  1.00  0.00     0.006 A 
ENDBRANCH  68  85
ENDBRANCH  42  43
ENDBRANCH  35  37
ENDBRANCH  34  35
ENDBRANCH  33  34
ENDBRANCH  32  33
ENDBRANCH  31  32
ENDBRANCH  30  31
ENDBRANCH   1  30
TORSDOF 19
ENDMDL
MODEL 3
REMARK VINA RESULT:     -11.2      4.727     10.414
REMARK SMILES C[NH+]1CCN(C(=O)c2ccc3c(c2)N(CC(=O)OCCOCCOCCOC(=O)c2ccc(-c4c5nc(c(-c6c(F)cccc6F)c6ccc([nH]6)c(-c6c(F)cccc6F)c6nc(c(-c7c(F)cccc7F)c7ccc4[nH]7)C=C6)C=C5)cc2)C(=O)CO3)CC1
REMARK SMILES IDX 22 1 21 2 20 3 19 4 18 5 16 6 17 7 15 8 14 9 8 10 9 11 13 12
REMARK SMILES IDX 10 13 12 14 11 15 87 16 84 17 86 18 85 19 6 20 1 21 2 22
REMARK SMILES IDX 3 23 89 24 4 26 88 27 5 28 7 29 23 30 24 31 25 32 26 33
REMARK SMILES IDX 27 34 28 35 29 36 30 37 31 38 83 39 32 40 82 41 33 42 34 43
REMARK SMILES IDX 35 44 76 45 36 46 81 47 75 48 77 49 37 50 80 51 74 52 73 53
REMARK SMILES IDX 38 55 64 56 47 57 63 58 48 59 51 60 62 61 78 62 49 63 50 64
REMARK SMILES IDX 61 66 79 67 52 68 39 69 40 70 45 71 41 72 42 73 44 74 46 75
REMARK SMILES IDX 43 76 65 77 66 78 71 79 67 80 68 81 70 82 72 83 69 84 53 85
REMARK SMILES IDX 54 86 59 87 55 88 56 89 58 90 60 91 57 92
REMARK H PARENT 2 25 77 54 51 65
REMARK Flexibility Score: inf
ROOT
ATOM      1  C   UNL A   1      34.932  33.821  29.254  1.00  0.00     0.188 C 
ENDROOT
BRANCH   1   2
ATOM      2  O   UNL A   1      34.545  32.751  28.429  1.00  0.00    -0.376 OA
BRANCH   2   3
ATOM      3  C   UNL A   1      35.572  31.839  28.036  1.00  0.00     0.202 C 
BRANCH   3   4
ATOM      4  C   UNL A   1      35.441  30.356  28.479  1.00  0.00     0.261 C 
BRANCH   4   5
ATOM      5  O   UNL A   1      35.189  29.354  27.422  1.00  0.00    -0.462 OA
BRANCH   5   6
ATOM      6  C   UNL A   1      33.875  29.171  27.077  1.00  0.00     0.326 C 
ATOM      7  O   UNL A   1      33.183  28.282  27.582  1.00  0.00    -0.250 OA
BRANCH   6   8
ATOM      8  C   UNL A   1      33.196  30.183  26.054  1.00  0.00     0.248 C 
BRANCH   8   9
ATOM      9  N   UNL A   1      31.982  30.061  25.233  1.00  0.00    -0.295 N 
ATOM     10  C   UNL A   1      32.108  26.910  22.910  1.00  0.00     0.042 A 
ATOM     11  C   UNL A   1      30.838  27.058  22.356  1.00  0.00     0.018 A 
ATOM     12  C   UNL A   1      32.558  28.140  23.552  1.00  0.00     0.044 A 
ATOM     13  C   UNL A   1      30.053  28.218  22.602  1.00  0.00     0.049 A 
ATOM     14  C   UNL A   1      31.717  29.182  24.073  1.00  0.00     0.087 A 
ATOM     15  C   UNL A   1      30.455  29.227  23.498  1.00  0.00     0.143 A 
ATOM     16  O   UNL A   1      29.517  30.186  23.772  1.00  0.00    -0.482 OA
ATOM     17  C   UNL A   1      31.042  31.043  25.559  1.00  0.00     0.265 C 
ATOM     18  C   UNL A   1      30.015  31.307  24.480  1.00  0.00     0.330 C 
ATOM     19  O   UNL A   1      31.114  31.740  26.571  1.00  0.00    -0.270 OA
BRANCH  10  20
ATOM     20  C   UNL A   1      32.909  25.557  22.535  1.00  0.00     0.254 C 
ATOM     21  C   UNL A   1      35.245  22.046  26.221  1.00  0.00     0.332 C 
ATOM     22  N   UNL A   1      34.314  22.162  25.075  1.00  0.00    -0.334 N 
ATOM     23  C   UNL A   1      35.004  22.657  23.864  1.00  0.00     0.283 C 
ATOM     24  C   UNL A   1      33.178  23.023  25.441  1.00  0.00     0.283 C 
ATOM     25  H   UNL A   1      33.957  21.234  24.851  1.00  0.00     0.347 HD
ATOM     26  C   UNL A   1      34.096  23.273  22.706  1.00  0.00     0.181 C 
ATOM     27  C   UNL A   1      32.270  23.451  24.234  1.00  0.00     0.181 C 
ATOM     28  N   UNL A   1      33.014  24.208  23.180  1.00  0.00    -0.327 N 
ATOM     29  O   UNL A   1      33.556  25.711  21.485  1.00  0.00    -0.269 OA
ENDBRANCH  10  20
ENDBRANCH   8   9
ENDBRANCH   6   8
ENDBRANCH   5   6
ENDBRANCH   4   5
ENDBRANCH   3   4
ENDBRANCH   2   3
ENDBRANCH   1   2
BRANCH   1  30
ATOM     30  C   UNL A   1      33.827  34.707  29.757  1.00  0.00     0.188 C 
BRANCH  30  31
ATOM     31  O   UNL A   1      33.251  34.605  31.030  1.00  0.00    -0.376 OA
BRANCH  31  32
ATOM     32  C   UNL A   1      34.054  35.364  31.935  1.00  0.00     0.202 C 
BRANCH  32  33
ATOM     33  C   UNL A   1      35.061  34.643  32.898  1.00  0.00     0.261 C 
BRANCH  33  34
ATOM     34  O   UNL A   1      35.576  33.175  32.841  1.00  0.00    -0.460 OA
BRANCH  34  35
ATOM     35  C   UNL A   1      36.577  32.454  33.458  1.00  0.00     0.338 C 
ATOM     36  O   UNL A   1      36.744  32.381  34.671  1.00  0.00    -0.246 OA
BRANCH  35  37
ATOM     37  C   UNL A   1      37.686  31.839  32.616  1.00  0.00     0.060 A 
ATOM     38  C   UNL A   1      37.566  31.814  31.222  1.00  0.00     0.016 A 
ATOM     39  C   UNL A   1      38.757  31.140  33.133  1.00  0.00     0.016 A 
ATOM     40  C   UNL A   1      38.455  31.072  30.424  1.00  0.00     0.010 A 
ATOM     41  C   UNL A   1      39.704  30.457  32.370  1.00  0.00     0.010 A 
ATOM     42  C   UNL A   1      39.579  30.443  30.992  1.00  0.00    -0.014 A 
BRANCH  42  43
ATOM     43  C   UNL A   1      40.777  30.106  30.184  1.00  0.00     0.031 A 
ATOM     44  C   UNL A   1      41.844  31.105  29.822  1.00  0.00     0.074 A 
ATOM     45  C   UNL A   1      40.737  28.896  29.588  1.00  0.00     0.049 A 
ATOM     46  N   UNL A   1      42.899  30.937  29.065  1.00  0.00    -0.248 NA
ATOM     47  C   UNL A   1      41.676  32.484  30.305  1.00  0.00     0.031 C 
ATOM     48  C   UNL A   1      39.609  27.960  29.682  1.00  0.00     0.029 A 
ATOM     49  N   UNL A   1      41.633  28.239  28.793  1.00  0.00    -0.354 N 
ATOM     50  C   UNL A   1      43.495  32.189  28.945  1.00  0.00     0.074 A 
ATOM     51  C   UNL A   1      42.662  33.116  29.679  1.00  0.00     0.031 C 
ATOM     52  C   UNL A   1      39.921  26.817  29.068  1.00  0.00     0.029 A 
ATOM     53  C   UNL A   1      41.240  26.958  28.482  1.00  0.00     0.049 A 
ATOM     54  H   UNL A   1      42.474  28.641  28.475  1.00  0.00     0.167 HD
ATOM     55  C   UNL A   1      44.635  32.515  28.281  1.00  0.00     0.037 A 
ATOM     56  C   UNL A   1      41.885  25.990  27.814  1.00  0.00     0.037 A 
ATOM     57  C   UNL A   1      45.449  31.535  27.598  1.00  0.00     0.049 A 
ATOM     58  C   UNL A   1      43.246  26.310  27.295  1.00  0.00     0.074 A 
ATOM     59  C   UNL A   1      46.691  31.693  27.007  1.00  0.00     0.029 A 
ATOM     60  N   UNL A   1      45.092  30.203  27.422  1.00  0.00    -0.354 N 
ATOM     61  N   UNL A   1      43.866  27.466  27.299  1.00  0.00    -0.248 NA
ATOM     62  C   UNL A   1      44.003  25.209  26.700  1.00  0.00     0.031 C 
ATOM     63  C   UNL A   1      47.073  30.463  26.458  1.00  0.00     0.029 A 
ATOM     64  C   UNL A   1      46.090  29.527  26.740  1.00  0.00     0.049 A 
ATOM     65  H   UNL A   1      44.251  29.798  27.737  1.00  0.00     0.167 HD
ATOM     66  C   UNL A   1      45.092  27.239  26.701  1.00  0.00     0.074 A 
ATOM     67  C   UNL A   1      45.137  25.821  26.385  1.00  0.00     0.031 C 
ATOM     68  C   UNL A   1      46.082  28.120  26.424  1.00  0.00     0.037 A 
BRANCH  55  69
ATOM     69  C   UNL A   1      45.093  33.953  28.283  1.00  0.00     0.057 A 
ATOM     70  C   UNL A   1      46.017  34.439  29.218  1.00  0.00     0.134 A 
ATOM     71  C   UNL A   1      44.668  34.849  27.290  1.00  0.00     0.134 A 
ATOM     72  F   UNL A   1      46.477  33.644  30.196  1.00  0.00    -0.206 F 
ATOM     73  C   UNL A   1      46.481  35.759  29.183  1.00  0.00     0.040 A 
ATOM     74  C   UNL A   1      45.146  36.164  27.227  1.00  0.00     0.040 A 
ATOM     75  F   UNL A   1      43.795  34.462  26.348  1.00  0.00    -0.206 F 
ATOM     76  C   UNL A   1      46.052  36.624  28.180  1.00  0.00     0.006 A 
ENDBRANCH  55  69
BRANCH  56  77
ATOM     77  C   UNL A   1      41.273  24.642  27.736  1.00  0.00     0.057 A 
ATOM     78  C   UNL A   1      40.310  24.357  26.762  1.00  0.00     0.134 A 
ATOM     79  C   UNL A   1      41.740  23.574  28.514  1.00  0.00     0.134 A 
ATOM     80  F   UNL A   1      39.833  25.335  25.979  1.00  0.00    -0.206 F 
ATOM     81  C   UNL A   1      39.835  23.060  26.559  1.00  0.00     0.040 A 
ATOM     82  C   UNL A   1      41.293  22.268  28.305  1.00  0.00     0.040 A 
ATOM     83  F   UNL A   1      42.696  23.775  29.433  1.00  0.00    -0.206 F 
ATOM     84  C   UNL A   1      40.337  22.008  27.325  1.00  0.00     0.006 A 
ENDBRANCH  56  77
BRANCH  68  85
ATOM     85  C   UNL A   1      47.280  27.550  25.736  1.00  0.00     0.057 A 
ATOM     86  C   UNL A   1      47.392  27.557  24.340  1.00  0.00     0.134 A 
ATOM     87  C   UNL A   1      48.319  26.976  26.476  1.00  0.00     0.134 A 
ATOM     88  F   UNL A   1      46.414  28.078  23.582  1.00  0.00    -0.206 F 
ATOM     89  C   UNL A   1      48.484  26.977  23.700  1.00  0.00     0.040 A 
ATOM     90  C   UNL A   1      49.430  26.416  25.846  1.00  0.00     0.040 A 
ATOM     91  F   UNL A   1      48.267  26.945  27.816  1.00  0.00    -0.206 F 
ATOM     92  C   UNL A   1      49.508  26.407  24.454  1.00  0.00     0.006 A 
ENDBRANCH  68  85
ENDBRANCH  42  43
ENDBRANCH  35  37
ENDBRANCH  34  35
ENDBRANCH  33  34
ENDBRANCH  32  33
ENDBRANCH  31  32
ENDBRANCH  30  31
ENDBRANCH   1  30
TORSDOF 19
ENDMDL
