MODEL 1
REMARK VINA RESULT:     -11.8      0.000      0.000
REMARK SMILES COc1cccc2c(C)cc(S[C@H](C)C(=O)Nc3ccc(C(=O)OCCOCCOCCOC(=O)c4ccc(-c5c6nc(c(-c7c(F)cccc7F)c7ccc([nH]7)c(-c7c(F)cccc7F)c7nc(c(-c8c(F)cccc8F)c8ccc5[nH]8)C=C7)C=C6)cc4)cc3)nc12
REMARK SMILES IDX 27 1 26 2 25 3 24 4 22 5 23 6 21 7 18 8 19 9 91 10 20 11
REMARK SMILES IDX 90 12 17 13 15 14 16 15 13 17 14 18 12 19 11 20 3 21 4 22
REMARK SMILES IDX 93 23 5 24 7 25 92 26 6 27 8 28 9 29 10 30 2 31 1 32 28 33
REMARK SMILES IDX 29 34 30 35 31 36 32 37 33 38 34 39 35 40 36 41 37 42 89 43
REMARK SMILES IDX 38 44 88 45 39 46 40 47 41 48 82 49 42 50 87 51 81 52 83 53
REMARK SMILES IDX 43 54 86 55 80 56 79 57 44 59 70 60 53 61 69 62 54 63 57 64
REMARK SMILES IDX 68 65 84 66 55 67 56 68 67 70 85 71 58 72 45 73 46 74 51 75
REMARK SMILES IDX 47 76 48 77 50 78 52 79 49 80 71 81 72 82 77 83 73 84 74 85
REMARK SMILES IDX 76 86 78 87 75 88 59 89 60 90 65 91 61 92 62 93 64 94 66 95
REMARK SMILES IDX 63 96
REMARK H PARENT 17 16 83 58 57 69
REMARK Flexibility Score: inf
ROOT
ATOM      1  O   UNL A   1      41.838  19.157  25.699  1.00  0.00    -0.376 OA
ENDROOT
BRANCH   1   2
ATOM      2  C   UNL A   1      41.309  20.056  26.670  1.00  0.00     0.202 C 
BRANCH   2   3
ATOM      3  C   UNL A   1      40.713  21.397  26.225  1.00  0.00     0.261 C 
BRANCH   3   4
ATOM      4  O   UNL A   1      39.319  21.327  25.905  1.00  0.00    -0.460 OA
BRANCH   4   5
ATOM      5  C   UNL A   1      38.616  22.471  26.103  1.00  0.00     0.338 C 
ATOM      6  O   UNL A   1      38.991  23.482  26.657  1.00  0.00    -0.246 OA
BRANCH   5   7
ATOM      7  C   UNL A   1      37.350  22.383  25.342  1.00  0.00     0.060 A 
ATOM      8  C   UNL A   1      34.968  22.347  23.938  1.00  0.00     0.041 A 
ATOM      9  C   UNL A   1      35.863  23.393  23.725  1.00  0.00     0.027 A 
ATOM     10  C   UNL A   1      35.324  21.249  24.716  1.00  0.00     0.027 A 
ATOM     11  C   UNL A   1      37.040  23.432  24.464  1.00  0.00     0.018 A 
ATOM     12  C   UNL A   1      36.516  21.266  25.431  1.00  0.00     0.018 A 
BRANCH   8  13
ATOM     13  N   UNL A   1      33.690  22.439  23.406  1.00  0.00    -0.325 N 
ATOM     14  C   UNL A   1      32.532  22.687  24.087  1.00  0.00     0.237 C 
ATOM     15  O   UNL A   1      31.486  22.668  23.422  1.00  0.00    -0.273 OA
ATOM     16  H   UNL A   1      33.608  22.310  22.432  1.00  0.00     0.169 HD
BRANCH  14  17
ATOM     17  C   UNL A   1      32.457  23.063  25.575  1.00  0.00     0.139 C 
ATOM     18  C   UNL A   1      32.557  21.849  26.498  1.00  0.00     0.030 C 
BRANCH  17  19
ATOM     19  S   UNL A   1      33.550  24.402  26.212  1.00  0.00    -0.093 SA
BRANCH  19  20
ATOM     20  C   UNL A   1      32.887  25.983  25.732  1.00  0.00     0.098 A 
ATOM     21  C   UNL A   1      31.147  27.127  22.709  1.00  0.00     0.145 A 
ATOM     22  C   UNL A   1      30.481  28.266  22.229  1.00  0.00     0.049 A 
ATOM     23  C   UNL A   1      31.660  27.064  24.023  1.00  0.00     0.114 A 
ATOM     24  C   UNL A   1      30.264  29.352  23.058  1.00  0.00     0.005 A 
ATOM     25  C   UNL A   1      31.477  28.203  24.844  1.00  0.00     0.007 A 
ATOM     26  N   UNL A   1      32.314  25.976  24.504  1.00  0.00    -0.238 NA
ATOM     27  C   UNL A   1      30.756  29.318  24.356  1.00  0.00     0.011 A 
ATOM     28  C   UNL A   1      32.063  28.198  26.128  1.00  0.00    -0.039 A 
ATOM     29  C   UNL A   1      31.877  29.324  27.111  1.00  0.00     0.045 C 
ATOM     30  C   UNL A   1      32.853  27.113  26.516  1.00  0.00     0.039 A 
BRANCH  21  31
ATOM     31  O   UNL A   1      31.299  26.167  21.731  1.00  0.00    -0.494 OA
ATOM     32  C   UNL A   1      32.576  26.115  21.108  1.00  0.00     0.278 C 
ENDBRANCH  21  31
ENDBRANCH  19  20
ENDBRANCH  17  19
ENDBRANCH  14  17
ENDBRANCH   8  13
ENDBRANCH   5   7
ENDBRANCH   4   5
ENDBRANCH   3   4
ENDBRANCH   2   3
ENDBRANCH   1   2
BRANCH   1  33
ATOM     33  C   UNL A   1      43.029  18.430  25.974  1.00  0.00     0.188 C 
BRANCH  33  34
ATOM     34  C   UNL A   1      44.337  18.771  25.227  1.00  0.00     0.188 C 
BRANCH  34  35
ATOM     35  O   UNL A   1      44.227  19.818  24.298  1.00  0.00    -0.376 OA
BRANCH  35  36
ATOM     36  C   UNL A   1      44.635  21.126  24.658  1.00  0.00     0.202 C 
BRANCH  36  37
ATOM     37  C   UNL A   1      44.165  22.423  23.966  1.00  0.00     0.261 C 
BRANCH  37  38
ATOM     38  O   UNL A   1      43.551  23.440  24.762  1.00  0.00    -0.460 OA
BRANCH  38  39
ATOM     39  C   UNL A   1      44.325  24.499  25.095  1.00  0.00     0.338 C 
ATOM     40  O   UNL A   1      45.406  24.803  24.624  1.00  0.00    -0.246 OA
BRANCH  39  41
ATOM     41  C   UNL A   1      43.561  25.358  26.023  1.00  0.00     0.060 A 
ATOM     42  C   UNL A   1      43.863  26.724  26.076  1.00  0.00     0.016 A 
ATOM     43  C   UNL A   1      42.581  24.814  26.856  1.00  0.00     0.016 A 
ATOM     44  C   UNL A   1      43.205  27.549  26.989  1.00  0.00     0.010 A 
ATOM     45  C   UNL A   1      41.936  25.638  27.783  1.00  0.00     0.010 A 
ATOM     46  C   UNL A   1      42.268  27.001  27.876  1.00  0.00    -0.014 A 
BRANCH  46  47
ATOM     47  C   UNL A   1      41.770  27.813  29.014  1.00  0.00     0.031 A 
ATOM     48  C   UNL A   1      42.475  27.704  30.338  1.00  0.00     0.074 A 
ATOM     49  C   UNL A   1      40.722  28.644  28.876  1.00  0.00     0.049 A 
ATOM     50  N   UNL A   1      42.201  28.284  31.478  1.00  0.00    -0.248 NA
ATOM     51  C   UNL A   1      43.649  26.817  30.380  1.00  0.00     0.031 C 
ATOM     52  C   UNL A   1      39.972  28.862  27.642  1.00  0.00     0.029 A 
ATOM     53  N   UNL A   1      40.101  29.449  29.798  1.00  0.00    -0.354 N 
ATOM     54  C   UNL A   1      43.158  27.826  32.374  1.00  0.00     0.074 A 
ATOM     55  C   UNL A   1      44.005  26.900  31.653  1.00  0.00     0.031 C 
ATOM     56  C   UNL A   1      38.977  29.734  27.888  1.00  0.00     0.029 A 
ATOM     57  C   UNL A   1      39.004  30.110  29.300  1.00  0.00     0.049 A 
ATOM     58  H   UNL A   1      40.412  29.545  30.727  1.00  0.00     0.167 HD
ATOM     59  C   UNL A   1      43.324  28.151  33.678  1.00  0.00     0.037 A 
ATOM     60  C   UNL A   1      38.112  30.905  29.922  1.00  0.00     0.037 A 
ATOM     61  C   UNL A   1      42.480  29.068  34.397  1.00  0.00     0.049 A 
ATOM     62  C   UNL A   1      38.277  31.203  31.390  1.00  0.00     0.074 A 
ATOM     63  C   UNL A   1      42.584  29.486  35.712  1.00  0.00     0.029 A 
ATOM     64  N   UNL A   1      41.366  29.700  33.864  1.00  0.00    -0.354 N 
ATOM     65  N   UNL A   1      39.210  30.799  32.218  1.00  0.00    -0.248 NA
ATOM     66  C   UNL A   1      37.265  32.074  32.008  1.00  0.00     0.031 C 
ATOM     67  C   UNL A   1      41.503  30.328  35.990  1.00  0.00     0.029 A 
ATOM     68  C   UNL A   1      40.758  30.481  34.833  1.00  0.00     0.049 A 
ATOM     69  H   UNL A   1      41.054  29.607  32.935  1.00  0.00     0.167 HD
ATOM     70  C   UNL A   1      38.915  31.387  33.444  1.00  0.00     0.074 A 
ATOM     71  C   UNL A   1      37.723  32.185  33.247  1.00  0.00     0.031 C 
ATOM     72  C   UNL A   1      39.574  31.277  34.624  1.00  0.00     0.037 A 
BRANCH  59  73
ATOM     73  C   UNL A   1      44.445  27.482  34.418  1.00  0.00     0.057 A 
ATOM     74  C   UNL A   1      45.730  28.036  34.480  1.00  0.00     0.134 A 
ATOM     75  C   UNL A   1      44.230  26.274  35.092  1.00  0.00     0.134 A 
ATOM     76  F   UNL A   1      46.007  29.184  33.842  1.00  0.00    -0.206 F 
ATOM     77  C   UNL A   1      46.767  27.399  35.163  1.00  0.00     0.040 A 
ATOM     78  C   UNL A   1      45.251  25.641  35.802  1.00  0.00     0.040 A 
ATOM     79  F   UNL A   1      43.022  25.690  35.076  1.00  0.00    -0.206 F 
ATOM     80  C   UNL A   1      46.527  26.201  35.833  1.00  0.00     0.006 A 
ENDBRANCH  59  73
BRANCH  60  81
ATOM     81  C   UNL A   1      36.967  31.469  29.162  1.00  0.00     0.057 A 
ATOM     82  C   UNL A   1      36.967  32.798  28.726  1.00  0.00     0.134 A 
ATOM     83  C   UNL A   1      35.836  30.694  28.875  1.00  0.00     0.134 A 
ATOM     84  F   UNL A   1      38.010  33.597  28.992  1.00  0.00    -0.206 F 
ATOM     85  C   UNL A   1      35.877  33.342  28.042  1.00  0.00     0.040 A 
ATOM     86  C   UNL A   1      34.752  31.217  28.169  1.00  0.00     0.040 A 
ATOM     87  F   UNL A   1      35.775  29.414  29.269  1.00  0.00    -0.206 F 
ATOM     88  C   UNL A   1      34.768  32.548  27.757  1.00  0.00     0.006 A 
ENDBRANCH  60  81
BRANCH  72  89
ATOM     89  C   UNL A   1      39.047  32.069  35.788  1.00  0.00     0.057 A 
ATOM     90  C   UNL A   1      39.329  33.430  35.948  1.00  0.00     0.134 A 
ATOM     91  C   UNL A   1      38.210  31.466  36.737  1.00  0.00     0.134 A 
ATOM     92  F   UNL A   1      40.133  34.065  35.081  1.00  0.00    -0.206 F 
ATOM     93  C   UNL A   1      38.818  34.160  37.024  1.00  0.00     0.040 A 
ATOM     94  C   UNL A   1      37.670  32.190  37.801  1.00  0.00     0.040 A 
ATOM     95  F   UNL A   1      37.890  30.167  36.637  1.00  0.00    -0.206 F 
ATOM     96  C   UNL A   1      37.980  33.540  37.950  1.00  0.00     0.006 A 
ENDBRANCH  72  89
ENDBRANCH  46  47
ENDBRANCH  39  41
ENDBRANCH  38  39
ENDBRANCH  37  38
ENDBRANCH  36  37
ENDBRANCH  35  36
ENDBRANCH  34  35
ENDBRANCH  33  34
ENDBRANCH   1  33
TORSDOF 22
ENDMDL
MODEL 2
REMARK VINA RESULT:     -11.7      1.162      3.188
REMARK SMILES COc1cccc2c(C)cc(S[C@H](C)C(=O)Nc3ccc(C(=O)OCCOCCOCCOC(=O)c4ccc(-c5c6nc(c(-c7c(F)cccc7F)c7ccc([nH]7)c(-c7c(F)cccc7F)c7nc(c(-c8c(F)cccc8F)c8ccc5[nH]8)C=C7)C=C6)cc4)cc3)nc12
REMARK SMILES IDX 27 1 26 2 25 3 24 4 22 5 23 6 21 7 18 8 19 9 91 10 20 11
REMARK SMILES IDX 90 12 17 13 15 14 16 15 13 17 14 18 12 19 11 20 3 21 4 22
REMARK SMILES IDX 93 23 5 24 7 25 92 26 6 27 8 28 9 29 10 30 2 31 1 32 28 33
REMARK SMILES IDX 29 34 30 35 31 36 32 37 33 38 34 39 35 40 36 41 37 42 89 43
REMARK SMILES IDX 38 44 88 45 39 46 40 47 41 48 82 49 42 50 87 51 81 52 83 53
REMARK SMILES IDX 43 54 86 55 80 56 79 57 44 59 70 60 53 61 69 62 54 63 57 64
REMARK SMILES IDX 68 65 84 66 55 67 56 68 67 70 85 71 58 72 45 73 46 74 51 75
REMARK SMILES IDX 47 76 48 77 50 78 52 79 49 80 71 81 72 82 77 83 73 84 74 85
REMARK SMILES IDX 76 86 78 87 75 88 59 89 60 90 65 91 61 92 62 93 64 94 66 95
REMARK SMILES IDX 63 96
REMARK H PARENT 17 16 83 58 57 69
REMARK Flexibility Score: inf
ROOT
ATOM      1  O   UNL A   1      40.781  21.733  27.083  1.00  0.00    -0.376 OA
ENDROOT
BRANCH   1   2
ATOM      2  C   UNL A   1      39.539  22.398  26.871  1.00  0.00     0.202 C 
BRANCH   2   3
ATOM      3  C   UNL A   1      38.583  21.903  25.778  1.00  0.00     0.261 C 
BRANCH   3   4
ATOM      4  O   UNL A   1      37.377  22.668  25.682  1.00  0.00    -0.460 OA
BRANCH   4   5
ATOM      5  C   UNL A   1      36.491  22.245  24.745  1.00  0.00     0.338 C 
ATOM      6  O   UNL A   1      36.318  21.113  24.350  1.00  0.00    -0.246 OA
BRANCH   5   7
ATOM      7  C   UNL A   1      35.593  23.371  24.405  1.00  0.00     0.060 A 
ATOM      8  C   UNL A   1      33.964  25.473  23.647  1.00  0.00     0.041 A 
ATOM      9  C   UNL A   1      34.122  24.394  22.781  1.00  0.00     0.027 A 
ATOM     10  C   UNL A   1      34.478  25.433  24.941  1.00  0.00     0.027 A 
ATOM     11  C   UNL A   1      34.977  23.359  23.145  1.00  0.00     0.018 A 
ATOM     12  C   UNL A   1      35.304  24.384  25.323  1.00  0.00     0.018 A 
BRANCH   8  13
ATOM     13  N   UNL A   1      33.330  26.618  23.185  1.00  0.00    -0.325 N 
ATOM     14  C   UNL A   1      32.307  27.292  23.790  1.00  0.00     0.237 C 
ATOM     15  O   UNL A   1      31.845  28.263  23.172  1.00  0.00    -0.273 OA
ATOM     16  H   UNL A   1      33.651  26.983  22.328  1.00  0.00     0.169 HD
BRANCH  14  17
ATOM     17  C   UNL A   1      31.763  26.980  25.192  1.00  0.00     0.139 C 
ATOM     18  C   UNL A   1      31.354  28.235  25.962  1.00  0.00     0.030 C 
BRANCH  17  19
ATOM     19  S   UNL A   1      30.448  25.702  25.373  1.00  0.00    -0.093 SA
BRANCH  19  20
ATOM     20  C   UNL A   1      31.201  24.126  25.720  1.00  0.00     0.098 A 
ATOM     21  C   UNL A   1      32.046  21.258  23.591  1.00  0.00     0.145 A 
ATOM     22  C   UNL A   1      32.720  20.029  23.676  1.00  0.00     0.049 A 
ATOM     23  C   UNL A   1      31.985  22.150  24.684  1.00  0.00     0.114 A 
ATOM     24  C   UNL A   1      33.392  19.677  24.833  1.00  0.00     0.005 A 
ATOM     25  C   UNL A   1      32.632  21.753  25.880  1.00  0.00     0.007 A 
ATOM     26  N   UNL A   1      31.332  23.339  24.626  1.00  0.00    -0.238 NA
ATOM     27  C   UNL A   1      33.350  20.535  25.924  1.00  0.00     0.011 A 
ATOM     28  C   UNL A   1      32.505  22.586  27.012  1.00  0.00    -0.039 A 
ATOM     29  C   UNL A   1      33.206  22.300  28.314  1.00  0.00     0.045 C 
ATOM     30  C   UNL A   1      31.696  23.724  26.939  1.00  0.00     0.039 A 
BRANCH  21  31
ATOM     31  O   UNL A   1      31.409  21.415  22.379  1.00  0.00    -0.494 OA
ATOM     32  C   UNL A   1      31.801  20.513  21.352  1.00  0.00     0.278 C 
ENDBRANCH  21  31
ENDBRANCH  19  20
ENDBRANCH  17  19
ENDBRANCH  14  17
ENDBRANCH   8  13
ENDBRANCH   5   7
ENDBRANCH   4   5
ENDBRANCH   3   4
ENDBRANCH   2   3
ENDBRANCH   1   2
BRANCH   1  33
ATOM     33  C   UNL A   1      41.116  20.584  26.312  1.00  0.00     0.188 C 
BRANCH  33  34
ATOM     34  C   UNL A   1      42.504  19.925  26.465  1.00  0.00     0.188 C 
BRANCH  34  35
ATOM     35  O   UNL A   1      43.252  19.850  25.279  1.00  0.00    -0.376 OA
BRANCH  35  36
ATOM     36  C   UNL A   1      44.338  20.736  25.073  1.00  0.00     0.202 C 
BRANCH  36  37
ATOM     37  C   UNL A   1      44.239  22.110  24.377  1.00  0.00     0.261 C 
BRANCH  37  38
ATOM     38  O   UNL A   1      43.603  23.186  25.072  1.00  0.00    -0.460 OA
BRANCH  38  39
ATOM     39  C   UNL A   1      44.327  24.319  25.227  1.00  0.00     0.338 C 
ATOM     40  O   UNL A   1      45.344  24.635  24.635  1.00  0.00    -0.246 OA
BRANCH  39  41
ATOM     41  C   UNL A   1      43.582  25.226  26.124  1.00  0.00     0.060 A 
ATOM     42  C   UNL A   1      44.026  26.547  26.262  1.00  0.00     0.016 A 
ATOM     43  C   UNL A   1      42.478  24.768  26.846  1.00  0.00     0.016 A 
ATOM     44  C   UNL A   1      43.383  27.409  27.151  1.00  0.00     0.010 A 
ATOM     45  C   UNL A   1      41.848  25.627  27.750  1.00  0.00     0.010 A 
ATOM     46  C   UNL A   1      42.317  26.941  27.931  1.00  0.00    -0.014 A 
BRANCH  46  47
ATOM     47  C   UNL A   1      41.812  27.764  29.057  1.00  0.00     0.031 A 
ATOM     48  C   UNL A   1      42.516  27.677  30.384  1.00  0.00     0.074 A 
ATOM     49  C   UNL A   1      40.759  28.586  28.907  1.00  0.00     0.049 A 
ATOM     50  N   UNL A   1      42.235  28.270  31.516  1.00  0.00    -0.248 NA
ATOM     51  C   UNL A   1      43.695  26.799  30.439  1.00  0.00     0.031 C 
ATOM     52  C   UNL A   1      40.009  28.783  27.669  1.00  0.00     0.029 A 
ATOM     53  N   UNL A   1      40.131  29.399  29.817  1.00  0.00    -0.354 N 
ATOM     54  C   UNL A   1      43.194  27.831  32.419  1.00  0.00     0.074 A 
ATOM     55  C   UNL A   1      44.048  26.901  31.712  1.00  0.00     0.031 C 
ATOM     56  C   UNL A   1      39.008  29.651  27.901  1.00  0.00     0.029 A 
ATOM     57  C   UNL A   1      39.030  30.045  29.309  1.00  0.00     0.049 A 
ATOM     58  H   UNL A   1      40.439  29.509  30.746  1.00  0.00     0.167 HD
ATOM     59  C   UNL A   1      43.355  28.174  33.719  1.00  0.00     0.037 A 
ATOM     60  C   UNL A   1      38.132  30.843  29.919  1.00  0.00     0.037 A 
ATOM     61  C   UNL A   1      42.504  29.095  34.424  1.00  0.00     0.049 A 
ATOM     62  C   UNL A   1      38.292  31.161  31.383  1.00  0.00     0.074 A 
ATOM     63  C   UNL A   1      42.603  29.530  35.734  1.00  0.00     0.029 A 
ATOM     64  N   UNL A   1      41.387  29.711  33.881  1.00  0.00    -0.354 N 
ATOM     65  N   UNL A   1      39.226  30.775  32.218  1.00  0.00    -0.248 NA
ATOM     66  C   UNL A   1      37.273  32.033  31.988  1.00  0.00     0.031 C 
ATOM     67  C   UNL A   1      41.516  30.368  35.999  1.00  0.00     0.029 A 
ATOM     68  C   UNL A   1      40.772  30.502  34.839  1.00  0.00     0.049 A 
ATOM     69  H   UNL A   1      41.077  29.604  32.953  1.00  0.00     0.167 HD
ATOM     70  C   UNL A   1      38.925  31.376  33.435  1.00  0.00     0.074 A 
ATOM     71  C   UNL A   1      37.728  32.164  33.226  1.00  0.00     0.031 C 
ATOM     72  C   UNL A   1      39.582  31.286  34.618  1.00  0.00     0.037 A 
BRANCH  59  73
ATOM     73  C   UNL A   1      44.480  27.522  34.469  1.00  0.00     0.057 A 
ATOM     74  C   UNL A   1      44.350  26.254  35.050  1.00  0.00     0.134 A 
ATOM     75  C   UNL A   1      45.715  28.168  34.599  1.00  0.00     0.134 A 
ATOM     76  F   UNL A   1      43.187  25.588  34.976  1.00  0.00    -0.206 F 
ATOM     77  C   UNL A   1      45.400  25.663  35.753  1.00  0.00     0.040 A 
ATOM     78  C   UNL A   1      46.782  27.575  35.276  1.00  0.00     0.040 A 
ATOM     79  F   UNL A   1      45.909  29.384  34.065  1.00  0.00    -0.206 F 
ATOM     80  C   UNL A   1      46.624  26.322  35.862  1.00  0.00     0.006 A 
ENDBRANCH  59  73
BRANCH  60  81
ATOM     81  C   UNL A   1      36.984  31.389  29.150  1.00  0.00     0.057 A 
ATOM     82  C   UNL A   1      36.974  32.713  28.697  1.00  0.00     0.134 A 
ATOM     83  C   UNL A   1      35.860  30.602  28.869  1.00  0.00     0.134 A 
ATOM     84  F   UNL A   1      38.011  33.523  28.957  1.00  0.00    -0.206 F 
ATOM     85  C   UNL A   1      35.883  33.240  28.005  1.00  0.00     0.040 A 
ATOM     86  C   UNL A   1      34.773  31.108  28.155  1.00  0.00     0.040 A 
ATOM     87  F   UNL A   1      35.807  29.326  29.278  1.00  0.00    -0.206 F 
ATOM     88  C   UNL A   1      34.780  32.435  27.727  1.00  0.00     0.006 A 
ENDBRANCH  60  81
BRANCH  72  89
ATOM     89  C   UNL A   1      39.049  32.090  35.770  1.00  0.00     0.057 A 
ATOM     90  C   UNL A   1      38.206  31.531  36.738  1.00  0.00     0.134 A 
ATOM     91  C   UNL A   1      39.422  33.431  35.935  1.00  0.00     0.134 A 
ATOM     92  F   UNL A   1      37.802  30.256  36.634  1.00  0.00    -0.206 F 
ATOM     93  C   UNL A   1      37.733  32.284  37.816  1.00  0.00     0.040 A 
ATOM     94  C   UNL A   1      38.979  34.185  37.022  1.00  0.00     0.040 A 
ATOM     95  F   UNL A   1      40.237  34.025  35.050  1.00  0.00    -0.206 F 
ATOM     96  C   UNL A   1      38.126  33.613  37.963  1.00  0.00     0.006 A 
ENDBRANCH  72  89
ENDBRANCH  46  47
ENDBRANCH  39  41
ENDBRANCH  38  39
ENDBRANCH  37  38
ENDBRANCH  36  37
ENDBRANCH  35  36
ENDBRANCH  34  35
ENDBRANCH  33  34
ENDBRANCH   1  33
TORSDOF 22
ENDMDL
MODEL 3
REMARK VINA RESULT:     -11.5      1.229      2.116
REMARK SMILES COc1cccc2c(C)cc(S[C@H](C)C(=O)Nc3ccc(C(=O)OCCOCCOCCOC(=O)c4ccc(-c5c6nc(c(-c7c(F)cccc7F)c7ccc([nH]7)c(-c7c(F)cccc7F)c7nc(c(-c8c(F)cccc8F)c8ccc5[nH]8)C=C7)C=C6)cc4)cc3)nc12
REMARK SMILES IDX 27 1 26 2 25 3 24 4 22 5 23 6 21 7 18 8 19 9 91 10 20 11
REMARK SMILES IDX 90 12 17 13 15 14 16 15 13 17 14 18 12 19 11 20 3 21 4 22
REMARK SMILES IDX 93 23 5 24 7 25 92 26 6 27 8 28 9 29 10 30 2 31 1 32 28 33
REMARK SMILES IDX 29 34 30 35 31 36 32 37 33 38 34 39 35 40 36 41 37 42 89 43
REMARK SMILES IDX 38 44 88 45 39 46 40 47 41 48 82 49 42 50 87 51 81 52 83 53
REMARK SMILES IDX 43 54 86 55 80 56 79 57 44 59 70 60 53 61 69 62 54 63 57 64
REMARK SMILES IDX 68 65 84 66 55 67 56 68 67 70 85 71 58 72 45 73 46 74 51 75
REMARK SMILES IDX 47 76 48 77 50 78 52 79 49 80 71 81 72 82 77 83 73 84 74 85
REMARK SMILES IDX 76 86 78 87 75 88 59 89 60 90 65 91 61 92 62 93 64 94 66 95
REMARK SMILES IDX 63 96
REMARK H PARENT 17 16 83 58 57 69
REMARK Flexibility Score: inf
ROOT
ATOM      1  O   UNL A   1      41.371  19.260  25.769  1.00  0.00    -0.376 OA
ENDROOT
BRANCH   1   2
ATOM      2  C   UNL A   1      40.285  19.999  26.322  1.00  0.00     0.202 C 
BRANCH   2   3
ATOM      3  C   UNL A   1      40.052  21.452  25.890  1.00  0.00     0.261 C 
BRANCH   3   4
ATOM      4  O   UNL A   1      38.729  21.924  26.162  1.00  0.00    -0.460 OA
BRANCH   4   5
ATOM      5  C   UNL A   1      37.757  21.441  25.346  1.00  0.00     0.338 C 
ATOM      6  O   UNL A   1      37.833  20.503  24.582  1.00  0.00    -0.246 OA
BRANCH   5   7
ATOM      7  C   UNL A   1      36.483  22.117  25.680  1.00  0.00     0.060 A 
ATOM      8  C   UNL A   1      34.040  23.281  26.244  1.00  0.00     0.041 A 
ATOM      9  C   UNL A   1      34.188  21.907  26.412  1.00  0.00     0.027 A 
ATOM     10  C   UNL A   1      35.136  24.090  25.956  1.00  0.00     0.027 A 
ATOM     11  C   UNL A   1      35.405  21.317  26.086  1.00  0.00     0.018 A 
ATOM     12  C   UNL A   1      36.364  23.509  25.663  1.00  0.00     0.018 A 
BRANCH   8  13
ATOM     13  N   UNL A   1      32.768  23.832  26.314  1.00  0.00    -0.325 N 
ATOM     14  C   UNL A   1      31.977  24.209  25.266  1.00  0.00     0.237 C 
ATOM     15  O   UNL A   1      30.893  24.738  25.555  1.00  0.00    -0.273 OA
ATOM     16  H   UNL A   1      32.396  23.966  27.216  1.00  0.00     0.169 HD
BRANCH  14  17
ATOM     17  C   UNL A   1      32.303  23.950  23.788  1.00  0.00     0.139 C 
ATOM     18  C   UNL A   1      31.401  22.889  23.159  1.00  0.00     0.030 C 
BRANCH  17  19
ATOM     19  S   UNL A   1      32.440  25.386  22.641  1.00  0.00    -0.093 SA
BRANCH  19  20
ATOM     20  C   UNL A   1      32.535  26.891  23.588  1.00  0.00     0.098 A 
ATOM     21  C   UNL A   1      30.299  29.787  23.873  1.00  0.00     0.145 A 
ATOM     22  C   UNL A   1      30.168  30.963  24.629  1.00  0.00     0.049 A 
ATOM     23  C   UNL A   1      31.329  28.853  24.122  1.00  0.00     0.114 A 
ATOM     24  C   UNL A   1      31.028  31.217  25.683  1.00  0.00     0.005 A 
ATOM     25  C   UNL A   1      32.234  29.152  25.169  1.00  0.00     0.007 A 
ATOM     26  N   UNL A   1      31.477  27.715  23.397  1.00  0.00    -0.238 NA
ATOM     27  C   UNL A   1      32.050  30.316  25.951  1.00  0.00     0.011 A 
ATOM     28  C   UNL A   1      33.325  28.281  25.373  1.00  0.00    -0.039 A 
ATOM     29  C   UNL A   1      34.309  28.461  26.499  1.00  0.00     0.045 C 
ATOM     30  C   UNL A   1      33.515  27.204  24.502  1.00  0.00     0.039 A 
BRANCH  21  31
ATOM     31  O   UNL A   1      29.379  29.727  22.848  1.00  0.00    -0.494 OA
ATOM     32  C   UNL A   1      28.105  30.297  23.125  1.00  0.00     0.278 C 
ENDBRANCH  21  31
ENDBRANCH  19  20
ENDBRANCH  17  19
ENDBRANCH  14  17
ENDBRANCH   8  13
ENDBRANCH   5   7
ENDBRANCH   4   5
ENDBRANCH   3   4
ENDBRANCH   2   3
ENDBRANCH   1   2
BRANCH   1  33
ATOM     33  C   UNL A   1      42.704  19.740  25.905  1.00  0.00     0.188 C 
BRANCH  33  34
ATOM     34  C   UNL A   1      43.819  19.210  24.978  1.00  0.00     0.188 C 
BRANCH  34  35
ATOM     35  O   UNL A   1      44.656  20.201  24.439  1.00  0.00    -0.376 OA
BRANCH  35  36
ATOM     36  C   UNL A   1      45.535  20.918  25.288  1.00  0.00     0.202 C 
BRANCH  36  37
ATOM     37  C   UNL A   1      45.612  22.457  25.385  1.00  0.00     0.261 C 
BRANCH  37  38
ATOM     38  O   UNL A   1      44.654  23.141  26.198  1.00  0.00    -0.460 OA
BRANCH  38  39
ATOM     39  C   UNL A   1      43.545  23.598  25.572  1.00  0.00     0.338 C 
ATOM     40  O   UNL A   1      43.035  23.162  24.555  1.00  0.00    -0.246 OA
BRANCH  39  41
ATOM     41  C   UNL A   1      42.922  24.630  26.426  1.00  0.00     0.060 A 
ATOM     42  C   UNL A   1      43.511  25.899  26.483  1.00  0.00     0.016 A 
ATOM     43  C   UNL A   1      41.789  24.337  27.188  1.00  0.00     0.016 A 
ATOM     44  C   UNL A   1      42.985  26.874  27.332  1.00  0.00     0.010 A 
ATOM     45  C   UNL A   1      41.274  25.309  28.051  1.00  0.00     0.010 A 
ATOM     46  C   UNL A   1      41.889  26.571  28.151  1.00  0.00    -0.014 A 
BRANCH  46  47
ATOM     47  C   UNL A   1      41.500  27.505  29.236  1.00  0.00     0.031 A 
ATOM     48  C   UNL A   1      42.253  27.450  30.537  1.00  0.00     0.074 A 
ATOM     49  C   UNL A   1      40.507  28.396  29.070  1.00  0.00     0.049 A 
ATOM     50  N   UNL A   1      42.071  28.138  31.634  1.00  0.00    -0.248 NA
ATOM     51  C   UNL A   1      43.363  26.486  30.607  1.00  0.00     0.031 C 
ATOM     52  C   UNL A   1      39.721  28.570  27.851  1.00  0.00     0.029 A 
ATOM     53  N   UNL A   1      39.985  29.316  29.945  1.00  0.00    -0.354 N 
ATOM     54  C   UNL A   1      43.033  27.685  32.528  1.00  0.00     0.074 A 
ATOM     55  C   UNL A   1      43.780  26.644  31.854  1.00  0.00     0.031 C 
ATOM     56  C   UNL A   1      38.801  29.528  28.062  1.00  0.00     0.029 A 
ATOM     57  C   UNL A   1      38.916  30.013  29.437  1.00  0.00     0.049 A 
ATOM     58  H   UNL A   1      40.343  29.463  30.851  1.00  0.00     0.167 HD
ATOM     59  C   UNL A   1      43.277  28.099  33.793  1.00  0.00     0.037 A 
ATOM     60  C   UNL A   1      38.110  30.918  30.025  1.00  0.00     0.037 A 
ATOM     61  C   UNL A   1      42.532  29.130  34.465  1.00  0.00     0.049 A 
ATOM     62  C   UNL A   1      38.360  31.320  31.455  1.00  0.00     0.074 A 
ATOM     63  C   UNL A   1      42.723  29.643  35.736  1.00  0.00     0.029 A 
ATOM     64  N   UNL A   1      41.443  29.797  33.925  1.00  0.00    -0.354 N 
ATOM     65  N   UNL A   1      39.298  30.916  32.278  1.00  0.00    -0.248 NA
ATOM     66  C   UNL A   1      37.440  32.309  32.037  1.00  0.00     0.031 C 
ATOM     67  C   UNL A   1      41.717  30.581  35.985  1.00  0.00     0.029 A 
ATOM     68  C   UNL A   1      40.934  30.696  34.848  1.00  0.00     0.049 A 
ATOM     69  H   UNL A   1      41.084  29.653  33.019  1.00  0.00     0.167 HD
ATOM     70  C   UNL A   1      39.099  31.620  33.460  1.00  0.00     0.074 A 
ATOM     71  C   UNL A   1      37.958  32.485  33.245  1.00  0.00     0.031 C 
ATOM     72  C   UNL A   1      39.800  31.557  34.620  1.00  0.00     0.037 A 
BRANCH  59  73
ATOM     73  C   UNL A   1      44.381  27.412  34.542  1.00  0.00     0.057 A 
ATOM     74  C   UNL A   1      45.700  27.881  34.520  1.00  0.00     0.134 A 
ATOM     75  C   UNL A   1      44.115  26.272  35.310  1.00  0.00     0.134 A 
ATOM     76  F   UNL A   1      46.026  28.960  33.790  1.00  0.00    -0.206 F 
ATOM     77  C   UNL A   1      46.720  27.227  35.213  1.00  0.00     0.040 A 
ATOM     78  C   UNL A   1      45.120  25.625  36.031  1.00  0.00     0.040 A 
ATOM     79  F   UNL A   1      42.872  25.770  35.378  1.00  0.00    -0.206 F 
ATOM     80  C   UNL A   1      46.429  26.098  35.977  1.00  0.00     0.006 A 
ENDBRANCH  59  73
BRANCH  60  81
ATOM     81  C   UNL A   1      36.974  31.502  29.265  1.00  0.00     0.057 A 
ATOM     82  C   UNL A   1      35.797  30.777  29.045  1.00  0.00     0.134 A 
ATOM     83  C   UNL A   1      37.050  32.791  28.723  1.00  0.00     0.134 A 
ATOM     84  F   UNL A   1      35.674  29.528  29.518  1.00  0.00    -0.206 F 
ATOM     85  C   UNL A   1      34.741  31.308  28.302  1.00  0.00     0.040 A 
ATOM     86  C   UNL A   1      35.992  33.344  28.001  1.00  0.00     0.040 A 
ATOM     87  F   UNL A   1      38.153  33.534  28.896  1.00  0.00    -0.206 F 
ATOM     88  C   UNL A   1      34.835  32.597  27.782  1.00  0.00     0.006 A 
ENDBRANCH  60  81
BRANCH  72  89
ATOM     89  C   UNL A   1      39.382  32.475  35.733  1.00  0.00     0.057 A 
ATOM     90  C   UNL A   1      38.434  32.098  36.691  1.00  0.00     0.134 A 
ATOM     91  C   UNL A   1      39.973  33.739  35.871  1.00  0.00     0.134 A 
ATOM     92  F   UNL A   1      37.823  30.906  36.611  1.00  0.00    -0.206 F 
ATOM     93  C   UNL A   1      38.069  32.954  37.733  1.00  0.00     0.040 A 
ATOM     94  C   UNL A   1      39.637  34.592  36.923  1.00  0.00     0.040 A 
ATOM     95  F   UNL A   1      40.896  34.159  34.994  1.00  0.00    -0.206 F 
ATOM     96  C   UNL A   1      38.677  34.202  37.855  1.00  0.00     0.006 A 
ENDBRANCH  72  89
ENDBRANCH  46  47
ENDBRANCH  39  41
ENDBRANCH  38  39
ENDBRANCH  37  38
ENDBRANCH  36  37
ENDBRANCH  35  36
ENDBRANCH  34  35
ENDBRANCH  33  34
ENDBRANCH   1  33
TORSDOF 22
ENDMDL
