MODEL 1
REMARK VINA RESULT:      -9.5      0.000      0.000
REMARK SMILES C[C@@H](O)CN(C)C(=O)N[C@H]1C=C[C@@H](C(=O)OCCOCCOCCOC(=O)c2ccc(-c3c4nc(c(-c5c(F)cccc5F)c5ccc([nH]5)c(-c5c(F)cccc5F)c5nc(c(-c6c(F)cccc6F)c6ccc3[nH]6)C=C5)C=C4)cc2)C1
REMARK SMILES IDX 19 1 18 2 17 3 16 4 14 5 15 6 13 7 10 8 11 9 82 10 12 11
REMARK SMILES IDX 9 12 7 13 8 14 5 16 6 17 4 18 2 19 1 20 3 21 20 23 21 24
REMARK SMILES IDX 22 25 23 26 24 27 25 28 26 29 27 30 28 31 29 32 81 33 30 34
REMARK SMILES IDX 80 35 31 36 32 37 33 38 74 39 34 40 79 41 73 42 75 43 35 44
REMARK SMILES IDX 78 45 72 46 71 47 36 49 62 50 45 51 61 52 46 53 49 54 60 55
REMARK SMILES IDX 76 56 47 57 48 58 59 60 77 61 50 62 37 63 38 64 43 65 39 66
REMARK SMILES IDX 40 67 42 68 44 69 41 70 63 71 64 72 69 73 65 74 66 75 68 76
REMARK SMILES IDX 70 77 67 78 51 79 52 80 57 81 53 82 54 83 56 84 58 85 55 86
REMARK H PARENT 9 15 3 22 75 48 49 59
REMARK Flexibility Score: inf
ROOT
ATOM      1  O   UNL A   1      38.741  22.045  26.058  1.00  0.00    -0.376 OA
ENDROOT
BRANCH   1   2
ATOM      2  C   UNL A   1      37.787  21.248  25.360  1.00  0.00     0.202 C 
BRANCH   2   3
ATOM      3  C   UNL A   1      36.995  21.878  24.201  1.00  0.00     0.261 C 
BRANCH   3   4
ATOM      4  O   UNL A   1      35.820  22.614  24.598  1.00  0.00    -0.463 OA
BRANCH   4   5
ATOM      5  C   UNL A   1      34.629  21.983  24.441  1.00  0.00     0.312 C 
ATOM      6  O   UNL A   1      34.465  20.776  24.599  1.00  0.00    -0.252 OA
BRANCH   5   7
ATOM      7  C   UNL A   1      33.454  22.921  24.142  1.00  0.00     0.124 C 
ATOM      8  C   UNL A   1      32.866  25.213  23.475  1.00  0.00     0.107 C 
ATOM      9  C   UNL A   1      33.032  24.322  22.295  1.00  0.00    -0.006 C 
ATOM     10  C   UNL A   1      33.495  24.386  24.600  1.00  0.00     0.048 C 
ATOM     11  C   UNL A   1      33.321  23.068  22.654  1.00  0.00    -0.014 C 
BRANCH   8  12
ATOM     12  N   UNL A   1      33.558  26.450  23.247  1.00  0.00    -0.332 N 
ATOM     13  C   UNL A   1      33.180  27.731  23.096  1.00  0.00     0.317 C 
ATOM     14  O   UNL A   1      34.075  28.493  22.718  1.00  0.00    -0.249 OA
ATOM     15  H   UNL A   1      34.535  26.333  23.188  1.00  0.00     0.165 HD
BRANCH  13  16
ATOM     16  N   UNL A   1      31.909  28.170  23.343  1.00  0.00    -0.325 N 
ATOM     17  C   UNL A   1      30.710  27.891  22.570  1.00  0.00     0.148 C 
BRANCH  16  18
ATOM     18  C   UNL A   1      31.697  28.924  24.584  1.00  0.00     0.152 C 
BRANCH  18  19
ATOM     19  C   UNL A   1      31.953  28.108  25.867  1.00  0.00     0.130 C 
ATOM     20  C   UNL A   1      31.776  28.918  27.146  1.00  0.00     0.040 C 
BRANCH  19  21
ATOM     21  O   UNL A   1      31.033  27.010  25.887  1.00  0.00    -0.392 OA
ATOM     22  H   UNL A   1      31.505  26.196  26.119  1.00  0.00     0.211 HD
ENDBRANCH  19  21
ENDBRANCH  18  19
ENDBRANCH  16  18
ENDBRANCH  13  16
ENDBRANCH   8  12
ENDBRANCH   5   7
ENDBRANCH   4   5
ENDBRANCH   3   4
ENDBRANCH   2   3
ENDBRANCH   1   2
BRANCH   1  23
ATOM     23  C   UNL A   1      40.088  21.597  26.148  1.00  0.00     0.188 C 
BRANCH  23  24
ATOM     24  C   UNL A   1      40.375  20.092  26.276  1.00  0.00     0.188 C 
BRANCH  24  25
ATOM     25  O   UNL A   1      41.478  19.633  25.538  1.00  0.00    -0.376 OA
BRANCH  25  26
ATOM     26  C   UNL A   1      42.775  19.827  26.068  1.00  0.00     0.202 C 
BRANCH  26  27
ATOM     27  C   UNL A   1      43.665  20.975  25.557  1.00  0.00     0.261 C 
BRANCH  27  28
ATOM     28  O   UNL A   1      43.685  22.193  26.321  1.00  0.00    -0.460 OA
BRANCH  28  29
ATOM     29  C   UNL A   1      43.364  23.344  25.685  1.00  0.00     0.338 C 
ATOM     30  O   UNL A   1      43.164  23.494  24.490  1.00  0.00    -0.246 OA
BRANCH  29  31
ATOM     31  C   UNL A   1      43.065  24.355  26.724  1.00  0.00     0.060 A 
ATOM     32  C   UNL A   1      42.064  24.095  27.676  1.00  0.00     0.016 A 
ATOM     33  C   UNL A   1      43.799  25.539  26.786  1.00  0.00     0.016 A 
ATOM     34  C   UNL A   1      41.806  25.015  28.697  1.00  0.00     0.010 A 
ATOM     35  C   UNL A   1      43.518  26.471  27.789  1.00  0.00     0.010 A 
ATOM     36  C   UNL A   1      42.516  26.221  28.744  1.00  0.00    -0.014 A 
BRANCH  36  37
ATOM     37  C   UNL A   1      42.142  27.296  29.697  1.00  0.00     0.031 A 
ATOM     38  C   UNL A   1      42.852  27.363  31.020  1.00  0.00     0.074 A 
ATOM     39  C   UNL A   1      41.152  28.164  29.422  1.00  0.00     0.049 A 
ATOM     40  N   UNL A   1      42.581  28.088  32.074  1.00  0.00    -0.248 NA
ATOM     41  C   UNL A   1      44.025  26.487  31.172  1.00  0.00     0.031 C 
ATOM     42  C   UNL A   1      40.420  28.241  28.160  1.00  0.00     0.029 A 
ATOM     43  N   UNL A   1      40.573  29.131  30.209  1.00  0.00    -0.354 N 
ATOM     44  C   UNL A   1      43.535  27.742  33.023  1.00  0.00     0.074 A 
ATOM     45  C   UNL A   1      44.381  26.732  32.424  1.00  0.00     0.031 C 
ATOM     46  C   UNL A   1      39.466  29.183  28.269  1.00  0.00     0.029 A 
ATOM     47  C   UNL A   1      39.488  29.738  29.622  1.00  0.00     0.049 A 
ATOM     48  H   UNL A   1      40.902  29.365  31.107  1.00  0.00     0.167 HD
ATOM     49  C   UNL A   1      43.689  28.221  34.280  1.00  0.00     0.037 A 
ATOM     50  C   UNL A   1      38.589  30.603  30.134  1.00  0.00     0.037 A 
ATOM     51  C   UNL A   1      42.840  29.221  34.874  1.00  0.00     0.049 A 
ATOM     52  C   UNL A   1      38.716  31.043  31.572  1.00  0.00     0.074 A 
ATOM     53  C   UNL A   1      42.932  29.790  36.132  1.00  0.00     0.029 A 
ATOM     54  N   UNL A   1      41.735  29.787  34.258  1.00  0.00    -0.354 N 
ATOM     55  N   UNL A   1      39.635  30.732  32.455  1.00  0.00    -0.248 NA
ATOM     56  C   UNL A   1      37.674  31.944  32.087  1.00  0.00     0.031 C 
ATOM     57  C   UNL A   1      41.846  30.653  36.301  1.00  0.00     0.029 A 
ATOM     58  C   UNL A   1      41.112  30.668  35.126  1.00  0.00     0.049 A 
ATOM     59  H   UNL A   1      41.437  29.592  33.340  1.00  0.00     0.167 HD
ATOM     60  C   UNL A   1      39.295  31.418  33.618  1.00  0.00     0.074 A 
ATOM     61  C   UNL A   1      38.095  32.172  33.324  1.00  0.00     0.031 C 
ATOM     62  C   UNL A   1      39.920  31.420  34.820  1.00  0.00     0.037 A 
BRANCH  49  63
ATOM     63  C   UNL A   1      44.796  27.643  35.112  1.00  0.00     0.057 A 
ATOM     64  C   UNL A   1      46.068  28.225  35.164  1.00  0.00     0.134 A 
ATOM     65  C   UNL A   1      44.571  26.508  35.902  1.00  0.00     0.134 A 
ATOM     66  F   UNL A   1      46.353  29.306  34.422  1.00  0.00    -0.206 F 
ATOM     67  C   UNL A   1      47.085  27.685  35.954  1.00  0.00     0.040 A 
ATOM     68  C   UNL A   1      45.570  25.977  36.718  1.00  0.00     0.040 A 
ATOM     69  F   UNL A   1      43.374  25.905  35.903  1.00  0.00    -0.206 F 
ATOM     70  C   UNL A   1      46.835  26.562  36.740  1.00  0.00     0.006 A 
ENDBRANCH  49  63
BRANCH  50  71
ATOM     71  C   UNL A   1      37.456  31.084  29.302  1.00  0.00     0.057 A 
ATOM     72  C   UNL A   1      37.431  32.390  28.797  1.00  0.00     0.134 A 
ATOM     73  C   UNL A   1      36.356  30.265  29.019  1.00  0.00     0.134 A 
ATOM     74  F   UNL A   1      38.441  33.233  29.058  1.00  0.00    -0.206 F 
ATOM     75  C   UNL A   1      36.350  32.868  28.056  1.00  0.00     0.040 A 
ATOM     76  C   UNL A   1      35.280  30.722  28.254  1.00  0.00     0.040 A 
ATOM     77  F   UNL A   1      36.312  29.006  29.478  1.00  0.00    -0.206 F 
ATOM     78  C   UNL A   1      35.271  32.030  27.777  1.00  0.00     0.006 A 
ENDBRANCH  50  71
BRANCH  62  79
ATOM     79  C   UNL A   1      39.342  32.280  35.908  1.00  0.00     0.057 A 
ATOM     80  C   UNL A   1      39.735  33.612  36.084  1.00  0.00     0.134 A 
ATOM     81  C   UNL A   1      38.328  31.791  36.743  1.00  0.00     0.134 A 
ATOM     82  F   UNL A   1      40.708  34.140  35.327  1.00  0.00    -0.206 F 
ATOM     83  C   UNL A   1      39.148  34.424  37.058  1.00  0.00     0.040 A 
ATOM     84  C   UNL A   1      37.714  32.600  37.700  1.00  0.00     0.040 A 
ATOM     85  F   UNL A   1      37.897  30.526  36.621  1.00  0.00    -0.206 F 
ATOM     86  C   UNL A   1      38.127  33.921  37.862  1.00  0.00     0.006 A 
ENDBRANCH  62  79
ENDBRANCH  36  37
ENDBRANCH  29  31
ENDBRANCH  28  29
ENDBRANCH  27  28
ENDBRANCH  26  27
ENDBRANCH  25  26
ENDBRANCH  24  25
ENDBRANCH  23  24
ENDBRANCH   1  23
TORSDOF 22
ENDMDL
MODEL 2
REMARK VINA RESULT:      -9.3      3.096      8.774
REMARK SMILES C[C@@H](O)CN(C)C(=O)N[C@H]1C=C[C@@H](C(=O)OCCOCCOCCOC(=O)c2ccc(-c3c4nc(c(-c5c(F)cccc5F)c5ccc([nH]5)c(-c5c(F)cccc5F)c5nc(c(-c6c(F)cccc6F)c6ccc3[nH]6)C=C5)C=C4)cc2)C1
REMARK SMILES IDX 19 1 18 2 17 3 16 4 14 5 15 6 13 7 10 8 11 9 82 10 12 11
REMARK SMILES IDX 9 12 7 13 8 14 5 16 6 17 4 18 2 19 1 20 3 21 20 23 21 24
REMARK SMILES IDX 22 25 23 26 24 27 25 28 26 29 27 30 28 31 29 32 81 33 30 34
REMARK SMILES IDX 80 35 31 36 32 37 33 38 74 39 34 40 79 41 73 42 75 43 35 44
REMARK SMILES IDX 78 45 72 46 71 47 36 49 62 50 45 51 61 52 46 53 49 54 60 55
REMARK SMILES IDX 76 56 47 57 48 58 59 60 77 61 50 62 37 63 38 64 43 65 39 66
REMARK SMILES IDX 40 67 42 68 44 69 41 70 63 71 64 72 69 73 65 74 66 75 68 76
REMARK SMILES IDX 70 77 67 78 51 79 52 80 57 81 53 82 54 83 56 84 58 85 55 86
REMARK H PARENT 9 15 3 22 75 48 49 59
REMARK Flexibility Score: inf
ROOT
ATOM      1  O   UNL A   1      32.869  28.430  24.342  1.00  0.00    -0.376 OA
ENDROOT
BRANCH   1   2
ATOM      2  C   UNL A   1      32.629  28.358  22.939  1.00  0.00     0.202 C 
BRANCH   2   3
ATOM      3  C   UNL A   1      32.481  26.976  22.279  1.00  0.00     0.261 C 
BRANCH   3   4
ATOM      4  O   UNL A   1      32.627  25.856  23.175  1.00  0.00    -0.463 OA
BRANCH   4   5
ATOM      5  C   UNL A   1      33.443  24.853  22.763  1.00  0.00     0.312 C 
ATOM      6  O   UNL A   1      33.261  24.195  21.741  1.00  0.00    -0.252 OA
BRANCH   5   7
ATOM      7  C   UNL A   1      34.691  24.659  23.631  1.00  0.00     0.124 C 
ATOM      8  C   UNL A   1      35.574  23.482  25.600  1.00  0.00     0.107 C 
ATOM      9  C   UNL A   1      35.778  22.697  24.352  1.00  0.00    -0.006 C 
ATOM     10  C   UNL A   1      34.564  24.543  25.157  1.00  0.00     0.048 C 
ATOM     11  C   UNL A   1      35.327  23.347  23.275  1.00  0.00    -0.014 C 
BRANCH   8  12
ATOM     12  N   UNL A   1      35.057  22.624  26.630  1.00  0.00    -0.332 N 
ATOM     13  C   UNL A   1      34.032  21.759  26.713  1.00  0.00     0.317 C 
ATOM     14  O   UNL A   1      33.792  21.350  27.853  1.00  0.00    -0.249 OA
ATOM     15  H   UNL A   1      35.571  22.685  27.468  1.00  0.00     0.165 HD
BRANCH  13  16
ATOM     16  N   UNL A   1      33.306  21.352  25.628  1.00  0.00    -0.325 N 
ATOM     17  C   UNL A   1      32.253  22.082  24.942  1.00  0.00     0.148 C 
BRANCH  16  18
ATOM     18  C   UNL A   1      33.695  20.079  25.010  1.00  0.00     0.152 C 
BRANCH  18  19
ATOM     19  C   UNL A   1      32.738  18.911  25.323  1.00  0.00     0.130 C 
ATOM     20  C   UNL A   1      32.974  17.684  24.448  1.00  0.00     0.040 C 
BRANCH  19  21
ATOM     21  O   UNL A   1      32.920  18.541  26.694  1.00  0.00    -0.392 OA
ATOM     22  H   UNL A   1      33.863  18.575  26.916  1.00  0.00     0.211 HD
ENDBRANCH  19  21
ENDBRANCH  18  19
ENDBRANCH  16  18
ENDBRANCH  13  16
ENDBRANCH   8  12
ENDBRANCH   5   7
ENDBRANCH   4   5
ENDBRANCH   3   4
ENDBRANCH   2   3
ENDBRANCH   1   2
BRANCH   1  23
ATOM     23  C   UNL A   1      31.808  28.808  25.211  1.00  0.00     0.188 C 
BRANCH  23  24
ATOM     24  C   UNL A   1      31.582  30.297  25.521  1.00  0.00     0.188 C 
BRANCH  24  25
ATOM     25  O   UNL A   1      31.765  30.658  26.866  1.00  0.00    -0.376 OA
BRANCH  25  26
ATOM     26  C   UNL A   1      33.075  30.935  27.320  1.00  0.00     0.202 C 
BRANCH  26  27
ATOM     27  C   UNL A   1      33.580  32.388  27.417  1.00  0.00     0.261 C 
BRANCH  27  28
ATOM     28  O   UNL A   1      32.626  33.400  27.779  1.00  0.00    -0.460 OA
BRANCH  28  29
ATOM     29  C   UNL A   1      33.070  34.463  28.490  1.00  0.00     0.338 C 
ATOM     30  O   UNL A   1      32.484  35.516  28.684  1.00  0.00    -0.246 OA
BRANCH  29  31
ATOM     31  C   UNL A   1      34.302  34.040  29.195  1.00  0.00     0.060 A 
ATOM     32  C   UNL A   1      35.554  34.437  28.699  1.00  0.00     0.016 A 
ATOM     33  C   UNL A   1      34.218  33.290  30.368  1.00  0.00     0.016 A 
ATOM     34  C   UNL A   1      36.725  34.092  29.383  1.00  0.00     0.010 A 
ATOM     35  C   UNL A   1      35.391  32.921  31.033  1.00  0.00     0.010 A 
ATOM     36  C   UNL A   1      36.651  33.311  30.542  1.00  0.00    -0.014 A 
BRANCH  36  37
ATOM     37  C   UNL A   1      37.875  32.773  31.186  1.00  0.00     0.031 A 
ATOM     38  C   UNL A   1      38.540  31.572  30.575  1.00  0.00     0.074 A 
ATOM     39  C   UNL A   1      38.360  33.303  32.323  1.00  0.00     0.049 A 
ATOM     40  N   UNL A   1      39.502  30.822  31.049  1.00  0.00    -0.248 NA
ATOM     41  C   UNL A   1      38.047  31.160  29.251  1.00  0.00     0.031 C 
ATOM     42  C   UNL A   1      37.843  34.495  32.989  1.00  0.00     0.029 A 
ATOM     43  N   UNL A   1      39.384  32.878  33.136  1.00  0.00    -0.354 N 
ATOM     44  C   UNL A   1      39.715  29.837  30.093  1.00  0.00     0.074 A 
ATOM     45  C   UNL A   1      38.773  30.076  29.020  1.00  0.00     0.031 C 
ATOM     46  C   UNL A   1      38.532  34.690  34.128  1.00  0.00     0.029 A 
ATOM     47  C   UNL A   1      39.503  33.609  34.294  1.00  0.00     0.049 A 
ATOM     48  H   UNL A   1      39.975  32.124  32.911  1.00  0.00     0.167 HD
ATOM     49  C   UNL A   1      40.613  28.824  30.109  1.00  0.00     0.037 A 
ATOM     50  C   UNL A   1      40.272  33.400  35.382  1.00  0.00     0.037 A 
ATOM     51  C   UNL A   1      41.543  28.585  31.182  1.00  0.00     0.049 A 
ATOM     52  C   UNL A   1      41.190  32.204  35.426  1.00  0.00     0.074 A 
ATOM     53  C   UNL A   1      42.511  27.600  31.278  1.00  0.00     0.029 A 
ATOM     54  N   UNL A   1      41.610  29.329  32.350  1.00  0.00    -0.354 N 
ATOM     55  N   UNL A   1      41.406  31.291  34.509  1.00  0.00    -0.248 NA
ATOM     56  C   UNL A   1      41.961  32.000  36.662  1.00  0.00     0.031 C 
ATOM     57  C   UNL A   1      43.119  27.708  32.531  1.00  0.00     0.029 A 
ATOM     58  C   UNL A   1      42.575  28.798  33.190  1.00  0.00     0.049 A 
ATOM     59  H   UNL A   1      41.056  30.117  32.552  1.00  0.00     0.167 HD
ATOM     60  C   UNL A   1      42.353  30.425  35.047  1.00  0.00     0.074 A 
ATOM     61  C   UNL A   1      42.681  30.927  36.363  1.00  0.00     0.031 C 
ATOM     62  C   UNL A   1      42.898  29.311  34.499  1.00  0.00     0.037 A 
BRANCH  49  63
ATOM     63  C   UNL A   1      40.608  27.873  28.948  1.00  0.00     0.057 A 
ATOM     64  C   UNL A   1      41.432  28.060  27.831  1.00  0.00     0.134 A 
ATOM     65  C   UNL A   1      39.793  26.733  28.968  1.00  0.00     0.134 A 
ATOM     66  F   UNL A   1      42.226  29.138  27.744  1.00  0.00    -0.206 F 
ATOM     67  C   UNL A   1      41.428  27.160  26.764  1.00  0.00     0.040 A 
ATOM     68  C   UNL A   1      39.803  25.812  27.921  1.00  0.00     0.040 A 
ATOM     69  F   UNL A   1      38.984  26.491  30.009  1.00  0.00    -0.206 F 
ATOM     70  C   UNL A   1      40.617  26.027  26.811  1.00  0.00     0.006 A 
ENDBRANCH  49  63
BRANCH  50  71
ATOM     71  C   UNL A   1      40.182  34.317  36.548  1.00  0.00     0.057 A 
ATOM     72  C   UNL A   1      41.040  35.417  36.672  1.00  0.00     0.134 A 
ATOM     73  C   UNL A   1      39.264  34.100  37.582  1.00  0.00     0.134 A 
ATOM     74  F   UNL A   1      41.963  35.663  35.730  1.00  0.00    -0.206 F 
ATOM     75  C   UNL A   1      40.998  36.257  37.786  1.00  0.00     0.040 A 
ATOM     76  C   UNL A   1      39.191  34.949  38.689  1.00  0.00     0.040 A 
ATOM     77  F   UNL A   1      38.418  33.060  37.530  1.00  0.00    -0.206 F 
ATOM     78  C   UNL A   1      40.067  36.026  38.797  1.00  0.00     0.006 A 
ENDBRANCH  50  71
BRANCH  62  79
ATOM     79  C   UNL A   1      43.928  28.568  35.302  1.00  0.00     0.057 A 
ATOM     80  C   UNL A   1      43.570  27.582  36.230  1.00  0.00     0.134 A 
ATOM     81  C   UNL A   1      45.295  28.790  35.092  1.00  0.00     0.134 A 
ATOM     82  F   UNL A   1      42.279  27.327  36.488  1.00  0.00    -0.206 F 
ATOM     83  C   UNL A   1      44.536  26.852  36.928  1.00  0.00     0.040 A 
ATOM     84  C   UNL A   1      46.269  28.048  35.761  1.00  0.00     0.040 A 
ATOM     85  F   UNL A   1      45.707  29.713  34.209  1.00  0.00    -0.206 F 
ATOM     86  C   UNL A   1      45.889  27.077  36.685  1.00  0.00     0.006 A 
ENDBRANCH  62  79
ENDBRANCH  36  37
ENDBRANCH  29  31
ENDBRANCH  28  29
ENDBRANCH  27  28
ENDBRANCH  26  27
ENDBRANCH  25  26
ENDBRANCH  24  25
ENDBRANCH  23  24
ENDBRANCH   1  23
TORSDOF 22
ENDMDL
MODEL 3
REMARK VINA RESULT:      -9.1      4.982     10.526
REMARK SMILES C[C@@H](O)CN(C)C(=O)N[C@H]1C=C[C@@H](C(=O)OCCOCCOCCOC(=O)c2ccc(-c3c4nc(c(-c5c(F)cccc5F)c5ccc([nH]5)c(-c5c(F)cccc5F)c5nc(c(-c6c(F)cccc6F)c6ccc3[nH]6)C=C5)C=C4)cc2)C1
REMARK SMILES IDX 19 1 18 2 17 3 16 4 14 5 15 6 13 7 10 8 11 9 82 10 12 11
REMARK SMILES IDX 9 12 7 13 8 14 5 16 6 17 4 18 2 19 1 20 3 21 20 23 21 24
REMARK SMILES IDX 22 25 23 26 24 27 25 28 26 29 27 30 28 31 29 32 81 33 30 34
REMARK SMILES IDX 80 35 31 36 32 37 33 38 74 39 34 40 79 41 73 42 75 43 35 44
REMARK SMILES IDX 78 45 72 46 71 47 36 49 62 50 45 51 61 52 46 53 49 54 60 55
REMARK SMILES IDX 76 56 47 57 48 58 59 60 77 61 50 62 37 63 38 64 43 65 39 66
REMARK SMILES IDX 40 67 42 68 44 69 41 70 63 71 64 72 69 73 65 74 66 75 68 76
REMARK SMILES IDX 70 77 67 78 51 79 52 80 57 81 53 82 54 83 56 84 58 85 55 86
REMARK H PARENT 9 15 3 22 75 48 49 59
REMARK Flexibility Score: inf
ROOT
ATOM      1  O   UNL A   1      34.075  33.462  30.096  1.00  0.00    -0.376 OA
ENDROOT
BRANCH   1   2
ATOM      2  C   UNL A   1      34.448  32.286  29.382  1.00  0.00     0.202 C 
BRANCH   2   3
ATOM      3  C   UNL A   1      34.231  32.238  27.859  1.00  0.00     0.261 C 
BRANCH   3   4
ATOM      4  O   UNL A   1      34.266  30.917  27.282  1.00  0.00    -0.463 OA
BRANCH   4   5
ATOM      5  C   UNL A   1      33.076  30.394  26.892  1.00  0.00     0.312 C 
ATOM      6  O   UNL A   1      31.991  30.934  27.090  1.00  0.00    -0.252 OA
BRANCH   5   7
ATOM      7  C   UNL A   1      33.193  29.099  26.081  1.00  0.00     0.124 C 
ATOM      8  C   UNL A   1      32.252  26.846  25.796  1.00  0.00     0.107 C 
ATOM      9  C   UNL A   1      31.560  27.845  24.936  1.00  0.00    -0.006 C 
ATOM     10  C   UNL A   1      33.030  27.735  26.769  1.00  0.00     0.048 C 
ATOM     11  C   UNL A   1      32.088  29.065  25.065  1.00  0.00    -0.014 C 
BRANCH   8  12
ATOM     12  N   UNL A   1      31.279  26.023  26.459  1.00  0.00    -0.332 N 
ATOM     13  C   UNL A   1      30.727  24.824  26.206  1.00  0.00     0.317 C 
ATOM     14  O   UNL A   1      29.766  24.536  26.928  1.00  0.00    -0.249 OA
ATOM     15  H   UNL A   1      30.940  26.430  27.288  1.00  0.00     0.165 HD
BRANCH  13  16
ATOM     16  N   UNL A   1      31.184  23.978  25.234  1.00  0.00    -0.325 N 
ATOM     17  C   UNL A   1      30.827  23.973  23.825  1.00  0.00     0.148 C 
BRANCH  16  18
ATOM     18  C   UNL A   1      32.234  23.029  25.621  1.00  0.00     0.152 C 
BRANCH  18  19
ATOM     19  C   UNL A   1      32.258  21.740  24.775  1.00  0.00     0.130 C 
ATOM     20  C   UNL A   1      33.666  21.278  24.416  1.00  0.00     0.040 C 
BRANCH  19  21
ATOM     21  O   UNL A   1      31.611  20.704  25.522  1.00  0.00    -0.392 OA
ATOM     22  H   UNL A   1      30.753  20.501  25.118  1.00  0.00     0.211 HD
ENDBRANCH  19  21
ENDBRANCH  18  19
ENDBRANCH  16  18
ENDBRANCH  13  16
ENDBRANCH   8  12
ENDBRANCH   5   7
ENDBRANCH   4   5
ENDBRANCH   3   4
ENDBRANCH   2   3
ENDBRANCH   1   2
BRANCH   1  23
ATOM     23  C   UNL A   1      35.060  34.164  30.843  1.00  0.00     0.188 C 
BRANCH  23  24
ATOM     24  C   UNL A   1      36.542  33.790  30.675  1.00  0.00     0.188 C 
BRANCH  24  25
ATOM     25  O   UNL A   1      37.349  34.039  31.798  1.00  0.00    -0.376 OA
BRANCH  25  26
ATOM     26  C   UNL A   1      36.829  33.751  33.081  1.00  0.00     0.202 C 
BRANCH  26  27
ATOM     27  C   UNL A   1      36.643  32.293  33.542  1.00  0.00     0.261 C 
BRANCH  27  28
ATOM     28  O   UNL A   1      37.588  31.319  33.067  1.00  0.00    -0.460 OA
BRANCH  28  29
ATOM     29  C   UNL A   1      37.183  30.463  32.100  1.00  0.00     0.338 C 
ATOM     30  O   UNL A   1      36.033  30.222  31.764  1.00  0.00    -0.246 OA
BRANCH  29  31
ATOM     31  C   UNL A   1      38.387  30.037  31.352  1.00  0.00     0.060 A 
ATOM     32  C   UNL A   1      39.441  29.410  32.037  1.00  0.00     0.016 A 
ATOM     33  C   UNL A   1      38.457  30.216  29.971  1.00  0.00     0.016 A 
ATOM     34  C   UNL A   1      40.563  28.952  31.337  1.00  0.00     0.010 A 
ATOM     35  C   UNL A   1      39.593  29.786  29.279  1.00  0.00     0.010 A 
ATOM     36  C   UNL A   1      40.655  29.159  29.956  1.00  0.00    -0.014 A 
BRANCH  36  37
ATOM     37  C   UNL A   1      41.905  28.855  29.215  1.00  0.00     0.031 A 
ATOM     38  C   UNL A   1      42.109  27.462  28.692  1.00  0.00     0.074 A 
ATOM     39  C   UNL A   1      42.868  29.780  29.056  1.00  0.00     0.049 A 
ATOM     40  N   UNL A   1      43.181  26.913  28.179  1.00  0.00    -0.248 NA
ATOM     41  C   UNL A   1      40.945  26.564  28.763  1.00  0.00     0.031 C 
ATOM     42  C   UNL A   1      42.776  31.178  29.468  1.00  0.00     0.029 A 
ATOM     43  N   UNL A   1      44.132  29.665  28.528  1.00  0.00    -0.354 N 
ATOM     44  C   UNL A   1      42.828  25.603  27.886  1.00  0.00     0.074 A 
ATOM     45  C   UNL A   1      41.449  25.433  28.292  1.00  0.00     0.031 C 
ATOM     46  C   UNL A   1      43.948  31.786  29.207  1.00  0.00     0.029 A 
ATOM     47  C   UNL A   1      44.886  30.808  28.657  1.00  0.00     0.049 A 
ATOM     48  H   UNL A   1      44.467  28.844  28.100  1.00  0.00     0.167 HD
ATOM     49  C   UNL A   1      43.586  24.628  27.331  1.00  0.00     0.037 A 
ATOM     50  C   UNL A   1      46.193  31.024  28.405  1.00  0.00     0.037 A 
ATOM     51  C   UNL A   1      44.960  24.798  26.936  1.00  0.00     0.049 A 
ATOM     52  C   UNL A   1      47.048  29.894  27.887  1.00  0.00     0.074 A 
ATOM     53  C   UNL A   1      45.804  23.877  26.340  1.00  0.00     0.029 A 
ATOM     54  N   UNL A   1      45.694  25.960  27.111  1.00  0.00    -0.354 N 
ATOM     55  N   UNL A   1      46.703  28.664  27.588  1.00  0.00    -0.248 NA
ATOM     56  C   UNL A   1      48.477  30.177  27.685  1.00  0.00     0.031 C 
ATOM     57  C   UNL A   1      47.068  24.461  26.214  1.00  0.00     0.029 A 
ATOM     58  C   UNL A   1      46.994  25.766  26.674  1.00  0.00     0.049 A 
ATOM     59  H   UNL A   1      45.345  26.799  27.490  1.00  0.00     0.167 HD
ATOM     60  C   UNL A   1      47.863  28.039  27.140  1.00  0.00     0.074 A 
ATOM     61  C   UNL A   1      48.918  29.028  27.193  1.00  0.00     0.031 C 
ATOM     62  C   UNL A   1      48.037  26.761  26.725  1.00  0.00     0.037 A 
BRANCH  49  63
ATOM     63  C   UNL A   1      42.958  23.276  27.153  1.00  0.00     0.057 A 
ATOM     64  C   UNL A   1      42.741  22.409  28.231  1.00  0.00     0.134 A 
ATOM     65  C   UNL A   1      42.530  22.855  25.888  1.00  0.00     0.134 A 
ATOM     66  F   UNL A   1      43.140  22.747  29.467  1.00  0.00    -0.206 F 
ATOM     67  C   UNL A   1      42.143  21.160  28.053  1.00  0.00     0.040 A 
ATOM     68  C   UNL A   1      41.904  21.621  25.702  1.00  0.00     0.040 A 
ATOM     69  F   UNL A   1      42.702  23.638  24.813  1.00  0.00    -0.206 F 
ATOM     70  C   UNL A   1      41.716  20.767  26.787  1.00  0.00     0.006 A 
ENDBRANCH  49  63
BRANCH  50  71
ATOM     71  C   UNL A   1      46.797  32.354  28.679  1.00  0.00     0.057 A 
ATOM     72  C   UNL A   1      47.307  32.670  29.944  1.00  0.00     0.134 A 
ATOM     73  C   UNL A   1      46.848  33.352  27.698  1.00  0.00     0.134 A 
ATOM     74  F   UNL A   1      47.260  31.768  30.935  1.00  0.00    -0.206 F 
ATOM     75  C   UNL A   1      47.832  33.932  30.228  1.00  0.00     0.040 A 
ATOM     76  C   UNL A   1      47.397  34.610  27.960  1.00  0.00     0.040 A 
ATOM     77  F   UNL A   1      46.370  33.118  26.467  1.00  0.00    -0.206 F 
ATOM     78  C   UNL A   1      47.883  34.905  29.231  1.00  0.00     0.006 A 
ENDBRANCH  50  71
BRANCH  62  79
ATOM     79  C   UNL A   1      49.409  26.354  26.268  1.00  0.00     0.057 A 
ATOM     80  C   UNL A   1      49.887  26.673  24.990  1.00  0.00     0.134 A 
ATOM     81  C   UNL A   1      50.289  25.700  27.141  1.00  0.00     0.134 A 
ATOM     82  F   UNL A   1      49.094  27.288  24.101  1.00  0.00    -0.206 F 
ATOM     83  C   UNL A   1      51.186  26.345  24.594  1.00  0.00     0.040 A 
ATOM     84  C   UNL A   1      51.598  25.394  26.767  1.00  0.00     0.040 A 
ATOM     85  F   UNL A   1      49.899  25.376  28.383  1.00  0.00    -0.206 F 
ATOM     86  C   UNL A   1      52.048  25.714  25.488  1.00  0.00     0.006 A 
ENDBRANCH  62  79
ENDBRANCH  36  37
ENDBRANCH  29  31
ENDBRANCH  28  29
ENDBRANCH  27  28
ENDBRANCH  26  27
ENDBRANCH  25  26
ENDBRANCH  24  25
ENDBRANCH  23  24
ENDBRANCH   1  23
TORSDOF 22
ENDMDL
