MODEL 1
REMARK VINA RESULT:     -10.5      0.000      0.000
REMARK SMILES CC1(C)[C@@H](C(=O)OCCOCCOCCOC(=O)c2ccc(-c3c4nc(c(-c5c(F)cccc5F)c5ccc([nH]5)c(-c5c(F)cccc5F)c5nc(c(-c6c(F)cccc6F)c6ccc3[nH]6)C=C5)C=C4)cc2)CC[C@@]1(C)C(N)=O
REMARK SMILES IDX 12 1 11 2 10 3 9 4 8 5 7 6 5 7 6 8 4 9 1 10 2 11 3 12 75 13
REMARK SMILES IDX 73 14 74 15 76 16 77 17 78 18 79 19 13 22 14 23 15 24 16 25
REMARK SMILES IDX 17 26 18 27 19 28 20 29 72 30 21 31 71 32 22 33 23 34 24 35
REMARK SMILES IDX 65 36 25 37 70 38 64 39 66 40 26 41 69 42 63 43 62 44 27 46
REMARK SMILES IDX 53 47 36 48 52 49 37 50 40 51 51 52 67 53 38 54 39 55 50 57
REMARK SMILES IDX 68 58 41 59 28 60 29 61 34 62 30 63 31 64 33 65 35 66 32 67
REMARK SMILES IDX 54 68 55 69 60 70 56 71 57 72 59 73 61 74 58 75 42 76 43 77
REMARK SMILES IDX 48 78 44 79 45 80 47 81 49 82 46 83
REMARK H PARENT 78 20 78 21 66 45 40 56
REMARK Flexibility Score: inf
ROOT
ATOM      1  C   UNL A   1      40.753  20.951  27.371  1.00  0.00     0.188 C 
ENDROOT
BRANCH   1   2
ATOM      2  C   UNL A   1      40.023  21.358  26.074  1.00  0.00     0.188 C 
BRANCH   2   3
ATOM      3  O   UNL A   1      38.665  21.712  26.263  1.00  0.00    -0.376 OA
BRANCH   3   4
ATOM      4  C   UNL A   1      37.876  21.781  25.082  1.00  0.00     0.202 C 
BRANCH   4   5
ATOM      5  C   UNL A   1      36.493  21.111  25.122  1.00  0.00     0.261 C 
BRANCH   5   6
ATOM      6  O   UNL A   1      35.586  21.596  26.131  1.00  0.00    -0.463 OA
BRANCH   6   7
ATOM      7  C   UNL A   1      34.260  21.562  25.851  1.00  0.00     0.309 C 
ATOM      8  O   UNL A   1      33.457  20.909  26.497  1.00  0.00    -0.252 OA
BRANCH   7   9
ATOM      9  C   UNL A   1      33.940  22.400  24.609  1.00  0.00     0.106 C 
ATOM     10  C   UNL A   1      33.914  24.651  25.925  1.00  0.00     0.013 C 
ATOM     11  C   UNL A   1      33.303  23.816  24.787  1.00  0.00    -0.008 C 
ATOM     12  C   UNL A   1      33.619  24.637  23.494  1.00  0.00     0.013 C 
ATOM     13  C   UNL A   1      31.753  23.526  24.946  1.00  0.00     0.052 C 
ATOM     14  C   UNL A   1      32.904  21.653  23.781  1.00  0.00     0.017 C 
ATOM     15  C   UNL A   1      31.559  22.099  24.350  1.00  0.00     0.018 C 
ATOM     16  C   UNL A   1      30.853  24.501  24.151  1.00  0.00     0.022 C 
BRANCH  13  17
ATOM     17  C   UNL A   1      31.244  23.667  26.411  1.00  0.00     0.223 C 
ATOM     18  N   UNL A   1      31.265  22.589  27.228  1.00  0.00    -0.369 N 
ATOM     19  O   UNL A   1      30.874  24.741  26.887  1.00  0.00    -0.275 OA
ATOM     20  H   UNL A   1      31.555  21.714  26.882  1.00  0.00     0.159 HD
ATOM     21  H   UNL A   1      30.990  22.679  28.170  1.00  0.00     0.159 HD
ENDBRANCH  13  17
ENDBRANCH   7   9
ENDBRANCH   6   7
ENDBRANCH   5   6
ENDBRANCH   4   5
ENDBRANCH   3   4
ENDBRANCH   2   3
ENDBRANCH   1   2
BRANCH   1  22
ATOM     22  O   UNL A   1      42.145  20.687  27.361  1.00  0.00    -0.376 OA
BRANCH  22  23
ATOM     23  C   UNL A   1      42.780  20.438  26.118  1.00  0.00     0.202 C 
BRANCH  23  24
ATOM     24  C   UNL A   1      43.674  21.517  25.474  1.00  0.00     0.261 C 
BRANCH  24  25
ATOM     25  O   UNL A   1      43.018  22.706  24.994  1.00  0.00    -0.460 OA
BRANCH  25  26
ATOM     26  C   UNL A   1      43.734  23.854  25.073  1.00  0.00     0.338 C 
ATOM     27  O   UNL A   1      44.722  24.154  24.416  1.00  0.00    -0.246 OA
BRANCH  26  28
ATOM     28  C   UNL A   1      43.039  24.826  25.950  1.00  0.00     0.060 A 
ATOM     29  C   UNL A   1      43.502  26.151  25.992  1.00  0.00     0.016 A 
ATOM     30  C   UNL A   1      41.980  24.432  26.767  1.00  0.00     0.016 A 
ATOM     31  C   UNL A   1      42.924  27.080  26.859  1.00  0.00     0.010 A 
ATOM     32  C   UNL A   1      41.424  25.354  27.665  1.00  0.00     0.010 A 
ATOM     33  C   UNL A   1      41.913  26.674  27.737  1.00  0.00    -0.014 A 
BRANCH  33  34
ATOM     34  C   UNL A   1      41.511  27.560  28.859  1.00  0.00     0.031 A 
ATOM     35  C   UNL A   1      42.262  27.456  30.159  1.00  0.00     0.074 A 
ATOM     36  C   UNL A   1      40.507  28.445  28.738  1.00  0.00     0.049 A 
ATOM     37  N   UNL A   1      42.048  28.065  31.297  1.00  0.00    -0.248 NA
ATOM     38  C   UNL A   1      43.408  26.533  30.175  1.00  0.00     0.031 C 
ATOM     39  C   UNL A   1      39.732  28.687  27.525  1.00  0.00     0.029 A 
ATOM     40  N   UNL A   1      39.960  29.297  29.667  1.00  0.00    -0.354 N 
ATOM     41  C   UNL A   1      43.019  27.588  32.169  1.00  0.00     0.074 A 
ATOM     42  C   UNL A   1      43.807  26.621  31.434  1.00  0.00     0.031 C 
ATOM     43  C   UNL A   1      38.787  29.607  27.789  1.00  0.00     0.029 A 
ATOM     44  C   UNL A   1      38.870  29.991  29.199  1.00  0.00     0.049 A 
ATOM     45  H   UNL A   1      40.314  29.401  30.579  1.00  0.00     0.167 HD
ATOM     46  C   UNL A   1      43.237  27.924  33.462  1.00  0.00     0.037 A 
ATOM     47  C   UNL A   1      38.020  30.815  29.842  1.00  0.00     0.037 A 
ATOM     48  C   UNL A   1      42.452  28.881  34.197  1.00  0.00     0.049 A 
ATOM     49  C   UNL A   1      38.234  31.119  31.304  1.00  0.00     0.074 A 
ATOM     50  C   UNL A   1      42.616  29.311  35.501  1.00  0.00     0.029 A 
ATOM     51  N   UNL A   1      41.340  29.542  33.695  1.00  0.00    -0.354 N 
ATOM     52  N   UNL A   1      39.173  30.690  32.113  1.00  0.00    -0.248 NA
ATOM     53  C   UNL A   1      37.268  32.027  31.942  1.00  0.00     0.031 C 
ATOM     54  C   UNL A   1      41.566  30.180  35.812  1.00  0.00     0.029 A 
ATOM     55  C   UNL A   1      40.787  30.348  34.678  1.00  0.00     0.049 A 
ATOM     56  H   UNL A   1      40.996  29.453  32.778  1.00  0.00     0.167 HD
ATOM     57  C   UNL A   1      38.931  31.298  33.339  1.00  0.00     0.074 A 
ATOM     58  C   UNL A   1      37.761  32.134  33.168  1.00  0.00     0.031 C 
ATOM     59  C   UNL A   1      39.621  31.179  34.502  1.00  0.00     0.037 A 
BRANCH  46  60
ATOM     60  C   UNL A   1      44.348  27.210  34.181  1.00  0.00     0.057 A 
ATOM     61  C   UNL A   1      45.654  27.715  34.229  1.00  0.00     0.134 A 
ATOM     62  C   UNL A   1      44.099  26.000  34.843  1.00  0.00     0.134 A 
ATOM     63  F   UNL A   1      45.965  28.861  33.606  1.00  0.00    -0.206 F 
ATOM     64  C   UNL A   1      46.679  27.025  34.880  1.00  0.00     0.040 A 
ATOM     65  C   UNL A   1      45.108  25.318  35.524  1.00  0.00     0.040 A 
ATOM     66  F   UNL A   1      42.870  25.463  34.842  1.00  0.00    -0.206 F 
ATOM     67  C   UNL A   1      46.405  25.826  35.535  1.00  0.00     0.006 A 
ENDBRANCH  46  60
BRANCH  47  68
ATOM     68  C   UNL A   1      36.864  31.398  29.113  1.00  0.00     0.057 A 
ATOM     69  C   UNL A   1      35.721  30.640  28.835  1.00  0.00     0.134 A 
ATOM     70  C   UNL A   1      36.882  32.724  28.665  1.00  0.00     0.134 A 
ATOM     71  F   UNL A   1      35.657  29.353  29.209  1.00  0.00    -0.206 F 
ATOM     72  C   UNL A   1      34.642  31.176  28.130  1.00  0.00     0.040 A 
ATOM     73  C   UNL A   1      35.800  33.281  27.982  1.00  0.00     0.040 A 
ATOM     74  F   UNL A   1      37.951  33.502  28.892  1.00  0.00    -0.206 F 
ATOM     75  C   UNL A   1      34.677  32.504  27.709  1.00  0.00     0.006 A 
ENDBRANCH  47  68
BRANCH  59  76
ATOM     76  C   UNL A   1      39.158  31.998  35.676  1.00  0.00     0.057 A 
ATOM     77  C   UNL A   1      39.574  33.320  35.874  1.00  0.00     0.134 A 
ATOM     78  C   UNL A   1      38.241  31.468  36.595  1.00  0.00     0.134 A 
ATOM     79  F   UNL A   1      40.457  33.889  35.039  1.00  0.00    -0.206 F 
ATOM     80  C   UNL A   1      39.116  34.076  36.956  1.00  0.00     0.040 A 
ATOM     81  C   UNL A   1      37.753  32.224  37.662  1.00  0.00     0.040 A 
ATOM     82  F   UNL A   1      37.790  30.212  36.461  1.00  0.00    -0.206 F 
ATOM     83  C   UNL A   1      38.197  33.530  37.849  1.00  0.00     0.006 A 
ENDBRANCH  59  76
ENDBRANCH  33  34
ENDBRANCH  26  28
ENDBRANCH  25  26
ENDBRANCH  24  25
ENDBRANCH  23  24
ENDBRANCH  22  23
ENDBRANCH   1  22
TORSDOF 18
ENDMDL
MODEL 2
REMARK VINA RESULT:     -10.2      1.031      2.143
REMARK SMILES CC1(C)[C@@H](C(=O)OCCOCCOCCOC(=O)c2ccc(-c3c4nc(c(-c5c(F)cccc5F)c5ccc([nH]5)c(-c5c(F)cccc5F)c5nc(c(-c6c(F)cccc6F)c6ccc3[nH]6)C=C5)C=C4)cc2)CC[C@@]1(C)C(N)=O
REMARK SMILES IDX 12 1 11 2 10 3 9 4 8 5 7 6 5 7 6 8 4 9 1 10 2 11 3 12 75 13
REMARK SMILES IDX 73 14 74 15 76 16 77 17 78 18 79 19 13 22 14 23 15 24 16 25
REMARK SMILES IDX 17 26 18 27 19 28 20 29 72 30 21 31 71 32 22 33 23 34 24 35
REMARK SMILES IDX 65 36 25 37 70 38 64 39 66 40 26 41 69 42 63 43 62 44 27 46
REMARK SMILES IDX 53 47 36 48 52 49 37 50 40 51 51 52 67 53 38 54 39 55 50 57
REMARK SMILES IDX 68 58 41 59 28 60 29 61 34 62 30 63 31 64 33 65 35 66 32 67
REMARK SMILES IDX 54 68 55 69 60 70 56 71 57 72 59 73 61 74 58 75 42 76 43 77
REMARK SMILES IDX 48 78 44 79 45 80 47 81 49 82 46 83
REMARK H PARENT 78 20 78 21 66 45 40 56
REMARK Flexibility Score: inf
ROOT
ATOM      1  C   UNL A   1      40.668  20.256  26.355  1.00  0.00     0.188 C 
ENDROOT
BRANCH   1   2
ATOM      2  C   UNL A   1      39.985  21.558  25.886  1.00  0.00     0.188 C 
BRANCH   2   3
ATOM      3  O   UNL A   1      38.646  21.699  26.328  1.00  0.00    -0.376 OA
BRANCH   3   4
ATOM      4  C   UNL A   1      37.708  22.092  25.335  1.00  0.00     0.202 C 
BRANCH   4   5
ATOM      5  C   UNL A   1      36.242  21.685  25.555  1.00  0.00     0.261 C 
BRANCH   5   6
ATOM      6  O   UNL A   1      35.376  21.805  24.409  1.00  0.00    -0.463 OA
BRANCH   6   7
ATOM      7  C   UNL A   1      34.909  23.041  24.105  1.00  0.00     0.309 C 
ATOM      8  O   UNL A   1      35.077  23.571  23.018  1.00  0.00    -0.252 OA
BRANCH   7   9
ATOM      9  C   UNL A   1      34.204  23.673  25.309  1.00  0.00     0.106 C 
ATOM     10  C   UNL A   1      32.112  22.128  25.112  1.00  0.00     0.013 C 
ATOM     11  C   UNL A   1      32.654  23.527  25.449  1.00  0.00    -0.008 C 
ATOM     12  C   UNL A   1      32.301  23.724  26.959  1.00  0.00     0.013 C 
ATOM     13  C   UNL A   1      32.072  24.691  24.544  1.00  0.00     0.052 C 
ATOM     14  C   UNL A   1      34.409  25.180  25.247  1.00  0.00     0.017 C 
ATOM     15  C   UNL A   1      33.257  25.693  24.385  1.00  0.00     0.018 C 
ATOM     16  C   UNL A   1      30.890  25.450  25.191  1.00  0.00     0.022 C 
BRANCH  13  17
ATOM     17  C   UNL A   1      31.490  24.190  23.189  1.00  0.00     0.223 C 
ATOM     18  N   UNL A   1      32.291  24.140  22.100  1.00  0.00    -0.369 N 
ATOM     19  O   UNL A   1      30.337  23.775  23.073  1.00  0.00    -0.275 OA
ATOM     20  H   UNL A   1      33.220  24.464  22.156  1.00  0.00     0.159 HD
ATOM     21  H   UNL A   1      31.946  23.780  21.251  1.00  0.00     0.159 HD
ENDBRANCH  13  17
ENDBRANCH   7   9
ENDBRANCH   6   7
ENDBRANCH   5   6
ENDBRANCH   4   5
ENDBRANCH   3   4
ENDBRANCH   2   3
ENDBRANCH   1   2
BRANCH   1  22
ATOM     22  O   UNL A   1      42.008  19.976  25.993  1.00  0.00    -0.376 OA
BRANCH  22  23
ATOM     23  C   UNL A   1      43.001  20.955  26.253  1.00  0.00     0.202 C 
BRANCH  23  24
ATOM     24  C   UNL A   1      43.719  21.661  25.086  1.00  0.00     0.261 C 
BRANCH  24  25
ATOM     25  O   UNL A   1      43.181  22.928  24.660  1.00  0.00    -0.460 OA
BRANCH  25  26
ATOM     26  C   UNL A   1      43.947  24.016  24.917  1.00  0.00     0.338 C 
ATOM     27  O   UNL A   1      45.012  24.310  24.389  1.00  0.00    -0.246 OA
BRANCH  26  28
ATOM     28  C   UNL A   1      43.220  24.949  25.810  1.00  0.00     0.060 A 
ATOM     29  C   UNL A   1      43.583  26.306  25.811  1.00  0.00     0.016 A 
ATOM     30  C   UNL A   1      42.234  24.491  26.683  1.00  0.00     0.016 A 
ATOM     31  C   UNL A   1      42.975  27.204  26.690  1.00  0.00     0.010 A 
ATOM     32  C   UNL A   1      41.651  25.385  27.592  1.00  0.00     0.010 A 
ATOM     33  C   UNL A   1      42.040  26.738  27.620  1.00  0.00    -0.014 A 
BRANCH  33  34
ATOM     34  C   UNL A   1      41.623  27.612  28.747  1.00  0.00     0.031 A 
ATOM     35  C   UNL A   1      42.378  27.518  30.045  1.00  0.00     0.074 A 
ATOM     36  C   UNL A   1      40.602  28.479  28.631  1.00  0.00     0.049 A 
ATOM     37  N   UNL A   1      42.155  28.119  31.186  1.00  0.00    -0.248 NA
ATOM     38  C   UNL A   1      43.542  26.618  30.055  1.00  0.00     0.031 C 
ATOM     39  C   UNL A   1      39.820  28.709  27.421  1.00  0.00     0.029 A 
ATOM     40  N   UNL A   1      40.040  29.316  29.565  1.00  0.00    -0.354 N 
ATOM     41  C   UNL A   1      43.138  27.657  32.054  1.00  0.00     0.074 A 
ATOM     42  C   UNL A   1      43.942  26.709  31.314  1.00  0.00     0.031 C 
ATOM     43  C   UNL A   1      38.858  29.610  27.691  1.00  0.00     0.029 A 
ATOM     44  C   UNL A   1      38.936  29.991  29.102  1.00  0.00     0.049 A 
ATOM     45  H   UNL A   1      40.394  29.423  30.477  1.00  0.00     0.167 HD
ATOM     46  C   UNL A   1      43.352  27.993  33.348  1.00  0.00     0.037 A 
ATOM     47  C   UNL A   1      38.072  30.796  29.750  1.00  0.00     0.037 A 
ATOM     48  C   UNL A   1      42.550  28.932  34.088  1.00  0.00     0.049 A 
ATOM     49  C   UNL A   1      38.283  31.098  31.213  1.00  0.00     0.074 A 
ATOM     50  C   UNL A   1      42.708  29.360  35.394  1.00  0.00     0.029 A 
ATOM     51  N   UNL A   1      41.424  29.573  33.591  1.00  0.00    -0.354 N 
ATOM     52  N   UNL A   1      39.232  30.684  32.018  1.00  0.00    -0.248 NA
ATOM     53  C   UNL A   1      37.301  31.985  31.857  1.00  0.00     0.031 C 
ATOM     54  C   UNL A   1      41.642  30.207  35.710  1.00  0.00     0.029 A 
ATOM     55  C   UNL A   1      40.857  30.364  34.578  1.00  0.00     0.049 A 
ATOM     56  H   UNL A   1      41.080  29.480  32.674  1.00  0.00     0.167 HD
ATOM     57  C   UNL A   1      38.981  31.282  33.247  1.00  0.00     0.074 A 
ATOM     58  C   UNL A   1      37.794  32.096  33.082  1.00  0.00     0.031 C 
ATOM     59  C   UNL A   1      39.675  31.173  34.408  1.00  0.00     0.037 A 
BRANCH  46  60
ATOM     60  C   UNL A   1      44.478  27.297  34.062  1.00  0.00     0.057 A 
ATOM     61  C   UNL A   1      44.326  26.033  34.645  1.00  0.00     0.134 A 
ATOM     62  C   UNL A   1      45.738  27.903  34.155  1.00  0.00     0.134 A 
ATOM     63  F   UNL A   1      43.143  25.402  34.604  1.00  0.00    -0.206 F 
ATOM     64  C   UNL A   1      45.375  25.412  35.326  1.00  0.00     0.040 A 
ATOM     65  C   UNL A   1      46.803  27.279  34.805  1.00  0.00     0.040 A 
ATOM     66  F   UNL A   1      45.955  29.112  33.614  1.00  0.00    -0.206 F 
ATOM     67  C   UNL A   1      46.621  26.034  35.402  1.00  0.00     0.006 A 
ENDBRANCH  46  60
BRANCH  47  68
ATOM     68  C   UNL A   1      36.903  31.358  29.025  1.00  0.00     0.057 A 
ATOM     69  C   UNL A   1      36.890  32.686  28.585  1.00  0.00     0.134 A 
ATOM     70  C   UNL A   1      35.767  30.582  28.769  1.00  0.00     0.134 A 
ATOM     71  F   UNL A   1      37.935  33.490  28.829  1.00  0.00    -0.206 F 
ATOM     72  C   UNL A   1      35.784  33.226  27.923  1.00  0.00     0.040 A 
ATOM     73  C   UNL A   1      34.665  31.101  28.085  1.00  0.00     0.040 A 
ATOM     74  F   UNL A   1      35.713  29.305  29.171  1.00  0.00    -0.206 F 
ATOM     75  C   UNL A   1      34.671  32.429  27.664  1.00  0.00     0.006 A 
ENDBRANCH  47  68
BRANCH  59  76
ATOM     76  C   UNL A   1      39.199  31.978  35.586  1.00  0.00     0.057 A 
ATOM     77  C   UNL A   1      38.364  31.437  36.572  1.00  0.00     0.134 A 
ATOM     78  C   UNL A   1      39.626  33.302  35.760  1.00  0.00     0.134 A 
ATOM     79  F   UNL A   1      37.910  30.179  36.464  1.00  0.00    -0.206 F 
ATOM     80  C   UNL A   1      37.950  32.191  37.673  1.00  0.00     0.040 A 
ATOM     81  C   UNL A   1      39.243  34.055  36.872  1.00  0.00     0.040 A 
ATOM     82  F   UNL A   1      40.437  33.881  34.863  1.00  0.00    -0.206 F 
ATOM     83  C   UNL A   1      38.396  33.501  37.829  1.00  0.00     0.006 A 
ENDBRANCH  59  76
ENDBRANCH  33  34
ENDBRANCH  26  28
ENDBRANCH  25  26
ENDBRANCH  24  25
ENDBRANCH  23  24
ENDBRANCH  22  23
ENDBRANCH   1  22
TORSDOF 18
ENDMDL
MODEL 3
REMARK VINA RESULT:     -10.0      4.452      9.601
REMARK SMILES CC1(C)[C@@H](C(=O)OCCOCCOCCOC(=O)c2ccc(-c3c4nc(c(-c5c(F)cccc5F)c5ccc([nH]5)c(-c5c(F)cccc5F)c5nc(c(-c6c(F)cccc6F)c6ccc3[nH]6)C=C5)C=C4)cc2)CC[C@@]1(C)C(N)=O
REMARK SMILES IDX 12 1 11 2 10 3 9 4 8 5 7 6 5 7 6 8 4 9 1 10 2 11 3 12 75 13
REMARK SMILES IDX 73 14 74 15 76 16 77 17 78 18 79 19 13 22 14 23 15 24 16 25
REMARK SMILES IDX 17 26 18 27 19 28 20 29 72 30 21 31 71 32 22 33 23 34 24 35
REMARK SMILES IDX 65 36 25 37 70 38 64 39 66 40 26 41 69 42 63 43 62 44 27 46
REMARK SMILES IDX 53 47 36 48 52 49 37 50 40 51 51 52 67 53 38 54 39 55 50 57
REMARK SMILES IDX 68 58 41 59 28 60 29 61 34 62 30 63 31 64 33 65 35 66 32 67
REMARK SMILES IDX 54 68 55 69 60 70 56 71 57 72 59 73 61 74 58 75 42 76 43 77
REMARK SMILES IDX 48 78 44 79 45 80 47 81 49 82 46 83
REMARK H PARENT 78 20 78 21 66 45 40 56
REMARK Flexibility Score: inf
ROOT
ATOM      1  C   UNL A   1      33.936  32.025  27.682  1.00  0.00     0.188 C 
ENDROOT
BRANCH   1   2
ATOM      2  C   UNL A   1      32.793  31.111  27.193  1.00  0.00     0.188 C 
BRANCH   2   3
ATOM      3  O   UNL A   1      33.202  29.789  26.890  1.00  0.00    -0.376 OA
BRANCH   3   4
ATOM      4  C   UNL A   1      33.170  29.435  25.514  1.00  0.00     0.202 C 
BRANCH   4   5
ATOM      5  C   UNL A   1      32.183  28.331  25.096  1.00  0.00     0.261 C 
BRANCH   5   6
ATOM      6  O   UNL A   1      32.766  27.167  24.478  1.00  0.00    -0.463 OA
BRANCH   6   7
ATOM      7  C   UNL A   1      33.016  26.097  25.271  1.00  0.00     0.309 C 
ATOM      8  O   UNL A   1      33.036  26.158  26.490  1.00  0.00    -0.252 OA
BRANCH   7   9
ATOM      9  C   UNL A   1      33.312  24.849  24.432  1.00  0.00     0.106 C 
ATOM     10  C   UNL A   1      30.800  24.421  23.875  1.00  0.00     0.013 C 
ATOM     11  C   UNL A   1      32.174  23.805  24.190  1.00  0.00    -0.008 C 
ATOM     12  C   UNL A   1      32.542  23.003  22.900  1.00  0.00     0.013 C 
ATOM     13  C   UNL A   1      32.202  22.895  25.487  1.00  0.00     0.052 C 
ATOM     14  C   UNL A   1      34.385  24.038  25.142  1.00  0.00     0.017 C 
ATOM     15  C   UNL A   1      33.615  23.132  26.101  1.00  0.00     0.018 C 
ATOM     16  C   UNL A   1      32.059  21.384  25.189  1.00  0.00     0.022 C 
BRANCH  13  17
ATOM     17  C   UNL A   1      31.034  23.187  26.474  1.00  0.00     0.223 C 
ATOM     18  N   UNL A   1      29.936  22.397  26.458  1.00  0.00    -0.369 N 
ATOM     19  O   UNL A   1      31.085  24.080  27.322  1.00  0.00    -0.275 OA
ATOM     20  H   UNL A   1      29.860  21.673  25.795  1.00  0.00     0.159 HD
ATOM     21  H   UNL A   1      29.213  22.544  27.111  1.00  0.00     0.159 HD
ENDBRANCH  13  17
ENDBRANCH   7   9
ENDBRANCH   6   7
ENDBRANCH   5   6
ENDBRANCH   4   5
ENDBRANCH   3   4
ENDBRANCH   2   3
ENDBRANCH   1   2
BRANCH   1  22
ATOM     22  O   UNL A   1      33.658  33.325  28.173  1.00  0.00    -0.376 OA
BRANCH  22  23
ATOM     23  C   UNL A   1      34.586  33.928  29.060  1.00  0.00     0.202 C 
BRANCH  23  24
ATOM     24  C   UNL A   1      34.386  33.820  30.585  1.00  0.00     0.261 C 
BRANCH  24  25
ATOM     25  O   UNL A   1      34.443  32.500  31.157  1.00  0.00    -0.460 OA
BRANCH  25  26
ATOM     26  C   UNL A   1      35.404  32.296  32.091  1.00  0.00     0.338 C 
ATOM     27  O   UNL A   1      35.356  32.599  33.277  1.00  0.00    -0.246 OA
BRANCH  26  28
ATOM     28  C   UNL A   1      36.488  31.457  31.530  1.00  0.00     0.060 A 
ATOM     29  C   UNL A   1      37.531  31.044  32.375  1.00  0.00     0.016 A 
ATOM     30  C   UNL A   1      36.516  31.125  30.176  1.00  0.00     0.016 A 
ATOM     31  C   UNL A   1      38.609  30.315  31.871  1.00  0.00     0.010 A 
ATOM     32  C   UNL A   1      37.616  30.425  29.662  1.00  0.00     0.010 A 
ATOM     33  C   UNL A   1      38.682  30.044  30.500  1.00  0.00    -0.014 A 
BRANCH  33  34
ATOM     34  C   UNL A   1      39.954  29.548  29.914  1.00  0.00     0.031 A 
ATOM     35  C   UNL A   1      41.100  30.512  29.767  1.00  0.00     0.074 A 
ATOM     36  C   UNL A   1      40.102  28.270  29.522  1.00  0.00     0.049 A 
ATOM     37  N   UNL A   1      42.275  30.334  29.218  1.00  0.00    -0.248 NA
ATOM     38  C   UNL A   1      40.886  31.862  30.310  1.00  0.00     0.031 C 
ATOM     39  C   UNL A   1      39.096  27.221  29.654  1.00  0.00     0.029 A 
ATOM     40  N   UNL A   1      41.166  27.648  28.913  1.00  0.00    -0.354 N 
ATOM     41  C   UNL A   1      42.934  31.552  29.334  1.00  0.00     0.074 A 
ATOM     42  C   UNL A   1      42.018  32.466  29.983  1.00  0.00     0.031 C 
ATOM     43  C   UNL A   1      39.579  26.087  29.115  1.00  0.00     0.029 A 
ATOM     44  C   UNL A   1      40.914  26.341  28.571  1.00  0.00     0.049 A 
ATOM     45  H   UNL A   1      42.026  28.094  28.741  1.00  0.00     0.167 HD
ATOM     46  C   UNL A   1      44.186  31.880  28.938  1.00  0.00     0.037 A 
ATOM     47  C   UNL A   1      41.659  25.465  27.871  1.00  0.00     0.037 A 
ATOM     48  C   UNL A   1      45.096  30.974  28.287  1.00  0.00     0.049 A 
ATOM     49  C   UNL A   1      43.022  25.872  27.371  1.00  0.00     0.074 A 
ATOM     50  C   UNL A   1      46.397  31.206  27.877  1.00  0.00     0.029 A 
ATOM     51  N   UNL A   1      44.792  29.668  27.933  1.00  0.00    -0.354 N 
ATOM     52  N   UNL A   1      43.651  27.014  27.513  1.00  0.00    -0.248 NA
ATOM     53  C   UNL A   1      43.782  24.865  26.615  1.00  0.00     0.031 C 
ATOM     54  C   UNL A   1      46.858  30.064  27.215  1.00  0.00     0.029 A 
ATOM     55  C   UNL A   1      45.869  29.095  27.275  1.00  0.00     0.049 A 
ATOM     56  H   UNL A   1      43.939  29.215  28.121  1.00  0.00     0.167 HD
ATOM     57  C   UNL A   1      44.886  26.853  26.895  1.00  0.00     0.074 A 
ATOM     58  C   UNL A   1      44.923  25.498  26.383  1.00  0.00     0.031 C 
ATOM     59  C   UNL A   1      45.901  27.744  26.768  1.00  0.00     0.037 A 
BRANCH  46  60
ATOM     60  C   UNL A   1      44.627  33.301  29.157  1.00  0.00     0.057 A 
ATOM     61  C   UNL A   1      44.400  34.309  28.210  1.00  0.00     0.134 A 
ATOM     62  C   UNL A   1      45.280  33.664  30.342  1.00  0.00     0.134 A 
ATOM     63  F   UNL A   1      43.792  34.028  27.048  1.00  0.00    -0.206 F 
ATOM     64  C   UNL A   1      44.839  35.618  28.419  1.00  0.00     0.040 A 
ATOM     65  C   UNL A   1      45.694  34.976  30.576  1.00  0.00     0.040 A 
ATOM     66  F   UNL A   1      45.524  32.750  31.294  1.00  0.00    -0.206 F 
ATOM     67  C   UNL A   1      45.483  35.955  29.609  1.00  0.00     0.006 A 
ENDBRANCH  46  60
BRANCH  47  68
ATOM     68  C   UNL A   1      41.122  24.111  27.576  1.00  0.00     0.057 A 
ATOM     69  C   UNL A   1      40.126  23.917  26.612  1.00  0.00     0.134 A 
ATOM     70  C   UNL A   1      41.585  22.981  28.261  1.00  0.00     0.134 A 
ATOM     71  F   UNL A   1      39.619  24.964  25.945  1.00  0.00    -0.206 F 
ATOM     72  C   UNL A   1      39.602  22.650  26.348  1.00  0.00     0.040 A 
ATOM     73  C   UNL A   1      41.089  21.705  27.988  1.00  0.00     0.040 A 
ATOM     74  F   UNL A   1      42.532  23.100  29.202  1.00  0.00    -0.206 F 
ATOM     75  C   UNL A   1      40.090  21.538  27.031  1.00  0.00     0.006 A 
ENDBRANCH  47  68
BRANCH  59  76
ATOM     76  C   UNL A   1      47.157  27.280  26.084  1.00  0.00     0.057 A 
ATOM     77  C   UNL A   1      47.365  27.449  24.709  1.00  0.00     0.134 A 
ATOM     78  C   UNL A   1      48.197  26.699  26.824  1.00  0.00     0.134 A 
ATOM     79  F   UNL A   1      46.410  27.990  23.938  1.00  0.00    -0.206 F 
ATOM     80  C   UNL A   1      48.548  27.035  24.092  1.00  0.00     0.040 A 
ATOM     81  C   UNL A   1      49.395  26.309  26.223  1.00  0.00     0.040 A 
ATOM     82  F   UNL A   1      48.073  26.517  28.147  1.00  0.00    -0.206 F 
ATOM     83  C   UNL A   1      49.570  26.470  24.851  1.00  0.00     0.006 A 
ENDBRANCH  59  76
ENDBRANCH  33  34
ENDBRANCH  26  28
ENDBRANCH  25  26
ENDBRANCH  24  25
ENDBRANCH  23  24
ENDBRANCH  22  23
ENDBRANCH   1  22
TORSDOF 18
ENDMDL
