MODEL 1
REMARK VINA RESULT:     -13.8      0.000      0.000
REMARK SMILES Cc1ccc(-c2cc(Cl)cc3c2O[C@@H](C(F)(F)F)C(C(=O)OCCOCCOCCOC(=O)c2ccc(-c4c5nc(c(-c6c(F)cccc6F)c6ccc([nH]6)c(-c6c(F)cccc6F)c6nc(c(-c7c(F)cccc7F)c7ccc4[nH]7)C=C6)C=C5)cc2)=C3)cc1
REMARK SMILES IDX 27 1 26 2 25 3 24 4 23 5 22 6 20 7 21 8 19 9 6 10 7 11 12 12
REMARK SMILES IDX 8 13 11 14 13 15 9 16 10 17 88 18 14 19 5 20 1 21 2 22 3 23
REMARK SMILES IDX 90 24 4 25 89 26 15 27 16 28 17 29 18 30 28 31 29 32 30 33
REMARK SMILES IDX 31 34 32 35 33 36 34 37 35 38 87 39 36 40 86 41 37 42 38 43
REMARK SMILES IDX 39 44 80 45 40 46 85 47 79 48 81 49 41 50 84 51 78 52 77 53
REMARK SMILES IDX 42 55 68 56 51 57 67 58 52 59 55 60 66 61 82 62 53 63 54 64
REMARK SMILES IDX 65 66 83 67 56 68 43 69 44 70 49 71 45 72 46 73 48 74 50 75
REMARK SMILES IDX 47 76 69 77 70 78 75 79 71 80 72 81 74 82 76 83 73 84 57 85
REMARK SMILES IDX 58 86 63 87 59 88 60 89 62 90 64 91 61 92
REMARK H PARENT 81 54 55 65
REMARK Flexibility Score: inf
ROOT
ATOM      1  C   UNL A   1      41.874  19.541  26.377  1.00  0.00     0.188 C 
ENDROOT
BRANCH   1   2
ATOM      2  C   UNL A   1      40.405  19.755  26.129  1.00  0.00     0.188 C 
BRANCH   2   3
ATOM      3  O   UNL A   1      39.799  21.059  26.200  1.00  0.00    -0.376 OA
BRANCH   3   4
ATOM      4  C   UNL A   1      38.554  21.601  25.635  1.00  0.00     0.202 C 
BRANCH   4   5
ATOM      5  C   UNL A   1      37.591  23.199  25.620  1.00  0.00     0.261 C 
BRANCH   5   6
ATOM      6  O   UNL A   1      35.917  23.675  26.437  1.00  0.00    -0.460 OA
BRANCH   6   7
ATOM      7  C   UNL A   1      34.432  23.062  26.795  1.00  0.00     0.338 C 
ATOM      8  O   UNL A   1      34.185  22.463  27.852  1.00  0.00    -0.246 OA
BRANCH   7   9
ATOM      9  C   UNL A   1      33.092  23.091  26.030  1.00  0.00     0.087 C 
ATOM     10  C   UNL A   1      31.954  27.088  25.064  1.00  0.00     0.026 A 
ATOM     11  C   UNL A   1      30.658  27.343  24.674  1.00  0.00     0.033 A 
ATOM     12  C   UNL A   1      32.216  25.606  25.345  1.00  0.00     0.135 A 
ATOM     13  C   UNL A   1      29.726  26.289  24.755  1.00  0.00     0.042 A 
ATOM     14  C   UNL A   1      31.274  24.741  25.871  1.00  0.00     0.019 A 
ATOM     15  O   UNL A   1      32.974  24.725  24.282  1.00  0.00    -0.475 OA
ATOM     16  Cl  UNL A   1      28.197  26.525  23.987  1.00  0.00    -0.084 Cl
ATOM     17  C   UNL A   1      29.991  25.048  25.432  1.00  0.00     0.032 A 
ATOM     18  C   UNL A   1      31.903  23.543  26.580  1.00  0.00     0.027 C 
ATOM     19  C   UNL A   1      32.991  23.253  24.580  1.00  0.00     0.316 C 
BRANCH  10  20
ATOM     20  C   UNL A   1      32.924  28.492  25.631  1.00  0.00    -0.015 A 
ATOM     21  C   UNL A   1      34.456  32.551  28.446  1.00  0.00     0.044 C 
ATOM     22  C   UNL A   1      33.926  31.317  27.757  1.00  0.00    -0.051 A 
ATOM     23  C   UNL A   1      35.072  30.010  27.684  1.00  0.00     0.004 A 
ATOM     24  C   UNL A   1      32.380  31.303  26.850  1.00  0.00     0.004 A 
ATOM     25  C   UNL A   1      34.676  28.597  26.674  1.00  0.00     0.009 A 
ATOM     26  C   UNL A   1      31.856  29.953  25.791  1.00  0.00     0.009 A 
ENDBRANCH  10  20
BRANCH  19  27
ATOM     27  C   UNL A   1      33.870  22.131  23.982  1.00  0.00     0.430 C 
ATOM     28  F   UNL A   1      33.987  21.096  24.877  1.00  0.00    -0.167 F 
ATOM     29  F   UNL A   1      33.293  21.572  22.893  1.00  0.00    -0.167 F 
ATOM     30  F   UNL A   1      35.115  22.493  23.657  1.00  0.00    -0.167 F 
ENDBRANCH  19  27
ENDBRANCH   7   9
ENDBRANCH   6   7
ENDBRANCH   5   6
ENDBRANCH   4   5
ENDBRANCH   3   4
ENDBRANCH   2   3
ENDBRANCH   1   2
BRANCH   1  31
ATOM     31  O   UNL A   1      42.518  19.451  25.133  1.00  0.00    -0.376 OA
BRANCH  31  32
ATOM     32  C   UNL A   1      43.786  18.839  25.176  1.00  0.00     0.202 C 
BRANCH  32  33
ATOM     33  C   UNL A   1      44.936  19.801  24.849  1.00  0.00     0.261 C 
BRANCH  33  34
ATOM     34  O   UNL A   1      44.734  21.088  25.475  1.00  0.00    -0.460 OA
BRANCH  34  35
ATOM     35  C   UNL A   1      44.217  22.052  24.653  1.00  0.00     0.338 C 
ATOM     36  O   UNL A   1      44.569  22.269  23.507  1.00  0.00    -0.246 OA
BRANCH  35  37
ATOM     37  C   UNL A   1      43.397  22.973  25.466  1.00  0.00     0.060 A 
ATOM     38  C   UNL A   1      42.785  24.129  25.022  1.00  0.00     0.016 A 
ATOM     39  C   UNL A   1      43.315  22.806  26.795  1.00  0.00     0.016 A 
ATOM     40  C   UNL A   1      42.576  25.271  25.931  1.00  0.00     0.010 A 
ATOM     41  C   UNL A   1      43.079  23.968  27.539  1.00  0.00     0.010 A 
ATOM     42  C   UNL A   1      43.045  25.408  27.186  1.00  0.00    -0.014 A 
BRANCH  42  43
ATOM     43  C   UNL A   1      43.045  26.983  28.202  1.00  0.00     0.031 A 
ATOM     44  C   UNL A   1      41.617  28.149  28.475  1.00  0.00     0.074 A 
ATOM     45  C   UNL A   1      44.079  27.385  29.022  1.00  0.00     0.049 A 
ATOM     46  N   UNL A   1      41.619  29.254  29.162  1.00  0.00    -0.248 NA
ATOM     47  C   UNL A   1      40.157  28.149  27.757  1.00  0.00     0.031 C 
ATOM     48  C   UNL A   1      44.053  28.378  30.110  1.00  0.00     0.029 A 
ATOM     49  N   UNL A   1      45.434  26.992  29.082  1.00  0.00    -0.354 N 
ATOM     50  C   UNL A   1      40.371  29.869  29.050  1.00  0.00     0.074 A 
ATOM     51  C   UNL A   1      39.616  29.308  28.015  1.00  0.00     0.031 C 
ATOM     52  C   UNL A   1      45.311  28.753  30.412  1.00  0.00     0.029 A 
ATOM     53  C   UNL A   1      46.175  28.144  29.418  1.00  0.00     0.049 A 
ATOM     54  H   UNL A   1      45.792  26.089  28.921  1.00  0.00     0.167 HD
ATOM     55  C   UNL A   1      39.969  30.797  29.935  1.00  0.00     0.037 A 
ATOM     56  C   UNL A   1      46.995  28.772  28.516  1.00  0.00     0.037 A 
ATOM     57  C   UNL A   1      41.157  31.458  30.418  1.00  0.00     0.049 A 
ATOM     58  C   UNL A   1      46.527  30.263  28.333  1.00  0.00     0.074 A 
ATOM     59  C   UNL A   1      41.977  31.334  31.518  1.00  0.00     0.029 A 
ATOM     60  N   UNL A   1      41.932  32.048  29.436  1.00  0.00    -0.354 N 
ATOM     61  N   UNL A   1      45.513  30.821  28.964  1.00  0.00    -0.248 NA
ATOM     62  C   UNL A   1      47.133  31.232  27.417  1.00  0.00     0.031 C 
ATOM     63  C   UNL A   1      43.277  31.822  31.139  1.00  0.00     0.029 A 
ATOM     64  C   UNL A   1      43.229  32.268  29.827  1.00  0.00     0.049 A 
ATOM     65  H   UNL A   1      41.588  32.287  28.546  1.00  0.00     0.167 HD
ATOM     66  C   UNL A   1      45.240  32.074  28.467  1.00  0.00     0.074 A 
ATOM     67  C   UNL A   1      46.312  32.296  27.516  1.00  0.00     0.031 C 
ATOM     68  C   UNL A   1      44.141  32.821  28.821  1.00  0.00     0.037 A 
BRANCH  55  69
ATOM     69  C   UNL A   1      38.529  30.896  30.402  1.00  0.00     0.057 A 
ATOM     70  C   UNL A   1      37.972  32.176  30.499  1.00  0.00     0.134 A 
ATOM     71  C   UNL A   1      37.697  29.870  30.943  1.00  0.00     0.134 A 
ATOM     72  F   UNL A   1      38.623  33.246  30.025  1.00  0.00    -0.206 F 
ATOM     73  C   UNL A   1      36.745  32.426  31.131  1.00  0.00     0.040 A 
ATOM     74  C   UNL A   1      36.449  30.105  31.534  1.00  0.00     0.040 A 
ATOM     75  F   UNL A   1      38.033  28.577  31.005  1.00  0.00    -0.206 F 
ATOM     76  C   UNL A   1      35.981  31.395  31.658  1.00  0.00     0.006 A 
ENDBRANCH  55  69
BRANCH  56  77
ATOM     77  C   UNL A   1      47.579  27.755  27.354  1.00  0.00     0.057 A 
ATOM     78  C   UNL A   1      47.003  26.504  25.860  1.00  0.00     0.134 A 
ATOM     79  C   UNL A   1      49.344  28.126  27.329  1.00  0.00     0.134 A 
ATOM     80  F   UNL A   1      45.771  26.066  25.446  1.00  0.00    -0.206 F 
ATOM     81  C   UNL A   1      48.161  25.872  24.672  1.00  0.00     0.040 A 
ATOM     82  C   UNL A   1      50.344  27.380  25.999  1.00  0.00     0.040 A 
ATOM     83  F   UNL A   1      49.902  28.607  28.445  1.00  0.00    -0.206 F 
ATOM     84  C   UNL A   1      49.769  26.320  24.764  1.00  0.00     0.006 A 
ENDBRANCH  56  77
BRANCH  68  85
ATOM     85  C   UNL A   1      43.786  34.189  28.239  1.00  0.00     0.057 A 
ATOM     86  C   UNL A   1      43.564  35.306  29.049  1.00  0.00     0.134 A 
ATOM     87  C   UNL A   1      43.450  34.378  26.873  1.00  0.00     0.134 A 
ATOM     88  F   UNL A   1      43.830  35.268  30.362  1.00  0.00    -0.206 F 
ATOM     89  C   UNL A   1      43.023  36.504  28.547  1.00  0.00     0.040 A 
ATOM     90  C   UNL A   1      42.834  35.532  26.378  1.00  0.00     0.040 A 
ATOM     91  F   UNL A   1      43.733  33.461  25.936  1.00  0.00    -0.206 F 
ATOM     92  C   UNL A   1      42.620  36.607  27.219  1.00  0.00     0.006 A 
ENDBRANCH  68  85
ENDBRANCH  42  43
ENDBRANCH  35  37
ENDBRANCH  34  35
ENDBRANCH  33  34
ENDBRANCH  32  33
ENDBRANCH  31  32
ENDBRANCH   1  31
TORSDOF 19
ENDMDL
MODEL 2
REMARK VINA RESULT:     -12.7      1.679      2.666
REMARK SMILES Cc1ccc(-c2cc(Cl)cc3c2O[C@@H](C(F)(F)F)C(C(=O)OCCOCCOCCOC(=O)c2ccc(-c4c5nc(c(-c6c(F)cccc6F)c6ccc([nH]6)c(-c6c(F)cccc6F)c6nc(c(-c7c(F)cccc7F)c7ccc4[nH]7)C=C6)C=C5)cc2)=C3)cc1
REMARK SMILES IDX 27 1 26 2 25 3 24 4 23 5 22 6 20 7 21 8 19 9 6 10 7 11 12 12
REMARK SMILES IDX 8 13 11 14 13 15 9 16 10 17 88 18 14 19 5 20 1 21 2 22 3 23
REMARK SMILES IDX 90 24 4 25 89 26 15 27 16 28 17 29 18 30 28 31 29 32 30 33
REMARK SMILES IDX 31 34 32 35 33 36 34 37 35 38 87 39 36 40 86 41 37 42 38 43
REMARK SMILES IDX 39 44 80 45 40 46 85 47 79 48 81 49 41 50 84 51 78 52 77 53
REMARK SMILES IDX 42 55 68 56 51 57 67 58 52 59 55 60 66 61 82 62 53 63 54 64
REMARK SMILES IDX 65 66 83 67 56 68 43 69 44 70 49 71 45 72 46 73 48 74 50 75
REMARK SMILES IDX 47 76 69 77 70 78 75 79 71 80 72 81 74 82 76 83 73 84 57 85
REMARK SMILES IDX 58 86 63 87 59 88 60 89 62 90 64 91 61 92
REMARK H PARENT 81 54 55 65
REMARK Flexibility Score: inf
ROOT
ATOM      1  C   UNL A   1      42.143  19.741  26.444  1.00  0.00     0.188 C 
ENDROOT
BRANCH   1   2
ATOM      2  C   UNL A   1      40.650  19.929  26.469  1.00  0.00     0.188 C 
BRANCH   2   3
ATOM      3  O   UNL A   1      40.037  21.221  26.298  1.00  0.00    -0.376 OA
BRANCH   3   4
ATOM      4  C   UNL A   1      38.699  21.627  25.845  1.00  0.00     0.202 C 
BRANCH   4   5
ATOM      5  C   UNL A   1      37.724  23.189  25.552  1.00  0.00     0.261 C 
BRANCH   5   6
ATOM      6  O   UNL A   1      36.021  23.766  26.236  1.00  0.00    -0.460 OA
BRANCH   6   7
ATOM      7  C   UNL A   1      34.522  23.202  26.617  1.00  0.00     0.338 C 
ATOM      8  O   UNL A   1      34.262  22.647  27.695  1.00  0.00    -0.246 OA
BRANCH   7   9
ATOM      9  C   UNL A   1      33.182  23.236  25.852  1.00  0.00     0.087 C 
ATOM     10  C   UNL A   1      31.996  27.244  24.999  1.00  0.00     0.026 A 
ATOM     11  C   UNL A   1      30.697  27.495  24.615  1.00  0.00     0.033 A 
ATOM     12  C   UNL A   1      32.276  25.759  25.238  1.00  0.00     0.135 A 
ATOM     13  C   UNL A   1      29.778  26.428  24.666  1.00  0.00     0.042 A 
ATOM     14  C   UNL A   1      31.345  24.868  25.739  1.00  0.00     0.019 A 
ATOM     15  O   UNL A   1      33.044  24.917  24.151  1.00  0.00    -0.475 OA
ATOM     16  Cl  UNL A   1      28.246  26.666  23.905  1.00  0.00    -0.084 Cl
ATOM     17  C   UNL A   1      30.057  25.171  25.308  1.00  0.00     0.032 A 
ATOM     18  C   UNL A   1      31.988  23.659  26.414  1.00  0.00     0.027 C 
ATOM     19  C   UNL A   1      33.079  23.437  24.407  1.00  0.00     0.316 C 
BRANCH  10  20
ATOM     20  C   UNL A   1      32.949  28.644  25.604  1.00  0.00    -0.015 A 
ATOM     21  C   UNL A   1      34.437  32.634  28.539  1.00  0.00     0.044 C 
ATOM     22  C   UNL A   1      33.921  31.415  27.814  1.00  0.00    -0.051 A 
ATOM     23  C   UNL A   1      35.085  30.127  27.695  1.00  0.00     0.004 A 
ATOM     24  C   UNL A   1      32.371  31.408  26.913  1.00  0.00     0.004 A 
ATOM     25  C   UNL A   1      34.704  28.740  26.643  1.00  0.00     0.009 A 
ATOM     26  C   UNL A   1      31.861  30.084  25.815  1.00  0.00     0.009 A 
ENDBRANCH  10  20
BRANCH  19  27
ATOM     27  C   UNL A   1      33.972  22.343  23.778  1.00  0.00     0.430 C 
ATOM     28  F   UNL A   1      34.159  21.316  24.671  1.00  0.00    -0.167 F 
ATOM     29  F   UNL A   1      33.372  21.760  22.714  1.00  0.00    -0.167 F 
ATOM     30  F   UNL A   1      35.190  22.746  23.404  1.00  0.00    -0.167 F 
ENDBRANCH  19  27
ENDBRANCH   7   9
ENDBRANCH   6   7
ENDBRANCH   5   6
ENDBRANCH   4   5
ENDBRANCH   3   4
ENDBRANCH   2   3
ENDBRANCH   1   2
BRANCH   1  31
ATOM     31  O   UNL A   1      42.660  20.498  25.382  1.00  0.00    -0.376 OA
BRANCH  31  32
ATOM     32  C   UNL A   1      43.788  21.273  25.713  1.00  0.00     0.202 C 
BRANCH  32  33
ATOM     33  C   UNL A   1      43.557  22.782  25.554  1.00  0.00     0.261 C 
BRANCH  33  34
ATOM     34  O   UNL A   1      42.523  23.249  26.451  1.00  0.00    -0.460 OA
BRANCH  34  35
ATOM     35  C   UNL A   1      42.003  24.475  26.140  1.00  0.00     0.338 C 
ATOM     36  O   UNL A   1      41.951  24.960  25.024  1.00  0.00    -0.246 OA
BRANCH  35  37
ATOM     37  C   UNL A   1      41.803  25.233  27.392  1.00  0.00     0.060 A 
ATOM     38  C   UNL A   1      40.681  25.963  27.734  1.00  0.00     0.016 A 
ATOM     39  C   UNL A   1      42.817  25.381  28.258  1.00  0.00     0.016 A 
ATOM     40  C   UNL A   1      40.788  27.153  28.598  1.00  0.00     0.010 A 
ATOM     41  C   UNL A   1      42.778  26.539  29.044  1.00  0.00     0.010 A 
ATOM     42  C   UNL A   1      41.918  27.747  29.028  1.00  0.00    -0.014 A 
BRANCH  42  43
ATOM     43  C   UNL A   1      42.042  29.426  29.851  1.00  0.00     0.031 A 
ATOM     44  C   UNL A   1      40.661  30.642  30.147  1.00  0.00     0.074 A 
ATOM     45  C   UNL A   1      43.165  29.899  30.498  1.00  0.00     0.049 A 
ATOM     46  N   UNL A   1      40.748  31.818  30.698  1.00  0.00    -0.248 NA
ATOM     47  C   UNL A   1      39.129  30.588  29.602  1.00  0.00     0.031 C 
ATOM     48  C   UNL A   1      43.269  31.009  31.461  1.00  0.00     0.029 A 
ATOM     49  N   UNL A   1      44.516  29.491  30.450  1.00  0.00    -0.354 N 
ATOM     50  C   UNL A   1      39.498  32.439  30.658  1.00  0.00     0.074 A 
ATOM     51  C   UNL A   1      38.628  31.778  29.785  1.00  0.00     0.031 C 
ATOM     52  C   UNL A   1      44.555  31.393  31.574  1.00  0.00     0.029 A 
ATOM     53  C   UNL A   1      45.297  30.659  30.566  1.00  0.00     0.049 A 
ATOM     54  H   UNL A   1      44.848  28.568  30.355  1.00  0.00     0.167 HD
ATOM     55  C   UNL A   1      39.205  33.469  31.470  1.00  0.00     0.037 A 
ATOM     56  C   UNL A   1      46.012  31.166  29.511  1.00  0.00     0.037 A 
ATOM     57  C   UNL A   1      40.444  34.158  31.737  1.00  0.00     0.049 A 
ATOM     58  C   UNL A   1      45.535  32.635  29.213  1.00  0.00     0.074 A 
ATOM     59  C   UNL A   1      41.383  34.144  32.745  1.00  0.00     0.029 A 
ATOM     60  N   UNL A   1      41.105  34.618  30.613  1.00  0.00    -0.354 N 
ATOM     61  N   UNL A   1      44.603  33.279  29.885  1.00  0.00    -0.248 NA
ATOM     62  C   UNL A   1      46.039  33.483  28.129  1.00  0.00     0.031 C 
ATOM     63  C   UNL A   1      42.634  34.561  32.169  1.00  0.00     0.029 A 
ATOM     64  C   UNL A   1      42.440  34.857  30.828  1.00  0.00     0.049 A 
ATOM     65  H   UNL A   1      40.663  34.761  29.746  1.00  0.00     0.167 HD
ATOM     66  C   UNL A   1      44.282  34.473  29.282  1.00  0.00     0.074 A 
ATOM     67  C   UNL A   1      45.240  34.566  28.197  1.00  0.00     0.031 C 
ATOM     68  C   UNL A   1      43.235  35.276  29.669  1.00  0.00     0.037 A 
BRANCH  55  69
ATOM     69  C   UNL A   1      37.828  33.647  32.081  1.00  0.00     0.057 A 
ATOM     70  C   UNL A   1      37.648  33.208  33.396  1.00  0.00     0.134 A 
ATOM     71  C   UNL A   1      36.614  34.038  31.438  1.00  0.00     0.134 A 
ATOM     72  F   UNL A   1      38.691  32.818  34.139  1.00  0.00    -0.206 F 
ATOM     73  C   UNL A   1      36.384  33.099  33.996  1.00  0.00     0.040 A 
ATOM     74  C   UNL A   1      35.353  33.977  32.045  1.00  0.00     0.040 A 
ATOM     75  F   UNL A   1      36.528  34.449  30.169  1.00  0.00    -0.206 F 
ATOM     76  C   UNL A   1      35.231  33.475  33.323  1.00  0.00     0.006 A 
ENDBRANCH  55  69
BRANCH  56  77
ATOM     77  C   UNL A   1      46.455  30.013  28.415  1.00  0.00     0.057 A 
ATOM     78  C   UNL A   1      45.709  28.715  27.041  1.00  0.00     0.134 A 
ATOM     79  C   UNL A   1      48.245  30.208  28.309  1.00  0.00     0.134 A 
ATOM     80  F   UNL A   1      44.426  28.368  26.700  1.00  0.00    -0.206 F 
ATOM     81  C   UNL A   1      46.757  27.887  25.872  1.00  0.00     0.040 A 
ATOM     82  C   UNL A   1      49.120  29.272  27.012  1.00  0.00     0.040 A 
ATOM     83  F   UNL A   1      48.886  30.716  29.367  1.00  0.00    -0.206 F 
ATOM     84  C   UNL A   1      48.402  28.183  25.881  1.00  0.00     0.006 A 
ENDBRANCH  56  77
BRANCH  68  85
ATOM     85  C   UNL A   1      42.823  36.576  28.978  1.00  0.00     0.057 A 
ATOM     86  C   UNL A   1      42.099  36.585  27.783  1.00  0.00     0.134 A 
ATOM     87  C   UNL A   1      43.319  37.845  29.376  1.00  0.00     0.134 A 
ATOM     88  F   UNL A   1      41.579  35.456  27.286  1.00  0.00    -0.206 F 
ATOM     89  C   UNL A   1      41.910  37.757  27.028  1.00  0.00     0.040 A 
ATOM     90  C   UNL A   1      43.210  39.000  28.593  1.00  0.00     0.040 A 
ATOM     91  F   UNL A   1      43.909  38.040  30.565  1.00  0.00    -0.206 F 
ATOM     92  C   UNL A   1      42.498  38.959  27.411  1.00  0.00     0.006 A 
ENDBRANCH  68  85
ENDBRANCH  42  43
ENDBRANCH  35  37
ENDBRANCH  34  35
ENDBRANCH  33  34
ENDBRANCH  32  33
ENDBRANCH  31  32
ENDBRANCH   1  31
TORSDOF 19
ENDMDL
MODEL 3
REMARK VINA RESULT:     -12.7      1.534      2.135
REMARK SMILES Cc1ccc(-c2cc(Cl)cc3c2O[C@@H](C(F)(F)F)C(C(=O)OCCOCCOCCOC(=O)c2ccc(-c4c5nc(c(-c6c(F)cccc6F)c6ccc([nH]6)c(-c6c(F)cccc6F)c6nc(c(-c7c(F)cccc7F)c7ccc4[nH]7)C=C6)C=C5)cc2)=C3)cc1
REMARK SMILES IDX 27 1 26 2 25 3 24 4 23 5 22 6 20 7 21 8 19 9 6 10 7 11 12 12
REMARK SMILES IDX 8 13 11 14 13 15 9 16 10 17 88 18 14 19 5 20 1 21 2 22 3 23
REMARK SMILES IDX 90 24 4 25 89 26 15 27 16 28 17 29 18 30 28 31 29 32 30 33
REMARK SMILES IDX 31 34 32 35 33 36 34 37 35 38 87 39 36 40 86 41 37 42 38 43
REMARK SMILES IDX 39 44 80 45 40 46 85 47 79 48 81 49 41 50 84 51 78 52 77 53
REMARK SMILES IDX 42 55 68 56 51 57 67 58 52 59 55 60 66 61 82 62 53 63 54 64
REMARK SMILES IDX 65 66 83 67 56 68 43 69 44 70 49 71 45 72 46 73 48 74 50 75
REMARK SMILES IDX 47 76 69 77 70 78 75 79 71 80 72 81 74 82 76 83 73 84 57 85
REMARK SMILES IDX 58 86 63 87 59 88 60 89 62 90 64 91 61 92
REMARK H PARENT 81 54 55 65
REMARK Flexibility Score: inf
ROOT
ATOM      1  C   UNL A   1      38.801  20.461  26.058  1.00  0.00     0.188 C 
ENDROOT
BRANCH   1   2
ATOM      2  C   UNL A   1      37.877  21.318  25.235  1.00  0.00     0.188 C 
BRANCH   2   3
ATOM      3  O   UNL A   1      37.878  22.755  25.330  1.00  0.00    -0.376 OA
BRANCH   3   4
ATOM      4  C   UNL A   1      36.920  23.706  25.914  1.00  0.00     0.202 C 
BRANCH   4   5
ATOM      5  C   UNL A   1      35.285  24.497  25.492  1.00  0.00     0.261 C 
BRANCH   5   6
ATOM      6  O   UNL A   1      33.479  23.943  25.858  1.00  0.00    -0.460 OA
BRANCH   6   7
ATOM      7  C   UNL A   1      32.042  23.647  25.112  1.00  0.00     0.338 C 
ATOM      8  O   UNL A   1      31.304  22.699  25.418  1.00  0.00    -0.246 OA
BRANCH   7   9
ATOM      9  C   UNL A   1      31.287  24.395  23.993  1.00  0.00     0.087 C 
ATOM     10  C   UNL A   1      31.512  28.620  24.538  1.00  0.00     0.026 A 
ATOM     11  C   UNL A   1      30.649  29.436  23.840  1.00  0.00     0.033 A 
ATOM     12  C   UNL A   1      31.331  27.136  24.212  1.00  0.00     0.135 A 
ATOM     13  C   UNL A   1      29.628  28.823  23.086  1.00  0.00     0.042 A 
ATOM     14  C   UNL A   1      30.115  26.556  23.900  1.00  0.00     0.019 A 
ATOM     15  O   UNL A   1      32.344  26.412  23.248  1.00  0.00    -0.475 OA
ATOM     16  Cl  UNL A   1      28.751  29.823  21.984  1.00  0.00    -0.084 Cl
ATOM     17  C   UNL A   1      29.296  27.427  23.189  1.00  0.00     0.032 A 
ATOM     18  C   UNL A   1      30.084  25.057  24.187  1.00  0.00     0.027 C 
ATOM     19  C   UNL A   1      31.948  25.019  22.847  1.00  0.00     0.316 C 
BRANCH  10  20
ATOM     20  C   UNL A   1      32.307  29.329  25.987  1.00  0.00    -0.015 A 
ATOM     21  C   UNL A   1      35.881  31.527  29.011  1.00  0.00     0.044 C 
ATOM     22  C   UNL A   1      34.920  30.949  28.001  1.00  0.00    -0.051 A 
ATOM     23  C   UNL A   1      33.450  31.864  27.831  1.00  0.00     0.004 A 
ATOM     24  C   UNL A   1      35.143  29.328  27.269  1.00  0.00     0.004 A 
ATOM     25  C   UNL A   1      32.122  31.159  26.875  1.00  0.00     0.009 A 
ATOM     26  C   UNL A   1      33.892  28.494  26.290  1.00  0.00     0.009 A 
ENDBRANCH  10  20
BRANCH  19  27
ATOM     27  C   UNL A   1      32.791  23.896  22.201  1.00  0.00     0.430 C 
ATOM     28  F   UNL A   1      34.044  23.863  22.764  1.00  0.00    -0.167 F 
ATOM     29  F   UNL A   1      32.273  22.672  22.460  1.00  0.00    -0.167 F 
ATOM     30  F   UNL A   1      32.972  24.005  20.882  1.00  0.00    -0.167 F 
ENDBRANCH  19  27
ENDBRANCH   7   9
ENDBRANCH   6   7
ENDBRANCH   5   6
ENDBRANCH   4   5
ENDBRANCH   3   4
ENDBRANCH   2   3
ENDBRANCH   1   2
BRANCH   1  31
ATOM     31  O   UNL A   1      40.117  20.886  25.821  1.00  0.00    -0.376 OA
BRANCH  31  32
ATOM     32  C   UNL A   1      41.091  19.880  25.970  1.00  0.00     0.202 C 
BRANCH  32  33
ATOM     33  C   UNL A   1      41.919  20.021  27.255  1.00  0.00     0.261 C 
BRANCH  33  34
ATOM     34  O   UNL A   1      42.002  21.402  27.673  1.00  0.00    -0.460 OA
BRANCH  34  35
ATOM     35  C   UNL A   1      42.775  22.199  26.874  1.00  0.00     0.338 C 
ATOM     36  O   UNL A   1      43.838  21.880  26.371  1.00  0.00    -0.246 OA
BRANCH  35  37
ATOM     37  C   UNL A   1      42.280  23.587  26.973  1.00  0.00     0.060 A 
ATOM     38  C   UNL A   1      42.803  24.689  26.325  1.00  0.00     0.016 A 
ATOM     39  C   UNL A   1      41.326  23.899  27.863  1.00  0.00     0.016 A 
ATOM     40  C   UNL A   1      42.724  26.031  26.930  1.00  0.00     0.010 A 
ATOM     41  C   UNL A   1      41.343  25.218  28.332  1.00  0.00     0.010 A 
ATOM     42  C   UNL A   1      42.299  26.340  28.170  1.00  0.00    -0.014 A 
BRANCH  42  43
ATOM     43  C   UNL A   1      42.502  27.992  29.030  1.00  0.00     0.031 A 
ATOM     44  C   UNL A   1      41.172  29.244  29.399  1.00  0.00     0.074 A 
ATOM     45  C   UNL A   1      43.659  28.411  29.654  1.00  0.00     0.049 A 
ATOM     46  N   UNL A   1      41.314  30.402  29.976  1.00  0.00    -0.248 NA
ATOM     47  C   UNL A   1      39.624  29.254  28.899  1.00  0.00     0.031 C 
ATOM     48  C   UNL A   1      43.828  29.492  30.641  1.00  0.00     0.029 A 
ATOM     49  N   UNL A   1      44.994  27.961  29.555  1.00  0.00    -0.354 N 
ATOM     50  C   UNL A   1      40.085  31.064  29.989  1.00  0.00     0.074 A 
ATOM     51  C   UNL A   1      39.168  30.455  29.127  1.00  0.00     0.031 C 
ATOM     52  C   UNL A   1      45.129  29.831  30.726  1.00  0.00     0.029 A 
ATOM     53  C   UNL A   1      45.816  29.100  29.677  1.00  0.00     0.049 A 
ATOM     54  H   UNL A   1      45.292  27.031  29.427  1.00  0.00     0.167 HD
ATOM     55  C   UNL A   1      39.850  32.081  30.835  1.00  0.00     0.037 A 
ATOM     56  C   UNL A   1      46.517  29.611  28.614  1.00  0.00     0.037 A 
ATOM     57  C   UNL A   1      41.119  32.723  31.083  1.00  0.00     0.049 A 
ATOM     58  C   UNL A   1      46.080  31.102  28.367  1.00  0.00     0.074 A 
ATOM     59  C   UNL A   1      42.086  32.652  32.060  1.00  0.00     0.029 A 
ATOM     60  N   UNL A   1      41.761  33.190  29.951  1.00  0.00    -0.354 N 
ATOM     61  N   UNL A   1      45.190  31.758  29.084  1.00  0.00    -0.248 NA
ATOM     62  C   UNL A   1      46.579  31.961  27.290  1.00  0.00     0.031 C 
ATOM     63  C   UNL A   1      43.333  33.043  31.458  1.00  0.00     0.029 A 
ATOM     64  C   UNL A   1      43.109  33.380  30.131  1.00  0.00     0.049 A 
ATOM     65  H   UNL A   1      41.299  33.370  29.101  1.00  0.00     0.167 HD
ATOM     66  C   UNL A   1      44.891  32.977  28.520  1.00  0.00     0.074 A 
ATOM     67  C   UNL A   1      45.819  33.067  27.410  1.00  0.00     0.031 C 
ATOM     68  C   UNL A   1      43.883  33.803  28.959  1.00  0.00     0.037 A 
BRANCH  55  69
ATOM     69  C   UNL A   1      38.498  32.288  31.492  1.00  0.00     0.057 A 
ATOM     70  C   UNL A   1      37.911  33.551  31.367  1.00  0.00     0.134 A 
ATOM     71  C   UNL A   1      37.806  31.423  32.393  1.00  0.00     0.134 A 
ATOM     72  F   UNL A   1      38.433  34.474  30.551  1.00  0.00    -0.206 F 
ATOM     73  C   UNL A   1      36.788  33.945  32.112  1.00  0.00     0.040 A 
ATOM     74  C   UNL A   1      36.658  31.792  33.105  1.00  0.00     0.040 A 
ATOM     75  F   UNL A   1      38.202  30.186  32.709  1.00  0.00    -0.206 F 
ATOM     76  C   UNL A   1      36.161  33.072  32.988  1.00  0.00     0.006 A 
ENDBRANCH  55  69
BRANCH  56  77
ATOM     77  C   UNL A   1      46.888  28.473  27.477  1.00  0.00     0.057 A 
ATOM     78  C   UNL A   1      46.172  27.557  25.810  1.00  0.00     0.134 A 
ATOM     79  C   UNL A   1      48.642  28.160  27.761  1.00  0.00     0.134 A 
ATOM     80  F   UNL A   1      44.960  27.617  25.172  1.00  0.00    -0.206 F 
ATOM     81  C   UNL A   1      47.213  26.564  24.770  1.00  0.00     0.040 A 
ATOM     82  C   UNL A   1      49.521  27.124  26.547  1.00  0.00     0.040 A 
ATOM     83  F   UNL A   1      49.128  28.377  28.988  1.00  0.00    -0.206 F 
ATOM     84  C   UNL A   1      48.830  26.379  25.151  1.00  0.00     0.006 A 
ENDBRANCH  56  77
BRANCH  68  85
ATOM     85  C   UNL A   1      43.494  35.133  28.314  1.00  0.00     0.057 A 
ATOM     86  C   UNL A   1      43.444  36.325  29.041  1.00  0.00     0.134 A 
ATOM     87  C   UNL A   1      42.959  35.221  27.002  1.00  0.00     0.134 A 
ATOM     88  F   UNL A   1      43.908  36.385  30.296  1.00  0.00    -0.206 F 
ATOM     89  C   UNL A   1      42.877  37.502  28.517  1.00  0.00     0.040 A 
ATOM     90  C   UNL A   1      42.318  36.360  26.501  1.00  0.00     0.040 A 
ATOM     91  F   UNL A   1      43.058  34.214  26.121  1.00  0.00    -0.206 F 
ATOM     92  C   UNL A   1      42.278  37.512  27.261  1.00  0.00     0.006 A 
ENDBRANCH  68  85
ENDBRANCH  42  43
ENDBRANCH  35  37
ENDBRANCH  34  35
ENDBRANCH  33  34
ENDBRANCH  32  33
ENDBRANCH  31  32
ENDBRANCH   1  31
TORSDOF 19
ENDMDL
