MODEL 1
REMARK VINA RESULT:     -10.3      0.000      0.000
REMARK SMILES Cc1c(C#N)c2ccccc2n1CC(=O)N1CC[C@H](O)C[C@@H]1C(=O)OCCOCCOCCOC(=O)c1ccc(-c2c3nc(c(-c4c(F)cccc4F)c4ccc([nH]4)c(-c4c(F)cccc4F)c4nc(c(-c5c(F)cccc5F)c5ccc2[nH]5)C=C4)C=C3)cc1
REMARK SMILES IDX 29 1 28 2 27 3 26 4 25 5 23 6 24 7 22 8 16 9 17 10 18 11
REMARK SMILES IDX 21 12 19 13 14 14 15 15 13 16 12 17 1 18 2 19 3 20 6 21
REMARK SMILES IDX 11 22 7 23 10 24 8 25 9 26 4 27 5 28 20 29 30 31 31 32 32 33
REMARK SMILES IDX 33 34 34 35 35 36 36 37 37 38 38 39 90 40 39 41 89 42 40 43
REMARK SMILES IDX 41 44 42 45 83 46 43 47 88 48 82 49 84 50 44 51 87 52 81 53
REMARK SMILES IDX 80 54 45 56 71 57 54 58 70 59 55 60 58 61 69 62 85 63 56 64
REMARK SMILES IDX 57 65 68 67 86 68 59 69 46 70 47 71 52 72 48 73 49 74 51 75
REMARK SMILES IDX 53 76 50 77 72 78 73 79 78 80 74 81 75 82 77 83 79 84 76 85
REMARK SMILES IDX 60 86 61 87 66 88 62 89 63 90 65 91 67 92 64 93
REMARK H PARENT 20 30 84 55 58 66
REMARK Flexibility Score: inf
ROOT
ATOM      1  C   UNL A   1      32.415  31.228  27.127  1.00  0.00     0.188 C 
ENDROOT
BRANCH   1   2
ATOM      2  O   UNL A   1      32.025  29.944  26.716  1.00  0.00    -0.376 OA
BRANCH   2   3
ATOM      3  C   UNL A   1      32.902  28.846  26.853  1.00  0.00     0.202 C 
BRANCH   3   4
ATOM      4  C   UNL A   1      32.395  27.415  27.077  1.00  0.00     0.261 C 
BRANCH   4   5
ATOM      5  O   UNL A   1      31.008  27.152  26.751  1.00  0.00    -0.462 OA
BRANCH   5   6
ATOM      6  C   UNL A   1      30.803  25.919  26.216  1.00  0.00     0.329 C 
ATOM      7  O   UNL A   1      31.113  24.910  26.842  1.00  0.00    -0.250 OA
BRANCH   6   8
ATOM      8  C   UNL A   1      30.301  25.858  24.742  1.00  0.00     0.197 C 
ATOM      9  N   UNL A   1      31.459  25.453  23.974  1.00  0.00    -0.327 N 
ATOM     10  C   UNL A   1      32.269  26.577  23.532  1.00  0.00     0.123 C 
ATOM     11  C   UNL A   1      31.451  27.458  22.595  1.00  0.00     0.053 C 
ATOM     12  C   UNL A   1      29.439  26.851  23.952  1.00  0.00     0.069 C 
ATOM     13  C   UNL A   1      30.213  27.983  23.307  1.00  0.00     0.118 C 
BRANCH   9  14
ATOM     14  C   UNL A   1      31.336  24.322  23.187  1.00  0.00     0.243 C 
ATOM     15  O   UNL A   1      30.249  23.779  22.998  1.00  0.00    -0.273 OA
BRANCH  14  16
ATOM     16  C   UNL A   1      32.638  23.748  22.669  1.00  0.00     0.222 C 
BRANCH  16  17
ATOM     17  N   UNL A   1      33.194  22.787  23.594  1.00  0.00    -0.334 N 
ATOM     18  C   UNL A   1      31.931  20.834  22.623  1.00  0.00     0.066 C 
ATOM     19  C   UNL A   1      32.952  21.431  23.535  1.00  0.00     0.034 A 
ATOM     20  C   UNL A   1      33.900  20.828  24.343  1.00  0.00     0.080 A 
ATOM     21  C   UNL A   1      34.717  21.850  24.917  1.00  0.00     0.018 A 
ATOM     22  C   UNL A   1      34.232  23.076  24.458  1.00  0.00     0.050 A 
ATOM     23  C   UNL A   1      35.863  21.855  25.738  1.00  0.00     0.012 A 
ATOM     24  C   UNL A   1      34.838  24.301  24.789  1.00  0.00     0.027 A 
ATOM     25  C   UNL A   1      36.478  23.071  26.069  1.00  0.00     0.001 A 
ATOM     26  C   UNL A   1      35.969  24.276  25.601  1.00  0.00     0.002 A 
BRANCH  20  27
ATOM     27  C   UNL A   1      34.066  19.419  24.466  1.00  0.00     0.102 C 
ATOM     28  N   UNL A   1      34.192  18.259  24.522  1.00  0.00    -0.192 NA
ENDBRANCH  20  27
ENDBRANCH  16  17
ENDBRANCH  14  16
ENDBRANCH   9  14
BRANCH  13  29
ATOM     29  O   UNL A   1      30.599  28.985  24.236  1.00  0.00    -0.393 OA
ATOM     30  H   UNL A   1      30.859  28.569  25.071  1.00  0.00     0.210 HD
ENDBRANCH  13  29
ENDBRANCH   6   8
ENDBRANCH   5   6
ENDBRANCH   4   5
ENDBRANCH   3   4
ENDBRANCH   2   3
ENDBRANCH   1   2
BRANCH   1  31
ATOM     31  C   UNL A   1      33.828  31.458  27.661  1.00  0.00     0.188 C 
BRANCH  31  32
ATOM     32  O   UNL A   1      34.455  32.703  27.555  1.00  0.00    -0.376 OA
BRANCH  32  33
ATOM     33  C   UNL A   1      33.805  33.755  28.251  1.00  0.00     0.202 C 
BRANCH  33  34
ATOM     34  C   UNL A   1      34.381  34.339  29.582  1.00  0.00     0.261 C 
BRANCH  34  35
ATOM     35  O   UNL A   1      35.617  33.753  30.088  1.00  0.00    -0.460 OA
BRANCH  35  36
ATOM     36  C   UNL A   1      35.532  32.612  30.850  1.00  0.00     0.338 C 
ATOM     37  O   UNL A   1      34.570  32.291  31.529  1.00  0.00    -0.246 OA
BRANCH  36  38
ATOM     38  C   UNL A   1      36.578  31.615  30.385  1.00  0.00     0.060 A 
ATOM     39  C   UNL A   1      36.376  30.232  30.305  1.00  0.00     0.016 A 
ATOM     40  C   UNL A   1      37.902  32.083  30.374  1.00  0.00     0.016 A 
ATOM     41  C   UNL A   1      37.479  29.334  30.388  1.00  0.00     0.010 A 
ATOM     42  C   UNL A   1      38.983  31.188  30.487  1.00  0.00     0.010 A 
ATOM     43  C   UNL A   1      38.798  29.799  30.569  1.00  0.00    -0.014 A 
BRANCH  43  44
ATOM     44  C   UNL A   1      40.027  28.971  30.352  1.00  0.00     0.031 A 
ATOM     45  C   UNL A   1      40.707  28.760  31.629  1.00  0.00     0.074 A 
ATOM     46  C   UNL A   1      40.667  28.437  29.276  1.00  0.00     0.049 A 
ATOM     47  N   UNL A   1      41.789  29.397  31.935  1.00  0.00    -0.248 NA
ATOM     48  C   UNL A   1      40.068  28.053  32.729  1.00  0.00     0.031 C 
ATOM     49  C   UNL A   1      40.750  28.986  27.947  1.00  0.00     0.029 A 
ATOM     50  N   UNL A   1      41.514  27.328  29.162  1.00  0.00    -0.354 N 
ATOM     51  C   UNL A   1      42.109  28.984  33.208  1.00  0.00     0.074 A 
ATOM     52  C   UNL A   1      40.927  28.331  33.712  1.00  0.00     0.031 C 
ATOM     53  C   UNL A   1      41.421  28.162  27.122  1.00  0.00     0.029 A 
ATOM     54  C   UNL A   1      41.750  26.919  27.820  1.00  0.00     0.049 A 
ATOM     55  H   UNL A   1      41.909  26.873  29.940  1.00  0.00     0.167 HD
ATOM     56  C   UNL A   1      43.418  28.958  33.572  1.00  0.00     0.037 A 
ATOM     57  C   UNL A   1      42.724  26.146  27.244  1.00  0.00     0.037 A 
ATOM     58  C   UNL A   1      44.210  29.829  32.723  1.00  0.00     0.049 A 
ATOM     59  C   UNL A   1      43.995  26.524  27.892  1.00  0.00     0.074 A 
ATOM     60  C   UNL A   1      44.237  31.182  32.434  1.00  0.00     0.029 A 
ATOM     61  N   UNL A   1      44.955  29.234  31.735  1.00  0.00    -0.354 N 
ATOM     62  N   UNL A   1      44.570  27.677  27.698  1.00  0.00    -0.248 NA
ATOM     63  C   UNL A   1      44.281  25.859  29.153  1.00  0.00     0.031 C 
ATOM     64  C   UNL A   1      44.612  31.275  31.061  1.00  0.00     0.029 A 
ATOM     65  C   UNL A   1      44.872  29.989  30.599  1.00  0.00     0.049 A 
ATOM     66  H   UNL A   1      45.466  28.398  31.829  1.00  0.00     0.167 HD
ATOM     67  C   UNL A   1      44.869  28.111  28.980  1.00  0.00     0.074 A 
ATOM     68  C   UNL A   1      44.692  26.931  29.832  1.00  0.00     0.031 C 
ATOM     69  C   UNL A   1      44.981  29.438  29.276  1.00  0.00     0.037 A 
BRANCH  56  70
ATOM     70  C   UNL A   1      44.025  27.776  34.297  1.00  0.00     0.057 A 
ATOM     71  C   UNL A   1      44.184  26.485  33.752  1.00  0.00     0.134 A 
ATOM     72  C   UNL A   1      44.797  28.034  35.444  1.00  0.00     0.134 A 
ATOM     73  F   UNL A   1      43.524  26.055  32.673  1.00  0.00    -0.206 F 
ATOM     74  C   UNL A   1      45.117  25.569  34.236  1.00  0.00     0.040 A 
ATOM     75  C   UNL A   1      45.765  27.140  35.911  1.00  0.00     0.040 A 
ATOM     76  F   UNL A   1      44.718  29.214  36.078  1.00  0.00    -0.206 F 
ATOM     77  C   UNL A   1      45.943  25.911  35.290  1.00  0.00     0.006 A 
ENDBRANCH  56  70
BRANCH  57  78
ATOM     78  C   UNL A   1      42.503  24.766  26.704  1.00  0.00     0.057 A 
ATOM     79  C   UNL A   1      43.196  24.266  25.592  1.00  0.00     0.134 A 
ATOM     80  C   UNL A   1      41.574  23.880  27.283  1.00  0.00     0.134 A 
ATOM     81  F   UNL A   1      44.051  25.045  24.918  1.00  0.00    -0.206 F 
ATOM     82  C   UNL A   1      43.021  22.959  25.112  1.00  0.00     0.040 A 
ATOM     83  C   UNL A   1      41.377  22.570  26.806  1.00  0.00     0.040 A 
ATOM     84  F   UNL A   1      40.836  24.264  28.335  1.00  0.00    -0.206 F 
ATOM     85  C   UNL A   1      42.113  22.101  25.722  1.00  0.00     0.006 A 
ENDBRANCH  57  78
BRANCH  69  86
ATOM     86  C   UNL A   1      45.046  30.415  28.139  1.00  0.00     0.057 A 
ATOM     87  C   UNL A   1      46.283  30.761  27.602  1.00  0.00     0.134 A 
ATOM     88  C   UNL A   1      43.949  31.163  27.700  1.00  0.00     0.134 A 
ATOM     89  F   UNL A   1      47.401  30.191  28.074  1.00  0.00    -0.206 F 
ATOM     90  C   UNL A   1      46.409  31.766  26.637  1.00  0.00     0.040 A 
ATOM     91  C   UNL A   1      44.038  32.116  26.681  1.00  0.00     0.040 A 
ATOM     92  F   UNL A   1      42.793  31.098  28.358  1.00  0.00    -0.206 F 
ATOM     93  C   UNL A   1      45.282  32.423  26.145  1.00  0.00     0.006 A 
ENDBRANCH  69  86
ENDBRANCH  43  44
ENDBRANCH  36  38
ENDBRANCH  35  36
ENDBRANCH  34  35
ENDBRANCH  33  34
ENDBRANCH  32  33
ENDBRANCH  31  32
ENDBRANCH   1  31
TORSDOF 22
ENDMDL
MODEL 2
REMARK VINA RESULT:     -10.1      3.287      8.443
REMARK SMILES Cc1c(C#N)c2ccccc2n1CC(=O)N1CC[C@H](O)C[C@@H]1C(=O)OCCOCCOCCOC(=O)c1ccc(-c2c3nc(c(-c4c(F)cccc4F)c4ccc([nH]4)c(-c4c(F)cccc4F)c4nc(c(-c5c(F)cccc5F)c5ccc2[nH]5)C=C4)C=C3)cc1
REMARK SMILES IDX 29 1 28 2 27 3 26 4 25 5 23 6 24 7 22 8 16 9 17 10 18 11
REMARK SMILES IDX 21 12 19 13 14 14 15 15 13 16 12 17 1 18 2 19 3 20 6 21
REMARK SMILES IDX 11 22 7 23 10 24 8 25 9 26 4 27 5 28 20 29 30 31 31 32 32 33
REMARK SMILES IDX 33 34 34 35 35 36 36 37 37 38 38 39 90 40 39 41 89 42 40 43
REMARK SMILES IDX 41 44 42 45 83 46 43 47 88 48 82 49 84 50 44 51 87 52 81 53
REMARK SMILES IDX 80 54 45 56 71 57 54 58 70 59 55 60 58 61 69 62 85 63 56 64
REMARK SMILES IDX 57 65 68 67 86 68 59 69 46 70 47 71 52 72 48 73 49 74 51 75
REMARK SMILES IDX 53 76 50 77 72 78 73 79 78 80 74 81 75 82 77 83 79 84 76 85
REMARK SMILES IDX 60 86 61 87 66 88 62 89 63 90 65 91 67 92 64 93
REMARK H PARENT 20 30 84 55 58 66
REMARK Flexibility Score: inf
ROOT
ATOM      1  C   UNL A   1      39.346  21.641  26.110  1.00  0.00     0.188 C 
ENDROOT
BRANCH   1   2
ATOM      2  O   UNL A   1      38.121  22.037  25.549  1.00  0.00    -0.376 OA
BRANCH   2   3
ATOM      3  C   UNL A   1      37.357  21.133  24.779  1.00  0.00     0.202 C 
BRANCH   3   4
ATOM      4  C   UNL A   1      35.822  21.123  24.812  1.00  0.00     0.261 C 
BRANCH   4   5
ATOM      5  O   UNL A   1      35.171  22.305  25.341  1.00  0.00    -0.462 OA
BRANCH   5   6
ATOM      6  C   UNL A   1      34.696  23.137  24.377  1.00  0.00     0.329 C 
ATOM      7  O   UNL A   1      35.385  24.060  23.956  1.00  0.00    -0.250 OA
BRANCH   6   8
ATOM      8  C   UNL A   1      33.209  22.951  23.947  1.00  0.00     0.197 C 
ATOM      9  N   UNL A   1      32.502  24.043  24.580  1.00  0.00    -0.327 N 
ATOM     10  C   UNL A   1      32.037  23.718  25.919  1.00  0.00     0.123 C 
ATOM     11  C   UNL A   1      31.032  22.575  25.846  1.00  0.00     0.053 C 
ATOM     12  C   UNL A   1      32.344  21.684  23.912  1.00  0.00     0.069 C 
ATOM     13  C   UNL A   1      31.674  21.343  25.228  1.00  0.00     0.118 C 
BRANCH   9  14
ATOM     14  C   UNL A   1      31.765  24.882  23.763  1.00  0.00     0.243 C 
ATOM     15  O   UNL A   1      30.659  24.559  23.333  1.00  0.00    -0.273 OA
BRANCH  14  16
ATOM     16  C   UNL A   1      32.458  26.165  23.357  1.00  0.00     0.222 C 
BRANCH  16  17
ATOM     17  N   UNL A   1      31.980  27.289  24.131  1.00  0.00    -0.334 N 
ATOM     18  C   UNL A   1      33.800  27.114  25.864  1.00  0.00     0.066 C 
ATOM     19  C   UNL A   1      32.631  27.796  25.234  1.00  0.00     0.034 A 
ATOM     20  C   UNL A   1      32.071  29.036  25.484  1.00  0.00     0.080 A 
ATOM     21  C   UNL A   1      31.045  29.268  24.518  1.00  0.00     0.018 A 
ATOM     22  C   UNL A   1      30.983  28.140  23.698  1.00  0.00     0.050 A 
ATOM     23  C   UNL A   1      30.196  30.354  24.218  1.00  0.00     0.012 A 
ATOM     24  C   UNL A   1      30.109  28.050  22.600  1.00  0.00     0.027 A 
ATOM     25  C   UNL A   1      29.326  30.276  23.122  1.00  0.00     0.001 A 
ATOM     26  C   UNL A   1      29.282  29.137  22.326  1.00  0.00     0.002 A 
BRANCH  20  27
ATOM     27  C   UNL A   1      32.543  29.941  26.478  1.00  0.00     0.102 C 
ATOM     28  N   UNL A   1      32.914  30.655  27.325  1.00  0.00    -0.192 NA
ENDBRANCH  20  27
ENDBRANCH  16  17
ENDBRANCH  14  16
ENDBRANCH   9  14
BRANCH  13  29
ATOM     29  O   UNL A   1      32.568  20.762  26.166  1.00  0.00    -0.393 OA
ATOM     30  H   UNL A   1      32.163  19.972  26.552  1.00  0.00     0.210 HD
ENDBRANCH  13  29
ENDBRANCH   6   8
ENDBRANCH   5   6
ENDBRANCH   4   5
ENDBRANCH   3   4
ENDBRANCH   2   3
ENDBRANCH   1   2
BRANCH   1  31
ATOM     31  C   UNL A   1      40.009  22.512  27.177  1.00  0.00     0.188 C 
BRANCH  31  32
ATOM     32  O   UNL A   1      41.220  22.144  27.770  1.00  0.00    -0.376 OA
BRANCH  32  33
ATOM     33  C   UNL A   1      41.939  21.137  27.074  1.00  0.00     0.202 C 
BRANCH  33  34
ATOM     34  C   UNL A   1      42.995  21.491  25.976  1.00  0.00     0.261 C 
BRANCH  34  35
ATOM     35  O   UNL A   1      42.720  22.650  25.136  1.00  0.00    -0.460 OA
BRANCH  35  36
ATOM     36  C   UNL A   1      43.531  23.753  25.264  1.00  0.00     0.338 C 
ATOM     37  O   UNL A   1      44.487  24.009  24.550  1.00  0.00    -0.246 OA
BRANCH  36  38
ATOM     38  C   UNL A   1      42.822  24.806  26.096  1.00  0.00     0.060 A 
ATOM     39  C   UNL A   1      41.764  25.599  25.638  1.00  0.00     0.016 A 
ATOM     40  C   UNL A   1      43.501  25.227  27.251  1.00  0.00     0.016 A 
ATOM     41  C   UNL A   1      41.508  26.872  26.224  1.00  0.00     0.010 A 
ATOM     42  C   UNL A   1      43.261  26.500  27.803  1.00  0.00     0.010 A 
ATOM     43  C   UNL A   1      42.312  27.383  27.264  1.00  0.00    -0.014 A 
BRANCH  43  44
ATOM     44  C   UNL A   1      41.937  28.539  28.139  1.00  0.00     0.031 A 
ATOM     45  C   UNL A   1      42.929  29.604  27.995  1.00  0.00     0.074 A 
ATOM     46  C   UNL A   1      40.956  28.799  29.047  1.00  0.00     0.049 A 
ATOM     47  N   UNL A   1      43.812  29.836  28.909  1.00  0.00    -0.248 NA
ATOM     48  C   UNL A   1      43.163  30.264  26.719  1.00  0.00     0.031 C 
ATOM     49  C   UNL A   1      40.319  27.863  29.936  1.00  0.00     0.029 A 
ATOM     50  N   UNL A   1      40.392  30.006  29.476  1.00  0.00    -0.354 N 
ATOM     51  C   UNL A   1      44.589  30.859  28.415  1.00  0.00     0.074 A 
ATOM     52  C   UNL A   1      44.279  30.937  27.010  1.00  0.00     0.031 C 
ATOM     53  C   UNL A   1      39.355  28.461  30.660  1.00  0.00     0.029 A 
ATOM     54  C   UNL A   1      39.192  29.847  30.223  1.00  0.00     0.049 A 
ATOM     55  H   UNL A   1      40.791  30.884  29.279  1.00  0.00     0.167 HD
ATOM     56  C   UNL A   1      45.163  31.721  29.294  1.00  0.00     0.037 A 
ATOM     57  C   UNL A   1      38.519  30.675  31.085  1.00  0.00     0.037 A 
ATOM     58  C   UNL A   1      45.255  31.128  30.617  1.00  0.00     0.049 A 
ATOM     59  C   UNL A   1      39.546  31.344  31.907  1.00  0.00     0.074 A 
ATOM     60  C   UNL A   1      45.879  30.026  31.172  1.00  0.00     0.029 A 
ATOM     61  N   UNL A   1      44.329  31.526  31.549  1.00  0.00    -0.354 N 
ATOM     62  N   UNL A   1      40.250  30.714  32.805  1.00  0.00    -0.248 NA
ATOM     63  C   UNL A   1      40.150  32.528  31.319  1.00  0.00     0.031 C 
ATOM     64  C   UNL A   1      44.998  29.557  32.192  1.00  0.00     0.029 A 
ATOM     65  C   UNL A   1      43.922  30.436  32.265  1.00  0.00     0.049 A 
ATOM     66  H   UNL A   1      44.007  32.448  31.679  1.00  0.00     0.167 HD
ATOM     67  C   UNL A   1      41.550  31.110  32.534  1.00  0.00     0.074 A 
ATOM     68  C   UNL A   1      41.420  32.252  31.623  1.00  0.00     0.031 C 
ATOM     69  C   UNL A   1      42.617  30.323  32.858  1.00  0.00     0.037 A 
BRANCH  56  70
ATOM     70  C   UNL A   1      45.125  33.219  29.088  1.00  0.00     0.057 A 
ATOM     71  C   UNL A   1      46.247  34.029  28.812  1.00  0.00     0.134 A 
ATOM     72  C   UNL A   1      43.882  33.812  28.803  1.00  0.00     0.134 A 
ATOM     73  F   UNL A   1      47.506  33.641  29.031  1.00  0.00    -0.206 F 
ATOM     74  C   UNL A   1      46.146  35.277  28.197  1.00  0.00     0.040 A 
ATOM     75  C   UNL A   1      43.772  35.042  28.148  1.00  0.00     0.040 A 
ATOM     76  F   UNL A   1      42.735  33.161  29.047  1.00  0.00    -0.206 F 
ATOM     77  C   UNL A   1      44.910  35.768  27.821  1.00  0.00     0.006 A 
ENDBRANCH  56  70
BRANCH  57  78
ATOM     78  C   UNL A   1      37.210  31.336  30.777  1.00  0.00     0.057 A 
ATOM     79  C   UNL A   1      36.200  31.499  31.735  1.00  0.00     0.134 A 
ATOM     80  C   UNL A   1      36.913  31.837  29.495  1.00  0.00     0.134 A 
ATOM     81  F   UNL A   1      36.344  30.998  32.968  1.00  0.00    -0.206 F 
ATOM     82  C   UNL A   1      34.991  32.157  31.459  1.00  0.00     0.040 A 
ATOM     83  C   UNL A   1      35.699  32.488  29.199  1.00  0.00     0.040 A 
ATOM     84  F   UNL A   1      37.798  31.711  28.495  1.00  0.00    -0.206 F 
ATOM     85  C   UNL A   1      34.738  32.661  30.189  1.00  0.00     0.006 A 
ENDBRANCH  57  78
BRANCH  69  86
ATOM     86  C   UNL A   1      42.383  29.148  33.760  1.00  0.00     0.057 A 
ATOM     87  C   UNL A   1      42.468  29.314  35.140  1.00  0.00     0.134 A 
ATOM     88  C   UNL A   1      42.274  27.832  33.301  1.00  0.00     0.134 A 
ATOM     89  F   UNL A   1      42.717  30.528  35.654  1.00  0.00    -0.206 F 
ATOM     90  C   UNL A   1      42.393  28.227  36.017  1.00  0.00     0.040 A 
ATOM     91  C   UNL A   1      42.118  26.738  34.158  1.00  0.00     0.040 A 
ATOM     92  F   UNL A   1      42.472  27.558  32.013  1.00  0.00    -0.206 F 
ATOM     93  C   UNL A   1      42.181  26.938  35.531  1.00  0.00     0.006 A 
ENDBRANCH  69  86
ENDBRANCH  43  44
ENDBRANCH  36  38
ENDBRANCH  35  36
ENDBRANCH  34  35
ENDBRANCH  33  34
ENDBRANCH  32  33
ENDBRANCH  31  32
ENDBRANCH   1  31
TORSDOF 22
ENDMDL
MODEL 3
REMARK VINA RESULT:     -10.1      2.292      5.842
REMARK SMILES Cc1c(C#N)c2ccccc2n1CC(=O)N1CC[C@H](O)C[C@@H]1C(=O)OCCOCCOCCOC(=O)c1ccc(-c2c3nc(c(-c4c(F)cccc4F)c4ccc([nH]4)c(-c4c(F)cccc4F)c4nc(c(-c5c(F)cccc5F)c5ccc2[nH]5)C=C4)C=C3)cc1
REMARK SMILES IDX 29 1 28 2 27 3 26 4 25 5 23 6 24 7 22 8 16 9 17 10 18 11
REMARK SMILES IDX 21 12 19 13 14 14 15 15 13 16 12 17 1 18 2 19 3 20 6 21
REMARK SMILES IDX 11 22 7 23 10 24 8 25 9 26 4 27 5 28 20 29 30 31 31 32 32 33
REMARK SMILES IDX 33 34 34 35 35 36 36 37 37 38 38 39 90 40 39 41 89 42 40 43
REMARK SMILES IDX 41 44 42 45 83 46 43 47 88 48 82 49 84 50 44 51 87 52 81 53
REMARK SMILES IDX 80 54 45 56 71 57 54 58 70 59 55 60 58 61 69 62 85 63 56 64
REMARK SMILES IDX 57 65 68 67 86 68 59 69 46 70 47 71 52 72 48 73 49 74 51 75
REMARK SMILES IDX 53 76 50 77 72 78 73 79 78 80 74 81 75 82 77 83 79 84 76 85
REMARK SMILES IDX 60 86 61 87 66 88 62 89 63 90 65 91 67 92 64 93
REMARK H PARENT 20 30 84 55 58 66
REMARK Flexibility Score: inf
ROOT
ATOM      1  C   UNL A   1      34.354  32.741  28.009  1.00  0.00     0.188 C 
ENDROOT
BRANCH   1   2
ATOM      2  O   UNL A   1      33.487  31.643  28.130  1.00  0.00    -0.376 OA
BRANCH   2   3
ATOM      3  C   UNL A   1      32.986  30.991  26.983  1.00  0.00     0.202 C 
BRANCH   3   4
ATOM      4  C   UNL A   1      32.828  29.466  26.911  1.00  0.00     0.261 C 
BRANCH   4   5
ATOM      5  O   UNL A   1      31.675  28.960  26.193  1.00  0.00    -0.462 OA
BRANCH   5   6
ATOM      6  C   UNL A   1      31.517  27.614  26.305  1.00  0.00     0.329 C 
ATOM      7  O   UNL A   1      31.438  27.087  27.410  1.00  0.00    -0.250 OA
BRANCH   6   8
ATOM      8  C   UNL A   1      31.587  26.778  24.991  1.00  0.00     0.197 C 
ATOM      9  N   UNL A   1      32.965  26.347  24.900  1.00  0.00    -0.327 N 
ATOM     10  C   UNL A   1      33.814  27.301  24.204  1.00  0.00     0.123 C 
ATOM     11  C   UNL A   1      33.341  27.447  22.763  1.00  0.00     0.053 C 
ATOM     12  C   UNL A   1      31.013  27.079  23.600  1.00  0.00     0.069 C 
ATOM     13  C   UNL A   1      31.902  27.939  22.725  1.00  0.00     0.118 C 
BRANCH   9  14
ATOM     14  C   UNL A   1      33.200  24.987  24.795  1.00  0.00     0.243 C 
ATOM     15  O   UNL A   1      33.270  24.426  23.703  1.00  0.00    -0.273 OA
BRANCH  14  16
ATOM     16  C   UNL A   1      33.257  24.236  26.107  1.00  0.00     0.222 C 
BRANCH  16  17
ATOM     17  N   UNL A   1      33.904  22.953  25.951  1.00  0.00    -0.334 N 
ATOM     18  C   UNL A   1      31.755  21.706  25.532  1.00  0.00     0.066 C 
ATOM     19  C   UNL A   1      33.244  21.796  25.599  1.00  0.00     0.034 A 
ATOM     20  C   UNL A   1      34.218  20.887  25.226  1.00  0.00     0.080 A 
ATOM     21  C   UNL A   1      35.495  21.509  25.378  1.00  0.00     0.018 A 
ATOM     22  C   UNL A   1      35.273  22.797  25.868  1.00  0.00     0.050 A 
ATOM     23  C   UNL A   1      36.822  21.127  25.090  1.00  0.00     0.012 A 
ATOM     24  C   UNL A   1      36.318  23.713  26.088  1.00  0.00     0.027 A 
ATOM     25  C   UNL A   1      37.869  22.035  25.301  1.00  0.00     0.001 A 
ATOM     26  C   UNL A   1      37.618  23.310  25.795  1.00  0.00     0.002 A 
BRANCH  20  27
ATOM     27  C   UNL A   1      33.944  19.598  24.683  1.00  0.00     0.102 C 
ATOM     28  N   UNL A   1      33.739  18.555  24.200  1.00  0.00    -0.192 NA
ENDBRANCH  20  27
ENDBRANCH  16  17
ENDBRANCH  14  16
ENDBRANCH   9  14
BRANCH  13  29
ATOM     29  O   UNL A   1      31.868  29.311  23.086  1.00  0.00    -0.393 OA
ATOM     30  H   UNL A   1      32.251  29.843  22.372  1.00  0.00     0.210 HD
ENDBRANCH  13  29
ENDBRANCH   6   8
ENDBRANCH   5   6
ENDBRANCH   4   5
ENDBRANCH   3   4
ENDBRANCH   2   3
ENDBRANCH   1   2
BRANCH   1  31
ATOM     31  C   UNL A   1      33.789  34.161  28.043  1.00  0.00     0.188 C 
BRANCH  31  32
ATOM     32  O   UNL A   1      32.764  34.517  28.925  1.00  0.00    -0.376 OA
BRANCH  32  33
ATOM     33  C   UNL A   1      32.940  35.773  29.563  1.00  0.00     0.202 C 
BRANCH  33  34
ATOM     34  C   UNL A   1      32.756  35.944  31.107  1.00  0.00     0.261 C 
BRANCH  34  35
ATOM     35  O   UNL A   1      33.436  34.986  31.970  1.00  0.00    -0.460 OA
BRANCH  35  36
ATOM     36  C   UNL A   1      34.533  35.414  32.679  1.00  0.00     0.338 C 
ATOM     37  O   UNL A   1      34.498  36.148  33.653  1.00  0.00    -0.246 OA
BRANCH  36  38
ATOM     38  C   UNL A   1      35.715  34.512  32.373  1.00  0.00     0.060 A 
ATOM     39  C   UNL A   1      36.762  34.248  33.265  1.00  0.00     0.016 A 
ATOM     40  C   UNL A   1      35.925  34.221  31.016  1.00  0.00     0.016 A 
ATOM     41  C   UNL A   1      38.046  33.865  32.779  1.00  0.00     0.010 A 
ATOM     42  C   UNL A   1      37.204  33.874  30.543  1.00  0.00     0.010 A 
ATOM     43  C   UNL A   1      38.312  33.756  31.398  1.00  0.00    -0.014 A 
BRANCH  43  44
ATOM     44  C   UNL A   1      39.507  33.069  30.815  1.00  0.00     0.031 A 
ATOM     45  C   UNL A   1      39.100  31.792  30.229  1.00  0.00     0.074 A 
ATOM     46  C   UNL A   1      40.844  33.317  30.755  1.00  0.00     0.049 A 
ATOM     47  N   UNL A   1      39.353  30.667  30.812  1.00  0.00    -0.248 NA
ATOM     48  C   UNL A   1      38.153  31.723  29.125  1.00  0.00     0.031 C 
ATOM     49  C   UNL A   1      41.654  33.982  31.742  1.00  0.00     0.029 A 
ATOM     50  N   UNL A   1      41.819  32.906  29.838  1.00  0.00    -0.354 N 
ATOM     51  C   UNL A   1      38.789  29.703  30.007  1.00  0.00     0.074 A 
ATOM     52  C   UNL A   1      37.906  30.411  29.115  1.00  0.00     0.031 C 
ATOM     53  C   UNL A   1      42.928  34.098  31.326  1.00  0.00     0.029 A 
ATOM     54  C   UNL A   1      43.049  33.611  29.952  1.00  0.00     0.049 A 
ATOM     55  H   UNL A   1      41.666  32.195  29.175  1.00  0.00     0.167 HD
ATOM     56  C   UNL A   1      39.361  28.471  29.973  1.00  0.00     0.037 A 
ATOM     57  C   UNL A   1      44.321  33.332  29.523  1.00  0.00     0.037 A 
ATOM     58  C   UNL A   1      40.172  28.242  31.155  1.00  0.00     0.049 A 
ATOM     59  C   UNL A   1      44.536  31.891  29.761  1.00  0.00     0.074 A 
ATOM     60  C   UNL A   1      39.949  28.185  32.519  1.00  0.00     0.029 A 
ATOM     61  N   UNL A   1      41.532  28.364  31.016  1.00  0.00    -0.354 N 
ATOM     62  N   UNL A   1      44.654  31.385  30.955  1.00  0.00    -0.248 NA
ATOM     63  C   UNL A   1      44.042  31.001  28.723  1.00  0.00     0.031 C 
ATOM     64  C   UNL A   1      41.123  28.723  33.124  1.00  0.00     0.029 A 
ATOM     65  C   UNL A   1      42.035  29.007  32.113  1.00  0.00     0.049 A 
ATOM     66  H   UNL A   1      42.060  28.043  30.250  1.00  0.00     0.167 HD
ATOM     67  C   UNL A   1      43.794  30.298  30.934  1.00  0.00     0.074 A 
ATOM     68  C   UNL A   1      43.468  30.097  29.519  1.00  0.00     0.031 C 
ATOM     69  C   UNL A   1      43.219  29.821  32.076  1.00  0.00     0.037 A 
BRANCH  56  70
ATOM     70  C   UNL A   1      39.617  27.743  28.671  1.00  0.00     0.057 A 
ATOM     71  C   UNL A   1      40.365  28.254  27.589  1.00  0.00     0.134 A 
ATOM     72  C   UNL A   1      39.412  26.352  28.645  1.00  0.00     0.134 A 
ATOM     73  F   UNL A   1      40.648  29.550  27.438  1.00  0.00    -0.206 F 
ATOM     74  C   UNL A   1      40.956  27.437  26.626  1.00  0.00     0.040 A 
ATOM     75  C   UNL A   1      40.035  25.521  27.709  1.00  0.00     0.040 A 
ATOM     76  F   UNL A   1      38.692  25.742  29.599  1.00  0.00    -0.206 F 
ATOM     77  C   UNL A   1      40.831  26.063  26.709  1.00  0.00     0.006 A 
ENDBRANCH  56  70
BRANCH  57  78
ATOM     78  C   UNL A   1      45.017  34.052  28.408  1.00  0.00     0.057 A 
ATOM     79  C   UNL A   1      44.396  34.331  27.182  1.00  0.00     0.134 A 
ATOM     80  C   UNL A   1      46.349  34.493  28.524  1.00  0.00     0.134 A 
ATOM     81  F   UNL A   1      43.155  33.896  26.933  1.00  0.00    -0.206 F 
ATOM     82  C   UNL A   1      45.033  35.044  26.153  1.00  0.00     0.040 A 
ATOM     83  C   UNL A   1      47.006  35.197  27.496  1.00  0.00     0.040 A 
ATOM     84  F   UNL A   1      47.047  34.255  29.644  1.00  0.00    -0.206 F 
ATOM     85  C   UNL A   1      46.342  35.486  26.309  1.00  0.00     0.006 A 
ENDBRANCH  57  78
BRANCH  69  86
ATOM     86  C   UNL A   1      43.742  30.314  33.392  1.00  0.00     0.057 A 
ATOM     87  C   UNL A   1      44.771  29.621  34.025  1.00  0.00     0.134 A 
ATOM     88  C   UNL A   1      43.129  31.327  34.137  1.00  0.00     0.134 A 
ATOM     89  F   UNL A   1      45.314  28.545  33.436  1.00  0.00    -0.206 F 
ATOM     90  C   UNL A   1      45.200  29.959  35.313  1.00  0.00     0.040 A 
ATOM     91  C   UNL A   1      43.592  31.734  35.391  1.00  0.00     0.040 A 
ATOM     92  F   UNL A   1      41.971  31.842  33.731  1.00  0.00    -0.206 F 
ATOM     93  C   UNL A   1      44.637  31.041  35.987  1.00  0.00     0.006 A 
ENDBRANCH  69  86
ENDBRANCH  43  44
ENDBRANCH  36  38
ENDBRANCH  35  36
ENDBRANCH  34  35
ENDBRANCH  33  34
ENDBRANCH  32  33
ENDBRANCH  31  32
ENDBRANCH   1  31
TORSDOF 22
ENDMDL
