MODEL 1
REMARK VINA RESULT:     -10.0      0.000      0.000
REMARK SMILES COc1cc(OC)cc(C(=O)C[C@H](C)CC(=O)OCCOCCOCCOC(=O)c2ccc(-c3c4nc(c(-c5c(F)cccc5F)c5ccc([nH]5)c(-c5c(F)cccc5F)c5nc(c(-c6c(F)cccc6F)c6ccc3[nH]6)C=C5)C=C4)cc2)c1
REMARK SMILES IDX 21 1 20 2 19 3 18 4 16 5 17 6 15 7 13 8 14 9 12 10 10 11
REMARK SMILES IDX 11 12 9 13 3 14 4 15 84 16 5 17 8 18 2 19 1 20 6 21 7 22
REMARK SMILES IDX 22 23 23 24 24 25 25 26 26 27 27 28 28 29 29 30 30 31 31 32
REMARK SMILES IDX 83 33 32 34 82 35 33 36 34 37 35 38 76 39 36 40 81 41 75 42
REMARK SMILES IDX 77 43 37 44 80 45 74 46 73 47 38 49 64 50 47 51 63 52 48 53
REMARK SMILES IDX 51 54 62 55 78 56 49 57 50 58 61 60 79 61 52 62 39 63 40 64
REMARK SMILES IDX 45 65 41 66 42 67 44 68 46 69 43 70 65 71 66 72 71 73 67 74
REMARK SMILES IDX 68 75 70 76 72 77 69 78 53 79 54 80 59 81 55 82 56 83 58 84
REMARK SMILES IDX 60 85 57 86
REMARK H PARENT 77 48 51 59
REMARK Flexibility Score: inf
ROOT
ATOM      1  O   UNL A   1      37.944  20.781  25.101  1.00  0.00    -0.376 OA
ENDROOT
BRANCH   1   2
ATOM      2  C   UNL A   1      36.523  20.939  25.096  1.00  0.00     0.202 C 
BRANCH   2   3
ATOM      3  C   UNL A   1      36.009  22.383  25.170  1.00  0.00     0.261 C 
BRANCH   3   4
ATOM      4  O   UNL A   1      35.025  22.605  26.206  1.00  0.00    -0.463 OA
BRANCH   4   5
ATOM      5  C   UNL A   1      33.728  22.423  25.853  1.00  0.00     0.306 C 
ATOM      6  O   UNL A   1      33.005  21.535  26.296  1.00  0.00    -0.252 OA
BRANCH   5   7
ATOM      7  C   UNL A   1      33.172  23.461  24.890  1.00  0.00     0.126 C 
BRANCH   7   8
ATOM      8  C   UNL A   1      33.064  23.169  23.382  1.00  0.00     0.005 C 
ATOM      9  C   UNL A   1      32.532  21.762  23.092  1.00  0.00     0.009 C 
BRANCH   8  10
ATOM     10  C   UNL A   1      32.119  24.209  22.728  1.00  0.00     0.085 C 
BRANCH  10  11
ATOM     11  C   UNL A   1      32.770  25.571  22.534  1.00  0.00     0.163 C 
ATOM     12  O   UNL A   1      33.869  25.672  21.991  1.00  0.00    -0.294 OA
BRANCH  11  13
ATOM     13  C   UNL A   1      32.059  26.806  22.995  1.00  0.00     0.025 A 
ATOM     14  C   UNL A   1      31.573  28.461  24.692  1.00  0.00     0.123 A 
ATOM     15  C   UNL A   1      30.673  29.077  23.822  1.00  0.00     0.092 A 
ATOM     16  C   UNL A   1      32.257  27.322  24.282  1.00  0.00     0.058 A 
ATOM     17  C   UNL A   1      30.474  28.584  22.532  1.00  0.00     0.123 A 
ATOM     18  C   UNL A   1      31.171  27.449  22.116  1.00  0.00     0.058 A 
BRANCH  14  19
ATOM     19  O   UNL A   1      31.705  29.032  25.929  1.00  0.00    -0.497 OA
ATOM     20  C   UNL A   1      31.719  30.458  25.955  1.00  0.00     0.278 C 
ENDBRANCH  14  19
BRANCH  17  21
ATOM     21  O   UNL A   1      29.610  29.318  21.767  1.00  0.00    -0.497 OA
ATOM     22  C   UNL A   1      28.345  29.607  22.348  1.00  0.00     0.278 C 
ENDBRANCH  17  21
ENDBRANCH  11  13
ENDBRANCH  10  11
ENDBRANCH   8  10
ENDBRANCH   7   8
ENDBRANCH   5   7
ENDBRANCH   4   5
ENDBRANCH   3   4
ENDBRANCH   2   3
ENDBRANCH   1   2
BRANCH   1  23
ATOM     23  C   UNL A   1      38.698  21.795  25.762  1.00  0.00     0.188 C 
BRANCH  23  24
ATOM     24  C   UNL A   1      39.878  21.292  26.594  1.00  0.00     0.188 C 
BRANCH  24  25
ATOM     25  O   UNL A   1      40.481  20.119  26.101  1.00  0.00    -0.376 OA
BRANCH  25  26
ATOM     26  C   UNL A   1      41.868  19.880  26.320  1.00  0.00     0.202 C 
BRANCH  26  27
ATOM     27  C   UNL A   1      43.037  20.779  25.822  1.00  0.00     0.261 C 
BRANCH  27  28
ATOM     28  O   UNL A   1      43.276  22.049  26.447  1.00  0.00    -0.460 OA
BRANCH  28  29
ATOM     29  C   UNL A   1      43.074  23.152  25.695  1.00  0.00     0.338 C 
ATOM     30  O   UNL A   1      43.107  23.211  24.471  1.00  0.00    -0.246 OA
BRANCH  29  31
ATOM     31  C   UNL A   1      42.507  24.214  26.564  1.00  0.00     0.060 A 
ATOM     32  C   UNL A   1      43.254  25.386  26.697  1.00  0.00     0.016 A 
ATOM     33  C   UNL A   1      41.271  24.110  27.207  1.00  0.00     0.016 A 
ATOM     34  C   UNL A   1      42.770  26.454  27.446  1.00  0.00     0.010 A 
ATOM     35  C   UNL A   1      40.815  25.170  28.013  1.00  0.00     0.010 A 
ATOM     36  C   UNL A   1      41.567  26.351  28.141  1.00  0.00    -0.014 A 
BRANCH  36  37
ATOM     37  C   UNL A   1      41.254  27.396  29.150  1.00  0.00     0.031 A 
ATOM     38  C   UNL A   1      42.114  27.473  30.378  1.00  0.00     0.074 A 
ATOM     39  C   UNL A   1      40.338  28.360  28.941  1.00  0.00     0.049 A 
ATOM     40  N   UNL A   1      41.937  28.154  31.480  1.00  0.00    -0.248 NA
ATOM     41  C   UNL A   1      43.357  26.686  30.345  1.00  0.00     0.031 C 
ATOM     42  C   UNL A   1      39.581  28.562  27.710  1.00  0.00     0.029 A 
ATOM     43  N   UNL A   1      39.896  29.362  29.776  1.00  0.00    -0.354 N 
ATOM     44  C   UNL A   1      43.016  27.832  32.294  1.00  0.00     0.074 A 
ATOM     45  C   UNL A   1      43.858  26.924  31.547  1.00  0.00     0.031 C 
ATOM     46  C   UNL A   1      38.750  29.608  27.877  1.00  0.00     0.029 A 
ATOM     47  C   UNL A   1      38.857  30.092  29.253  1.00  0.00     0.049 A 
ATOM     48  H   UNL A   1      40.287  29.538  30.662  1.00  0.00     0.167 HD
ATOM     49  C   UNL A   1      43.259  28.236  33.562  1.00  0.00     0.037 A 
ATOM     50  C   UNL A   1      38.040  30.993  29.840  1.00  0.00     0.037 A 
ATOM     51  C   UNL A   1      42.429  29.159  34.288  1.00  0.00     0.049 A 
ATOM     52  C   UNL A   1      38.231  31.323  31.300  1.00  0.00     0.074 A 
ATOM     53  C   UNL A   1      42.555  29.590  35.597  1.00  0.00     0.029 A 
ATOM     54  N   UNL A   1      41.318  29.801  33.760  1.00  0.00    -0.354 N 
ATOM     55  N   UNL A   1      39.165  30.917  32.126  1.00  0.00    -0.248 NA
ATOM     56  C   UNL A   1      37.235  32.211  31.922  1.00  0.00     0.031 C 
ATOM     57  C   UNL A   1      41.483  30.442  35.880  1.00  0.00     0.029 A 
ATOM     58  C   UNL A   1      40.731  30.599  34.727  1.00  0.00     0.049 A 
ATOM     59  H   UNL A   1      40.995  29.703  32.836  1.00  0.00     0.167 HD
ATOM     60  C   UNL A   1      38.887  31.518  33.349  1.00  0.00     0.074 A 
ATOM     61  C   UNL A   1      37.699  32.322  33.160  1.00  0.00     0.031 C 
ATOM     62  C   UNL A   1      39.558  31.412  34.523  1.00  0.00     0.037 A 
BRANCH  49  63
ATOM     63  C   UNL A   1      44.406  27.586  34.278  1.00  0.00     0.057 A 
ATOM     64  C   UNL A   1      44.278  26.388  34.989  1.00  0.00     0.134 A 
ATOM     65  C   UNL A   1      45.668  28.196  34.257  1.00  0.00     0.134 A 
ATOM     66  F   UNL A   1      43.092  25.766  35.067  1.00  0.00    -0.206 F 
ATOM     67  C   UNL A   1      45.359  25.834  35.678  1.00  0.00     0.040 A 
ATOM     68  C   UNL A   1      46.762  27.637  34.916  1.00  0.00     0.040 A 
ATOM     69  F   UNL A   1      45.858  29.347  33.594  1.00  0.00    -0.206 F 
ATOM     70  C   UNL A   1      46.606  26.456  35.638  1.00  0.00     0.006 A 
ENDBRANCH  49  63
BRANCH  50  71
ATOM     71  C   UNL A   1      36.896  31.570  29.083  1.00  0.00     0.057 A 
ATOM     72  C   UNL A   1      36.890  32.905  28.658  1.00  0.00     0.134 A 
ATOM     73  C   UNL A   1      35.755  30.806  28.802  1.00  0.00     0.134 A 
ATOM     74  F   UNL A   1      37.933  33.704  28.927  1.00  0.00    -0.206 F 
ATOM     75  C   UNL A   1      35.792  33.457  27.993  1.00  0.00     0.040 A 
ATOM     76  C   UNL A   1      34.665  31.334  28.110  1.00  0.00     0.040 A 
ATOM     77  F   UNL A   1      35.685  29.525  29.195  1.00  0.00    -0.206 F 
ATOM     78  C   UNL A   1      34.678  32.668  27.710  1.00  0.00     0.006 A 
ENDBRANCH  50  71
BRANCH  62  79
ATOM     79  C   UNL A   1      39.071  32.222  35.691  1.00  0.00     0.057 A 
ATOM     80  C   UNL A   1      38.245  31.678  36.681  1.00  0.00     0.134 A 
ATOM     81  C   UNL A   1      39.513  33.540  35.869  1.00  0.00     0.134 A 
ATOM     82  F   UNL A   1      37.778  30.425  36.567  1.00  0.00    -0.206 F 
ATOM     83  C   UNL A   1      37.869  32.420  37.805  1.00  0.00     0.040 A 
ATOM     84  C   UNL A   1      39.167  34.281  37.000  1.00  0.00     0.040 A 
ATOM     85  F   UNL A   1      40.315  34.118  34.963  1.00  0.00    -0.206 F 
ATOM     86  C   UNL A   1      38.342  33.721  37.971  1.00  0.00     0.006 A 
ENDBRANCH  62  79
ENDBRANCH  36  37
ENDBRANCH  29  31
ENDBRANCH  28  29
ENDBRANCH  27  28
ENDBRANCH  26  27
ENDBRANCH  25  26
ENDBRANCH  24  25
ENDBRANCH  23  24
ENDBRANCH   1  23
TORSDOF 23
ENDMDL
MODEL 2
REMARK VINA RESULT:      -9.9      2.966      9.267
REMARK SMILES COc1cc(OC)cc(C(=O)C[C@H](C)CC(=O)OCCOCCOCCOC(=O)c2ccc(-c3c4nc(c(-c5c(F)cccc5F)c5ccc([nH]5)c(-c5c(F)cccc5F)c5nc(c(-c6c(F)cccc6F)c6ccc3[nH]6)C=C5)C=C4)cc2)c1
REMARK SMILES IDX 21 1 20 2 19 3 18 4 16 5 17 6 15 7 13 8 14 9 12 10 10 11
REMARK SMILES IDX 11 12 9 13 3 14 4 15 84 16 5 17 8 18 2 19 1 20 6 21 7 22
REMARK SMILES IDX 22 23 23 24 24 25 25 26 26 27 27 28 28 29 29 30 30 31 31 32
REMARK SMILES IDX 83 33 32 34 82 35 33 36 34 37 35 38 76 39 36 40 81 41 75 42
REMARK SMILES IDX 77 43 37 44 80 45 74 46 73 47 38 49 64 50 47 51 63 52 48 53
REMARK SMILES IDX 51 54 62 55 78 56 49 57 50 58 61 60 79 61 52 62 39 63 40 64
REMARK SMILES IDX 45 65 41 66 42 67 44 68 46 69 43 70 65 71 66 72 71 73 67 74
REMARK SMILES IDX 68 75 70 76 72 77 69 78 53 79 54 80 59 81 55 82 56 83 58 84
REMARK SMILES IDX 60 85 57 86
REMARK H PARENT 77 48 51 59
REMARK Flexibility Score: inf
ROOT
ATOM      1  O   UNL A   1      35.319  31.657  27.615  1.00  0.00    -0.376 OA
ENDROOT
BRANCH   1   2
ATOM      2  C   UNL A   1      35.228  30.247  27.834  1.00  0.00     0.202 C 
BRANCH   2   3
ATOM      3  C   UNL A   1      33.979  29.559  27.266  1.00  0.00     0.261 C 
BRANCH   3   4
ATOM      4  O   UNL A   1      34.195  28.186  26.866  1.00  0.00    -0.463 OA
BRANCH   4   5
ATOM      5  C   UNL A   1      33.643  27.810  25.686  1.00  0.00     0.306 C 
ATOM      6  O   UNL A   1      33.608  28.512  24.679  1.00  0.00    -0.252 OA
BRANCH   5   7
ATOM      7  C   UNL A   1      33.108  26.386  25.650  1.00  0.00     0.126 C 
BRANCH   7   8
ATOM      8  C   UNL A   1      32.313  25.866  24.439  1.00  0.00     0.005 C 
ATOM      9  C   UNL A   1      33.204  25.168  23.406  1.00  0.00     0.009 C 
BRANCH   8  10
ATOM     10  C   UNL A   1      31.232  24.869  24.927  1.00  0.00     0.085 C 
BRANCH  10  11
ATOM     11  C   UNL A   1      31.697  24.005  26.091  1.00  0.00     0.163 C 
ATOM     12  O   UNL A   1      31.416  24.305  27.250  1.00  0.00    -0.294 OA
BRANCH  11  13
ATOM     13  C   UNL A   1      32.493  22.766  25.823  1.00  0.00     0.025 A 
ATOM     14  C   UNL A   1      32.653  20.474  25.062  1.00  0.00     0.123 A 
ATOM     15  C   UNL A   1      34.009  20.468  25.388  1.00  0.00     0.092 A 
ATOM     16  C   UNL A   1      31.895  21.617  25.289  1.00  0.00     0.058 A 
ATOM     17  C   UNL A   1      34.624  21.607  25.909  1.00  0.00     0.123 A 
ATOM     18  C   UNL A   1      33.866  22.760  26.122  1.00  0.00     0.058 A 
BRANCH  14  19
ATOM     19  O   UNL A   1      32.151  19.310  24.545  1.00  0.00    -0.497 OA
ATOM     20  C   UNL A   1      32.719  18.107  25.061  1.00  0.00     0.278 C 
ENDBRANCH  14  19
BRANCH  17  21
ATOM     21  O   UNL A   1      35.969  21.482  26.127  1.00  0.00    -0.497 OA
ATOM     22  C   UNL A   1      36.779  21.313  24.970  1.00  0.00     0.278 C 
ENDBRANCH  17  21
ENDBRANCH  11  13
ENDBRANCH  10  11
ENDBRANCH   8  10
ENDBRANCH   7   8
ENDBRANCH   5   7
ENDBRANCH   4   5
ENDBRANCH   3   4
ENDBRANCH   2   3
ENDBRANCH   1   2
BRANCH   1  23
ATOM     23  C   UNL A   1      34.214  32.445  28.054  1.00  0.00     0.188 C 
BRANCH  23  24
ATOM     24  C   UNL A   1      34.419  33.170  29.384  1.00  0.00     0.188 C 
BRANCH  24  25
ATOM     25  O   UNL A   1      34.856  34.503  29.261  1.00  0.00    -0.376 OA
BRANCH  25  26
ATOM     26  C   UNL A   1      33.981  35.497  28.737  1.00  0.00     0.202 C 
BRANCH  26  27
ATOM     27  C   UNL A   1      32.897  36.272  29.540  1.00  0.00     0.261 C 
BRANCH  27  28
ATOM     28  O   UNL A   1      32.211  35.623  30.622  1.00  0.00    -0.460 OA
BRANCH  28  29
ATOM     29  C   UNL A   1      32.502  36.040  31.873  1.00  0.00     0.338 C 
ATOM     30  O   UNL A   1      31.851  36.837  32.540  1.00  0.00    -0.246 OA
BRANCH  29  31
ATOM     31  C   UNL A   1      33.557  35.157  32.428  1.00  0.00     0.060 A 
ATOM     32  C   UNL A   1      34.844  35.693  32.520  1.00  0.00     0.016 A 
ATOM     33  C   UNL A   1      33.318  33.860  32.887  1.00  0.00     0.016 A 
ATOM     34  C   UNL A   1      35.880  34.954  33.082  1.00  0.00     0.010 A 
ATOM     35  C   UNL A   1      34.384  33.095  33.399  1.00  0.00     0.010 A 
ATOM     36  C   UNL A   1      35.677  33.639  33.495  1.00  0.00    -0.014 A 
BRANCH  36  37
ATOM     37  C   UNL A   1      36.873  32.813  33.804  1.00  0.00     0.031 A 
ATOM     38  C   UNL A   1      37.543  33.009  35.134  1.00  0.00     0.074 A 
ATOM     39  C   UNL A   1      37.288  31.805  33.014  1.00  0.00     0.049 A 
ATOM     40  N   UNL A   1      38.694  32.562  35.562  1.00  0.00    -0.248 NA
ATOM     41  C   UNL A   1      36.795  33.803  36.121  1.00  0.00     0.031 C 
ATOM     42  C   UNL A   1      36.614  31.338  31.806  1.00  0.00     0.029 A 
ATOM     43  N   UNL A   1      38.387  30.984  33.125  1.00  0.00    -0.354 N 
ATOM     44  C   UNL A   1      38.835  33.069  36.848  1.00  0.00     0.074 A 
ATOM     45  C   UNL A   1      37.638  33.827  37.141  1.00  0.00     0.031 C 
ATOM     46  C   UNL A   1      37.327  30.329  31.273  1.00  0.00     0.029 A 
ATOM     47  C   UNL A   1      38.548  30.137  32.055  1.00  0.00     0.049 A 
ATOM     48  H   UNL A   1      38.998  31.001  33.896  1.00  0.00     0.167 HD
ATOM     49  C   UNL A   1      39.885  32.938  37.691  1.00  0.00     0.037 A 
ATOM     50  C   UNL A   1      39.593  29.355  31.710  1.00  0.00     0.037 A 
ATOM     51  C   UNL A   1      41.060  32.161  37.400  1.00  0.00     0.049 A 
ATOM     52  C   UNL A   1      40.822  29.334  32.586  1.00  0.00     0.074 A 
ATOM     53  C   UNL A   1      42.206  32.010  38.162  1.00  0.00     0.029 A 
ATOM     54  N   UNL A   1      41.236  31.399  36.255  1.00  0.00    -0.354 N 
ATOM     55  N   UNL A   1      41.027  29.922  33.740  1.00  0.00    -0.248 NA
ATOM     56  C   UNL A   1      41.980  28.566  32.098  1.00  0.00     0.031 C 
ATOM     57  C   UNL A   1      43.100  31.207  37.447  1.00  0.00     0.029 A 
ATOM     58  C   UNL A   1      42.484  30.801  36.275  1.00  0.00     0.049 A 
ATOM     59  H   UNL A   1      40.573  31.299  35.535  1.00  0.00     0.167 HD
ATOM     60  C   UNL A   1      42.317  29.576  34.126  1.00  0.00     0.074 A 
ATOM     61  C   UNL A   1      42.850  28.721  33.087  1.00  0.00     0.031 C 
ATOM     62  C   UNL A   1      42.998  29.935  35.243  1.00  0.00     0.037 A 
BRANCH  49  63
ATOM     63  C   UNL A   1      39.853  33.747  38.953  1.00  0.00     0.057 A 
ATOM     64  C   UNL A   1      40.481  34.992  39.075  1.00  0.00     0.134 A 
ATOM     65  C   UNL A   1      39.180  33.249  40.077  1.00  0.00     0.134 A 
ATOM     66  F   UNL A   1      41.161  35.515  38.044  1.00  0.00    -0.206 F 
ATOM     67  C   UNL A   1      40.465  35.698  40.279  1.00  0.00     0.040 A 
ATOM     68  C   UNL A   1      39.132  33.958  41.276  1.00  0.00     0.040 A 
ATOM     69  F   UNL A   1      38.558  32.060  40.028  1.00  0.00    -0.206 F 
ATOM     70  C   UNL A   1      39.785  35.183  41.382  1.00  0.00     0.006 A 
ENDBRANCH  49  63
BRANCH  50  71
ATOM     71  C   UNL A   1      39.576  28.608  30.423  1.00  0.00     0.057 A 
ATOM     72  C   UNL A   1      40.059  29.171  29.236  1.00  0.00     0.134 A 
ATOM     73  C   UNL A   1      39.029  27.319  30.342  1.00  0.00     0.134 A 
ATOM     74  F   UNL A   1      40.560  30.415  29.234  1.00  0.00    -0.206 F 
ATOM     75  C   UNL A   1      39.994  28.486  28.019  1.00  0.00     0.040 A 
ATOM     76  C   UNL A   1      38.986  26.610  29.141  1.00  0.00     0.040 A 
ATOM     77  F   UNL A   1      38.531  26.725  31.437  1.00  0.00    -0.206 F 
ATOM     78  C   UNL A   1      39.464  27.198  27.972  1.00  0.00     0.006 A 
ENDBRANCH  50  71
BRANCH  62  79
ATOM     79  C   UNL A   1      44.375  29.367  35.444  1.00  0.00     0.057 A 
ATOM     80  C   UNL A   1      45.528  30.055  35.048  1.00  0.00     0.134 A 
ATOM     81  C   UNL A   1      44.547  28.155  36.126  1.00  0.00     0.134 A 
ATOM     82  F   UNL A   1      45.435  31.216  34.383  1.00  0.00    -0.206 F 
ATOM     83  C   UNL A   1      46.804  29.553  35.318  1.00  0.00     0.040 A 
ATOM     84  C   UNL A   1      45.815  27.657  36.426  1.00  0.00     0.040 A 
ATOM     85  F   UNL A   1      43.483  27.451  36.542  1.00  0.00    -0.206 F 
ATOM     86  C   UNL A   1      46.949  28.357  36.020  1.00  0.00     0.006 A 
ENDBRANCH  62  79
ENDBRANCH  36  37
ENDBRANCH  29  31
ENDBRANCH  28  29
ENDBRANCH  27  28
ENDBRANCH  26  27
ENDBRANCH  25  26
ENDBRANCH  24  25
ENDBRANCH  23  24
ENDBRANCH   1  23
TORSDOF 23
ENDMDL
MODEL 3
REMARK VINA RESULT:      -9.6      0.958      2.051
REMARK SMILES COc1cc(OC)cc(C(=O)C[C@H](C)CC(=O)OCCOCCOCCOC(=O)c2ccc(-c3c4nc(c(-c5c(F)cccc5F)c5ccc([nH]5)c(-c5c(F)cccc5F)c5nc(c(-c6c(F)cccc6F)c6ccc3[nH]6)C=C5)C=C4)cc2)c1
REMARK SMILES IDX 21 1 20 2 19 3 18 4 16 5 17 6 15 7 13 8 14 9 12 10 10 11
REMARK SMILES IDX 11 12 9 13 3 14 4 15 84 16 5 17 8 18 2 19 1 20 6 21 7 22
REMARK SMILES IDX 22 23 23 24 24 25 25 26 26 27 27 28 28 29 29 30 30 31 31 32
REMARK SMILES IDX 83 33 32 34 82 35 33 36 34 37 35 38 76 39 36 40 81 41 75 42
REMARK SMILES IDX 77 43 37 44 80 45 74 46 73 47 38 49 64 50 47 51 63 52 48 53
REMARK SMILES IDX 51 54 62 55 78 56 49 57 50 58 61 60 79 61 52 62 39 63 40 64
REMARK SMILES IDX 45 65 41 66 42 67 44 68 46 69 43 70 65 71 66 72 71 73 67 74
REMARK SMILES IDX 68 75 70 76 72 77 69 78 53 79 54 80 59 81 55 82 56 83 58 84
REMARK SMILES IDX 60 85 57 86
REMARK H PARENT 77 48 51 59
REMARK Flexibility Score: inf
ROOT
ATOM      1  O   UNL A   1      37.613  20.819  25.361  1.00  0.00    -0.376 OA
ENDROOT
BRANCH   1   2
ATOM      2  C   UNL A   1      36.199  20.993  25.243  1.00  0.00     0.202 C 
BRANCH   2   3
ATOM      3  C   UNL A   1      35.736  22.095  24.280  1.00  0.00     0.261 C 
BRANCH   3   4
ATOM      4  O   UNL A   1      34.694  22.944  24.813  1.00  0.00    -0.463 OA
BRANCH   4   5
ATOM      5  C   UNL A   1      33.429  22.670  24.407  1.00  0.00     0.306 C 
ATOM      6  O   UNL A   1      33.077  21.612  23.893  1.00  0.00    -0.252 OA
BRANCH   5   7
ATOM      7  C   UNL A   1      32.410  23.762  24.696  1.00  0.00     0.126 C 
BRANCH   7   8
ATOM      8  C   UNL A   1      31.242  23.522  25.669  1.00  0.00     0.005 C 
ATOM      9  C   UNL A   1      31.706  23.383  27.122  1.00  0.00     0.009 C 
BRANCH   8  10
ATOM     10  C   UNL A   1      30.244  24.704  25.570  1.00  0.00     0.085 C 
BRANCH  10  11
ATOM     11  C   UNL A   1      30.241  25.372  24.202  1.00  0.00     0.163 C 
ATOM     12  O   UNL A   1      30.177  24.700  23.174  1.00  0.00    -0.294 OA
BRANCH  11  13
ATOM     13  C   UNL A   1      30.300  26.865  24.106  1.00  0.00     0.025 A 
ATOM     14  C   UNL A   1      29.530  28.959  23.169  1.00  0.00     0.123 A 
ATOM     15  C   UNL A   1      30.485  29.640  23.925  1.00  0.00     0.092 A 
ATOM     16  C   UNL A   1      29.445  27.573  23.252  1.00  0.00     0.058 A 
ATOM     17  C   UNL A   1      31.335  28.950  24.790  1.00  0.00     0.123 A 
ATOM     18  C   UNL A   1      31.240  27.561  24.884  1.00  0.00     0.058 A 
BRANCH  14  19
ATOM     19  O   UNL A   1      28.737  29.729  22.362  1.00  0.00    -0.497 OA
ATOM     20  C   UNL A   1      28.127  30.857  22.988  1.00  0.00     0.278 C 
ENDBRANCH  14  19
BRANCH  17  21
ATOM     21  O   UNL A   1      32.180  29.746  25.515  1.00  0.00    -0.497 OA
ATOM     22  C   UNL A   1      32.041  29.685  26.929  1.00  0.00     0.278 C 
ENDBRANCH  17  21
ENDBRANCH  11  13
ENDBRANCH  10  11
ENDBRANCH   8  10
ENDBRANCH   7   8
ENDBRANCH   5   7
ENDBRANCH   4   5
ENDBRANCH   3   4
ENDBRANCH   2   3
ENDBRANCH   1   2
BRANCH   1  23
ATOM     23  C   UNL A   1      38.384  21.995  25.596  1.00  0.00     0.188 C 
BRANCH  23  24
ATOM     24  C   UNL A   1      39.666  21.782  26.402  1.00  0.00     0.188 C 
BRANCH  24  25
ATOM     25  O   UNL A   1      40.299  20.545  26.175  1.00  0.00    -0.376 OA
BRANCH  25  26
ATOM     26  C   UNL A   1      41.605  20.304  26.691  1.00  0.00     0.202 C 
BRANCH  26  27
ATOM     27  C   UNL A   1      42.932  20.880  26.119  1.00  0.00     0.261 C 
BRANCH  27  28
ATOM     28  O   UNL A   1      43.426  22.140  26.596  1.00  0.00    -0.460 OA
BRANCH  28  29
ATOM     29  C   UNL A   1      43.142  23.233  25.855  1.00  0.00     0.338 C 
ATOM     30  O   UNL A   1      43.102  23.289  24.631  1.00  0.00    -0.246 OA
BRANCH  29  31
ATOM     31  C   UNL A   1      42.589  24.277  26.753  1.00  0.00     0.060 A 
ATOM     32  C   UNL A   1      43.241  25.512  26.762  1.00  0.00     0.016 A 
ATOM     33  C   UNL A   1      41.450  24.096  27.542  1.00  0.00     0.016 A 
ATOM     34  C   UNL A   1      42.756  26.565  27.531  1.00  0.00     0.010 A 
ATOM     35  C   UNL A   1      40.999  25.146  28.365  1.00  0.00     0.010 A 
ATOM     36  C   UNL A   1      41.655  26.389  28.368  1.00  0.00    -0.014 A 
BRANCH  36  37
ATOM     37  C   UNL A   1      41.370  27.444  29.375  1.00  0.00     0.031 A 
ATOM     38  C   UNL A   1      42.250  27.515  30.590  1.00  0.00     0.074 A 
ATOM     39  C   UNL A   1      40.464  28.418  29.175  1.00  0.00     0.049 A 
ATOM     40  N   UNL A   1      42.098  28.205  31.691  1.00  0.00    -0.248 NA
ATOM     41  C   UNL A   1      43.482  26.712  30.542  1.00  0.00     0.031 C 
ATOM     42  C   UNL A   1      39.691  28.623  27.954  1.00  0.00     0.029 A 
ATOM     43  N   UNL A   1      40.048  29.429  30.011  1.00  0.00    -0.354 N 
ATOM     44  C   UNL A   1      43.185  27.873  32.490  1.00  0.00     0.074 A 
ATOM     45  C   UNL A   1      44.004  26.950  31.735  1.00  0.00     0.031 C 
ATOM     46  C   UNL A   1      38.876  29.680  28.128  1.00  0.00     0.029 A 
ATOM     47  C   UNL A   1      39.010  30.171  29.500  1.00  0.00     0.049 A 
ATOM     48  H   UNL A   1      40.454  29.605  30.890  1.00  0.00     0.167 HD
ATOM     49  C   UNL A   1      43.453  28.281  33.752  1.00  0.00     0.037 A 
ATOM     50  C   UNL A   1      38.214  31.085  30.094  1.00  0.00     0.037 A 
ATOM     51  C   UNL A   1      42.646  29.218  34.485  1.00  0.00     0.049 A 
ATOM     52  C   UNL A   1      38.431  31.420  31.550  1.00  0.00     0.074 A 
ATOM     53  C   UNL A   1      42.797  29.653  35.790  1.00  0.00     0.029 A 
ATOM     54  N   UNL A   1      41.536  29.871  33.971  1.00  0.00    -0.354 N 
ATOM     55  N   UNL A   1      39.373  31.007  32.363  1.00  0.00    -0.248 NA
ATOM     56  C   UNL A   1      37.456  32.324  32.182  1.00  0.00     0.031 C 
ATOM     57  C   UNL A   1      41.741  30.522  36.085  1.00  0.00     0.029 A 
ATOM     58  C   UNL A   1      40.973  30.682  34.942  1.00  0.00     0.049 A 
ATOM     59  H   UNL A   1      41.197  29.773  33.052  1.00  0.00     0.167 HD
ATOM     60  C   UNL A   1      39.121  31.617  33.588  1.00  0.00     0.074 A 
ATOM     61  C   UNL A   1      37.940  32.436  33.412  1.00  0.00     0.031 C 
ATOM     62  C   UNL A   1      39.808  31.509  34.751  1.00  0.00     0.037 A 
BRANCH  49  63
ATOM     63  C   UNL A   1      44.602  27.620  34.454  1.00  0.00     0.057 A 
ATOM     64  C   UNL A   1      44.477  26.410  35.146  1.00  0.00     0.134 A 
ATOM     65  C   UNL A   1      45.864  28.230  34.439  1.00  0.00     0.134 A 
ATOM     66  F   UNL A   1      43.292  25.786  35.218  1.00  0.00    -0.206 F 
ATOM     67  C   UNL A   1      45.560  25.845  35.823  1.00  0.00     0.040 A 
ATOM     68  C   UNL A   1      46.960  27.661  35.086  1.00  0.00     0.040 A 
ATOM     69  F   UNL A   1      46.052  29.392  33.794  1.00  0.00    -0.206 F 
ATOM     70  C   UNL A   1      46.807  26.469  35.789  1.00  0.00     0.006 A 
ENDBRANCH  49  63
BRANCH  50  71
ATOM     71  C   UNL A   1      37.066  31.673  29.351  1.00  0.00     0.057 A 
ATOM     72  C   UNL A   1      35.883  30.957  29.133  1.00  0.00     0.134 A 
ATOM     73  C   UNL A   1      37.145  32.960  28.800  1.00  0.00     0.134 A 
ATOM     74  F   UNL A   1      35.755  29.706  29.600  1.00  0.00    -0.206 F 
ATOM     75  C   UNL A   1      34.827  31.494  28.391  1.00  0.00     0.040 A 
ATOM     76  C   UNL A   1      36.086  33.521  28.084  1.00  0.00     0.040 A 
ATOM     77  F   UNL A   1      38.255  33.696  28.954  1.00  0.00    -0.206 F 
ATOM     78  C   UNL A   1      34.924  32.783  27.871  1.00  0.00     0.006 A 
ENDBRANCH  50  71
BRANCH  62  79
ATOM     79  C   UNL A   1      39.349  32.331  35.922  1.00  0.00     0.057 A 
ATOM     80  C   UNL A   1      39.785  33.646  36.124  1.00  0.00     0.134 A 
ATOM     81  C   UNL A   1      38.386  31.825  36.806  1.00  0.00     0.134 A 
ATOM     82  F   UNL A   1      40.711  34.188  35.321  1.00  0.00    -0.206 F 
ATOM     83  C   UNL A   1      39.283  34.426  37.170  1.00  0.00     0.040 A 
ATOM     84  C   UNL A   1      37.858  32.604  37.836  1.00  0.00     0.040 A 
ATOM     85  F   UNL A   1      37.918  30.576  36.662  1.00  0.00    -0.206 F 
ATOM     86  C   UNL A   1      38.308  33.909  38.021  1.00  0.00     0.006 A 
ENDBRANCH  62  79
ENDBRANCH  36  37
ENDBRANCH  29  31
ENDBRANCH  28  29
ENDBRANCH  27  28
ENDBRANCH  26  27
ENDBRANCH  25  26
ENDBRANCH  24  25
ENDBRANCH  23  24
ENDBRANCH   1  23
TORSDOF 23
ENDMDL
