MODEL 1
REMARK VINA RESULT:     -10.3      0.000      0.000
REMARK SMILES COc1ccc2c(c1)[C@H]([NH2+][C@@H](C(=O)OCCOCCOCCOC(=O)c1ccc(-c3c4nc(c(-c5c(F)cccc5F)c5ccc([nH]5)c(-c5c(F)cccc5F)c5nc(c(-c6c(F)cccc6F)c6ccc3[nH]6)C=C5)C=C4)cc1)C1CC1)CC2
REMARK SMILES IDX 18 1 17 2 16 3 15 4 14 5 12 6 13 7 11 8 10 9 9 12 3 13 4 14
REMARK SMILES IDX 8 15 5 16 7 17 6 18 84 19 83 20 2 21 1 22 80 23 81 24 82 25
REMARK SMILES IDX 19 26 20 27 21 28 22 29 23 30 24 31 25 32 26 33 27 34 79 35
REMARK SMILES IDX 28 36 78 37 29 38 30 39 31 40 72 41 32 42 77 43 71 44 73 45
REMARK SMILES IDX 33 46 76 47 70 48 69 49 34 51 60 52 43 53 59 54 44 55 47 56
REMARK SMILES IDX 58 57 74 58 45 59 46 60 57 62 75 63 48 64 35 65 36 66 41 67
REMARK SMILES IDX 37 68 38 69 40 70 42 71 39 72 61 73 62 74 67 75 63 76 64 77
REMARK SMILES IDX 66 78 68 79 65 80 49 81 50 82 55 83 51 84 52 85 54 86 56 87
REMARK SMILES IDX 53 88
REMARK H PARENT 10 10 10 11 73 50 47 61
REMARK Flexibility Score: inf
ROOT
ATOM      1  C   UNL A   1      39.601  20.946  25.791  1.00  0.00     0.188 C 
ENDROOT
BRANCH   1   2
ATOM      2  O   UNL A   1      38.269  20.698  25.369  1.00  0.00    -0.376 OA
BRANCH   2   3
ATOM      3  C   UNL A   1      37.480  21.822  24.977  1.00  0.00     0.202 C 
BRANCH   3   4
ATOM      4  C   UNL A   1      35.958  21.795  25.231  1.00  0.00     0.261 C 
BRANCH   4   5
ATOM      5  O   UNL A   1      35.524  22.518  26.408  1.00  0.00    -0.459 OA
BRANCH   5   6
ATOM      6  C   UNL A   1      34.252  22.267  26.831  1.00  0.00     0.365 C 
ATOM      7  O   UNL A   1      33.989  21.565  27.807  1.00  0.00    -0.245 OA
BRANCH   6   8
ATOM      8  C   UNL A   1      33.142  23.111  26.116  1.00  0.00     0.297 C 
BRANCH   8   9
ATOM      9  N   UNL A   1      33.536  24.519  25.872  1.00  0.00    -0.328 N 
ATOM     10  H   UNL A   1      33.119  25.099  26.601  1.00  0.00     0.347 HD
ATOM     11  H   UNL A   1      34.556  24.544  25.883  1.00  0.00     0.347 HD
BRANCH   9  12
ATOM     12  C   UNL A   1      33.118  25.039  24.580  1.00  0.00     0.215 C 
ATOM     13  C   UNL A   1      33.252  28.907  24.517  1.00  0.00     0.119 A 
ATOM     14  C   UNL A   1      33.521  29.045  23.146  1.00  0.00     0.047 A 
ATOM     15  C   UNL A   1      33.174  27.628  25.098  1.00  0.00     0.056 A 
ATOM     16  C   UNL A   1      33.702  27.919  22.339  1.00  0.00     0.008 A 
ATOM     17  C   UNL A   1      33.354  26.507  24.294  1.00  0.00     0.016 A 
ATOM     18  C   UNL A   1      33.618  26.668  22.923  1.00  0.00    -0.038 A 
ATOM     19  C   UNL A   1      33.682  25.343  22.227  1.00  0.00     0.042 C 
ATOM     20  C   UNL A   1      33.894  24.400  23.414  1.00  0.00     0.075 C 
BRANCH  13  21
ATOM     21  O   UNL A   1      33.049  29.953  25.381  1.00  0.00    -0.497 OA
ATOM     22  C   UNL A   1      31.949  29.836  26.280  1.00  0.00     0.278 C 
ENDBRANCH  13  21
ENDBRANCH   9  12
ENDBRANCH   8   9
BRANCH   8  23
ATOM     23  C   UNL A   1      31.816  22.860  26.836  1.00  0.00     0.059 C 
ATOM     24  C   UNL A   1      30.494  23.601  26.727  1.00  0.00     0.011 C 
ATOM     25  C   UNL A   1      30.671  22.286  26.026  1.00  0.00     0.011 C 
ENDBRANCH   8  23
ENDBRANCH   6   8
ENDBRANCH   5   6
ENDBRANCH   4   5
ENDBRANCH   3   4
ENDBRANCH   2   3
ENDBRANCH   1   2
BRANCH   1  26
ATOM     26  C   UNL A   1      40.481  19.746  26.153  1.00  0.00     0.188 C 
BRANCH  26  27
ATOM     27  O   UNL A   1      41.638  19.592  25.372  1.00  0.00    -0.376 OA
BRANCH  27  28
ATOM     28  C   UNL A   1      42.905  19.999  25.868  1.00  0.00     0.202 C 
BRANCH  28  29
ATOM     29  C   UNL A   1      43.284  21.478  26.108  1.00  0.00     0.261 C 
BRANCH  29  30
ATOM     30  O   UNL A   1      42.870  22.450  25.135  1.00  0.00    -0.460 OA
BRANCH  30  31
ATOM     31  C   UNL A   1      43.603  23.586  25.044  1.00  0.00     0.338 C 
ATOM     32  O   UNL A   1      44.421  23.862  24.181  1.00  0.00    -0.246 OA
BRANCH  31  33
ATOM     33  C   UNL A   1      43.032  24.567  26.006  1.00  0.00     0.060 A 
ATOM     34  C   UNL A   1      43.692  25.794  26.177  1.00  0.00     0.016 A 
ATOM     35  C   UNL A   1      41.833  24.318  26.676  1.00  0.00     0.016 A 
ATOM     36  C   UNL A   1      43.167  26.763  27.036  1.00  0.00     0.010 A 
ATOM     37  C   UNL A   1      41.325  25.279  27.559  1.00  0.00     0.010 A 
ATOM     38  C   UNL A   1      42.002  26.496  27.765  1.00  0.00    -0.014 A 
BRANCH  38  39
ATOM     39  C   UNL A   1      41.604  27.402  28.873  1.00  0.00     0.031 A 
ATOM     40  C   UNL A   1      42.380  27.338  30.162  1.00  0.00     0.074 A 
ATOM     41  C   UNL A   1      40.601  28.289  28.742  1.00  0.00     0.049 A 
ATOM     42  N   UNL A   1      42.202  27.999  31.276  1.00  0.00    -0.248 NA
ATOM     43  C   UNL A   1      43.512  26.398  30.192  1.00  0.00     0.031 C 
ATOM     44  C   UNL A   1      39.796  28.490  27.541  1.00  0.00     0.029 A 
ATOM     45  N   UNL A   1      40.084  29.185  29.648  1.00  0.00    -0.354 N 
ATOM     46  C   UNL A   1      43.191  27.551  32.142  1.00  0.00     0.074 A 
ATOM     47  C   UNL A   1      43.949  26.542  31.434  1.00  0.00     0.031 C 
ATOM     48  C   UNL A   1      38.876  29.440  27.786  1.00  0.00     0.029 A 
ATOM     49  C   UNL A   1      39.004  29.889  29.173  1.00  0.00     0.049 A 
ATOM     50  H   UNL A   1      40.453  29.309  30.553  1.00  0.00     0.167 HD
ATOM     51  C   UNL A   1      43.454  27.948  33.410  1.00  0.00     0.037 A 
ATOM     52  C   UNL A   1      38.199  30.775  29.793  1.00  0.00     0.037 A 
ATOM     53  C   UNL A   1      42.702  28.949  34.121  1.00  0.00     0.049 A 
ATOM     54  C   UNL A   1      38.459  31.142  31.234  1.00  0.00     0.074 A 
ATOM     55  C   UNL A   1      42.908  29.432  35.401  1.00  0.00     0.029 A 
ATOM     56  N   UNL A   1      41.591  29.610  33.618  1.00  0.00    -0.354 N 
ATOM     57  N   UNL A   1      39.416  30.736  32.034  1.00  0.00    -0.248 NA
ATOM     58  C   UNL A   1      37.526  32.093  31.857  1.00  0.00     0.031 C 
ATOM     59  C   UNL A   1      41.886  30.339  35.697  1.00  0.00     0.029 A 
ATOM     60  C   UNL A   1      41.082  30.472  34.575  1.00  0.00     0.049 A 
ATOM     61  H   UNL A   1      41.221  29.486  32.714  1.00  0.00     0.167 HD
ATOM     62  C   UNL A   1      39.218  31.402  33.239  1.00  0.00     0.074 A 
ATOM     63  C   UNL A   1      38.061  32.252  33.059  1.00  0.00     0.031 C 
ATOM     64  C   UNL A   1      39.930  31.318  34.390  1.00  0.00     0.037 A 
BRANCH  51  65
ATOM     65  C   UNL A   1      44.585  27.269  34.127  1.00  0.00     0.057 A 
ATOM     66  C   UNL A   1      44.402  26.090  34.859  1.00  0.00     0.134 A 
ATOM     67  C   UNL A   1      45.885  27.787  34.052  1.00  0.00     0.134 A 
ATOM     68  F   UNL A   1      43.179  25.549  34.984  1.00  0.00    -0.206 F 
ATOM     69  C   UNL A   1      45.464  25.462  35.511  1.00  0.00     0.040 A 
ATOM     70  C   UNL A   1      46.960  27.153  34.675  1.00  0.00     0.040 A 
ATOM     71  F   UNL A   1      46.131  28.912  33.364  1.00  0.00    -0.206 F 
ATOM     72  C   UNL A   1      46.750  25.991  35.412  1.00  0.00     0.006 A 
ENDBRANCH  51  65
BRANCH  52  73
ATOM     73  C   UNL A   1      37.044  31.371  29.070  1.00  0.00     0.057 A 
ATOM     74  C   UNL A   1      37.077  32.690  28.602  1.00  0.00     0.134 A 
ATOM     75  C   UNL A   1      35.861  30.647  28.871  1.00  0.00     0.134 A 
ATOM     76  F   UNL A   1      38.169  33.445  28.789  1.00  0.00    -0.206 F 
ATOM     77  C   UNL A   1      35.972  33.274  27.980  1.00  0.00     0.040 A 
ATOM     78  C   UNL A   1      34.759  31.210  28.224  1.00  0.00     0.040 A 
ATOM     79  F   UNL A   1      35.760  29.381  29.301  1.00  0.00    -0.206 F 
ATOM     80  C   UNL A   1      34.810  32.530  27.784  1.00  0.00     0.006 A 
ENDBRANCH  52  73
BRANCH  64  81
ATOM     81  C   UNL A   1      39.504  32.193  35.537  1.00  0.00     0.057 A 
ATOM     82  C   UNL A   1      38.589  31.758  36.505  1.00  0.00     0.134 A 
ATOM     83  C   UNL A   1      40.041  33.478  35.692  1.00  0.00     0.134 A 
ATOM     84  F   UNL A   1      38.028  30.543  36.414  1.00  0.00    -0.206 F 
ATOM     85  C   UNL A   1      38.202  32.579  37.567  1.00  0.00     0.040 A 
ATOM     86  C   UNL A   1      39.686  34.297  36.766  1.00  0.00     0.040 A 
ATOM     87  F   UNL A   1      40.931  33.955  34.809  1.00  0.00    -0.206 F 
ATOM     88  C   UNL A   1      38.756  33.850  37.702  1.00  0.00     0.006 A 
ENDBRANCH  64  81
ENDBRANCH  38  39
ENDBRANCH  31  33
ENDBRANCH  30  31
ENDBRANCH  29  30
ENDBRANCH  28  29
ENDBRANCH  27  28
ENDBRANCH  26  27
ENDBRANCH   1  26
TORSDOF 21
ENDMDL
MODEL 2
REMARK VINA RESULT:     -10.1      4.642      9.796
REMARK SMILES COc1ccc2c(c1)[C@H]([NH2+][C@@H](C(=O)OCCOCCOCCOC(=O)c1ccc(-c3c4nc(c(-c5c(F)cccc5F)c5ccc([nH]5)c(-c5c(F)cccc5F)c5nc(c(-c6c(F)cccc6F)c6ccc3[nH]6)C=C5)C=C4)cc1)C1CC1)CC2
REMARK SMILES IDX 18 1 17 2 16 3 15 4 14 5 12 6 13 7 11 8 10 9 9 12 3 13 4 14
REMARK SMILES IDX 8 15 5 16 7 17 6 18 84 19 83 20 2 21 1 22 80 23 81 24 82 25
REMARK SMILES IDX 19 26 20 27 21 28 22 29 23 30 24 31 25 32 26 33 27 34 79 35
REMARK SMILES IDX 28 36 78 37 29 38 30 39 31 40 72 41 32 42 77 43 71 44 73 45
REMARK SMILES IDX 33 46 76 47 70 48 69 49 34 51 60 52 43 53 59 54 44 55 47 56
REMARK SMILES IDX 58 57 74 58 45 59 46 60 57 62 75 63 48 64 35 65 36 66 41 67
REMARK SMILES IDX 37 68 38 69 40 70 42 71 39 72 61 73 62 74 67 75 63 76 64 77
REMARK SMILES IDX 66 78 68 79 65 80 49 81 50 82 55 83 51 84 52 85 54 86 56 87
REMARK SMILES IDX 53 88
REMARK H PARENT 10 10 10 11 73 50 47 61
REMARK Flexibility Score: inf
ROOT
ATOM      1  C   UNL A   1      34.949  32.587  27.987  1.00  0.00     0.188 C 
ENDROOT
BRANCH   1   2
ATOM      2  O   UNL A   1      34.483  31.371  28.551  1.00  0.00    -0.376 OA
BRANCH   2   3
ATOM      3  C   UNL A   1      34.305  30.260  27.672  1.00  0.00     0.202 C 
BRANCH   3   4
ATOM      4  C   UNL A   1      33.052  30.209  26.772  1.00  0.00     0.261 C 
BRANCH   4   5
ATOM      5  O   UNL A   1      32.763  28.909  26.204  1.00  0.00    -0.459 OA
BRANCH   5   6
ATOM      6  C   UNL A   1      33.012  28.768  24.870  1.00  0.00     0.365 C 
ATOM      7  O   UNL A   1      33.319  29.707  24.136  1.00  0.00    -0.245 OA
BRANCH   6   8
ATOM      8  C   UNL A   1      33.090  27.285  24.368  1.00  0.00     0.297 C 
BRANCH   8   9
ATOM      9  N   UNL A   1      31.978  26.911  23.462  1.00  0.00    -0.328 N 
ATOM     10  H   UNL A   1      32.057  27.468  22.611  1.00  0.00     0.347 HD
ATOM     11  H   UNL A   1      32.066  25.910  23.288  1.00  0.00     0.347 HD
BRANCH   9  12
ATOM     12  C   UNL A   1      30.655  27.123  24.026  1.00  0.00     0.215 C 
ATOM     13  C   UNL A   1      28.945  30.221  22.454  1.00  0.00     0.119 A 
ATOM     14  C   UNL A   1      27.622  29.770  22.589  1.00  0.00     0.047 A 
ATOM     15  C   UNL A   1      30.017  29.391  22.831  1.00  0.00     0.056 A 
ATOM     16  C   UNL A   1      27.351  28.502  23.107  1.00  0.00     0.008 A 
ATOM     17  C   UNL A   1      29.747  28.128  23.349  1.00  0.00     0.016 A 
ATOM     18  C   UNL A   1      28.415  27.700  23.478  1.00  0.00    -0.038 A 
ATOM     19  C   UNL A   1      28.342  26.358  24.142  1.00  0.00     0.042 C 
ATOM     20  C   UNL A   1      29.777  25.861  23.951  1.00  0.00     0.075 C 
BRANCH  13  21
ATOM     21  O   UNL A   1      29.304  31.451  21.967  1.00  0.00    -0.497 OA
ATOM     22  C   UNL A   1      28.688  32.584  22.573  1.00  0.00     0.278 C 
ENDBRANCH  13  21
ENDBRANCH   9  12
ENDBRANCH   8   9
BRANCH   8  23
ATOM     23  C   UNL A   1      33.353  26.387  25.577  1.00  0.00     0.059 C 
ATOM     24  C   UNL A   1      32.805  25.009  25.903  1.00  0.00     0.011 C 
ATOM     25  C   UNL A   1      34.198  25.147  25.364  1.00  0.00     0.011 C 
ENDBRANCH   8  23
ENDBRANCH   6   8
ENDBRANCH   5   6
ENDBRANCH   4   5
ENDBRANCH   3   4
ENDBRANCH   2   3
ENDBRANCH   1   2
BRANCH   1  26
ATOM     26  C   UNL A   1      34.997  33.829  28.881  1.00  0.00     0.188 C 
BRANCH  26  27
ATOM     27  O   UNL A   1      34.047  33.861  29.915  1.00  0.00    -0.376 OA
BRANCH  27  28
ATOM     28  C   UNL A   1      34.454  33.993  31.269  1.00  0.00     0.202 C 
BRANCH  28  29
ATOM     29  C   UNL A   1      34.300  32.864  32.312  1.00  0.00     0.261 C 
BRANCH  29  30
ATOM     30  O   UNL A   1      35.491  32.314  32.898  1.00  0.00    -0.460 OA
BRANCH  30  31
ATOM     31  C   UNL A   1      36.614  33.071  32.843  1.00  0.00     0.338 C 
ATOM     32  O   UNL A   1      36.852  34.074  33.496  1.00  0.00    -0.246 OA
BRANCH  31  33
ATOM     33  C   UNL A   1      37.630  32.309  32.069  1.00  0.00     0.060 A 
ATOM     34  C   UNL A   1      38.607  31.591  32.778  1.00  0.00     0.016 A 
ATOM     35  C   UNL A   1      37.587  32.241  30.676  1.00  0.00     0.016 A 
ATOM     36  C   UNL A   1      39.555  30.825  32.094  1.00  0.00     0.010 A 
ATOM     37  C   UNL A   1      38.555  31.497  29.991  1.00  0.00     0.010 A 
ATOM     38  C   UNL A   1      39.560  30.806  30.694  1.00  0.00    -0.014 A 
BRANCH  38  39
ATOM     39  C   UNL A   1      40.723  30.226  29.973  1.00  0.00     0.031 A 
ATOM     40  C   UNL A   1      41.908  31.113  29.698  1.00  0.00     0.074 A 
ATOM     41  C   UNL A   1      40.753  28.936  29.592  1.00  0.00     0.049 A 
ATOM     42  N   UNL A   1      43.018  30.847  29.058  1.00  0.00    -0.248 NA
ATOM     43  C   UNL A   1      41.826  32.486  30.219  1.00  0.00     0.031 C 
ATOM     44  C   UNL A   1      39.698  27.955  29.830  1.00  0.00     0.029 A 
ATOM     45  N   UNL A   1      41.718  28.234  28.909  1.00  0.00    -0.354 N 
ATOM     46  C   UNL A   1      43.762  32.019  29.093  1.00  0.00     0.074 A 
ATOM     47  C   UNL A   1      42.966  33.006  29.791  1.00  0.00     0.031 C 
ATOM     48  C   UNL A   1      40.066  26.779  29.290  1.00  0.00     0.029 A 
ATOM     49  C   UNL A   1      41.367  26.933  28.638  1.00  0.00     0.049 A 
ATOM     50  H   UNL A   1      42.580  28.626  28.639  1.00  0.00     0.167 HD
ATOM     51  C   UNL A   1      45.000  32.254  28.597  1.00  0.00     0.037 A 
ATOM     52  C   UNL A   1      42.010  25.986  27.925  1.00  0.00     0.037 A 
ATOM     53  C   UNL A   1      45.795  31.278  27.899  1.00  0.00     0.049 A 
ATOM     54  C   UNL A   1      43.352  26.296  27.309  1.00  0.00     0.074 A 
ATOM     55  C   UNL A   1      47.070  31.419  27.379  1.00  0.00     0.029 A 
ATOM     56  N   UNL A   1      45.387  29.985  27.611  1.00  0.00    -0.354 N 
ATOM     57  N   UNL A   1      44.061  27.398  27.375  1.00  0.00    -0.248 NA
ATOM     58  C   UNL A   1      43.985  25.226  26.522  1.00  0.00     0.031 C 
ATOM     59  C   UNL A   1      47.409  30.232  26.722  1.00  0.00     0.029 A 
ATOM     60  C   UNL A   1      46.372  29.329  26.890  1.00  0.00     0.049 A 
ATOM     61  H   UNL A   1      44.525  29.591  27.878  1.00  0.00     0.167 HD
ATOM     62  C   UNL A   1      45.230  27.144  26.664  1.00  0.00     0.074 A 
ATOM     63  C   UNL A   1      45.144  25.779  26.194  1.00  0.00     0.031 C 
ATOM     64  C   UNL A   1      46.281  27.968  26.425  1.00  0.00     0.037 A 
BRANCH  51  65
ATOM     65  C   UNL A   1      45.559  33.639  28.760  1.00  0.00     0.057 A 
ATOM     66  C   UNL A   1      45.435  34.615  27.763  1.00  0.00     0.134 A 
ATOM     67  C   UNL A   1      46.201  34.009  29.949  1.00  0.00     0.134 A 
ATOM     68  F   UNL A   1      44.844  34.321  26.594  1.00  0.00    -0.206 F 
ATOM     69  C   UNL A   1      45.948  35.901  27.933  1.00  0.00     0.040 A 
ATOM     70  C   UNL A   1      46.694  35.300  30.141  1.00  0.00     0.040 A 
ATOM     71  F   UNL A   1      46.352  33.124  30.946  1.00  0.00    -0.206 F 
ATOM     72  C   UNL A   1      46.573  36.249  29.129  1.00  0.00     0.006 A 
ENDBRANCH  51  65
BRANCH  52  73
ATOM     73  C   UNL A   1      41.389  24.650  27.725  1.00  0.00     0.057 A 
ATOM     74  C   UNL A   1      41.795  23.537  28.470  1.00  0.00     0.134 A 
ATOM     75  C   UNL A   1      40.404  24.446  26.749  1.00  0.00     0.134 A 
ATOM     76  F   UNL A   1      42.755  23.660  29.398  1.00  0.00    -0.206 F 
ATOM     77  C   UNL A   1      41.260  22.268  28.241  1.00  0.00     0.040 A 
ATOM     78  C   UNL A   1      39.840  23.188  26.530  1.00  0.00     0.040 A 
ATOM     79  F   UNL A   1      39.975  25.469  25.995  1.00  0.00    -0.206 F 
ATOM     80  C   UNL A   1      40.274  22.092  27.272  1.00  0.00     0.006 A 
ENDBRANCH  52  73
BRANCH  64  81
ATOM     81  C   UNL A   1      47.441  27.407  25.650  1.00  0.00     0.057 A 
ATOM     82  C   UNL A   1      48.492  26.721  26.274  1.00  0.00     0.134 A 
ATOM     83  C   UNL A   1      47.492  27.528  24.254  1.00  0.00     0.134 A 
ATOM     84  F   UNL A   1      48.513  26.576  27.607  1.00  0.00    -0.206 F 
ATOM     85  C   UNL A   1      49.564  26.204  25.543  1.00  0.00     0.040 A 
ATOM     86  C   UNL A   1      48.542  26.988  23.509  1.00  0.00     0.040 A 
ATOM     87  F   UNL A   1      46.514  28.161  23.589  1.00  0.00    -0.206 F 
ATOM     88  C   UNL A   1      49.587  26.332  24.155  1.00  0.00     0.006 A 
ENDBRANCH  64  81
ENDBRANCH  38  39
ENDBRANCH  31  33
ENDBRANCH  30  31
ENDBRANCH  29  30
ENDBRANCH  28  29
ENDBRANCH  27  28
ENDBRANCH  26  27
ENDBRANCH   1  26
TORSDOF 21
ENDMDL
MODEL 3
REMARK VINA RESULT:     -10.0      3.973      6.524
REMARK SMILES COc1ccc2c(c1)[C@H]([NH2+][C@@H](C(=O)OCCOCCOCCOC(=O)c1ccc(-c3c4nc(c(-c5c(F)cccc5F)c5ccc([nH]5)c(-c5c(F)cccc5F)c5nc(c(-c6c(F)cccc6F)c6ccc3[nH]6)C=C5)C=C4)cc1)C1CC1)CC2
REMARK SMILES IDX 18 1 17 2 16 3 15 4 14 5 12 6 13 7 11 8 10 9 9 12 3 13 4 14
REMARK SMILES IDX 8 15 5 16 7 17 6 18 84 19 83 20 2 21 1 22 80 23 81 24 82 25
REMARK SMILES IDX 19 26 20 27 21 28 22 29 23 30 24 31 25 32 26 33 27 34 79 35
REMARK SMILES IDX 28 36 78 37 29 38 30 39 31 40 72 41 32 42 77 43 71 44 73 45
REMARK SMILES IDX 33 46 76 47 70 48 69 49 34 51 60 52 43 53 59 54 44 55 47 56
REMARK SMILES IDX 58 57 74 58 45 59 46 60 57 62 75 63 48 64 35 65 36 66 41 67
REMARK SMILES IDX 37 68 38 69 40 70 42 71 39 72 61 73 62 74 67 75 63 76 64 77
REMARK SMILES IDX 66 78 68 79 65 80 49 81 50 82 55 83 51 84 52 85 54 86 56 87
REMARK SMILES IDX 53 88
REMARK H PARENT 10 10 10 11 73 50 47 61
REMARK Flexibility Score: inf
ROOT
ATOM      1  C   UNL A   1      36.855  23.376  24.624  1.00  0.00     0.188 C 
ENDROOT
BRANCH   1   2
ATOM      2  O   UNL A   1      35.888  23.932  25.502  1.00  0.00    -0.376 OA
BRANCH   2   3
ATOM      3  C   UNL A   1      34.886  24.775  24.933  1.00  0.00     0.202 C 
BRANCH   3   4
ATOM      4  C   UNL A   1      34.505  24.590  23.449  1.00  0.00     0.261 C 
BRANCH   4   5
ATOM      5  O   UNL A   1      33.963  25.771  22.808  1.00  0.00    -0.459 OA
BRANCH   5   6
ATOM      6  C   UNL A   1      32.842  25.582  22.055  1.00  0.00     0.365 C 
ATOM      7  O   UNL A   1      32.869  25.236  20.874  1.00  0.00    -0.245 OA
BRANCH   6   8
ATOM      8  C   UNL A   1      31.495  25.632  22.855  1.00  0.00     0.297 C 
BRANCH   8   9
ATOM      9  N   UNL A   1      30.846  24.307  22.999  1.00  0.00    -0.328 N 
ATOM     10  H   UNL A   1      29.893  24.376  22.638  1.00  0.00     0.347 HD
ATOM     11  H   UNL A   1      31.417  23.642  22.478  1.00  0.00     0.347 HD
BRANCH   9  12
ATOM     12  C   UNL A   1      30.781  23.822  24.369  1.00  0.00     0.215 C 
ATOM     13  C   UNL A   1      33.126  20.786  24.889  1.00  0.00     0.119 A 
ATOM     14  C   UNL A   1      33.401  21.015  26.247  1.00  0.00     0.047 A 
ATOM     15  C   UNL A   1      32.333  21.695  24.164  1.00  0.00     0.056 A 
ATOM     16  C   UNL A   1      32.884  22.137  26.899  1.00  0.00     0.008 A 
ATOM     17  C   UNL A   1      31.817  22.812  24.814  1.00  0.00     0.016 A 
ATOM     18  C   UNL A   1      32.102  23.019  26.174  1.00  0.00    -0.038 A 
ATOM     19  C   UNL A   1      31.376  24.219  26.700  1.00  0.00     0.042 C 
ATOM     20  C   UNL A   1      31.025  24.942  25.397  1.00  0.00     0.075 C 
BRANCH  13  21
ATOM     21  O   UNL A   1      33.580  19.709  24.172  1.00  0.00    -0.497 OA
ATOM     22  C   UNL A   1      32.592  18.822  23.655  1.00  0.00     0.278 C 
ENDBRANCH  13  21
ENDBRANCH   9  12
ENDBRANCH   8   9
BRANCH   8  23
ATOM     23  C   UNL A   1      30.651  26.778  22.295  1.00  0.00     0.059 C 
ATOM     24  C   UNL A   1      29.691  27.717  23.005  1.00  0.00     0.011 C 
ATOM     25  C   UNL A   1      31.066  28.194  22.641  1.00  0.00     0.011 C 
ENDBRANCH   8  23
ENDBRANCH   6   8
ENDBRANCH   5   6
ENDBRANCH   4   5
ENDBRANCH   3   4
ENDBRANCH   2   3
ENDBRANCH   1   2
BRANCH   1  26
ATOM     26  C   UNL A   1      36.732  21.894  24.258  1.00  0.00     0.188 C 
BRANCH  26  27
ATOM     27  O   UNL A   1      37.204  20.995  25.229  1.00  0.00    -0.376 OA
BRANCH  27  28
ATOM     28  C   UNL A   1      38.585  20.940  25.555  1.00  0.00     0.202 C 
BRANCH  28  29
ATOM     29  C   UNL A   1      39.412  19.635  25.511  1.00  0.00     0.261 C 
BRANCH  29  30
ATOM     30  O   UNL A   1      40.350  19.392  26.571  1.00  0.00    -0.460 OA
BRANCH  30  31
ATOM     31  C   UNL A   1      41.668  19.469  26.262  1.00  0.00     0.338 C 
ATOM     32  O   UNL A   1      42.329  18.632  25.669  1.00  0.00    -0.246 OA
BRANCH  31  33
ATOM     33  C   UNL A   1      42.105  20.869  26.506  1.00  0.00     0.060 A 
ATOM     34  C   UNL A   1      42.328  21.277  27.830  1.00  0.00     0.016 A 
ATOM     35  C   UNL A   1      42.359  21.748  25.452  1.00  0.00     0.016 A 
ATOM     36  C   UNL A   1      42.782  22.570  28.104  1.00  0.00     0.010 A 
ATOM     37  C   UNL A   1      42.786  23.052  25.729  1.00  0.00     0.010 A 
ATOM     38  C   UNL A   1      42.975  23.480  27.057  1.00  0.00    -0.014 A 
BRANCH  38  39
ATOM     39  C   UNL A   1      43.185  24.918  27.365  1.00  0.00     0.031 A 
ATOM     40  C   UNL A   1      44.536  25.519  27.081  1.00  0.00     0.074 A 
ATOM     41  C   UNL A   1      42.200  25.693  27.856  1.00  0.00     0.049 A 
ATOM     42  N   UNL A   1      44.970  26.735  27.297  1.00  0.00    -0.248 NA
ATOM     43  C   UNL A   1      45.531  24.623  26.471  1.00  0.00     0.031 C 
ATOM     44  C   UNL A   1      40.836  25.255  28.136  1.00  0.00     0.029 A 
ATOM     45  N   UNL A   1      42.210  27.020  28.215  1.00  0.00    -0.354 N 
ATOM     46  C   UNL A   1      46.287  26.747  26.855  1.00  0.00     0.074 A 
ATOM     47  C   UNL A   1      46.591  25.412  26.388  1.00  0.00     0.031 C 
ATOM     48  C   UNL A   1      40.140  26.292  28.637  1.00  0.00     0.029 A 
ATOM     49  C   UNL A   1      41.020  27.457  28.745  1.00  0.00     0.049 A 
ATOM     50  H   UNL A   1      42.996  27.603  28.103  1.00  0.00     0.167 HD
ATOM     51  C   UNL A   1      47.165  27.779  26.833  1.00  0.00     0.037 A 
ATOM     52  C   UNL A   1      40.688  28.650  29.278  1.00  0.00     0.037 A 
ATOM     53  C   UNL A   1      46.870  29.108  27.300  1.00  0.00     0.049 A 
ATOM     54  C   UNL A   1      41.709  29.761  29.319  1.00  0.00     0.074 A 
ATOM     55  C   UNL A   1      47.690  30.223  27.297  1.00  0.00     0.029 A 
ATOM     56  N   UNL A   1      45.666  29.499  27.866  1.00  0.00    -0.354 N 
ATOM     57  N   UNL A   1      42.941  29.772  28.871  1.00  0.00    -0.248 NA
ATOM     58  C   UNL A   1      41.288  31.027  29.938  1.00  0.00     0.031 C 
ATOM     59  C   UNL A   1      47.005  31.272  27.918  1.00  0.00     0.029 A 
ATOM     60  C   UNL A   1      45.734  30.829  28.247  1.00  0.00     0.049 A 
ATOM     61  H   UNL A   1      44.880  28.917  27.981  1.00  0.00     0.167 HD
ATOM     62  C   UNL A   1      43.431  31.049  29.128  1.00  0.00     0.074 A 
ATOM     63  C   UNL A   1      42.356  31.789  29.753  1.00  0.00     0.031 C 
ATOM     64  C   UNL A   1      44.659  31.562  28.868  1.00  0.00     0.037 A 
BRANCH  51  65
ATOM     65  C   UNL A   1      48.547  27.499  26.317  1.00  0.00     0.057 A 
ATOM     66  C   UNL A   1      49.607  27.165  27.169  1.00  0.00     0.134 A 
ATOM     67  C   UNL A   1      48.810  27.530  24.941  1.00  0.00     0.134 A 
ATOM     68  F   UNL A   1      49.426  27.131  28.499  1.00  0.00    -0.206 F 
ATOM     69  C   UNL A   1      50.884  26.895  26.675  1.00  0.00     0.040 A 
ATOM     70  C   UNL A   1      50.075  27.235  24.433  1.00  0.00     0.040 A 
ATOM     71  F   UNL A   1      47.839  27.840  24.069  1.00  0.00    -0.206 F 
ATOM     72  C   UNL A   1      51.118  26.922  25.301  1.00  0.00     0.006 A 
ENDBRANCH  51  65
BRANCH  52  73
ATOM     73  C   UNL A   1      39.330  28.865  29.846  1.00  0.00     0.057 A 
ATOM     74  C   UNL A   1      38.293  29.402  29.075  1.00  0.00     0.134 A 
ATOM     75  C   UNL A   1      39.052  28.578  31.188  1.00  0.00     0.134 A 
ATOM     76  F   UNL A   1      38.504  29.726  27.791  1.00  0.00    -0.206 F 
ATOM     77  C   UNL A   1      37.035  29.665  29.621  1.00  0.00     0.040 A 
ATOM     78  C   UNL A   1      37.790  28.808  31.740  1.00  0.00     0.040 A 
ATOM     79  F   UNL A   1      40.003  28.068  31.985  1.00  0.00    -0.206 F 
ATOM     80  C   UNL A   1      36.780  29.362  30.957  1.00  0.00     0.006 A 
ENDBRANCH  52  73
BRANCH  64  81
ATOM     81  C   UNL A   1      44.900  33.003  29.224  1.00  0.00     0.057 A 
ATOM     82  C   UNL A   1      44.578  34.050  28.351  1.00  0.00     0.134 A 
ATOM     83  C   UNL A   1      45.434  33.350  30.474  1.00  0.00     0.134 A 
ATOM     84  F   UNL A   1      44.073  33.791  27.136  1.00  0.00    -0.206 F 
ATOM     85  C   UNL A   1      44.806  35.385  28.693  1.00  0.00     0.040 A 
ATOM     86  C   UNL A   1      45.638  34.682  30.840  1.00  0.00     0.040 A 
ATOM     87  F   UNL A   1      45.755  32.400  31.365  1.00  0.00    -0.206 F 
ATOM     88  C   UNL A   1      45.331  35.703  29.944  1.00  0.00     0.006 A 
ENDBRANCH  64  81
ENDBRANCH  38  39
ENDBRANCH  31  33
ENDBRANCH  30  31
ENDBRANCH  29  30
ENDBRANCH  28  29
ENDBRANCH  27  28
ENDBRANCH  26  27
ENDBRANCH   1  26
TORSDOF 21
ENDMDL
