MODEL 1
REMARK VINA RESULT:     -10.1      0.000      0.000
REMARK SMILES CCc1ncc(S(=O)(=O)NCc2ccc(C(=O)OCCOCCOCCOC(=O)c3ccc(-c4c5nc(c(-c6c(F)cccc6F)c6ccc([nH]6)c(-c6c(F)cccc6F)c6nc(c(-c7c(F)cccc7F)c7ccc4[nH]7)C=C6)C=C5)cc3)o2)[nH]1
REMARK SMILES IDX 21 1 20 2 19 3 18 4 16 5 17 6 15 7 12 8 13 9 84 10 14 11
REMARK SMILES IDX 11 12 10 13 7 15 8 16 9 17 6 18 3 19 4 20 85 21 5 22 2 24
REMARK SMILES IDX 1 25 22 26 23 27 24 28 25 29 26 30 27 31 28 32 29 33 30 34
REMARK SMILES IDX 31 35 83 36 32 37 82 38 33 39 34 40 35 41 76 42 36 43 81 44
REMARK SMILES IDX 75 45 77 46 37 47 80 48 74 49 73 50 38 52 64 53 47 54 63 55
REMARK SMILES IDX 48 56 51 57 62 58 78 59 49 60 50 61 61 63 79 64 52 65 39 66
REMARK SMILES IDX 40 67 45 68 41 69 42 70 44 71 46 72 43 73 65 74 66 75 71 76
REMARK SMILES IDX 67 77 68 78 70 79 72 80 69 81 53 82 54 83 59 84 55 85 56 86
REMARK SMILES IDX 58 87 60 88 57 89
REMARK H PARENT 10 14 85 23 77 51 51 62
REMARK Flexibility Score: inf
ROOT
ATOM      1  O   UNL A   1      43.613  19.217  24.644  1.00  0.00    -0.376 OA
ENDROOT
BRANCH   1   2
ATOM      2  C   UNL A   1      42.586  19.259  25.625  1.00  0.00     0.202 C 
BRANCH   2   3
ATOM      3  C   UNL A   1      42.458  20.550  26.434  1.00  0.00     0.261 C 
BRANCH   3   4
ATOM      4  O   UNL A   1      41.286  21.303  26.092  1.00  0.00    -0.457 OA
BRANCH   4   5
ATOM      5  C   UNL A   1      40.766  22.074  27.091  1.00  0.00     0.374 C 
ATOM      6  O   UNL A   1      41.317  22.306  28.160  1.00  0.00    -0.242 OA
BRANCH   5   7
ATOM      7  C   UNL A   1      39.530  22.669  26.644  1.00  0.00     0.211 A 
ATOM      8  C   UNL A   1      37.502  22.586  25.758  1.00  0.00     0.119 A 
ATOM      9  C   UNL A   1      37.730  23.900  26.110  1.00  0.00     0.048 A 
ATOM     10  O   UNL A   1      38.603  21.843  26.070  1.00  0.00    -0.453 OA
ATOM     11  C   UNL A   1      39.015  23.948  26.707  1.00  0.00     0.058 A 
BRANCH   8  12
ATOM     12  C   UNL A   1      36.426  21.841  25.060  1.00  0.00     0.174 C 
BRANCH  12  13
ATOM     13  N   UNL A   1      35.464  21.192  25.950  1.00  0.00    -0.202 NA
ATOM     14  H   UNL A   1      35.769  20.223  26.045  1.00  0.00     0.141 HD
BRANCH  13  15
ATOM     15  S   UNL A   1      33.838  21.140  25.592  1.00  0.00     0.258 S 
ATOM     16  O   UNL A   1      33.242  20.057  26.342  1.00  0.00    -0.205 OA
ATOM     17  O   UNL A   1      33.705  21.202  24.156  1.00  0.00    -0.205 OA
BRANCH  15  18
ATOM     18  C   UNL A   1      33.022  22.563  26.188  1.00  0.00     0.167 A 
ATOM     19  C   UNL A   1      32.599  24.744  26.399  1.00  0.00     0.106 A 
ATOM     20  N   UNL A   1      31.704  24.136  27.152  1.00  0.00    -0.240 NA
ATOM     21  N   UNL A   1      33.411  23.821  25.791  1.00  0.00    -0.332 N 
ATOM     22  C   UNL A   1      31.978  22.797  27.053  1.00  0.00     0.153 A 
ATOM     23  H   UNL A   1      34.150  24.025  25.173  1.00  0.00     0.169 HD
BRANCH  19  24
ATOM     24  C   UNL A   1      32.720  26.224  26.223  1.00  0.00     0.072 C 
ATOM     25  C   UNL A   1      31.397  26.965  26.134  1.00  0.00     0.012 C 
ENDBRANCH  19  24
ENDBRANCH  15  18
ENDBRANCH  13  15
ENDBRANCH  12  13
ENDBRANCH   8  12
ENDBRANCH   5   7
ENDBRANCH   4   5
ENDBRANCH   3   4
ENDBRANCH   2   3
ENDBRANCH   1   2
BRANCH   1  26
ATOM     26  C   UNL A   1      44.931  18.814  24.996  1.00  0.00     0.188 C 
BRANCH  26  27
ATOM     27  C   UNL A   1      46.034  19.863  25.234  1.00  0.00     0.188 C 
BRANCH  27  28
ATOM     28  O   UNL A   1      45.912  21.033  24.440  1.00  0.00    -0.376 OA
BRANCH  28  29
ATOM     29  C   UNL A   1      45.450  22.196  25.115  1.00  0.00     0.202 C 
BRANCH  29  30
ATOM     30  C   UNL A   1      44.432  22.984  24.286  1.00  0.00     0.261 C 
BRANCH  30  31
ATOM     31  O   UNL A   1      43.738  24.006  25.020  1.00  0.00    -0.460 OA
BRANCH  31  32
ATOM     32  C   UNL A   1      44.416  25.150  25.254  1.00  0.00     0.338 C 
ATOM     33  O   UNL A   1      45.370  25.586  24.635  1.00  0.00    -0.246 OA
BRANCH  32  34
ATOM     34  C   UNL A   1      43.705  25.891  26.313  1.00  0.00     0.060 A 
ATOM     35  C   UNL A   1      43.959  27.259  26.466  1.00  0.00     0.016 A 
ATOM     36  C   UNL A   1      42.798  25.237  27.151  1.00  0.00     0.016 A 
ATOM     37  C   UNL A   1      43.320  27.974  27.481  1.00  0.00     0.010 A 
ATOM     38  C   UNL A   1      42.171  25.950  28.176  1.00  0.00     0.010 A 
ATOM     39  C   UNL A   1      42.447  27.315  28.359  1.00  0.00    -0.014 A 
BRANCH  39  40
ATOM     40  C   UNL A   1      41.942  28.008  29.568  1.00  0.00     0.031 A 
ATOM     41  C   UNL A   1      40.690  28.831  29.458  1.00  0.00     0.074 A 
ATOM     42  C   UNL A   1      42.588  27.919  30.744  1.00  0.00     0.049 A 
ATOM     43  N   UNL A   1      40.083  29.547  30.370  1.00  0.00    -0.248 NA
ATOM     44  C   UNL A   1      40.035  28.850  28.140  1.00  0.00     0.031 C 
ATOM     45  C   UNL A   1      43.802  27.142  30.987  1.00  0.00     0.029 A 
ATOM     46  N   UNL A   1      42.311  28.505  31.953  1.00  0.00    -0.354 N 
ATOM     47  C   UNL A   1      38.975  30.097  29.740  1.00  0.00     0.074 A 
ATOM     48  C   UNL A   1      39.008  29.657  28.361  1.00  0.00     0.031 C 
ATOM     49  C   UNL A   1      44.172  27.309  32.269  1.00  0.00     0.029 A 
ATOM     50  C   UNL A   1      43.236  28.221  32.926  1.00  0.00     0.049 A 
ATOM     51  H   UNL A   1      41.524  29.075  32.108  1.00  0.00     0.167 HD
ATOM     52  C   UNL A   1      38.011  30.891  30.261  1.00  0.00     0.037 A 
ATOM     53  C   UNL A   1      43.324  28.661  34.197  1.00  0.00     0.037 A 
ATOM     54  C   UNL A   1      37.979  31.344  31.626  1.00  0.00     0.049 A 
ATOM     55  C   UNL A   1      42.280  29.603  34.735  1.00  0.00     0.074 A 
ATOM     56  C   UNL A   1      37.030  32.132  32.251  1.00  0.00     0.029 A 
ATOM     57  N   UNL A   1      38.950  31.058  32.572  1.00  0.00    -0.354 N 
ATOM     58  N   UNL A   1      41.214  30.084  34.143  1.00  0.00    -0.248 NA
ATOM     59  C   UNL A   1      42.454  30.066  36.120  1.00  0.00     0.031 C 
ATOM     60  C   UNL A   1      37.448  32.358  33.567  1.00  0.00     0.029 A 
ATOM     61  C   UNL A   1      38.637  31.677  33.771  1.00  0.00     0.049 A 
ATOM     62  H   UNL A   1      39.745  30.499  32.416  1.00  0.00     0.167 HD
ATOM     63  C   UNL A   1      40.578  30.880  35.088  1.00  0.00     0.074 A 
ATOM     64  C   UNL A   1      41.375  30.815  36.295  1.00  0.00     0.031 C 
ATOM     65  C   UNL A   1      39.436  31.599  34.967  1.00  0.00     0.037 A 
BRANCH  52  66
ATOM     66  C   UNL A   1      36.921  31.336  29.335  1.00  0.00     0.057 A 
ATOM     67  C   UNL A   1      36.891  32.633  28.806  1.00  0.00     0.134 A 
ATOM     68  C   UNL A   1      35.898  30.458  28.962  1.00  0.00     0.134 A 
ATOM     69  F   UNL A   1      37.834  33.526  29.140  1.00  0.00    -0.206 F 
ATOM     70  C   UNL A   1      35.867  33.047  27.952  1.00  0.00     0.040 A 
ATOM     71  C   UNL A   1      34.880  30.853  28.093  1.00  0.00     0.040 A 
ATOM     72  F   UNL A   1      35.870  29.203  29.435  1.00  0.00    -0.206 F 
ATOM     73  C   UNL A   1      34.860  32.153  27.590  1.00  0.00     0.006 A 
ENDBRANCH  52  66
BRANCH  53  74
ATOM     74  C   UNL A   1      44.450  28.222  35.058  1.00  0.00     0.057 A 
ATOM     75  C   UNL A   1      45.667  28.913  35.064  1.00  0.00     0.134 A 
ATOM     76  C   UNL A   1      44.345  27.088  35.871  1.00  0.00     0.134 A 
ATOM     77  F   UNL A   1      45.834  29.990  34.284  1.00  0.00    -0.206 F 
ATOM     78  C   UNL A   1      46.744  28.485  35.841  1.00  0.00     0.040 A 
ATOM     79  C   UNL A   1      45.407  26.660  36.668  1.00  0.00     0.040 A 
ATOM     80  F   UNL A   1      43.206  26.380  35.901  1.00  0.00    -0.206 F 
ATOM     81  C   UNL A   1      46.614  27.357  36.649  1.00  0.00     0.006 A 
ENDBRANCH  53  74
BRANCH  65  82
ATOM     82  C   UNL A   1      38.961  32.350  36.175  1.00  0.00     0.057 A 
ATOM     83  C   UNL A   1      38.138  31.751  37.137  1.00  0.00     0.134 A 
ATOM     84  C   UNL A   1      39.369  33.670  36.402  1.00  0.00     0.134 A 
ATOM     85  F   UNL A   1      37.703  30.492  36.973  1.00  0.00    -0.206 F 
ATOM     86  C   UNL A   1      37.726  32.445  38.276  1.00  0.00     0.040 A 
ATOM     87  C   UNL A   1      38.980  34.367  37.546  1.00  0.00     0.040 A 
ATOM     88  F   UNL A   1      40.163  34.297  35.522  1.00  0.00    -0.206 F 
ATOM     89  C   UNL A   1      38.152  33.756  38.486  1.00  0.00     0.006 A 
ENDBRANCH  65  82
ENDBRANCH  39  40
ENDBRANCH  32  34
ENDBRANCH  31  32
ENDBRANCH  30  31
ENDBRANCH  29  30
ENDBRANCH  28  29
ENDBRANCH  27  28
ENDBRANCH  26  27
ENDBRANCH   1  26
TORSDOF 22
ENDMDL
MODEL 2
REMARK VINA RESULT:     -10.0      5.037      8.598
REMARK SMILES CCc1ncc(S(=O)(=O)NCc2ccc(C(=O)OCCOCCOCCOC(=O)c3ccc(-c4c5nc(c(-c6c(F)cccc6F)c6ccc([nH]6)c(-c6c(F)cccc6F)c6nc(c(-c7c(F)cccc7F)c7ccc4[nH]7)C=C6)C=C5)cc3)o2)[nH]1
REMARK SMILES IDX 21 1 20 2 19 3 18 4 16 5 17 6 15 7 12 8 13 9 84 10 14 11
REMARK SMILES IDX 11 12 10 13 7 15 8 16 9 17 6 18 3 19 4 20 85 21 5 22 2 24
REMARK SMILES IDX 1 25 22 26 23 27 24 28 25 29 26 30 27 31 28 32 29 33 30 34
REMARK SMILES IDX 31 35 83 36 32 37 82 38 33 39 34 40 35 41 76 42 36 43 81 44
REMARK SMILES IDX 75 45 77 46 37 47 80 48 74 49 73 50 38 52 64 53 47 54 63 55
REMARK SMILES IDX 48 56 51 57 62 58 78 59 49 60 50 61 61 63 79 64 52 65 39 66
REMARK SMILES IDX 40 67 45 68 41 69 42 70 44 71 46 72 43 73 65 74 66 75 71 76
REMARK SMILES IDX 67 77 68 78 70 79 72 80 69 81 53 82 54 83 59 84 55 85 56 86
REMARK SMILES IDX 58 87 60 88 57 89
REMARK H PARENT 10 14 85 23 77 51 51 62
REMARK Flexibility Score: inf
ROOT
ATOM      1  O   UNL A   1      45.892  23.240  25.345  1.00  0.00    -0.376 OA
ENDROOT
BRANCH   1   2
ATOM      2  C   UNL A   1      45.427  24.550  25.054  1.00  0.00     0.202 C 
BRANCH   2   3
ATOM      3  C   UNL A   1      46.412  25.698  25.280  1.00  0.00     0.261 C 
BRANCH   3   4
ATOM      4  O   UNL A   1      46.088  26.863  24.509  1.00  0.00    -0.457 OA
BRANCH   4   5
ATOM      5  C   UNL A   1      46.949  27.915  24.637  1.00  0.00     0.374 C 
ATOM      6  O   UNL A   1      47.971  28.071  23.979  1.00  0.00    -0.242 OA
BRANCH   5   7
ATOM      7  C   UNL A   1      46.408  28.867  25.575  1.00  0.00     0.211 A 
ATOM      8  C   UNL A   1      46.478  30.738  26.758  1.00  0.00     0.119 A 
ATOM      9  C   UNL A   1      45.255  30.153  27.010  1.00  0.00     0.048 A 
ATOM     10  O   UNL A   1      47.183  29.946  25.898  1.00  0.00    -0.453 OA
ATOM     11  C   UNL A   1      45.196  28.972  26.228  1.00  0.00     0.058 A 
BRANCH   8  12
ATOM     12  C   UNL A   1      47.217  31.924  27.258  1.00  0.00     0.174 C 
BRANCH  12  13
ATOM     13  N   UNL A   1      47.641  32.857  26.215  1.00  0.00    -0.202 NA
ATOM     14  H   UNL A   1      48.661  32.850  26.221  1.00  0.00     0.141 HD
BRANCH  13  15
ATOM     15  S   UNL A   1      47.181  34.457  26.233  1.00  0.00     0.258 S 
ATOM     16  O   UNL A   1      47.759  35.109  25.080  1.00  0.00    -0.205 OA
ATOM     17  O   UNL A   1      47.421  34.965  27.563  1.00  0.00    -0.205 OA
BRANCH  15  18
ATOM     18  C   UNL A   1      45.461  34.616  25.988  1.00  0.00     0.167 A 
ATOM     19  C   UNL A   1      43.404  35.404  26.348  1.00  0.00     0.106 A 
ATOM     20  N   UNL A   1      43.287  34.559  25.344  1.00  0.00    -0.240 NA
ATOM     21  N   UNL A   1      44.711  35.471  26.760  1.00  0.00    -0.332 N 
ATOM     22  C   UNL A   1      44.541  34.046  25.137  1.00  0.00     0.153 A 
ATOM     23  H   UNL A   1      45.055  36.039  27.488  1.00  0.00     0.169 HD
BRANCH  19  24
ATOM     24  C   UNL A   1      42.284  36.185  26.958  1.00  0.00     0.072 C 
ATOM     25  C   UNL A   1      41.831  35.689  28.321  1.00  0.00     0.012 C 
ENDBRANCH  19  24
ENDBRANCH  15  18
ENDBRANCH  13  15
ENDBRANCH  12  13
ENDBRANCH   8  12
ENDBRANCH   5   7
ENDBRANCH   4   5
ENDBRANCH   3   4
ENDBRANCH   2   3
ENDBRANCH   1   2
BRANCH   1  26
ATOM     26  C   UNL A   1      46.278  22.361  24.294  1.00  0.00     0.188 C 
BRANCH  26  27
ATOM     27  C   UNL A   1      46.251  20.834  24.499  1.00  0.00     0.188 C 
BRANCH  27  28
ATOM     28  O   UNL A   1      45.216  20.375  25.354  1.00  0.00    -0.376 OA
BRANCH  28  29
ATOM     29  C   UNL A   1      44.964  18.977  25.329  1.00  0.00     0.202 C 
BRANCH  29  30
ATOM     30  C   UNL A   1      43.479  18.655  25.139  1.00  0.00     0.261 C 
BRANCH  30  31
ATOM     31  O   UNL A   1      42.670  18.894  26.302  1.00  0.00    -0.460 OA
BRANCH  31  32
ATOM     32  C   UNL A   1      41.516  19.568  26.109  1.00  0.00     0.338 C 
ATOM     33  O   UNL A   1      40.463  19.128  25.685  1.00  0.00    -0.246 OA
BRANCH  32  34
ATOM     34  C   UNL A   1      41.689  20.929  26.652  1.00  0.00     0.060 A 
ATOM     35  C   UNL A   1      42.085  21.955  25.787  1.00  0.00     0.016 A 
ATOM     36  C   UNL A   1      41.465  21.186  28.007  1.00  0.00     0.016 A 
ATOM     37  C   UNL A   1      42.284  23.244  26.286  1.00  0.00     0.010 A 
ATOM     38  C   UNL A   1      41.679  22.472  28.508  1.00  0.00     0.010 A 
ATOM     39  C   UNL A   1      42.112  23.500  27.654  1.00  0.00    -0.014 A 
BRANCH  39  40
ATOM     40  C   UNL A   1      42.534  24.800  28.228  1.00  0.00     0.031 A 
ATOM     41  C   UNL A   1      41.505  25.880  28.404  1.00  0.00     0.074 A 
ATOM     42  C   UNL A   1      43.813  25.023  28.579  1.00  0.00     0.049 A 
ATOM     43  N   UNL A   1      41.650  27.101  28.853  1.00  0.00    -0.248 NA
ATOM     44  C   UNL A   1      40.127  25.538  28.017  1.00  0.00     0.031 C 
ATOM     45  C   UNL A   1      44.902  24.055  28.476  1.00  0.00     0.029 A 
ATOM     46  N   UNL A   1      44.407  26.152  29.086  1.00  0.00    -0.354 N 
ATOM     47  C   UNL A   1      40.385  27.670  28.808  1.00  0.00     0.074 A 
ATOM     48  C   UNL A   1      39.489  26.673  28.261  1.00  0.00     0.031 C 
ATOM     49  C   UNL A   1      46.039  24.637  28.897  1.00  0.00     0.029 A 
ATOM     50  C   UNL A   1      45.760  26.022  29.276  1.00  0.00     0.049 A 
ATOM     51  H   UNL A   1      43.911  26.976  29.293  1.00  0.00     0.167 HD
ATOM     52  C   UNL A   1      39.998  28.908  29.195  1.00  0.00     0.037 A 
ATOM     53  C   UNL A   1      46.670  26.925  29.692  1.00  0.00     0.037 A 
ATOM     54  C   UNL A   1      40.885  29.908  29.727  1.00  0.00     0.049 A 
ATOM     55  C   UNL A   1      46.229  28.319  30.047  1.00  0.00     0.074 A 
ATOM     56  C   UNL A   1      40.580  31.184  30.168  1.00  0.00     0.029 A 
ATOM     57  N   UNL A   1      42.253  29.748  29.876  1.00  0.00    -0.354 N 
ATOM     58  N   UNL A   1      45.024  28.835  30.041  1.00  0.00    -0.248 NA
ATOM     59  C   UNL A   1      47.279  29.261  30.467  1.00  0.00     0.031 C 
ATOM     60  C   UNL A   1      41.772  31.811  30.546  1.00  0.00     0.029 A 
ATOM     61  C   UNL A   1      42.812  30.911  30.378  1.00  0.00     0.049 A 
ATOM     62  H   UNL A   1      42.754  28.929  29.658  1.00  0.00     0.167 HD
ATOM     63  C   UNL A   1      45.166  30.146  30.479  1.00  0.00     0.074 A 
ATOM     64  C   UNL A   1      46.575  30.347  30.749  1.00  0.00     0.031 C 
ATOM     65  C   UNL A   1      44.215  31.097  30.646  1.00  0.00     0.037 A 
BRANCH  52  66
ATOM     66  C   UNL A   1      38.549  29.251  29.033  1.00  0.00     0.057 A 
ATOM     67  C   UNL A   1      37.655  29.192  30.110  1.00  0.00     0.134 A 
ATOM     68  C   UNL A   1      38.045  29.652  27.791  1.00  0.00     0.134 A 
ATOM     69  F   UNL A   1      38.075  28.797  31.321  1.00  0.00    -0.206 F 
ATOM     70  C   UNL A   1      36.304  29.502  29.952  1.00  0.00     0.040 A 
ATOM     71  C   UNL A   1      36.700  29.984  27.625  1.00  0.00     0.040 A 
ATOM     72  F   UNL A   1      38.850  29.729  26.721  1.00  0.00    -0.206 F 
ATOM     73  C   UNL A   1      35.824  29.904  28.706  1.00  0.00     0.006 A 
ENDBRANCH  52  66
BRANCH  53  74
ATOM     74  C   UNL A   1      48.100  26.543  29.793  1.00  0.00     0.057 A 
ATOM     75  C   UNL A   1      48.977  26.735  28.719  1.00  0.00     0.134 A 
ATOM     76  C   UNL A   1      48.616  25.955  30.953  1.00  0.00     0.134 A 
ATOM     77  F   UNL A   1      48.532  27.269  27.573  1.00  0.00    -0.206 F 
ATOM     78  C   UNL A   1      50.314  26.345  28.792  1.00  0.00     0.040 A 
ATOM     79  C   UNL A   1      49.956  25.578  31.047  1.00  0.00     0.040 A 
ATOM     80  F   UNL A   1      47.823  25.739  32.013  1.00  0.00    -0.206 F 
ATOM     81  C   UNL A   1      50.808  25.767  29.960  1.00  0.00     0.006 A 
ENDBRANCH  53  74
BRANCH  65  82
ATOM     82  C   UNL A   1      44.656  32.431  31.169  1.00  0.00     0.057 A 
ATOM     83  C   UNL A   1      44.840  32.662  32.538  1.00  0.00     0.134 A 
ATOM     84  C   UNL A   1      44.945  33.482  30.291  1.00  0.00     0.134 A 
ATOM     85  F   UNL A   1      44.569  31.698  33.433  1.00  0.00    -0.206 F 
ATOM     86  C   UNL A   1      45.282  33.897  33.016  1.00  0.00     0.040 A 
ATOM     87  C   UNL A   1      45.407  34.715  30.754  1.00  0.00     0.040 A 
ATOM     88  F   UNL A   1      44.797  33.323  28.967  1.00  0.00    -0.206 F 
ATOM     89  C   UNL A   1      45.573  34.926  32.122  1.00  0.00     0.006 A 
ENDBRANCH  65  82
ENDBRANCH  39  40
ENDBRANCH  32  34
ENDBRANCH  31  32
ENDBRANCH  30  31
ENDBRANCH  29  30
ENDBRANCH  28  29
ENDBRANCH  27  28
ENDBRANCH  26  27
ENDBRANCH   1  26
TORSDOF 22
ENDMDL
MODEL 3
REMARK VINA RESULT:      -9.9      1.424      2.565
REMARK SMILES CCc1ncc(S(=O)(=O)NCc2ccc(C(=O)OCCOCCOCCOC(=O)c3ccc(-c4c5nc(c(-c6c(F)cccc6F)c6ccc([nH]6)c(-c6c(F)cccc6F)c6nc(c(-c7c(F)cccc7F)c7ccc4[nH]7)C=C6)C=C5)cc3)o2)[nH]1
REMARK SMILES IDX 21 1 20 2 19 3 18 4 16 5 17 6 15 7 12 8 13 9 84 10 14 11
REMARK SMILES IDX 11 12 10 13 7 15 8 16 9 17 6 18 3 19 4 20 85 21 5 22 2 24
REMARK SMILES IDX 1 25 22 26 23 27 24 28 25 29 26 30 27 31 28 32 29 33 30 34
REMARK SMILES IDX 31 35 83 36 32 37 82 38 33 39 34 40 35 41 76 42 36 43 81 44
REMARK SMILES IDX 75 45 77 46 37 47 80 48 74 49 73 50 38 52 64 53 47 54 63 55
REMARK SMILES IDX 48 56 51 57 62 58 78 59 49 60 50 61 61 63 79 64 52 65 39 66
REMARK SMILES IDX 40 67 45 68 41 69 42 70 44 71 46 72 43 73 65 74 66 75 71 76
REMARK SMILES IDX 67 77 68 78 70 79 72 80 69 81 53 82 54 83 59 84 55 85 56 86
REMARK SMILES IDX 58 87 60 88 57 89
REMARK H PARENT 10 14 85 23 77 51 51 62
REMARK Flexibility Score: inf
ROOT
ATOM      1  O   UNL A   1      44.647  18.579  25.738  1.00  0.00    -0.376 OA
ENDROOT
BRANCH   1   2
ATOM      2  C   UNL A   1      43.236  18.418  25.698  1.00  0.00     0.202 C 
BRANCH   2   3
ATOM      3  C   UNL A   1      42.415  19.286  26.652  1.00  0.00     0.261 C 
BRANCH   3   4
ATOM      4  O   UNL A   1      41.797  20.400  25.993  1.00  0.00    -0.457 OA
BRANCH   4   5
ATOM      5  C   UNL A   1      40.896  21.103  26.738  1.00  0.00     0.374 C 
ATOM      6  O   UNL A   1      41.172  21.779  27.722  1.00  0.00    -0.242 OA
BRANCH   5   7
ATOM      7  C   UNL A   1      39.595  21.023  26.120  1.00  0.00     0.211 A 
ATOM      8  C   UNL A   1      37.596  21.827  25.608  1.00  0.00     0.119 A 
ATOM      9  C   UNL A   1      37.697  20.593  25.000  1.00  0.00     0.048 A 
ATOM     10  O   UNL A   1      38.744  22.079  26.300  1.00  0.00    -0.453 OA
ATOM     11  C   UNL A   1      38.989  20.092  25.300  1.00  0.00     0.058 A 
BRANCH   8  12
ATOM     12  C   UNL A   1      36.539  22.857  25.761  1.00  0.00     0.174 C 
BRANCH  12  13
ATOM     13  N   UNL A   1      35.365  22.412  26.511  1.00  0.00    -0.202 NA
ATOM     14  H   UNL A   1      35.563  21.458  26.814  1.00  0.00     0.141 HD
BRANCH  13  15
ATOM     15  S   UNL A   1      33.848  22.381  25.825  1.00  0.00     0.258 S 
ATOM     16  O   UNL A   1      33.813  23.355  24.757  1.00  0.00    -0.205 OA
ATOM     17  O   UNL A   1      32.883  22.430  26.898  1.00  0.00    -0.205 OA
BRANCH  15  18
ATOM     18  C   UNL A   1      33.558  20.862  25.019  1.00  0.00     0.167 A 
ATOM     19  C   UNL A   1      33.858  18.699  24.554  1.00  0.00     0.106 A 
ATOM     20  N   UNL A   1      32.860  19.090  23.786  1.00  0.00    -0.240 NA
ATOM     21  N   UNL A   1      34.301  19.745  25.322  1.00  0.00    -0.332 N 
ATOM     22  C   UNL A   1      32.691  20.426  24.042  1.00  0.00     0.153 A 
ATOM     23  H   UNL A   1      35.031  19.704  25.983  1.00  0.00     0.169 HD
BRANCH  19  24
ATOM     24  C   UNL A   1      34.430  17.319  24.593  1.00  0.00     0.072 C 
ATOM     25  C   UNL A   1      33.426  16.206  24.342  1.00  0.00     0.012 C 
ENDBRANCH  19  24
ENDBRANCH  15  18
ENDBRANCH  13  15
ENDBRANCH  12  13
ENDBRANCH   8  12
ENDBRANCH   5   7
ENDBRANCH   4   5
ENDBRANCH   3   4
ENDBRANCH   2   3
ENDBRANCH   1   2
BRANCH   1  26
ATOM     26  C   UNL A   1      45.362  18.964  24.570  1.00  0.00     0.188 C 
BRANCH  26  27
ATOM     27  C   UNL A   1      46.400  20.102  24.626  1.00  0.00     0.188 C 
BRANCH  27  28
ATOM     28  O   UNL A   1      46.017  21.205  25.433  1.00  0.00    -0.376 OA
BRANCH  28  29
ATOM     29  C   UNL A   1      46.138  22.487  24.830  1.00  0.00     0.202 C 
BRANCH  29  30
ATOM     30  C   UNL A   1      45.805  23.622  25.802  1.00  0.00     0.261 C 
BRANCH  30  31
ATOM     31  O   UNL A   1      44.980  24.656  25.242  1.00  0.00    -0.460 OA
BRANCH  31  32
ATOM     32  C   UNL A   1      43.647  24.439  25.250  1.00  0.00     0.338 C 
ATOM     33  O   UNL A   1      43.029  23.602  24.617  1.00  0.00    -0.246 OA
BRANCH  32  34
ATOM     34  C   UNL A   1      43.054  25.295  26.294  1.00  0.00     0.060 A 
ATOM     35  C   UNL A   1      43.601  26.565  26.516  1.00  0.00     0.016 A 
ATOM     36  C   UNL A   1      41.968  24.846  27.050  1.00  0.00     0.016 A 
ATOM     37  C   UNL A   1      43.074  27.381  27.519  1.00  0.00     0.010 A 
ATOM     38  C   UNL A   1      41.452  25.657  28.063  1.00  0.00     0.010 A 
ATOM     39  C   UNL A   1      42.018  26.917  28.317  1.00  0.00    -0.014 A 
BRANCH  39  40
ATOM     40  C   UNL A   1      41.604  27.677  29.520  1.00  0.00     0.031 A 
ATOM     41  C   UNL A   1      40.418  28.594  29.423  1.00  0.00     0.074 A 
ATOM     42  C   UNL A   1      42.274  27.564  30.680  1.00  0.00     0.049 A 
ATOM     43  N   UNL A   1      39.896  29.378  30.331  1.00  0.00    -0.248 NA
ATOM     44  C   UNL A   1      39.730  28.634  28.122  1.00  0.00     0.031 C 
ATOM     45  C   UNL A   1      43.429  26.699  30.912  1.00  0.00     0.029 A 
ATOM     46  N   UNL A   1      42.079  28.199  31.881  1.00  0.00    -0.354 N 
ATOM     47  C   UNL A   1      38.818  30.000  29.717  1.00  0.00     0.074 A 
ATOM     48  C   UNL A   1      38.777  29.526  28.349  1.00  0.00     0.031 C 
ATOM     49  C   UNL A   1      43.847  26.865  32.179  1.00  0.00     0.029 A 
ATOM     50  C   UNL A   1      43.006  27.864  32.837  1.00  0.00     0.049 A 
ATOM     51  H   UNL A   1      41.344  28.834  32.042  1.00  0.00     0.167 HD
ATOM     52  C   UNL A   1      37.935  30.881  30.243  1.00  0.00     0.037 A 
ATOM     53  C   UNL A   1      43.164  28.326  34.093  1.00  0.00     0.037 A 
ATOM     54  C   UNL A   1      37.978  31.366  31.595  1.00  0.00     0.049 A 
ATOM     55  C   UNL A   1      42.214  29.361  34.633  1.00  0.00     0.074 A 
ATOM     56  C   UNL A   1      37.112  32.243  32.225  1.00  0.00     0.029 A 
ATOM     57  N   UNL A   1      38.950  31.026  32.523  1.00  0.00    -0.354 N 
ATOM     58  N   UNL A   1      41.172  29.912  34.058  1.00  0.00    -0.248 NA
ATOM     59  C   UNL A   1      42.463  29.841  36.002  1.00  0.00     0.031 C 
ATOM     60  C   UNL A   1      37.584  32.465  33.524  1.00  0.00     0.029 A 
ATOM     61  C   UNL A   1      38.720  31.696  33.713  1.00  0.00     0.049 A 
ATOM     62  H   UNL A   1      39.693  30.402  32.361  1.00  0.00     0.167 HD
ATOM     63  C   UNL A   1      40.629  30.778  34.998  1.00  0.00     0.074 A 
ATOM     64  C   UNL A   1      41.452  30.678  36.186  1.00  0.00     0.031 C 
ATOM     65  C   UNL A   1      39.545  31.583  34.889  1.00  0.00     0.037 A 
BRANCH  52  66
ATOM     66  C   UNL A   1      36.858  31.389  29.335  1.00  0.00     0.057 A 
ATOM     67  C   UNL A   1      35.763  30.592  28.975  1.00  0.00     0.134 A 
ATOM     68  C   UNL A   1      36.911  32.690  28.823  1.00  0.00     0.134 A 
ATOM     69  F   UNL A   1      35.665  29.331  29.420  1.00  0.00    -0.206 F 
ATOM     70  C   UNL A   1      34.767  31.067  28.120  1.00  0.00     0.040 A 
ATOM     71  C   UNL A   1      35.911  33.183  27.984  1.00  0.00     0.040 A 
ATOM     72  F   UNL A   1      37.933  33.503  29.129  1.00  0.00    -0.206 F 
ATOM     73  C   UNL A   1      34.838  32.369  27.625  1.00  0.00     0.006 A 
ENDBRANCH  52  66
BRANCH  53  74
ATOM     74  C   UNL A   1      44.276  27.819  34.935  1.00  0.00     0.057 A 
ATOM     75  C   UNL A   1      44.128  26.661  35.706  1.00  0.00     0.134 A 
ATOM     76  C   UNL A   1      45.500  28.493  35.007  1.00  0.00     0.134 A 
ATOM     77  F   UNL A   1      42.967  25.989  35.699  1.00  0.00    -0.206 F 
ATOM     78  C   UNL A   1      45.154  26.198  36.530  1.00  0.00     0.040 A 
ATOM     79  C   UNL A   1      46.542  28.030  35.811  1.00  0.00     0.040 A 
ATOM     80  F   UNL A   1      45.699  29.613  34.296  1.00  0.00    -0.206 F 
ATOM     81  C   UNL A   1      46.367  26.882  36.581  1.00  0.00     0.006 A 
ENDBRANCH  53  74
BRANCH  65  82
ATOM     82  C   UNL A   1      39.165  32.397  36.090  1.00  0.00     0.057 A 
ATOM     83  C   UNL A   1      38.304  31.899  37.076  1.00  0.00     0.134 A 
ATOM     84  C   UNL A   1      39.703  33.675  36.285  1.00  0.00     0.134 A 
ATOM     85  F   UNL A   1      37.746  30.685  36.942  1.00  0.00    -0.206 F 
ATOM     86  C   UNL A   1      37.980  32.650  38.207  1.00  0.00     0.040 A 
ATOM     87  C   UNL A   1      39.403  34.427  37.422  1.00  0.00     0.040 A 
ATOM     88  F   UNL A   1      40.539  34.207  35.382  1.00  0.00    -0.206 F 
ATOM     89  C   UNL A   1      38.535  33.916  38.385  1.00  0.00     0.006 A 
ENDBRANCH  65  82
ENDBRANCH  39  40
ENDBRANCH  32  34
ENDBRANCH  31  32
ENDBRANCH  30  31
ENDBRANCH  29  30
ENDBRANCH  28  29
ENDBRANCH  27  28
ENDBRANCH  26  27
ENDBRANCH   1  26
TORSDOF 22
ENDMDL
