MODEL 1
REMARK VINA RESULT:     -10.7      0.000      0.000
REMARK SMILES C[C@@H](C(=O)OCCOCCOCCOC(=O)c1ccc(-c2c3nc(c(-c4c(F)cccc4F)c4ccc([nH]4)c(-c4c(F)cccc4F)c4nc(c(-c5c(F)cccc5F)c5ccc2[nH]5)C=C4)C=C3)cc1)c1ccc(C[C@H]2CCC[C@@H]2O)cc1Br
REMARK SMILES IDX 9 1 8 2 7 3 6 4 5 5 3 6 4 7 2 8 1 9 71 10 72 11 83 12 73 13
REMARK SMILES IDX 82 14 84 15 74 16 75 17 76 18 77 19 80 20 78 21 79 22 81 23
REMARK SMILES IDX 10 25 11 26 12 27 13 28 14 29 15 30 16 31 17 32 18 33 70 34
REMARK SMILES IDX 19 35 69 36 20 37 21 38 22 39 63 40 23 41 68 42 62 43 64 44
REMARK SMILES IDX 24 45 67 46 61 47 60 48 25 50 51 51 34 52 50 53 35 54 38 55
REMARK SMILES IDX 49 56 65 57 36 58 37 59 48 61 66 62 39 63 26 64 27 65 32 66
REMARK SMILES IDX 28 67 29 68 31 69 33 70 30 71 52 72 53 73 58 74 54 75 55 76
REMARK SMILES IDX 57 77 59 78 56 79 40 80 41 81 46 82 42 83 43 84 45 85 47 86
REMARK SMILES IDX 44 87
REMARK H PARENT 81 24 64 49 38 60
REMARK Flexibility Score: inf
ROOT
ATOM      1  C   UNL A   1      40.843  21.041  26.515  1.00  0.00     0.188 C 
ENDROOT
BRANCH   1   2
ATOM      2  O   UNL A   1      39.496  21.103  26.064  1.00  0.00    -0.376 OA
BRANCH   2   3
ATOM      3  C   UNL A   1      38.824  22.359  26.109  1.00  0.00     0.202 C 
BRANCH   3   4
ATOM      4  C   UNL A   1      37.338  22.336  25.772  1.00  0.00     0.261 C 
BRANCH   4   5
ATOM      5  O   UNL A   1      36.931  23.591  25.208  1.00  0.00    -0.463 OA
BRANCH   5   6
ATOM      6  C   UNL A   1      36.177  23.491  24.083  1.00  0.00     0.313 C 
ATOM      7  O   UNL A   1      36.637  23.354  22.955  1.00  0.00    -0.252 OA
BRANCH   6   8
ATOM      8  C   UNL A   1      34.692  23.593  24.379  1.00  0.00     0.127 C 
ATOM      9  C   UNL A   1      34.506  24.455  25.648  1.00  0.00     0.025 C 
BRANCH   8  10
ATOM     10  C   UNL A   1      33.817  22.326  24.352  1.00  0.00    -0.020 A 
ATOM     11  C   UNL A   1      33.301  21.959  23.085  1.00  0.00     0.006 A 
ATOM     12  C   UNL A   1      33.595  21.396  25.385  1.00  0.00     0.022 A 
ATOM     13  C   UNL A   1      32.645  20.743  22.847  1.00  0.00     0.004 A 
ATOM     14  C   UNL A   1      32.886  20.190  25.148  1.00  0.00     0.019 A 
ATOM     15  Br  UNL A   1      34.279  21.535  27.153  1.00  0.00    -0.050 Br
ATOM     16  C   UNL A   1      32.425  19.831  23.874  1.00  0.00    -0.047 A 
BRANCH  16  17
ATOM     17  C   UNL A   1      31.915  18.427  23.604  1.00  0.00     0.041 C 
BRANCH  17  18
ATOM     18  C   UNL A   1      32.802  17.190  23.846  1.00  0.00     0.022 C 
ATOM     19  C   UNL A   1      34.275  17.376  23.472  1.00  0.00     0.007 C 
ATOM     20  C   UNL A   1      32.818  16.598  25.260  1.00  0.00     0.117 C 
ATOM     21  C   UNL A   1      35.081  16.915  24.683  1.00  0.00     0.003 C 
ATOM     22  C   UNL A   1      34.173  15.911  25.363  1.00  0.00     0.032 C 
BRANCH  20  23
ATOM     23  O   UNL A   1      31.749  15.693  25.468  1.00  0.00    -0.393 OA
ATOM     24  H   UNL A   1      32.022  14.804  25.193  1.00  0.00     0.210 HD
ENDBRANCH  20  23
ENDBRANCH  17  18
ENDBRANCH  16  17
ENDBRANCH   8  10
ENDBRANCH   6   8
ENDBRANCH   5   6
ENDBRANCH   4   5
ENDBRANCH   3   4
ENDBRANCH   2   3
ENDBRANCH   1   2
BRANCH   1  25
ATOM     25  C   UNL A   1      41.739  19.860  26.088  1.00  0.00     0.188 C 
BRANCH  25  26
ATOM     26  O   UNL A   1      42.954  20.101  25.395  1.00  0.00    -0.376 OA
BRANCH  26  27
ATOM     27  C   UNL A   1      43.716  21.246  25.763  1.00  0.00     0.202 C 
BRANCH  27  28
ATOM     28  C   UNL A   1      44.125  22.172  24.621  1.00  0.00     0.261 C 
BRANCH  28  29
ATOM     29  O   UNL A   1      43.348  23.383  24.644  1.00  0.00    -0.460 OA
BRANCH  29  30
ATOM     30  C   UNL A   1      44.027  24.489  25.021  1.00  0.00     0.338 C 
ATOM     31  O   UNL A   1      45.121  24.862  24.644  1.00  0.00    -0.246 OA
BRANCH  30  32
ATOM     32  C   UNL A   1      43.161  25.305  25.885  1.00  0.00     0.060 A 
ATOM     33  C   UNL A   1      43.420  26.672  25.970  1.00  0.00     0.016 A 
ATOM     34  C   UNL A   1      42.178  24.716  26.685  1.00  0.00     0.016 A 
ATOM     35  C   UNL A   1      42.710  27.450  26.876  1.00  0.00     0.010 A 
ATOM     36  C   UNL A   1      41.492  25.501  27.622  1.00  0.00     0.010 A 
ATOM     37  C   UNL A   1      41.783  26.869  27.752  1.00  0.00    -0.014 A 
BRANCH  37  38
ATOM     38  C   UNL A   1      41.303  27.660  28.917  1.00  0.00     0.031 A 
ATOM     39  C   UNL A   1      42.146  27.691  30.168  1.00  0.00     0.074 A 
ATOM     40  C   UNL A   1      40.226  28.463  28.832  1.00  0.00     0.049 A 
ATOM     41  N   UNL A   1      41.953  28.346  31.285  1.00  0.00    -0.248 NA
ATOM     42  C   UNL A   1      43.389  26.904  30.139  1.00  0.00     0.031 C 
ATOM     43  C   UNL A   1      39.407  28.658  27.637  1.00  0.00     0.029 A 
ATOM     44  N   UNL A   1      39.681  29.321  29.758  1.00  0.00    -0.354 N 
ATOM     45  C   UNL A   1      43.035  28.034  32.098  1.00  0.00     0.074 A 
ATOM     46  C   UNL A   1      43.887  27.140  31.344  1.00  0.00     0.031 C 
ATOM     47  C   UNL A   1      38.500  29.619  27.887  1.00  0.00     0.029 A 
ATOM     48  C   UNL A   1      38.637  30.068  29.272  1.00  0.00     0.049 A 
ATOM     49  H   UNL A   1      40.009  29.391  30.684  1.00  0.00     0.167 HD
ATOM     50  C   UNL A   1      43.297  28.442  33.362  1.00  0.00     0.037 A 
ATOM     51  C   UNL A   1      37.878  31.004  29.877  1.00  0.00     0.037 A 
ATOM     52  C   UNL A   1      42.468  29.330  34.128  1.00  0.00     0.049 A 
ATOM     53  C   UNL A   1      38.113  31.338  31.328  1.00  0.00     0.074 A 
ATOM     54  C   UNL A   1      42.632  29.748  35.439  1.00  0.00     0.029 A 
ATOM     55  N   UNL A   1      41.320  29.940  33.655  1.00  0.00    -0.354 N 
ATOM     56  N   UNL A   1      39.097  30.980  32.115  1.00  0.00    -0.248 NA
ATOM     57  C   UNL A   1      37.104  32.188  31.983  1.00  0.00     0.031 C 
ATOM     58  C   UNL A   1      41.557  30.581  35.771  1.00  0.00     0.029 A 
ATOM     59  C   UNL A   1      40.748  30.711  34.655  1.00  0.00     0.049 A 
ATOM     60  H   UNL A   1      40.962  29.842  32.743  1.00  0.00     0.167 HD
ATOM     61  C   UNL A   1      38.832  31.563  33.348  1.00  0.00     0.074 A 
ATOM     62  C   UNL A   1      37.610  32.324  33.201  1.00  0.00     0.031 C 
ATOM     63  C   UNL A   1      39.533  31.466  34.505  1.00  0.00     0.037 A 
BRANCH  50  64
ATOM     64  C   UNL A   1      44.513  27.874  34.024  1.00  0.00     0.057 A 
ATOM     65  C   UNL A   1      45.744  28.538  34.010  1.00  0.00     0.134 A 
ATOM     66  C   UNL A   1      44.437  26.654  34.708  1.00  0.00     0.134 A 
ATOM     67  F   UNL A   1      45.882  29.701  33.356  1.00  0.00    -0.206 F 
ATOM     68  C   UNL A   1      46.864  28.002  34.648  1.00  0.00     0.040 A 
ATOM     69  C   UNL A   1      45.545  26.116  35.363  1.00  0.00     0.040 A 
ATOM     70  F   UNL A   1      43.283  25.972  34.756  1.00  0.00    -0.206 F 
ATOM     71  C   UNL A   1      46.764  26.789  35.331  1.00  0.00     0.006 A 
ENDBRANCH  50  64
BRANCH  51  72
ATOM     72  C   UNL A   1      36.793  31.696  29.136  1.00  0.00     0.057 A 
ATOM     73  C   UNL A   1      36.925  33.037  28.756  1.00  0.00     0.134 A 
ATOM     74  C   UNL A   1      35.579  31.060  28.850  1.00  0.00     0.134 A 
ATOM     75  F   UNL A   1      38.053  33.708  29.031  1.00  0.00    -0.206 F 
ATOM     76  C   UNL A   1      35.884  33.726  28.131  1.00  0.00     0.040 A 
ATOM     77  C   UNL A   1      34.539  31.729  28.203  1.00  0.00     0.040 A 
ATOM     78  F   UNL A   1      35.385  29.781  29.202  1.00  0.00    -0.206 F 
ATOM     79  C   UNL A   1      34.688  33.068  27.849  1.00  0.00     0.006 A 
ENDBRANCH  51  72
BRANCH  63  80
ATOM     80  C   UNL A   1      39.005  32.195  35.706  1.00  0.00     0.057 A 
ATOM     81  C   UNL A   1      38.222  31.546  36.668  1.00  0.00     0.134 A 
ATOM     82  C   UNL A   1      39.329  33.538  35.933  1.00  0.00     0.134 A 
ATOM     83  F   UNL A   1      37.868  30.263  36.504  1.00  0.00    -0.206 F 
ATOM     84  C   UNL A   1      37.767  32.212  37.809  1.00  0.00     0.040 A 
ATOM     85  C   UNL A   1      38.898  34.208  37.080  1.00  0.00     0.040 A 
ATOM     86  F   UNL A   1      40.083  34.215  35.056  1.00  0.00    -0.206 F 
ATOM     87  C   UNL A   1      38.112  33.545  38.021  1.00  0.00     0.006 A 
ENDBRANCH  63  80
ENDBRANCH  37  38
ENDBRANCH  30  32
ENDBRANCH  29  30
ENDBRANCH  28  29
ENDBRANCH  27  28
ENDBRANCH  26  27
ENDBRANCH  25  26
ENDBRANCH   1  25
TORSDOF 21
ENDMDL
MODEL 2
REMARK VINA RESULT:     -10.5      4.975      9.778
REMARK SMILES C[C@@H](C(=O)OCCOCCOCCOC(=O)c1ccc(-c2c3nc(c(-c4c(F)cccc4F)c4ccc([nH]4)c(-c4c(F)cccc4F)c4nc(c(-c5c(F)cccc5F)c5ccc2[nH]5)C=C4)C=C3)cc1)c1ccc(C[C@H]2CCC[C@@H]2O)cc1Br
REMARK SMILES IDX 9 1 8 2 7 3 6 4 5 5 3 6 4 7 2 8 1 9 71 10 72 11 83 12 73 13
REMARK SMILES IDX 82 14 84 15 74 16 75 17 76 18 77 19 80 20 78 21 79 22 81 23
REMARK SMILES IDX 10 25 11 26 12 27 13 28 14 29 15 30 16 31 17 32 18 33 70 34
REMARK SMILES IDX 19 35 69 36 20 37 21 38 22 39 63 40 23 41 68 42 62 43 64 44
REMARK SMILES IDX 24 45 67 46 61 47 60 48 25 50 51 51 34 52 50 53 35 54 38 55
REMARK SMILES IDX 49 56 65 57 36 58 37 59 48 61 66 62 39 63 26 64 27 65 32 66
REMARK SMILES IDX 28 67 29 68 31 69 33 70 30 71 52 72 53 73 58 74 54 75 55 76
REMARK SMILES IDX 57 77 59 78 56 79 40 80 41 81 46 82 42 83 43 84 45 85 47 86
REMARK SMILES IDX 44 87
REMARK H PARENT 81 24 64 49 38 60
REMARK Flexibility Score: inf
ROOT
ATOM      1  C   UNL A   1      32.444  30.524  26.687  1.00  0.00     0.188 C 
ENDROOT
BRANCH   1   2
ATOM      2  O   UNL A   1      32.719  29.935  25.423  1.00  0.00    -0.376 OA
BRANCH   2   3
ATOM      3  C   UNL A   1      31.649  29.309  24.721  1.00  0.00     0.202 C 
BRANCH   3   4
ATOM      4  C   UNL A   1      31.449  27.823  24.991  1.00  0.00     0.261 C 
BRANCH   4   5
ATOM      5  O   UNL A   1      30.622  27.233  23.977  1.00  0.00    -0.463 OA
BRANCH   5   6
ATOM      6  C   UNL A   1      31.304  26.646  22.959  1.00  0.00     0.313 C 
ATOM      7  O   UNL A   1      31.035  26.797  21.773  1.00  0.00    -0.252 OA
BRANCH   6   8
ATOM      8  C   UNL A   1      32.424  25.754  23.462  1.00  0.00     0.127 C 
ATOM      9  C   UNL A   1      33.669  25.990  22.577  1.00  0.00     0.025 C 
BRANCH   8  10
ATOM     10  C   UNL A   1      32.144  24.269  23.763  1.00  0.00    -0.020 A 
ATOM     11  C   UNL A   1      32.683  23.340  22.840  1.00  0.00     0.006 A 
ATOM     12  C   UNL A   1      31.565  23.707  24.917  1.00  0.00     0.022 A 
ATOM     13  C   UNL A   1      32.683  21.955  23.059  1.00  0.00     0.004 A 
ATOM     14  C   UNL A   1      31.524  22.302  25.106  1.00  0.00     0.019 A 
ATOM     15  Br  UNL A   1      30.886  24.690  26.395  1.00  0.00    -0.050 Br
ATOM     16  C   UNL A   1      32.105  21.406  24.198  1.00  0.00    -0.047 A 
BRANCH  16  17
ATOM     17  C   UNL A   1      32.280  19.943  24.561  1.00  0.00     0.041 C 
BRANCH  17  18
ATOM     18  C   UNL A   1      33.236  19.027  23.772  1.00  0.00     0.022 C 
ATOM     19  C   UNL A   1      34.539  18.686  24.499  1.00  0.00     0.007 C 
ATOM     20  C   UNL A   1      32.683  17.683  23.283  1.00  0.00     0.117 C 
ATOM     21  C   UNL A   1      34.678  17.167  24.429  1.00  0.00     0.003 C 
ATOM     22  C   UNL A   1      33.913  16.790  23.177  1.00  0.00     0.032 C 
BRANCH  20  23
ATOM     23  O   UNL A   1      32.011  17.805  22.044  1.00  0.00    -0.393 OA
ATOM     24  H   UNL A   1      32.237  17.050  21.479  1.00  0.00     0.210 HD
ENDBRANCH  20  23
ENDBRANCH  17  18
ENDBRANCH  16  17
ENDBRANCH   8  10
ENDBRANCH   6   8
ENDBRANCH   5   6
ENDBRANCH   4   5
ENDBRANCH   3   4
ENDBRANCH   2   3
ENDBRANCH   1   2
BRANCH   1  25
ATOM     25  C   UNL A   1      33.594  31.140  27.510  1.00  0.00     0.188 C 
BRANCH  25  26
ATOM     26  O   UNL A   1      33.501  32.478  27.975  1.00  0.00    -0.376 OA
BRANCH  26  27
ATOM     27  C   UNL A   1      34.619  33.021  28.670  1.00  0.00     0.202 C 
BRANCH  27  28
ATOM     28  C   UNL A   1      34.970  32.352  29.996  1.00  0.00     0.261 C 
BRANCH  28  29
ATOM     29  O   UNL A   1      36.316  31.847  29.970  1.00  0.00    -0.460 OA
BRANCH  29  30
ATOM     30  C   UNL A   1      36.545  30.791  30.782  1.00  0.00     0.338 C 
ATOM     31  O   UNL A   1      35.871  30.405  31.718  1.00  0.00    -0.246 OA
BRANCH  30  32
ATOM     32  C   UNL A   1      37.701  30.040  30.270  1.00  0.00     0.060 A 
ATOM     33  C   UNL A   1      38.575  29.471  31.195  1.00  0.00     0.016 A 
ATOM     34  C   UNL A   1      37.982  29.991  28.903  1.00  0.00     0.016 A 
ATOM     35  C   UNL A   1      39.747  28.871  30.752  1.00  0.00     0.010 A 
ATOM     36  C   UNL A   1      39.184  29.417  28.467  1.00  0.00     0.010 A 
ATOM     37  C   UNL A   1      40.096  28.888  29.394  1.00  0.00    -0.014 A 
BRANCH  37  38
ATOM     38  C   UNL A   1      41.491  28.546  29.007  1.00  0.00     0.031 A 
ATOM     39  C   UNL A   1      41.783  27.149  28.516  1.00  0.00     0.074 A 
ATOM     40  C   UNL A   1      42.455  29.481  28.936  1.00  0.00     0.049 A 
ATOM     41  N   UNL A   1      42.908  26.639  28.081  1.00  0.00    -0.248 NA
ATOM     42  C   UNL A   1      40.646  26.216  28.479  1.00  0.00     0.031 C 
ATOM     43  C   UNL A   1      42.281  30.903  29.226  1.00  0.00     0.029 A 
ATOM     44  N   UNL A   1      43.765  29.379  28.528  1.00  0.00    -0.354 N 
ATOM     45  C   UNL A   1      42.620  25.323  27.742  1.00  0.00     0.074 A 
ATOM     46  C   UNL A   1      41.213  25.115  28.009  1.00  0.00     0.031 C 
ATOM     47  C   UNL A   1      43.423  31.549  28.931  1.00  0.00     0.029 A 
ATOM     48  C   UNL A   1      44.425  30.582  28.485  1.00  0.00     0.049 A 
ATOM     49  H   UNL A   1      44.188  28.523  28.290  1.00  0.00     0.167 HD
ATOM     50  C   UNL A   1      43.448  24.366  27.259  1.00  0.00     0.037 A 
ATOM     51  C   UNL A   1      45.695  30.868  28.129  1.00  0.00     0.037 A 
ATOM     52  C   UNL A   1      44.846  24.551  26.984  1.00  0.00     0.049 A 
ATOM     53  C   UNL A   1      46.629  29.756  27.726  1.00  0.00     0.074 A 
ATOM     54  C   UNL A   1      45.770  23.615  26.548  1.00  0.00     0.029 A 
ATOM     55  N   UNL A   1      45.522  25.751  27.113  1.00  0.00    -0.354 N 
ATOM     56  N   UNL A   1      46.366  28.498  27.479  1.00  0.00    -0.248 NA
ATOM     57  C   UNL A   1      48.052  30.110  27.581  1.00  0.00     0.031 C 
ATOM     58  C   UNL A   1      47.017  24.243  26.454  1.00  0.00     0.029 A 
ATOM     59  C   UNL A   1      46.858  25.576  26.792  1.00  0.00     0.049 A 
ATOM     60  H   UNL A   1      45.114  26.603  27.391  1.00  0.00     0.167 HD
ATOM     61  C   UNL A   1      47.583  27.913  27.144  1.00  0.00     0.074 A 
ATOM     62  C   UNL A   1      48.581  28.959  27.189  1.00  0.00     0.031 C 
ATOM     63  C   UNL A   1      47.849  26.618  26.838  1.00  0.00     0.037 A 
BRANCH  50  64
ATOM     64  C   UNL A   1      42.869  23.001  27.059  1.00  0.00     0.057 A 
ATOM     65  C   UNL A   1      42.580  22.498  25.786  1.00  0.00     0.134 A 
ATOM     66  C   UNL A   1      42.623  22.171  28.160  1.00  0.00     0.134 A 
ATOM     67  F   UNL A   1      42.778  23.253  24.695  1.00  0.00    -0.206 F 
ATOM     68  C   UNL A   1      42.056  21.215  25.615  1.00  0.00     0.040 A 
ATOM     69  C   UNL A   1      42.115  20.882  28.001  1.00  0.00     0.040 A 
ATOM     70  F   UNL A   1      42.880  22.600  29.405  1.00  0.00    -0.206 F 
ATOM     71  C   UNL A   1      41.828  20.402  26.726  1.00  0.00     0.006 A 
ENDBRANCH  50  64
BRANCH  51  72
ATOM     72  C   UNL A   1      46.192  32.267  28.155  1.00  0.00     0.057 A 
ATOM     73  C   UNL A   1      46.086  33.087  27.026  1.00  0.00     0.134 A 
ATOM     74  C   UNL A   1      46.841  32.794  29.278  1.00  0.00     0.134 A 
ATOM     75  F   UNL A   1      45.502  32.626  25.910  1.00  0.00    -0.206 F 
ATOM     76  C   UNL A   1      46.620  34.377  27.006  1.00  0.00     0.040 A 
ATOM     77  C   UNL A   1      47.358  34.091  29.281  1.00  0.00     0.040 A 
ATOM     78  F   UNL A   1      46.988  32.053  30.386  1.00  0.00    -0.206 F 
ATOM     79  C   UNL A   1      47.255  34.882  28.139  1.00  0.00     0.006 A 
ENDBRANCH  51  72
BRANCH  63  80
ATOM     80  C   UNL A   1      49.271  26.252  26.528  1.00  0.00     0.057 A 
ATOM     81  C   UNL A   1      49.816  26.451  25.254  1.00  0.00     0.134 A 
ATOM     82  C   UNL A   1      50.119  25.752  27.525  1.00  0.00     0.134 A 
ATOM     83  F   UNL A   1      49.053  26.916  24.253  1.00  0.00    -0.206 F 
ATOM     84  C   UNL A   1      51.152  26.151  24.977  1.00  0.00     0.040 A 
ATOM     85  C   UNL A   1      51.461  25.470  27.265  1.00  0.00     0.040 A 
ATOM     86  F   UNL A   1      49.662  25.548  28.769  1.00  0.00    -0.206 F 
ATOM     87  C   UNL A   1      51.981  25.666  25.987  1.00  0.00     0.006 A 
ENDBRANCH  63  80
ENDBRANCH  37  38
ENDBRANCH  30  32
ENDBRANCH  29  30
ENDBRANCH  28  29
ENDBRANCH  27  28
ENDBRANCH  26  27
ENDBRANCH  25  26
ENDBRANCH   1  25
TORSDOF 21
ENDMDL
MODEL 3
REMARK VINA RESULT:     -10.4      4.579      9.433
REMARK SMILES C[C@@H](C(=O)OCCOCCOCCOC(=O)c1ccc(-c2c3nc(c(-c4c(F)cccc4F)c4ccc([nH]4)c(-c4c(F)cccc4F)c4nc(c(-c5c(F)cccc5F)c5ccc2[nH]5)C=C4)C=C3)cc1)c1ccc(C[C@H]2CCC[C@@H]2O)cc1Br
REMARK SMILES IDX 9 1 8 2 7 3 6 4 5 5 3 6 4 7 2 8 1 9 71 10 72 11 83 12 73 13
REMARK SMILES IDX 82 14 84 15 74 16 75 17 76 18 77 19 80 20 78 21 79 22 81 23
REMARK SMILES IDX 10 25 11 26 12 27 13 28 14 29 15 30 16 31 17 32 18 33 70 34
REMARK SMILES IDX 19 35 69 36 20 37 21 38 22 39 63 40 23 41 68 42 62 43 64 44
REMARK SMILES IDX 24 45 67 46 61 47 60 48 25 50 51 51 34 52 50 53 35 54 38 55
REMARK SMILES IDX 49 56 65 57 36 58 37 59 48 61 66 62 39 63 26 64 27 65 32 66
REMARK SMILES IDX 28 67 29 68 31 69 33 70 30 71 52 72 53 73 58 74 54 75 55 76
REMARK SMILES IDX 57 77 59 78 56 79 40 80 41 81 46 82 42 83 43 84 45 85 47 86
REMARK SMILES IDX 44 87
REMARK H PARENT 81 24 64 49 38 60
REMARK Flexibility Score: inf
ROOT
ATOM      1  C   UNL A   1      33.079  30.988  27.274  1.00  0.00     0.188 C 
ENDROOT
BRANCH   1   2
ATOM      2  O   UNL A   1      33.329  29.589  27.299  1.00  0.00    -0.376 OA
BRANCH   2   3
ATOM      3  C   UNL A   1      33.575  28.923  26.063  1.00  0.00     0.202 C 
BRANCH   3   4
ATOM      4  C   UNL A   1      32.342  28.466  25.293  1.00  0.00     0.261 C 
BRANCH   4   5
ATOM      5  O   UNL A   1      32.334  27.037  25.159  1.00  0.00    -0.463 OA
BRANCH   5   6
ATOM      6  C   UNL A   1      32.081  26.585  23.904  1.00  0.00     0.313 C 
ATOM      7  O   UNL A   1      32.536  27.092  22.885  1.00  0.00    -0.252 OA
BRANCH   6   8
ATOM      8  C   UNL A   1      31.144  25.391  23.904  1.00  0.00     0.127 C 
ATOM      9  C   UNL A   1      29.903  25.744  24.755  1.00  0.00     0.025 C 
BRANCH   8  10
ATOM     10  C   UNL A   1      31.703  23.980  24.170  1.00  0.00    -0.020 A 
ATOM     11  C   UNL A   1      31.183  23.314  25.307  1.00  0.00     0.006 A 
ATOM     12  C   UNL A   1      32.538  23.202  23.345  1.00  0.00     0.022 A 
ATOM     13  C   UNL A   1      31.440  21.966  25.589  1.00  0.00     0.004 A 
ATOM     14  C   UNL A   1      32.834  21.852  23.666  1.00  0.00     0.019 A 
ATOM     15  Br  UNL A   1      33.272  23.764  21.685  1.00  0.00    -0.050 Br
ATOM     16  C   UNL A   1      32.270  21.205  24.774  1.00  0.00    -0.047 A 
BRANCH  16  17
ATOM     17  C   UNL A   1      32.391  19.700  24.933  1.00  0.00     0.041 C 
BRANCH  17  18
ATOM     18  C   UNL A   1      33.298  18.864  24.009  1.00  0.00     0.022 C 
ATOM     19  C   UNL A   1      34.643  18.468  24.622  1.00  0.00     0.007 C 
ATOM     20  C   UNL A   1      32.718  17.565  23.438  1.00  0.00     0.117 C 
ATOM     21  C   UNL A   1      34.779  16.963  24.410  1.00  0.00     0.003 C 
ATOM     22  C   UNL A   1      33.939  16.693  23.178  1.00  0.00     0.032 C 
BRANCH  20  23
ATOM     23  O   UNL A   1      31.970  17.791  22.258  1.00  0.00    -0.393 OA
ATOM     24  H   UNL A   1      31.302  17.096  22.161  1.00  0.00     0.210 HD
ENDBRANCH  20  23
ENDBRANCH  17  18
ENDBRANCH  16  17
ENDBRANCH   8  10
ENDBRANCH   6   8
ENDBRANCH   5   6
ENDBRANCH   4   5
ENDBRANCH   3   4
ENDBRANCH   2   3
ENDBRANCH   1   2
BRANCH   1  25
ATOM     25  C   UNL A   1      34.068  31.955  27.958  1.00  0.00     0.188 C 
BRANCH  25  26
ATOM     26  O   UNL A   1      33.593  33.139  28.579  1.00  0.00    -0.376 OA
BRANCH  26  27
ATOM     27  C   UNL A   1      34.539  33.965  29.250  1.00  0.00     0.202 C 
BRANCH  27  28
ATOM     28  C   UNL A   1      34.535  33.882  30.774  1.00  0.00     0.261 C 
BRANCH  28  29
ATOM     29  O   UNL A   1      34.561  32.510  31.208  1.00  0.00    -0.460 OA
BRANCH  29  30
ATOM     30  C   UNL A   1      35.526  32.215  32.108  1.00  0.00     0.338 C 
ATOM     31  O   UNL A   1      35.557  32.492  33.292  1.00  0.00    -0.246 OA
BRANCH  30  32
ATOM     32  C   UNL A   1      36.519  31.341  31.468  1.00  0.00     0.060 A 
ATOM     33  C   UNL A   1      37.640  30.969  32.210  1.00  0.00     0.016 A 
ATOM     34  C   UNL A   1      36.406  30.984  30.122  1.00  0.00     0.016 A 
ATOM     35  C   UNL A   1      38.663  30.256  31.596  1.00  0.00     0.010 A 
ATOM     36  C   UNL A   1      37.459  30.297  29.501  1.00  0.00     0.010 A 
ATOM     37  C   UNL A   1      38.615  29.963  30.226  1.00  0.00    -0.014 A 
BRANCH  37  38
ATOM     38  C   UNL A   1      39.857  29.509  29.545  1.00  0.00     0.031 A 
ATOM     39  C   UNL A   1      41.045  30.439  29.512  1.00  0.00     0.074 A 
ATOM     40  C   UNL A   1      39.999  28.248  29.098  1.00  0.00     0.049 A 
ATOM     41  N   UNL A   1      42.242  30.241  29.019  1.00  0.00    -0.248 NA
ATOM     42  C   UNL A   1      40.867  31.752  30.151  1.00  0.00     0.031 C 
ATOM     43  C   UNL A   1      38.994  27.192  29.206  1.00  0.00     0.029 A 
ATOM     44  N   UNL A   1      41.082  27.625  28.523  1.00  0.00    -0.354 N 
ATOM     45  C   UNL A   1      42.950  31.411  29.267  1.00  0.00     0.074 A 
ATOM     46  C   UNL A   1      42.055  32.308  29.965  1.00  0.00     0.031 C 
ATOM     47  C   UNL A   1      39.528  26.039  28.767  1.00  0.00     0.029 A 
ATOM     48  C   UNL A   1      40.891  26.284  28.296  1.00  0.00     0.049 A 
ATOM     49  H   UNL A   1      41.915  28.096  28.296  1.00  0.00     0.167 HD
ATOM     50  C   UNL A   1      44.227  31.720  28.940  1.00  0.00     0.037 A 
ATOM     51  C   UNL A   1      41.720  25.363  27.765  1.00  0.00     0.037 A 
ATOM     52  C   UNL A   1      45.134  30.844  28.250  1.00  0.00     0.049 A 
ATOM     53  C   UNL A   1      43.090  25.773  27.286  1.00  0.00     0.074 A 
ATOM     54  C   UNL A   1      46.428  31.102  27.828  1.00  0.00     0.029 A 
ATOM     55  N   UNL A   1      44.846  29.541  27.885  1.00  0.00    -0.354 N 
ATOM     56  N   UNL A   1      43.726  26.904  27.459  1.00  0.00    -0.248 NA
ATOM     57  C   UNL A   1      43.844  24.775  26.509  1.00  0.00     0.031 C 
ATOM     58  C   UNL A   1      46.908  29.965  27.169  1.00  0.00     0.029 A 
ATOM     59  C   UNL A   1      45.927  28.989  27.217  1.00  0.00     0.049 A 
ATOM     60  H   UNL A   1      43.999  29.076  28.072  1.00  0.00     0.167 HD
ATOM     61  C   UNL A   1      44.952  26.753  26.820  1.00  0.00     0.074 A 
ATOM     62  C   UNL A   1      44.985  25.410  26.282  1.00  0.00     0.031 C 
ATOM     63  C   UNL A   1      45.957  27.653  26.683  1.00  0.00     0.037 A 
BRANCH  50  64
ATOM     64  C   UNL A   1      44.701  33.100  29.270  1.00  0.00     0.057 A 
ATOM     65  C   UNL A   1      44.490  34.182  28.410  1.00  0.00     0.134 A 
ATOM     66  C   UNL A   1      45.356  33.348  30.484  1.00  0.00     0.134 A 
ATOM     67  F   UNL A   1      43.885  34.002  27.226  1.00  0.00    -0.206 F 
ATOM     68  C   UNL A   1      44.923  35.467  28.742  1.00  0.00     0.040 A 
ATOM     69  C   UNL A   1      45.778  34.631  30.834  1.00  0.00     0.040 A 
ATOM     70  F   UNL A   1      45.586  32.349  31.349  1.00  0.00    -0.206 F 
ATOM     71  C   UNL A   1      45.565  35.694  29.960  1.00  0.00     0.006 A 
ENDBRANCH  50  64
BRANCH  51  72
ATOM     72  C   UNL A   1      41.290  23.949  27.622  1.00  0.00     0.057 A 
ATOM     73  C   UNL A   1      41.885  22.937  28.385  1.00  0.00     0.134 A 
ATOM     74  C   UNL A   1      40.330  23.565  26.679  1.00  0.00     0.134 A 
ATOM     75  F   UNL A   1      42.834  23.240  29.283  1.00  0.00    -0.206 F 
ATOM     76  C   UNL A   1      41.551  21.593  28.207  1.00  0.00     0.040 A 
ATOM     77  C   UNL A   1      39.967  22.228  26.507  1.00  0.00     0.040 A 
ATOM     78  F   UNL A   1      39.734  24.485  25.906  1.00  0.00    -0.206 F 
ATOM     79  C   UNL A   1      40.585  21.237  27.267  1.00  0.00     0.006 A 
ENDBRANCH  51  72
BRANCH  63  80
ATOM     80  C   UNL A   1      47.178  27.227  25.923  1.00  0.00     0.057 A 
ATOM     81  C   UNL A   1      48.248  26.584  26.559  1.00  0.00     0.134 A 
ATOM     82  C   UNL A   1      47.263  27.406  24.536  1.00  0.00     0.134 A 
ATOM     83  F   UNL A   1      48.233  26.392  27.886  1.00  0.00    -0.206 F 
ATOM     84  C   UNL A   1      49.366  26.147  25.844  1.00  0.00     0.040 A 
ATOM     85  C   UNL A   1      48.365  26.954  23.809  1.00  0.00     0.040 A 
ATOM     86  F   UNL A   1      46.269  28.005  23.865  1.00  0.00    -0.206 F 
ATOM     87  C   UNL A   1      49.423  26.325  24.463  1.00  0.00     0.006 A 
ENDBRANCH  63  80
ENDBRANCH  37  38
ENDBRANCH  30  32
ENDBRANCH  29  30
ENDBRANCH  28  29
ENDBRANCH  27  28
ENDBRANCH  26  27
ENDBRANCH  25  26
ENDBRANCH   1  25
TORSDOF 21
ENDMDL
