MODEL 1
REMARK VINA RESULT:     -12.0      0.000      0.000
REMARK SMILES Cc1cc(S(F)(F)(F)(F)F)cc2c1O[C@H](C(F)(F)F)C(C(=O)OCCOCCOCCOC(=O)c1ccc(-c3c4nc(c(-c5c(F)cccc5F)c5ccc([nH]5)c(-c5c(F)cccc5F)c5nc(c(-c6c(F)cccc6F)c6ccc3[nH]6)C=C5)C=C4)cc1)=C2
REMARK SMILES IDX 28 1 27 2 26 3 25 4 24 5 23 6 21 7 22 8 20 9 1 10 2 11 3 12
REMARK SMILES IDX 13 13 4 14 12 15 14 16 11 17 89 18 15 19 5 20 6 21 7 22 8 23
REMARK SMILES IDX 9 24 10 25 16 26 17 27 18 28 19 29 29 30 30 31 31 32 32 33
REMARK SMILES IDX 33 34 34 35 35 36 36 37 88 38 37 39 87 40 38 41 39 42 40 43
REMARK SMILES IDX 81 44 41 45 86 46 80 47 82 48 42 49 85 50 79 51 78 52 43 54
REMARK SMILES IDX 69 55 52 56 68 57 53 58 56 59 67 60 83 61 54 62 55 63 66 65
REMARK SMILES IDX 84 66 57 67 44 68 45 69 50 70 46 71 47 72 49 73 51 74 48 75
REMARK SMILES IDX 70 76 71 77 76 78 72 79 73 80 75 81 77 82 74 83 58 84 59 85
REMARK SMILES IDX 64 86 60 87 61 88 63 89 65 90 62 91
REMARK H PARENT 82 53 56 64
REMARK Flexibility Score: inf
ROOT
ATOM      1  C   UNL A   1      34.747  33.650  29.169  1.00  0.00     0.188 C 
ENDROOT
BRANCH   1   2
ATOM      2  C   UNL A   1      34.006  33.028  27.998  1.00  0.00     0.188 C 
BRANCH   2   3
ATOM      3  O   UNL A   1      33.928  31.621  28.180  1.00  0.00    -0.376 OA
BRANCH   3   4
ATOM      4  C   UNL A   1      35.107  31.012  27.674  1.00  0.00     0.202 C 
BRANCH   4   5
ATOM      5  C   UNL A   1      34.808  29.571  27.294  1.00  0.00     0.261 C 
BRANCH   5   6
ATOM      6  O   UNL A   1      33.703  29.535  26.403  1.00  0.00    -0.460 OA
BRANCH   6   7
ATOM      7  C   UNL A   1      33.667  28.578  25.355  1.00  0.00     0.338 C 
ATOM      8  O   UNL A   1      34.024  28.906  24.181  1.00  0.00    -0.246 OA
BRANCH   7   9
ATOM      9  C   UNL A   1      33.202  27.158  25.638  1.00  0.00     0.087 C 
ATOM     10  C   UNL A   1      30.456  22.944  26.851  1.00  0.00     0.048 C 
ATOM     11  C   UNL A   1      31.881  23.267  26.434  1.00  0.00    -0.007 A 
ATOM     12  C   UNL A   1      32.726  22.216  26.158  1.00  0.00     0.031 A 
ATOM     13  C   UNL A   1      32.304  24.571  26.174  1.00  0.00     0.130 A 
ATOM     14  C   UNL A   1      33.992  22.441  25.631  1.00  0.00     0.108 A 
ATOM     15  C   UNL A   1      33.589  24.796  25.633  1.00  0.00     0.019 A 
ATOM     16  O   UNL A   1      31.450  25.735  26.447  1.00  0.00    -0.475 OA
ATOM     17  C   UNL A   1      34.424  23.710  25.363  1.00  0.00     0.036 A 
ATOM     18  C   UNL A   1      34.007  26.173  25.373  1.00  0.00     0.027 C 
ATOM     19  C   UNL A   1      31.927  26.967  26.173  1.00  0.00     0.316 C 
BRANCH  14  20
ATOM     20  S   UNL A   1      35.082  21.036  25.294  1.00  0.00     0.310 S 
ATOM     21  F   UNL A   1      35.789  21.792  24.092  1.00  0.00    -0.094 F 
ATOM     22  F   UNL A   1      34.025  20.509  24.251  1.00  0.00    -0.094 F 
ATOM     23  F   UNL A   1      36.016  19.827  25.002  1.00  0.00    -0.094 F 
ATOM     24  F   UNL A   1      36.190  21.653  26.237  1.00  0.00    -0.094 F 
ATOM     25  F   UNL A   1      34.196  22.327  25.515  1.00  0.00    -0.094 F 
ENDBRANCH  14  20
BRANCH  19  26
ATOM     26  C   UNL A   1      31.028  27.413  25.031  1.00  0.00     0.430 C 
ATOM     27  F   UNL A   1      30.846  28.729  25.098  1.00  0.00    -0.167 F 
ATOM     28  F   UNL A   1      31.599  27.103  23.870  1.00  0.00    -0.167 F 
ATOM     29  F   UNL A   1      29.853  26.797  25.124  1.00  0.00    -0.167 F 
ENDBRANCH  19  26
ENDBRANCH   7   9
ENDBRANCH   6   7
ENDBRANCH   5   6
ENDBRANCH   4   5
ENDBRANCH   3   4
ENDBRANCH   2   3
ENDBRANCH   1   2
BRANCH   1  30
ATOM     30  O   UNL A   1      33.840  33.875  30.239  1.00  0.00    -0.376 OA
BRANCH  30  31
ATOM     31  C   UNL A   1      34.559  34.293  31.390  1.00  0.00     0.202 C 
BRANCH  31  32
ATOM     32  C   UNL A   1      34.249  33.358  32.547  1.00  0.00     0.261 C 
BRANCH  32  33
ATOM     33  O   UNL A   1      34.974  32.147  32.387  1.00  0.00    -0.460 OA
BRANCH  33  34
ATOM     34  C   UNL A   1      36.258  32.007  32.976  1.00  0.00     0.338 C 
ATOM     35  O   UNL A   1      36.439  32.330  34.192  1.00  0.00    -0.246 OA
BRANCH  34  36
ATOM     36  C   UNL A   1      37.417  31.470  32.153  1.00  0.00     0.060 A 
ATOM     37  C   UNL A   1      38.581  31.080  32.805  1.00  0.00     0.016 A 
ATOM     38  C   UNL A   1      37.371  31.364  30.841  1.00  0.00     0.016 A 
ATOM     39  C   UNL A   1      39.408  30.157  32.127  1.00  0.00     0.010 A 
ATOM     40  C   UNL A   1      38.470  30.882  30.123  1.00  0.00     0.010 A 
ATOM     41  C   UNL A   1      39.470  30.288  30.740  1.00  0.00    -0.014 A 
BRANCH  41  42
ATOM     42  C   UNL A   1      40.663  29.759  29.962  1.00  0.00     0.031 A 
ATOM     43  C   UNL A   1      41.699  30.668  29.735  1.00  0.00     0.074 A 
ATOM     44  C   UNL A   1      40.648  28.463  29.472  1.00  0.00     0.049 A 
ATOM     45  N   UNL A   1      42.833  30.457  29.065  1.00  0.00    -0.248 NA
ATOM     46  C   UNL A   1      41.701  32.054  30.224  1.00  0.00     0.031 C 
ATOM     47  C   UNL A   1      39.611  27.539  29.704  1.00  0.00     0.029 A 
ATOM     48  N   UNL A   1      41.601  27.843  28.695  1.00  0.00    -0.354 N 
ATOM     49  C   UNL A   1      43.588  31.558  29.079  1.00  0.00     0.074 A 
ATOM     50  C   UNL A   1      42.868  32.603  29.820  1.00  0.00     0.031 C 
ATOM     51  C   UNL A   1      39.928  26.382  29.066  1.00  0.00     0.029 A 
ATOM     52  C   UNL A   1      41.169  26.563  28.425  1.00  0.00     0.049 A 
ATOM     53  H   UNL A   1      42.445  28.245  28.386  1.00  0.00     0.167 HD
ATOM     54  C   UNL A   1      44.847  31.731  28.504  1.00  0.00     0.037 A 
ATOM     55  C   UNL A   1      41.806  25.596  27.665  1.00  0.00     0.037 A 
ATOM     56  C   UNL A   1      45.503  30.749  27.781  1.00  0.00     0.049 A 
ATOM     57  C   UNL A   1      43.040  25.788  27.040  1.00  0.00     0.074 A 
ATOM     58  C   UNL A   1      46.778  30.904  27.201  1.00  0.00     0.029 A 
ATOM     59  N   UNL A   1      45.061  29.477  27.490  1.00  0.00    -0.354 N 
ATOM     60  N   UNL A   1      43.811  26.875  27.087  1.00  0.00    -0.248 NA
ATOM     61  C   UNL A   1      43.709  24.781  26.206  1.00  0.00     0.031 C 
ATOM     62  C   UNL A   1      47.095  29.746  26.563  1.00  0.00     0.029 A 
ATOM     63  C   UNL A   1      46.023  28.849  26.732  1.00  0.00     0.049 A 
ATOM     64  H   UNL A   1      44.204  29.086  27.775  1.00  0.00     0.167 HD
ATOM     65  C   UNL A   1      44.927  26.679  26.383  1.00  0.00     0.074 A 
ATOM     66  C   UNL A   1      44.874  25.331  25.799  1.00  0.00     0.031 C 
ATOM     67  C   UNL A   1      45.990  27.566  26.205  1.00  0.00     0.037 A 
BRANCH  54  68
ATOM     68  C   UNL A   1      45.539  33.073  28.684  1.00  0.00     0.057 A 
ATOM     69  C   UNL A   1      46.317  33.273  29.728  1.00  0.00     0.134 A 
ATOM     70  C   UNL A   1      45.369  34.069  27.717  1.00  0.00     0.134 A 
ATOM     71  F   UNL A   1      46.472  32.331  30.653  1.00  0.00    -0.206 F 
ATOM     72  C   UNL A   1      46.971  34.496  29.838  1.00  0.00     0.040 A 
ATOM     73  C   UNL A   1      46.162  35.118  27.684  1.00  0.00     0.040 A 
ATOM     74  F   UNL A   1      44.394  33.953  26.819  1.00  0.00    -0.206 F 
ATOM     75  C   UNL A   1      47.173  35.214  28.639  1.00  0.00     0.006 A 
ENDBRANCH  54  68
BRANCH  55  76
ATOM     76  C   UNL A   1      41.121  24.249  27.499  1.00  0.00     0.057 A 
ATOM     77  C   UNL A   1      40.109  24.119  26.668  1.00  0.00     0.134 A 
ATOM     78  C   UNL A   1      41.561  23.165  28.267  1.00  0.00     0.134 A 
ATOM     79  F   UNL A   1      39.685  25.150  25.945  1.00  0.00    -0.206 F 
ATOM     80  C   UNL A   1      39.495  22.875  26.564  1.00  0.00     0.040 A 
ATOM     81  C   UNL A   1      41.154  21.942  28.000  1.00  0.00     0.040 A 
ATOM     82  F   UNL A   1      42.401  23.372  29.277  1.00  0.00    -0.206 F 
ATOM     83  C   UNL A   1      40.271  21.755  26.938  1.00  0.00     0.006 A 
ENDBRANCH  55  76
BRANCH  67  84
ATOM     84  C   UNL A   1      47.181  27.100  25.385  1.00  0.00     0.057 A 
ATOM     85  C   UNL A   1      47.262  27.454  24.121  1.00  0.00     0.134 A 
ATOM     86  C   UNL A   1      48.173  26.306  25.970  1.00  0.00     0.134 A 
ATOM     87  F   UNL A   1      46.315  28.203  23.561  1.00  0.00    -0.206 F 
ATOM     88  C   UNL A   1      48.361  27.028  23.384  1.00  0.00     0.040 A 
ATOM     89  C   UNL A   1      49.321  26.104  25.360  1.00  0.00     0.040 A 
ATOM     90  F   UNL A   1      47.952  25.747  27.157  1.00  0.00    -0.206 F 
ATOM     91  C   UNL A   1      49.523  26.699  24.117  1.00  0.00     0.006 A 
ENDBRANCH  67  84
ENDBRANCH  41  42
ENDBRANCH  34  36
ENDBRANCH  33  34
ENDBRANCH  32  33
ENDBRANCH  31  32
ENDBRANCH  30  31
ENDBRANCH   1  30
TORSDOF 19
ENDMDL
MODEL 2
REMARK VINA RESULT:     -12.0      3.992      6.609
REMARK SMILES Cc1cc(S(F)(F)(F)(F)F)cc2c1O[C@H](C(F)(F)F)C(C(=O)OCCOCCOCCOC(=O)c1ccc(-c3c4nc(c(-c5c(F)cccc5F)c5ccc([nH]5)c(-c5c(F)cccc5F)c5nc(c(-c6c(F)cccc6F)c6ccc3[nH]6)C=C5)C=C4)cc1)=C2
REMARK SMILES IDX 28 1 27 2 26 3 25 4 24 5 23 6 21 7 22 8 20 9 1 10 2 11 3 12
REMARK SMILES IDX 13 13 4 14 12 15 14 16 11 17 89 18 15 19 5 20 6 21 7 22 8 23
REMARK SMILES IDX 9 24 10 25 16 26 17 27 18 28 19 29 29 30 30 31 31 32 32 33
REMARK SMILES IDX 33 34 34 35 35 36 36 37 88 38 37 39 87 40 38 41 39 42 40 43
REMARK SMILES IDX 81 44 41 45 86 46 80 47 82 48 42 49 85 50 79 51 78 52 43 54
REMARK SMILES IDX 69 55 52 56 68 57 53 58 56 59 67 60 83 61 54 62 55 63 66 65
REMARK SMILES IDX 84 66 57 67 44 68 45 69 50 70 46 71 47 72 49 73 51 74 48 75
REMARK SMILES IDX 70 76 71 77 76 78 72 79 73 80 75 81 77 82 74 83 58 84 59 85
REMARK SMILES IDX 64 86 60 87 61 88 63 89 65 90 62 91
REMARK H PARENT 82 53 56 64
REMARK Flexibility Score: inf
ROOT
ATOM      1  C   UNL A   1      31.378  30.014  25.428  1.00  0.00     0.188 C 
ENDROOT
BRANCH   1   2
ATOM      2  C   UNL A   1      32.584  29.368  24.766  1.00  0.00     0.188 C 
BRANCH   2   3
ATOM      3  O   UNL A   1      32.197  28.813  23.517  1.00  0.00    -0.376 OA
BRANCH   3   4
ATOM      4  C   UNL A   1      31.145  27.880  23.718  1.00  0.00     0.202 C 
BRANCH   4   5
ATOM      5  C   UNL A   1      30.892  27.117  22.428  1.00  0.00     0.261 C 
BRANCH   5   6
ATOM      6  O   UNL A   1      31.293  25.765  22.591  1.00  0.00    -0.460 OA
BRANCH   6   7
ATOM      7  C   UNL A   1      32.576  25.348  22.149  1.00  0.00     0.338 C 
ATOM      8  O   UNL A   1      33.115  25.907  21.144  1.00  0.00    -0.246 OA
BRANCH   7   9
ATOM      9  C   UNL A   1      33.305  24.231  22.878  1.00  0.00     0.087 C 
ATOM     10  C   UNL A   1      36.629  21.420  25.676  1.00  0.00     0.048 C 
ATOM     11  C   UNL A   1      35.347  21.183  24.894  1.00  0.00    -0.007 A 
ATOM     12  C   UNL A   1      34.756  19.943  24.984  1.00  0.00     0.031 A 
ATOM     13  C   UNL A   1      34.681  22.212  24.226  1.00  0.00     0.130 A 
ATOM     14  C   UNL A   1      33.511  19.706  24.415  1.00  0.00     0.108 A 
ATOM     15  C   UNL A   1      33.413  21.969  23.654  1.00  0.00     0.019 A 
ATOM     16  O   UNL A   1      35.258  23.556  24.094  1.00  0.00    -0.475 OA
ATOM     17  C   UNL A   1      32.838  20.700  23.763  1.00  0.00     0.036 A 
ATOM     18  C   UNL A   1      32.738  23.064  22.959  1.00  0.00     0.027 C 
ATOM     19  C   UNL A   1      34.557  24.500  23.433  1.00  0.00     0.316 C 
BRANCH  14  20
ATOM     20  S   UNL A   1      32.770  18.060  24.541  1.00  0.00     0.310 S 
ATOM     21  F   UNL A   1      34.149  17.402  24.969  1.00  0.00    -0.094 F 
ATOM     22  F   UNL A   1      33.187  17.794  23.045  1.00  0.00    -0.094 F 
ATOM     23  F   UNL A   1      32.133  16.645  24.645  1.00  0.00    -0.094 F 
ATOM     24  F   UNL A   1      32.487  18.290  26.079  1.00  0.00    -0.094 F 
ATOM     25  F   UNL A   1      33.513  19.454  24.484  1.00  0.00    -0.094 F 
ENDBRANCH  14  20
BRANCH  19  26
ATOM     26  C   UNL A   1      34.214  25.481  24.542  1.00  0.00     0.430 C 
ATOM     27  F   UNL A   1      34.269  26.724  24.069  1.00  0.00    -0.167 F 
ATOM     28  F   UNL A   1      32.986  25.233  24.990  1.00  0.00    -0.167 F 
ATOM     29  F   UNL A   1      35.084  25.347  25.539  1.00  0.00    -0.167 F 
ENDBRANCH  19  26
ENDBRANCH   7   9
ENDBRANCH   6   7
ENDBRANCH   5   6
ENDBRANCH   4   5
ENDBRANCH   3   4
ENDBRANCH   2   3
ENDBRANCH   1   2
BRANCH   1  30
ATOM     30  O   UNL A   1      31.780  30.637  26.639  1.00  0.00    -0.376 OA
BRANCH  30  31
ATOM     31  C   UNL A   1      31.387  32.002  26.622  1.00  0.00     0.202 C 
BRANCH  31  32
ATOM     32  C   UNL A   1      32.595  32.880  26.905  1.00  0.00     0.261 C 
BRANCH  32  33
ATOM     33  O   UNL A   1      32.201  33.988  27.700  1.00  0.00    -0.460 OA
BRANCH  33  34
ATOM     34  C   UNL A   1      33.158  34.657  28.508  1.00  0.00     0.338 C 
ATOM     35  O   UNL A   1      33.021  35.895  28.764  1.00  0.00    -0.246 OA
BRANCH  34  36
ATOM     36  C   UNL A   1      34.347  33.892  29.068  1.00  0.00     0.060 A 
ATOM     37  C   UNL A   1      34.119  32.890  30.003  1.00  0.00     0.016 A 
ATOM     38  C   UNL A   1      35.589  34.144  28.711  1.00  0.00     0.016 A 
ATOM     39  C   UNL A   1      35.119  31.899  30.124  1.00  0.00     0.010 A 
ATOM     40  C   UNL A   1      36.652  33.426  29.268  1.00  0.00     0.010 A 
ATOM     41  C   UNL A   1      36.435  32.327  29.958  1.00  0.00    -0.014 A 
BRANCH  41  42
ATOM     42  C   UNL A   1      37.589  31.543  30.561  1.00  0.00     0.031 A 
ATOM     43  C   UNL A   1      37.890  31.823  31.895  1.00  0.00     0.074 A 
ATOM     44  C   UNL A   1      38.310  30.661  29.773  1.00  0.00     0.049 A 
ATOM     45  N   UNL A   1      38.862  31.292  32.639  1.00  0.00    -0.248 NA
ATOM     46  C   UNL A   1      37.147  32.784  32.723  1.00  0.00     0.031 C 
ATOM     47  C   UNL A   1      38.008  30.368  28.429  1.00  0.00     0.029 A 
ATOM     48  N   UNL A   1      39.419  29.925  30.127  1.00  0.00    -0.354 N 
ATOM     49  C   UNL A   1      38.823  31.793  33.876  1.00  0.00     0.074 A 
ATOM     50  C   UNL A   1      37.723  32.765  33.946  1.00  0.00     0.031 C 
ATOM     51  C   UNL A   1      38.928  29.477  27.976  1.00  0.00     0.029 A 
ATOM     52  C   UNL A   1      39.821  29.197  29.028  1.00  0.00     0.049 A 
ATOM     53  H   UNL A   1      39.850  29.919  31.012  1.00  0.00     0.167 HD
ATOM     54  C   UNL A   1      39.659  31.477  34.946  1.00  0.00     0.037 A 
ATOM     55  C   UNL A   1      40.901  28.336  28.930  1.00  0.00     0.037 A 
ATOM     56  C   UNL A   1      40.714  30.582  34.860  1.00  0.00     0.049 A 
ATOM     57  C   UNL A   1      41.775  28.063  29.986  1.00  0.00     0.074 A 
ATOM     58  C   UNL A   1      41.563  30.246  35.933  1.00  0.00     0.029 A 
ATOM     59  N   UNL A   1      41.130  29.873  33.755  1.00  0.00    -0.354 N 
ATOM     60  N   UNL A   1      41.712  28.535  31.232  1.00  0.00    -0.248 NA
ATOM     61  C   UNL A   1      42.942  27.177  29.884  1.00  0.00     0.031 C 
ATOM     62  C   UNL A   1      42.483  29.354  35.478  1.00  0.00     0.029 A 
ATOM     63  C   UNL A   1      42.225  29.120  34.115  1.00  0.00     0.049 A 
ATOM     64  H   UNL A   1      40.717  29.901  32.862  1.00  0.00     0.167 HD
ATOM     65  C   UNL A   1      42.709  28.035  31.964  1.00  0.00     0.074 A 
ATOM     66  C   UNL A   1      43.519  27.160  31.105  1.00  0.00     0.031 C 
ATOM     67  C   UNL A   1      42.974  28.269  33.314  1.00  0.00     0.037 A 
BRANCH  54  68
ATOM     68  C   UNL A   1      39.398  32.151  36.283  1.00  0.00     0.057 A 
ATOM     69  C   UNL A   1      40.120  33.193  36.643  1.00  0.00     0.134 A 
ATOM     70  C   UNL A   1      38.367  31.677  37.102  1.00  0.00     0.134 A 
ATOM     71  F   UNL A   1      41.105  33.637  35.870  1.00  0.00    -0.206 F 
ATOM     72  C   UNL A   1      39.825  33.814  37.852  1.00  0.00     0.040 A 
ATOM     73  C   UNL A   1      37.927  32.395  38.113  1.00  0.00     0.040 A 
ATOM     74  F   UNL A   1      37.827  30.487  36.856  1.00  0.00    -0.206 F 
ATOM     75  C   UNL A   1      38.514  33.637  38.349  1.00  0.00     0.006 A 
ENDBRANCH  54  68
BRANCH  55  76
ATOM     76  C   UNL A   1      41.152  27.649  27.598  1.00  0.00     0.057 A 
ATOM     77  C   UNL A   1      41.911  28.224  26.689  1.00  0.00     0.134 A 
ATOM     78  C   UNL A   1      40.538  26.418  27.343  1.00  0.00     0.134 A 
ATOM     79  F   UNL A   1      42.487  29.398  26.927  1.00  0.00    -0.206 F 
ATOM     80  C   UNL A   1      42.095  27.574  25.474  1.00  0.00     0.040 A 
ATOM     81  C   UNL A   1      40.897  25.688  26.308  1.00  0.00     0.040 A 
ATOM     82  F   UNL A   1      39.580  25.980  28.155  1.00  0.00    -0.206 F 
ATOM     83  C   UNL A   1      41.901  26.174  25.472  1.00  0.00     0.006 A 
ENDBRANCH  55  76
BRANCH  67  84
ATOM     84  C   UNL A   1      44.154  27.550  33.946  1.00  0.00     0.057 A 
ATOM     85  C   UNL A   1      43.959  26.373  34.500  1.00  0.00     0.134 A 
ATOM     86  C   UNL A   1      45.425  28.135  33.938  1.00  0.00     0.134 A 
ATOM     87  F   UNL A   1      42.750  25.819  34.517  1.00  0.00    -0.206 F 
ATOM     88  C   UNL A   1      45.049  25.722  35.068  1.00  0.00     0.040 A 
ATOM     89  C   UNL A   1      46.492  27.432  34.248  1.00  0.00     0.040 A 
ATOM     90  F   UNL A   1      45.554  29.418  33.612  1.00  0.00    -0.206 F 
ATOM     91  C   UNL A   1      46.325  26.091  34.589  1.00  0.00     0.006 A 
ENDBRANCH  67  84
ENDBRANCH  41  42
ENDBRANCH  34  36
ENDBRANCH  33  34
ENDBRANCH  32  33
ENDBRANCH  31  32
ENDBRANCH  30  31
ENDBRANCH   1  30
TORSDOF 19
ENDMDL
MODEL 3
REMARK VINA RESULT:     -11.9      3.396      8.915
REMARK SMILES Cc1cc(S(F)(F)(F)(F)F)cc2c1O[C@H](C(F)(F)F)C(C(=O)OCCOCCOCCOC(=O)c1ccc(-c3c4nc(c(-c5c(F)cccc5F)c5ccc([nH]5)c(-c5c(F)cccc5F)c5nc(c(-c6c(F)cccc6F)c6ccc3[nH]6)C=C5)C=C4)cc1)=C2
REMARK SMILES IDX 28 1 27 2 26 3 25 4 24 5 23 6 21 7 22 8 20 9 1 10 2 11 3 12
REMARK SMILES IDX 13 13 4 14 12 15 14 16 11 17 89 18 15 19 5 20 6 21 7 22 8 23
REMARK SMILES IDX 9 24 10 25 16 26 17 27 18 28 19 29 29 30 30 31 31 32 32 33
REMARK SMILES IDX 33 34 34 35 35 36 36 37 88 38 37 39 87 40 38 41 39 42 40 43
REMARK SMILES IDX 81 44 41 45 86 46 80 47 82 48 42 49 85 50 79 51 78 52 43 54
REMARK SMILES IDX 69 55 52 56 68 57 53 58 56 59 67 60 83 61 54 62 55 63 66 65
REMARK SMILES IDX 84 66 57 67 44 68 45 69 50 70 46 71 47 72 49 73 51 74 48 75
REMARK SMILES IDX 70 76 71 77 76 78 72 79 73 80 75 81 77 82 74 83 58 84 59 85
REMARK SMILES IDX 64 86 60 87 61 88 63 89 65 90 62 91
REMARK H PARENT 82 53 56 64
REMARK Flexibility Score: inf
ROOT
ATOM      1  C   UNL A   1      35.599  21.398  24.925  1.00  0.00     0.188 C 
ENDROOT
BRANCH   1   2
ATOM      2  C   UNL A   1      34.384  20.597  25.362  1.00  0.00     0.188 C 
BRANCH   2   3
ATOM      3  O   UNL A   1      33.613  20.247  24.222  1.00  0.00    -0.376 OA
BRANCH   3   4
ATOM      4  C   UNL A   1      32.626  21.241  23.993  1.00  0.00     0.202 C 
BRANCH   4   5
ATOM      5  C   UNL A   1      31.865  21.505  25.282  1.00  0.00     0.261 C 
BRANCH   5   6
ATOM      6  O   UNL A   1      30.992  22.610  25.101  1.00  0.00    -0.460 OA
BRANCH   6   7
ATOM      7  C   UNL A   1      30.840  23.571  26.135  1.00  0.00     0.338 C 
ATOM      8  O   UNL A   1      30.558  23.195  27.315  1.00  0.00    -0.246 OA
BRANCH   7   9
ATOM      9  C   UNL A   1      31.014  25.050  25.830  1.00  0.00     0.087 C 
ATOM     10  C   UNL A   1      32.685  29.940  25.567  1.00  0.00     0.048 C 
ATOM     11  C   UNL A   1      31.524  29.125  25.021  1.00  0.00    -0.007 A 
ATOM     12  C   UNL A   1      30.695  29.722  24.098  1.00  0.00     0.031 A 
ATOM     13  C   UNL A   1      31.369  27.768  25.303  1.00  0.00     0.130 A 
ATOM     14  C   UNL A   1      29.707  28.989  23.452  1.00  0.00     0.108 A 
ATOM     15  C   UNL A   1      30.368  27.024  24.640  1.00  0.00     0.019 A 
ATOM     16  O   UNL A   1      32.220  27.073  26.278  1.00  0.00    -0.475 OA
ATOM     17  C   UNL A   1      29.542  27.657  23.708  1.00  0.00     0.036 A 
ATOM     18  C   UNL A   1      30.227  25.603  24.956  1.00  0.00     0.027 C 
ATOM     19  C   UNL A   1      32.011  25.759  26.501  1.00  0.00     0.316 C 
BRANCH  14  20
ATOM     20  S   UNL A   1      28.626  29.809  22.254  1.00  0.00     0.310 S 
ATOM     21  F   UNL A   1      29.137  31.248  22.682  1.00  0.00    -0.094 F 
ATOM     22  F   UNL A   1      27.532  29.938  23.380  1.00  0.00    -0.094 F 
ATOM     23  F   UNL A   1      27.694  30.513  21.227  1.00  0.00    -0.094 F 
ATOM     24  F   UNL A   1      29.785  29.797  21.180  1.00  0.00    -0.094 F 
ATOM     25  F   UNL A   1      29.624  29.196  23.316  1.00  0.00    -0.094 F 
ENDBRANCH  14  20
BRANCH  19  26
ATOM     26  C   UNL A   1      33.280  25.132  25.946  1.00  0.00     0.430 C 
ATOM     27  F   UNL A   1      34.255  26.038  25.938  1.00  0.00    -0.167 F 
ATOM     28  F   UNL A   1      33.638  24.104  26.710  1.00  0.00    -0.167 F 
ATOM     29  F   UNL A   1      33.059  24.706  24.706  1.00  0.00    -0.167 F 
ENDBRANCH  19  26
ENDBRANCH   7   9
ENDBRANCH   6   7
ENDBRANCH   5   6
ENDBRANCH   4   5
ENDBRANCH   3   4
ENDBRANCH   2   3
ENDBRANCH   1   2
BRANCH   1  30
ATOM     30  O   UNL A   1      36.706  21.069  25.751  1.00  0.00    -0.376 OA
BRANCH  30  31
ATOM     31  C   UNL A   1      37.904  21.149  24.992  1.00  0.00     0.202 C 
BRANCH  31  32
ATOM     32  C   UNL A   1      38.462  19.751  24.779  1.00  0.00     0.261 C 
BRANCH  32  33
ATOM     33  O   UNL A   1      39.228  19.368  25.912  1.00  0.00    -0.460 OA
BRANCH  33  34
ATOM     34  C   UNL A   1      40.614  19.674  25.967  1.00  0.00     0.338 C 
ATOM     35  O   UNL A   1      41.470  18.821  25.572  1.00  0.00    -0.246 OA
BRANCH  34  36
ATOM     36  C   UNL A   1      41.074  21.022  26.496  1.00  0.00     0.060 A 
ATOM     37  C   UNL A   1      40.759  21.372  27.804  1.00  0.00     0.016 A 
ATOM     38  C   UNL A   1      41.754  21.881  25.766  1.00  0.00     0.016 A 
ATOM     39  C   UNL A   1      41.582  22.345  28.415  1.00  0.00     0.010 A 
ATOM     40  C   UNL A   1      42.139  23.119  26.291  1.00  0.00     0.010 A 
ATOM     41  C   UNL A   1      42.062  23.356  27.584  1.00  0.00    -0.014 A 
BRANCH  41  42
ATOM     42  C   UNL A   1      42.485  24.699  28.157  1.00  0.00     0.031 A 
ATOM     43  C   UNL A   1      41.463  25.632  28.348  1.00  0.00     0.074 A 
ATOM     44  C   UNL A   1      43.824  24.955  28.399  1.00  0.00     0.049 A 
ATOM     45  N   UNL A   1      41.577  26.877  28.812  1.00  0.00    -0.248 NA
ATOM     46  C   UNL A   1      40.046  25.373  28.060  1.00  0.00     0.031 C 
ATOM     47  C   UNL A   1      44.857  24.017  28.216  1.00  0.00     0.029 A 
ATOM     48  N   UNL A   1      44.392  26.127  28.846  1.00  0.00    -0.354 N 
ATOM     49  C   UNL A   1      40.376  27.458  28.874  1.00  0.00     0.074 A 
ATOM     50  C   UNL A   1      39.375  26.500  28.385  1.00  0.00     0.031 C 
ATOM     51  C   UNL A   1      46.033  24.617  28.537  1.00  0.00     0.029 A 
ATOM     52  C   UNL A   1      45.755  25.941  28.927  1.00  0.00     0.049 A 
ATOM     53  H   UNL A   1      43.908  26.955  29.071  1.00  0.00     0.167 HD
ATOM     54  C   UNL A   1      40.078  28.746  29.319  1.00  0.00     0.037 A 
ATOM     55  C   UNL A   1      46.715  26.861  29.315  1.00  0.00     0.037 A 
ATOM     56  C   UNL A   1      41.034  29.651  29.748  1.00  0.00     0.049 A 
ATOM     57  C   UNL A   1      46.422  28.170  29.706  1.00  0.00     0.074 A 
ATOM     58  C   UNL A   1      40.749  30.952  30.208  1.00  0.00     0.029 A 
ATOM     59  N   UNL A   1      42.399  29.474  29.807  1.00  0.00    -0.354 N 
ATOM     60  N   UNL A   1      45.218  28.736  29.804  1.00  0.00    -0.248 NA
ATOM     61  C   UNL A   1      47.434  29.164  30.087  1.00  0.00     0.031 C 
ATOM     62  C   UNL A   1      41.926  31.553  30.530  1.00  0.00     0.029 A 
ATOM     63  C   UNL A   1      42.965  30.638  30.276  1.00  0.00     0.049 A 
ATOM     64  H   UNL A   1      42.885  28.656  29.555  1.00  0.00     0.167 HD
ATOM     65  C   UNL A   1      45.336  29.996  30.229  1.00  0.00     0.074 A 
ATOM     66  C   UNL A   1      46.764  30.291  30.410  1.00  0.00     0.031 C 
ATOM     67  C   UNL A   1      44.310  30.910  30.476  1.00  0.00     0.037 A 
BRANCH  54  68
ATOM     68  C   UNL A   1      38.621  29.179  29.337  1.00  0.00     0.057 A 
ATOM     69  C   UNL A   1      37.891  28.978  30.414  1.00  0.00     0.134 A 
ATOM     70  C   UNL A   1      38.081  29.819  28.216  1.00  0.00     0.134 A 
ATOM     71  F   UNL A   1      38.400  28.360  31.476  1.00  0.00    -0.206 F 
ATOM     72  C   UNL A   1      36.575  29.427  30.413  1.00  0.00     0.040 A 
ATOM     73  C   UNL A   1      36.933  30.457  28.293  1.00  0.00     0.040 A 
ATOM     74  F   UNL A   1      38.737  29.784  27.059  1.00  0.00    -0.206 F 
ATOM     75  C   UNL A   1      36.266  30.475  29.517  1.00  0.00     0.006 A 
ENDBRANCH  54  68
BRANCH  55  76
ATOM     76  C   UNL A   1      48.170  26.423  29.314  1.00  0.00     0.057 A 
ATOM     77  C   UNL A   1      48.700  25.887  30.393  1.00  0.00     0.134 A 
ATOM     78  C   UNL A   1      48.940  26.628  28.164  1.00  0.00     0.134 A 
ATOM     79  F   UNL A   1      47.971  25.699  31.489  1.00  0.00    -0.206 F 
ATOM     80  C   UNL A   1      50.042  25.521  30.358  1.00  0.00     0.040 A 
ATOM     81  C   UNL A   1      50.125  26.070  28.039  1.00  0.00     0.040 A 
ATOM     82  F   UNL A   1      48.469  27.397  27.186  1.00  0.00    -0.206 F 
ATOM     83  C   UNL A   1      50.595  25.273  29.082  1.00  0.00     0.006 A 
ENDBRANCH  55  76
BRANCH  67  84
ATOM     84  C   UNL A   1      44.690  32.286  30.998  1.00  0.00     0.057 A 
ATOM     85  C   UNL A   1      44.778  32.473  32.297  1.00  0.00     0.134 A 
ATOM     86  C   UNL A   1      44.940  33.335  30.106  1.00  0.00     0.134 A 
ATOM     87  F   UNL A   1      44.532  31.478  33.146  1.00  0.00    -0.206 F 
ATOM     88  C   UNL A   1      45.133  33.734  32.760  1.00  0.00     0.040 A 
ATOM     89  C   UNL A   1      45.507  34.448  30.518  1.00  0.00     0.040 A 
ATOM     90  F   UNL A   1      44.599  33.204  28.827  1.00  0.00    -0.206 F 
ATOM     91  C   UNL A   1      45.849  34.558  31.863  1.00  0.00     0.006 A 
ENDBRANCH  67  84
ENDBRANCH  41  42
ENDBRANCH  34  36
ENDBRANCH  33  34
ENDBRANCH  32  33
ENDBRANCH  31  32
ENDBRANCH  30  31
ENDBRANCH   1  30
TORSDOF 19
ENDMDL
