MODEL 1
REMARK VINA RESULT:     -10.7      0.000      0.000
REMARK SMILES C[N@@H+](Cc1ncccc1C(=O)OCCOCCOCCOC(=O)c1ccc(-c2c3nc(c(-c4c(F)cccc4F)c4ccc([nH]4)c(-c4c(F)cccc4F)c4nc(c(-c5c(F)cccc5F)c5ccc2[nH]5)C=C4)C=C3)cc1)C[C@@H]1CCN(c2ccccc2)C1
REMARK SMILES IDX 15 1 14 2 13 3 12 4 10 5 11 6 9 7 4 8 5 9 6 10 8 11 7 12
REMARK SMILES IDX 3 13 2 14 1 15 78 17 79 18 80 19 89 20 81 21 82 22 83 23
REMARK SMILES IDX 84 24 88 25 85 26 87 27 86 28 16 29 17 30 18 31 19 32 20 33
REMARK SMILES IDX 21 34 22 35 23 36 24 37 25 38 77 39 26 40 76 41 27 42 28 43
REMARK SMILES IDX 29 44 70 45 30 46 75 47 69 48 71 49 31 50 74 51 68 52 67 53
REMARK SMILES IDX 32 55 58 56 41 57 57 58 42 59 45 60 56 61 72 62 43 63 44 64
REMARK SMILES IDX 55 66 73 67 46 68 33 69 34 70 39 71 35 72 36 73 38 74 40 75
REMARK SMILES IDX 37 76 59 77 60 78 65 79 61 80 62 81 64 82 66 83 63 84 47 85
REMARK SMILES IDX 48 86 53 87 49 88 50 89 52 90 54 91 51 92
REMARK H PARENT 2 16 71 54 45 65
REMARK Flexibility Score: inf
ROOT
ATOM      1  O   UNL A   1      32.415  28.156  26.077  1.00  0.00    -0.376 OA
ENDROOT
BRANCH   1   2
ATOM      2  C   UNL A   1      31.882  27.111  26.872  1.00  0.00     0.202 C 
BRANCH   2   3
ATOM      3  C   UNL A   1      30.886  26.035  26.396  1.00  0.00     0.261 C 
BRANCH   3   4
ATOM      4  O   UNL A   1      31.056  24.702  26.877  1.00  0.00    -0.460 OA
BRANCH   4   5
ATOM      5  C   UNL A   1      31.295  23.756  25.937  1.00  0.00     0.340 C 
ATOM      6  O   UNL A   1      30.571  23.481  24.991  1.00  0.00    -0.246 OA
BRANCH   5   7
ATOM      7  C   UNL A   1      32.611  23.129  26.169  1.00  0.00     0.087 A 
ATOM      8  C   UNL A   1      33.571  23.039  25.152  1.00  0.00     0.109 A 
ATOM      9  N   UNL A   1      34.666  22.251  25.309  1.00  0.00    -0.254 NA
ATOM     10  C   UNL A   1      34.918  21.725  26.528  1.00  0.00     0.111 A 
ATOM     11  C   UNL A   1      32.915  22.601  27.433  1.00  0.00     0.019 A 
ATOM     12  C   UNL A   1      34.111  21.924  27.627  1.00  0.00     0.021 A 
BRANCH   8  13
ATOM     13  C   UNL A   1      33.578  24.048  23.993  1.00  0.00     0.320 C 
BRANCH  13  14
ATOM     14  N   UNL A   1      32.775  23.801  22.782  1.00  0.00    -0.332 N 
ATOM     15  C   UNL A   1      32.570  22.402  22.475  1.00  0.00     0.333 C 
ATOM     16  H   UNL A   1      31.858  24.123  23.091  1.00  0.00     0.348 HD
BRANCH  14  17
ATOM     17  C   UNL A   1      32.905  24.719  21.648  1.00  0.00     0.267 C 
BRANCH  17  18
ATOM     18  C   UNL A   1      32.320  26.136  21.715  1.00  0.00     0.065 C 
ATOM     19  C   UNL A   1      33.367  27.222  22.018  1.00  0.00     0.032 C 
ATOM     20  C   UNL A   1      31.270  26.359  22.810  1.00  0.00     0.126 C 
ATOM     21  C   UNL A   1      32.609  28.338  22.747  1.00  0.00     0.117 C 
ATOM     22  N   UNL A   1      31.260  27.820  22.934  1.00  0.00    -0.371 N 
BRANCH  22  23
ATOM     23  C   UNL A   1      30.110  28.542  22.695  1.00  0.00     0.037 A 
ATOM     24  C   UNL A   1      30.165  29.752  21.987  1.00  0.00     0.026 A 
ATOM     25  C   UNL A   1      28.845  28.133  23.146  1.00  0.00     0.026 A 
ATOM     26  C   UNL A   1      29.015  30.508  21.725  1.00  0.00     0.002 A 
ATOM     27  C   UNL A   1      27.691  28.888  22.900  1.00  0.00     0.002 A 
ATOM     28  C   UNL A   1      27.775  30.075  22.182  1.00  0.00     0.000 A 
ENDBRANCH  22  23
ENDBRANCH  17  18
ENDBRANCH  14  17
ENDBRANCH  13  14
ENDBRANCH   8  13
ENDBRANCH   5   7
ENDBRANCH   4   5
ENDBRANCH   3   4
ENDBRANCH   2   3
ENDBRANCH   1   2
BRANCH   1  29
ATOM     29  C   UNL A   1      33.533  28.889  26.518  1.00  0.00     0.188 C 
BRANCH  29  30
ATOM     30  C   UNL A   1      33.285  30.399  26.729  1.00  0.00     0.188 C 
BRANCH  30  31
ATOM     31  O   UNL A   1      32.007  30.861  27.125  1.00  0.00    -0.376 OA
BRANCH  31  32
ATOM     32  C   UNL A   1      31.471  32.035  26.533  1.00  0.00     0.202 C 
BRANCH  32  33
ATOM     33  C   UNL A   1      32.031  33.450  26.795  1.00  0.00     0.261 C 
BRANCH  33  34
ATOM     34  O   UNL A   1      32.267  33.827  28.159  1.00  0.00    -0.460 OA
BRANCH  34  35
ATOM     35  C   UNL A   1      33.368  34.586  28.375  1.00  0.00     0.338 C 
ATOM     36  O   UNL A   1      33.426  35.801  28.446  1.00  0.00    -0.246 OA
BRANCH  35  37
ATOM     37  C   UNL A   1      34.507  33.710  28.718  1.00  0.00     0.060 A 
ATOM     38  C   UNL A   1      34.245  32.532  29.429  1.00  0.00     0.016 A 
ATOM     39  C   UNL A   1      35.818  34.065  28.397  1.00  0.00     0.016 A 
ATOM     40  C   UNL A   1      35.296  31.713  29.837  1.00  0.00     0.010 A 
ATOM     41  C   UNL A   1      36.873  33.251  28.827  1.00  0.00     0.010 A 
ATOM     42  C   UNL A   1      36.619  32.082  29.566  1.00  0.00    -0.014 A 
BRANCH  42  43
ATOM     43  C   UNL A   1      37.726  31.334  30.210  1.00  0.00     0.031 A 
ATOM     44  C   UNL A   1      38.062  31.636  31.644  1.00  0.00     0.074 A 
ATOM     45  C   UNL A   1      38.396  30.369  29.556  1.00  0.00     0.049 A 
ATOM     46  N   UNL A   1      39.011  31.145  32.398  1.00  0.00    -0.248 NA
ATOM     47  C   UNL A   1      37.201  32.621  32.319  1.00  0.00     0.031 C 
ATOM     48  C   UNL A   1      38.120  29.922  28.192  1.00  0.00     0.029 A 
ATOM     49  N   UNL A   1      39.457  29.595  29.959  1.00  0.00    -0.354 N 
ATOM     50  C   UNL A   1      38.865  31.762  33.635  1.00  0.00     0.074 A 
ATOM     51  C   UNL A   1      37.753  32.682  33.520  1.00  0.00     0.031 C 
ATOM     52  C   UNL A   1      39.007  28.967  27.862  1.00  0.00     0.029 A 
ATOM     53  C   UNL A   1      39.932  28.761  28.976  1.00  0.00     0.049 A 
ATOM     54  H   UNL A   1      39.839  29.634  30.864  1.00  0.00     0.167 HD
ATOM     55  C   UNL A   1      39.587  31.575  34.765  1.00  0.00     0.037 A 
ATOM     56  C   UNL A   1      41.008  27.949  28.968  1.00  0.00     0.037 A 
ATOM     57  C   UNL A   1      40.705  30.676  34.875  1.00  0.00     0.049 A 
ATOM     58  C   UNL A   1      41.870  27.844  30.202  1.00  0.00     0.074 A 
ATOM     59  C   UNL A   1      41.505  30.424  35.976  1.00  0.00     0.029 A 
ATOM     60  N   UNL A   1      41.193  29.891  33.839  1.00  0.00    -0.354 N 
ATOM     61  N   UNL A   1      41.724  28.424  31.368  1.00  0.00    -0.248 NA
ATOM     62  C   UNL A   1      43.047  26.966  30.116  1.00  0.00     0.031 C 
ATOM     63  C   UNL A   1      42.514  29.536  35.590  1.00  0.00     0.029 A 
ATOM     64  C   UNL A   1      42.302  29.179  34.268  1.00  0.00     0.049 A 
ATOM     65  H   UNL A   1      40.808  29.846  32.935  1.00  0.00     0.167 HD
ATOM     66  C   UNL A   1      42.766  27.959  32.162  1.00  0.00     0.074 A 
ATOM     67  C   UNL A   1      43.532  27.039  31.347  1.00  0.00     0.031 C 
ATOM     68  C   UNL A   1      43.058  28.261  33.452  1.00  0.00     0.037 A 
BRANCH  55  69
ATOM     69  C   UNL A   1      39.212  32.402  35.961  1.00  0.00     0.057 A 
ATOM     70  C   UNL A   1      38.335  31.931  36.946  1.00  0.00     0.134 A 
ATOM     71  C   UNL A   1      39.740  33.688  36.129  1.00  0.00     0.134 A 
ATOM     72  F   UNL A   1      37.780  30.714  36.838  1.00  0.00    -0.206 F 
ATOM     73  C   UNL A   1      37.971  32.722  38.039  1.00  0.00     0.040 A 
ATOM     74  C   UNL A   1      39.409  34.477  37.233  1.00  0.00     0.040 A 
ATOM     75  F   UNL A   1      40.589  34.200  35.226  1.00  0.00    -0.206 F 
ATOM     76  C   UNL A   1      38.513  33.996  38.186  1.00  0.00     0.006 A 
ENDBRANCH  55  69
BRANCH  56  77
ATOM     77  C   UNL A   1      41.357  27.190  27.740  1.00  0.00     0.057 A 
ATOM     78  C   UNL A   1      42.226  27.716  26.778  1.00  0.00     0.134 A 
ATOM     79  C   UNL A   1      40.802  25.928  27.485  1.00  0.00     0.134 A 
ATOM     80  F   UNL A   1      42.767  28.932  26.950  1.00  0.00    -0.206 F 
ATOM     81  C   UNL A   1      42.520  27.026  25.600  1.00  0.00     0.040 A 
ATOM     82  C   UNL A   1      41.109  25.215  26.325  1.00  0.00     0.040 A 
ATOM     83  F   UNL A   1      39.956  25.370  28.362  1.00  0.00    -0.206 F 
ATOM     84  C   UNL A   1      41.964  25.768  25.375  1.00  0.00     0.006 A 
ENDBRANCH  56  77
BRANCH  68  85
ATOM     85  C   UNL A   1      44.230  27.562  34.084  1.00  0.00     0.057 A 
ATOM     86  C   UNL A   1      45.510  28.128  34.113  1.00  0.00     0.134 A 
ATOM     87  C   UNL A   1      44.060  26.322  34.717  1.00  0.00     0.134 A 
ATOM     88  F   UNL A   1      45.747  29.307  33.518  1.00  0.00    -0.206 F 
ATOM     89  C   UNL A   1      46.584  27.477  34.726  1.00  0.00     0.040 A 
ATOM     90  C   UNL A   1      45.118  25.677  35.359  1.00  0.00     0.040 A 
ATOM     91  F   UNL A   1      42.858  25.727  34.738  1.00  0.00    -0.206 F 
ATOM     92  C   UNL A   1      46.386  26.250  35.359  1.00  0.00     0.006 A 
ENDBRANCH  68  85
ENDBRANCH  42  43
ENDBRANCH  35  37
ENDBRANCH  34  35
ENDBRANCH  33  34
ENDBRANCH  32  33
ENDBRANCH  31  32
ENDBRANCH  30  31
ENDBRANCH  29  30
ENDBRANCH   1  29
TORSDOF 22
ENDMDL
MODEL 2
REMARK VINA RESULT:     -10.5      3.797      7.168
REMARK SMILES C[N@@H+](Cc1ncccc1C(=O)OCCOCCOCCOC(=O)c1ccc(-c2c3nc(c(-c4c(F)cccc4F)c4ccc([nH]4)c(-c4c(F)cccc4F)c4nc(c(-c5c(F)cccc5F)c5ccc2[nH]5)C=C4)C=C3)cc1)C[C@@H]1CCN(c2ccccc2)C1
REMARK SMILES IDX 15 1 14 2 13 3 12 4 10 5 11 6 9 7 4 8 5 9 6 10 8 11 7 12
REMARK SMILES IDX 3 13 2 14 1 15 78 17 79 18 80 19 89 20 81 21 82 22 83 23
REMARK SMILES IDX 84 24 88 25 85 26 87 27 86 28 16 29 17 30 18 31 19 32 20 33
REMARK SMILES IDX 21 34 22 35 23 36 24 37 25 38 77 39 26 40 76 41 27 42 28 43
REMARK SMILES IDX 29 44 70 45 30 46 75 47 69 48 71 49 31 50 74 51 68 52 67 53
REMARK SMILES IDX 32 55 58 56 41 57 57 58 42 59 45 60 56 61 72 62 43 63 44 64
REMARK SMILES IDX 55 66 73 67 46 68 33 69 34 70 39 71 35 72 36 73 38 74 40 75
REMARK SMILES IDX 37 76 59 77 60 78 65 79 61 80 62 81 64 82 66 83 63 84 47 85
REMARK SMILES IDX 48 86 53 87 49 88 50 89 52 90 54 91 51 92
REMARK H PARENT 2 16 71 54 45 65
REMARK Flexibility Score: inf
ROOT
ATOM      1  O   UNL A   1      34.064  31.723  27.328  1.00  0.00    -0.376 OA
ENDROOT
BRANCH   1   2
ATOM      2  C   UNL A   1      33.244  30.579  27.165  1.00  0.00     0.202 C 
BRANCH   2   3
ATOM      3  C   UNL A   1      31.836  30.561  26.536  1.00  0.00     0.261 C 
BRANCH   3   4
ATOM      4  O   UNL A   1      31.407  29.367  25.882  1.00  0.00    -0.460 OA
BRANCH   4   5
ATOM      5  C   UNL A   1      31.568  29.334  24.538  1.00  0.00     0.340 C 
ATOM      6  O   UNL A   1      32.611  29.104  23.941  1.00  0.00    -0.246 OA
BRANCH   5   7
ATOM      7  C   UNL A   1      30.272  29.551  23.865  1.00  0.00     0.087 A 
ATOM      8  C   UNL A   1      29.601  28.508  23.211  1.00  0.00     0.109 A 
ATOM      9  N   UNL A   1      28.547  28.774  22.397  1.00  0.00    -0.254 NA
ATOM     10  C   UNL A   1      28.029  30.023  22.391  1.00  0.00     0.111 A 
ATOM     11  C   UNL A   1      29.695  30.829  23.867  1.00  0.00     0.019 A 
ATOM     12  C   UNL A   1      28.527  31.058  23.152  1.00  0.00     0.021 A 
BRANCH   8  13
ATOM     13  C   UNL A   1      29.825  27.048  23.634  1.00  0.00     0.320 C 
BRANCH  13  14
ATOM     14  N   UNL A   1      30.986  26.294  23.129  1.00  0.00    -0.332 N 
ATOM     15  C   UNL A   1      31.431  26.692  21.811  1.00  0.00     0.333 C 
ATOM     16  H   UNL A   1      31.721  26.634  23.751  1.00  0.00     0.348 HD
BRANCH  14  17
ATOM     17  C   UNL A   1      31.113  24.876  23.474  1.00  0.00     0.267 C 
BRANCH  17  18
ATOM     18  C   UNL A   1      32.394  24.339  24.128  1.00  0.00     0.065 C 
ATOM     19  C   UNL A   1      33.218  25.418  24.850  1.00  0.00     0.032 C 
ATOM     20  C   UNL A   1      33.411  23.722  23.161  1.00  0.00     0.126 C 
ATOM     21  C   UNL A   1      34.675  24.946  24.779  1.00  0.00     0.117 C 
ATOM     22  N   UNL A   1      34.643  23.744  23.955  1.00  0.00    -0.371 N 
BRANCH  22  23
ATOM     23  C   UNL A   1      35.310  22.576  24.259  1.00  0.00     0.037 A 
ATOM     24  C   UNL A   1      34.597  21.426  24.630  1.00  0.00     0.026 A 
ATOM     25  C   UNL A   1      36.709  22.469  24.233  1.00  0.00     0.026 A 
ATOM     26  C   UNL A   1      35.244  20.223  24.941  1.00  0.00     0.002 A 
ATOM     27  C   UNL A   1      37.367  21.274  24.554  1.00  0.00     0.002 A 
ATOM     28  C   UNL A   1      36.632  20.146  24.903  1.00  0.00     0.000 A 
ENDBRANCH  22  23
ENDBRANCH  17  18
ENDBRANCH  14  17
ENDBRANCH  13  14
ENDBRANCH   8  13
ENDBRANCH   5   7
ENDBRANCH   4   5
ENDBRANCH   3   4
ENDBRANCH   2   3
ENDBRANCH   1   2
BRANCH   1  29
ATOM     29  C   UNL A   1      34.364  32.211  28.613  1.00  0.00     0.188 C 
BRANCH  29  30
ATOM     30  C   UNL A   1      34.218  33.738  28.787  1.00  0.00     0.188 C 
BRANCH  30  31
ATOM     31  O   UNL A   1      33.356  34.261  29.780  1.00  0.00    -0.376 OA
BRANCH  31  32
ATOM     32  C   UNL A   1      33.906  34.835  30.957  1.00  0.00     0.202 C 
BRANCH  32  33
ATOM     33  C   UNL A   1      35.139  34.257  31.686  1.00  0.00     0.261 C 
BRANCH  33  34
ATOM     34  O   UNL A   1      35.157  32.846  31.939  1.00  0.00    -0.460 OA
BRANCH  34  35
ATOM     35  C   UNL A   1      36.126  32.413  32.782  1.00  0.00     0.338 C 
ATOM     36  O   UNL A   1      36.132  32.477  33.999  1.00  0.00    -0.246 OA
BRANCH  35  37
ATOM     37  C   UNL A   1      37.134  31.651  32.017  1.00  0.00     0.060 A 
ATOM     38  C   UNL A   1      38.135  30.978  32.730  1.00  0.00     0.016 A 
ATOM     39  C   UNL A   1      37.133  31.641  30.622  1.00  0.00     0.016 A 
ATOM     40  C   UNL A   1      39.149  30.308  32.049  1.00  0.00     0.010 A 
ATOM     41  C   UNL A   1      38.165  30.985  29.940  1.00  0.00     0.010 A 
ATOM     42  C   UNL A   1      39.189  30.331  30.650  1.00  0.00    -0.014 A 
BRANCH  42  43
ATOM     43  C   UNL A   1      40.395  29.825  29.951  1.00  0.00     0.031 A 
ATOM     44  C   UNL A   1      41.545  30.765  29.724  1.00  0.00     0.074 A 
ATOM     45  C   UNL A   1      40.494  28.541  29.563  1.00  0.00     0.049 A 
ATOM     46  N   UNL A   1      42.677  30.562  29.100  1.00  0.00    -0.248 NA
ATOM     47  C   UNL A   1      41.399  32.117  30.286  1.00  0.00     0.031 C 
ATOM     48  C   UNL A   1      39.487  27.507  29.792  1.00  0.00     0.029 A 
ATOM     49  N   UNL A   1      41.497  27.894  28.884  1.00  0.00    -0.354 N 
ATOM     50  C   UNL A   1      43.377  31.758  29.192  1.00  0.00     0.074 A 
ATOM     51  C   UNL A   1      42.530  32.690  29.907  1.00  0.00     0.031 C 
ATOM     52  C   UNL A   1      39.915  26.357  29.240  1.00  0.00     0.029 A 
ATOM     53  C   UNL A   1      41.206  26.584  28.592  1.00  0.00     0.049 A 
ATOM     54  H   UNL A   1      42.344  28.327  28.633  1.00  0.00     0.167 HD
ATOM     55  C   UNL A   1      44.614  32.053  28.728  1.00  0.00     0.037 A 
ATOM     56  C   UNL A   1      41.888  25.683  27.858  1.00  0.00     0.037 A 
ATOM     57  C   UNL A   1      45.448  31.134  28.000  1.00  0.00     0.049 A 
ATOM     58  C   UNL A   1      43.214  26.069  27.249  1.00  0.00     0.074 A 
ATOM     59  C   UNL A   1      46.715  31.343  27.481  1.00  0.00     0.029 A 
ATOM     60  N   UNL A   1      45.093  29.834  27.671  1.00  0.00    -0.354 N 
ATOM     61  N   UNL A   1      43.873  27.199  27.344  1.00  0.00    -0.248 NA
ATOM     62  C   UNL A   1      43.891  25.050  26.433  1.00  0.00     0.031 C 
ATOM     63  C   UNL A   1      47.099  30.192  26.786  1.00  0.00     0.029 A 
ATOM     64  C   UNL A   1      46.103  29.240  26.930  1.00  0.00     0.049 A 
ATOM     65  H   UNL A   1      44.250  29.396  27.928  1.00  0.00     0.167 HD
ATOM     66  C   UNL A   1      45.052  27.017  26.630  1.00  0.00     0.074 A 
ATOM     67  C   UNL A   1      45.023  25.663  26.117  1.00  0.00     0.031 C 
ATOM     68  C   UNL A   1      46.070  27.890  26.426  1.00  0.00     0.037 A 
BRANCH  55  69
ATOM     69  C   UNL A   1      45.116  33.450  28.958  1.00  0.00     0.057 A 
ATOM     70  C   UNL A   1      45.990  33.763  30.006  1.00  0.00     0.134 A 
ATOM     71  C   UNL A   1      44.721  34.494  28.113  1.00  0.00     0.134 A 
ATOM     72  F   UNL A   1      46.395  32.813  30.863  1.00  0.00    -0.206 F 
ATOM     73  C   UNL A   1      46.426  35.072  30.227  1.00  0.00     0.040 A 
ATOM     74  C   UNL A   1      45.174  35.801  28.304  1.00  0.00     0.040 A 
ATOM     75  F   UNL A   1      43.889  34.264  27.087  1.00  0.00    -0.206 F 
ATOM     76  C   UNL A   1      46.022  36.094  29.370  1.00  0.00     0.006 A 
ENDBRANCH  55  69
BRANCH  56  77
ATOM     77  C   UNL A   1      41.321  24.329  27.625  1.00  0.00     0.057 A 
ATOM     78  C   UNL A   1      40.272  24.122  26.723  1.00  0.00     0.134 A 
ATOM     79  C   UNL A   1      41.795  23.213  28.328  1.00  0.00     0.134 A 
ATOM     80  F   UNL A   1      39.754  25.156  26.042  1.00  0.00    -0.206 F 
ATOM     81  C   UNL A   1      39.704  22.860  26.537  1.00  0.00     0.040 A 
ATOM     82  C   UNL A   1      41.255  21.941  28.131  1.00  0.00     0.040 A 
ATOM     83  F   UNL A   1      42.793  23.344  29.214  1.00  0.00    -0.206 F 
ATOM     84  C   UNL A   1      40.201  21.764  27.238  1.00  0.00     0.006 A 
ENDBRANCH  56  77
BRANCH  68  85
ATOM     85  C   UNL A   1      47.261  27.402  25.648  1.00  0.00     0.057 A 
ATOM     86  C   UNL A   1      47.405  27.639  24.275  1.00  0.00     0.134 A 
ATOM     87  C   UNL A   1      48.304  26.725  26.297  1.00  0.00     0.134 A 
ATOM     88  F   UNL A   1      46.441  28.272  23.589  1.00  0.00    -0.206 F 
ATOM     89  C   UNL A   1      48.530  27.201  23.572  1.00  0.00     0.040 A 
ATOM     90  C   UNL A   1      49.446  26.310  25.611  1.00  0.00     0.040 A 
ATOM     91  F   UNL A   1      48.238  26.474  27.613  1.00  0.00    -0.206 F 
ATOM     92  C   UNL A   1      49.559  26.541  24.243  1.00  0.00     0.006 A 
ENDBRANCH  68  85
ENDBRANCH  42  43
ENDBRANCH  35  37
ENDBRANCH  34  35
ENDBRANCH  33  34
ENDBRANCH  32  33
ENDBRANCH  31  32
ENDBRANCH  30  31
ENDBRANCH  29  30
ENDBRANCH   1  29
TORSDOF 22
ENDMDL
MODEL 3
REMARK VINA RESULT:     -10.4      3.121      7.731
REMARK SMILES C[N@@H+](Cc1ncccc1C(=O)OCCOCCOCCOC(=O)c1ccc(-c2c3nc(c(-c4c(F)cccc4F)c4ccc([nH]4)c(-c4c(F)cccc4F)c4nc(c(-c5c(F)cccc5F)c5ccc2[nH]5)C=C4)C=C3)cc1)C[C@@H]1CCN(c2ccccc2)C1
REMARK SMILES IDX 15 1 14 2 13 3 12 4 10 5 11 6 9 7 4 8 5 9 6 10 8 11 7 12
REMARK SMILES IDX 3 13 2 14 1 15 78 17 79 18 80 19 89 20 81 21 82 22 83 23
REMARK SMILES IDX 84 24 88 25 85 26 87 27 86 28 16 29 17 30 18 31 19 32 20 33
REMARK SMILES IDX 21 34 22 35 23 36 24 37 25 38 77 39 26 40 76 41 27 42 28 43
REMARK SMILES IDX 29 44 70 45 30 46 75 47 69 48 71 49 31 50 74 51 68 52 67 53
REMARK SMILES IDX 32 55 58 56 41 57 57 58 42 59 45 60 56 61 72 62 43 63 44 64
REMARK SMILES IDX 55 66 73 67 46 68 33 69 34 70 39 71 35 72 36 73 38 74 40 75
REMARK SMILES IDX 37 76 59 77 60 78 65 79 61 80 62 81 64 82 66 83 63 84 47 85
REMARK SMILES IDX 48 86 53 87 49 88 50 89 52 90 54 91 51 92
REMARK H PARENT 2 16 71 54 45 65
REMARK Flexibility Score: inf
ROOT
ATOM      1  O   UNL A   1      37.847  23.488  26.305  1.00  0.00    -0.376 OA
ENDROOT
BRANCH   1   2
ATOM      2  C   UNL A   1      37.356  23.701  24.992  1.00  0.00     0.202 C 
BRANCH   2   3
ATOM      3  C   UNL A   1      36.268  22.865  24.289  1.00  0.00     0.261 C 
BRANCH   3   4
ATOM      4  O   UNL A   1      36.162  21.481  24.625  1.00  0.00    -0.460 OA
BRANCH   4   5
ATOM      5  C   UNL A   1      35.226  21.164  25.550  1.00  0.00     0.340 C 
ATOM      6  O   UNL A   1      35.131  21.640  26.673  1.00  0.00    -0.246 OA
BRANCH   5   7
ATOM      7  C   UNL A   1      34.265  20.193  24.991  1.00  0.00     0.087 A 
ATOM      8  C   UNL A   1      32.906  20.503  24.849  1.00  0.00     0.109 A 
ATOM      9  N   UNL A   1      32.005  19.526  24.567  1.00  0.00    -0.254 NA
ATOM     10  C   UNL A   1      32.460  18.302  24.223  1.00  0.00     0.111 A 
ATOM     11  C   UNL A   1      34.713  18.924  24.596  1.00  0.00     0.019 A 
ATOM     12  C   UNL A   1      33.797  17.974  24.162  1.00  0.00     0.021 A 
BRANCH   8  13
ATOM     13  C   UNL A   1      32.449  21.961  24.694  1.00  0.00     0.320 C 
BRANCH  13  14
ATOM     14  N   UNL A   1      32.041  22.480  23.376  1.00  0.00    -0.332 N 
ATOM     15  C   UNL A   1      33.134  22.700  22.454  1.00  0.00     0.333 C 
ATOM     16  H   UNL A   1      31.554  21.670  22.993  1.00  0.00     0.348 HD
BRANCH  14  17
ATOM     17  C   UNL A   1      30.911  23.409  23.300  1.00  0.00     0.267 C 
BRANCH  17  18
ATOM     18  C   UNL A   1      31.107  24.908  23.563  1.00  0.00     0.065 C 
ATOM     19  C   UNL A   1      31.528  25.704  22.315  1.00  0.00     0.032 C 
ATOM     20  C   UNL A   1      32.205  25.255  24.576  1.00  0.00     0.126 C 
ATOM     21  C   UNL A   1      32.352  26.887  22.835  1.00  0.00     0.117 C 
ATOM     22  N   UNL A   1      32.471  26.664  24.271  1.00  0.00    -0.371 N 
BRANCH  22  23
ATOM     23  C   UNL A   1      32.288  27.642  25.226  1.00  0.00     0.037 A 
ATOM     24  C   UNL A   1      32.596  28.981  24.942  1.00  0.00     0.026 A 
ATOM     25  C   UNL A   1      31.810  27.366  26.516  1.00  0.00     0.026 A 
ATOM     26  C   UNL A   1      32.420  29.998  25.889  1.00  0.00     0.002 A 
ATOM     27  C   UNL A   1      31.641  28.373  27.475  1.00  0.00     0.002 A 
ATOM     28  C   UNL A   1      31.940  29.693  27.159  1.00  0.00     0.000 A 
ENDBRANCH  22  23
ENDBRANCH  17  18
ENDBRANCH  14  17
ENDBRANCH  13  14
ENDBRANCH   8  13
ENDBRANCH   5   7
ENDBRANCH   4   5
ENDBRANCH   3   4
ENDBRANCH   2   3
ENDBRANCH   1   2
BRANCH   1  29
ATOM     29  C   UNL A   1      39.217  23.256  26.526  1.00  0.00     0.188 C 
BRANCH  29  30
ATOM     30  C   UNL A   1      39.660  21.782  26.406  1.00  0.00     0.188 C 
BRANCH  30  31
ATOM     31  O   UNL A   1      40.866  21.351  27.008  1.00  0.00    -0.376 OA
BRANCH  31  32
ATOM     32  C   UNL A   1      41.882  20.767  26.205  1.00  0.00     0.202 C 
BRANCH  32  33
ATOM     33  C   UNL A   1      43.036  21.577  25.573  1.00  0.00     0.261 C 
BRANCH  33  34
ATOM     34  O   UNL A   1      43.731  22.505  26.417  1.00  0.00    -0.460 OA
BRANCH  34  35
ATOM     35  C   UNL A   1      43.916  23.744  25.898  1.00  0.00     0.338 C 
ATOM     36  O   UNL A   1      44.414  24.029  24.823  1.00  0.00    -0.246 OA
BRANCH  35  37
ATOM     37  C   UNL A   1      43.237  24.738  26.753  1.00  0.00     0.060 A 
ATOM     38  C   UNL A   1      43.714  26.055  26.744  1.00  0.00     0.016 A 
ATOM     39  C   UNL A   1      42.185  24.375  27.595  1.00  0.00     0.016 A 
ATOM     40  C   UNL A   1      43.152  27.010  27.589  1.00  0.00     0.010 A 
ATOM     41  C   UNL A   1      41.636  25.331  28.459  1.00  0.00     0.010 A 
ATOM     42  C   UNL A   1      42.130  26.648  28.474  1.00  0.00    -0.014 A 
BRANCH  42  43
ATOM     43  C   UNL A   1      41.712  27.604  29.528  1.00  0.00     0.031 A 
ATOM     44  C   UNL A   1      42.453  27.607  30.835  1.00  0.00     0.074 A 
ATOM     45  C   UNL A   1      40.723  28.492  29.318  1.00  0.00     0.049 A 
ATOM     46  N   UNL A   1      42.239  28.317  31.913  1.00  0.00    -0.248 NA
ATOM     47  C   UNL A   1      43.596  26.686  30.935  1.00  0.00     0.031 C 
ATOM     48  C   UNL A   1      39.978  28.650  28.071  1.00  0.00     0.029 A 
ATOM     49  N   UNL A   1      40.174  29.425  30.162  1.00  0.00    -0.354 N 
ATOM     50  C   UNL A   1      43.217  27.928  32.819  1.00  0.00     0.074 A 
ATOM     51  C   UNL A   1      44.007  26.900  32.174  1.00  0.00     0.031 C 
ATOM     52  C   UNL A   1      39.050  29.609  28.240  1.00  0.00     0.029 A 
ATOM     53  C   UNL A   1      39.114  30.105  29.614  1.00  0.00     0.049 A 
ATOM     54  H   UNL A   1      40.508  29.591  31.072  1.00  0.00     0.167 HD
ATOM     55  C   UNL A   1      43.441  28.389  34.072  1.00  0.00     0.037 A 
ATOM     56  C   UNL A   1      38.273  31.001  30.169  1.00  0.00     0.037 A 
ATOM     57  C   UNL A   1      42.645  29.396  34.722  1.00  0.00     0.049 A 
ATOM     58  C   UNL A   1      38.469  31.414  31.607  1.00  0.00     0.074 A 
ATOM     59  C   UNL A   1      42.789  29.923  35.993  1.00  0.00     0.029 A 
ATOM     60  N   UNL A   1      41.542  30.019  34.155  1.00  0.00    -0.354 N 
ATOM     61  N   UNL A   1      39.399  31.048  32.456  1.00  0.00    -0.248 NA
ATOM     62  C   UNL A   1      37.498  32.370  32.160  1.00  0.00     0.031 C 
ATOM     63  C   UNL A   1      41.737  30.818  36.219  1.00  0.00     0.029 A 
ATOM     64  C   UNL A   1      40.978  30.901  35.063  1.00  0.00     0.049 A 
ATOM     65  H   UNL A   1      41.210  29.860  33.242  1.00  0.00     0.167 HD
ATOM     66  C   UNL A   1      39.145  31.750  33.629  1.00  0.00     0.074 A 
ATOM     67  C   UNL A   1      37.979  32.573  33.378  1.00  0.00     0.031 C 
ATOM     68  C   UNL A   1      39.820  31.722  34.805  1.00  0.00     0.037 A 
BRANCH  55  69
ATOM     69  C   UNL A   1      44.573  27.765  34.838  1.00  0.00     0.057 A 
ATOM     70  C   UNL A   1      45.862  28.312  34.839  1.00  0.00     0.134 A 
ATOM     71  C   UNL A   1      44.365  26.602  35.589  1.00  0.00     0.134 A 
ATOM     72  F   UNL A   1      46.133  29.417  34.127  1.00  0.00    -0.206 F 
ATOM     73  C   UNL A   1      46.912  27.705  35.532  1.00  0.00     0.040 A 
ATOM     74  C   UNL A   1      45.399  26.003  36.311  1.00  0.00     0.040 A 
ATOM     75  F   UNL A   1      43.154  26.027  35.636  1.00  0.00    -0.206 F 
ATOM     76  C   UNL A   1      46.680  26.550  36.275  1.00  0.00     0.006 A 
ENDBRANCH  55  69
BRANCH  56  77
ATOM     77  C   UNL A   1      37.143  31.550  29.376  1.00  0.00     0.057 A 
ATOM     78  C   UNL A   1      37.192  32.838  28.831  1.00  0.00     0.134 A 
ATOM     79  C   UNL A   1      35.971  30.809  29.172  1.00  0.00     0.134 A 
ATOM     80  F   UNL A   1      38.274  33.609  29.017  1.00  0.00    -0.206 F 
ATOM     81  C   UNL A   1      36.113  33.376  28.126  1.00  0.00     0.040 A 
ATOM     82  C   UNL A   1      34.897  31.324  28.446  1.00  0.00     0.040 A 
ATOM     83  F   UNL A   1      35.856  29.571  29.675  1.00  0.00    -0.206 F 
ATOM     84  C   UNL A   1      34.964  32.615  27.926  1.00  0.00     0.006 A 
ENDBRANCH  56  77
BRANCH  68  85
ATOM     85  C   UNL A   1      39.348  32.634  35.903  1.00  0.00     0.057 A 
ATOM     86  C   UNL A   1      38.406  32.230  36.857  1.00  0.00     0.134 A 
ATOM     87  C   UNL A   1      39.885  33.924  36.034  1.00  0.00     0.134 A 
ATOM     88  F   UNL A   1      37.844  31.014  36.787  1.00  0.00    -0.206 F 
ATOM     89  C   UNL A   1      37.997  33.083  37.886  1.00  0.00     0.040 A 
ATOM     90  C   UNL A   1      39.506  34.772  37.076  1.00  0.00     0.040 A 
ATOM     91  F   UNL A   1      40.800  34.372  35.162  1.00  0.00    -0.206 F 
ATOM     92  C   UNL A   1      38.554  34.355  38.002  1.00  0.00     0.006 A 
ENDBRANCH  68  85
ENDBRANCH  42  43
ENDBRANCH  35  37
ENDBRANCH  34  35
ENDBRANCH  33  34
ENDBRANCH  32  33
ENDBRANCH  31  32
ENDBRANCH  30  31
ENDBRANCH  29  30
ENDBRANCH   1  29
TORSDOF 22
ENDMDL
