MODEL 1
REMARK VINA RESULT:     -11.0      0.000      0.000
REMARK SMILES C[N@H+]1Cc2ccccc2C[C@@H]1C(=O)NCCC(=O)NCC(=O)OCCOCCOCCOC(=O)c1ccc(-c2c3nc(c(-c4c(F)cccc4F)c4ccc([nH]4)c(-c4c(F)cccc4F)c4nc(c(-c5c(F)cccc5F)c5ccc2[nH]5)C=C4)C=C3)cc1
REMARK SMILES IDX 26 1 25 2 24 3 23 4 21 5 22 6 20 7 19 8 17 9 18 10 16 12
REMARK SMILES IDX 15 13 14 14 12 15 13 16 11 18 1 19 2 20 3 21 4 23 10 24 5 25
REMARK SMILES IDX 9 26 6 27 8 28 7 29 27 30 28 31 29 32 30 33 31 34 32 35
REMARK SMILES IDX 33 36 34 37 35 38 36 39 88 40 37 41 87 42 38 43 39 44 40 45
REMARK SMILES IDX 81 46 41 47 86 48 80 49 82 50 42 51 85 52 79 53 78 54 43 56
REMARK SMILES IDX 69 57 52 58 68 59 53 60 56 61 67 62 83 63 54 64 55 65 66 67
REMARK SMILES IDX 84 68 57 69 44 70 45 71 50 72 46 73 47 74 49 75 51 76 48 77
REMARK SMILES IDX 70 78 71 79 76 80 72 81 73 82 75 83 77 84 74 85 58 86 59 87
REMARK SMILES IDX 64 88 60 89 61 90 63 91 65 92 62 93
REMARK H PARENT 19 11 14 17 2 22 82 55 56 66
REMARK Flexibility Score: inf
ROOT
ATOM      1  O   UNL A   1      42.322  19.932  26.273  1.00  0.00    -0.376 OA
ENDROOT
BRANCH   1   2
ATOM      2  C   UNL A   1      40.907  19.906  26.394  1.00  0.00     0.202 C 
BRANCH   2   3
ATOM      3  C   UNL A   1      40.145  21.234  26.500  1.00  0.00     0.261 C 
BRANCH   3   4
ATOM      4  O   UNL A   1      38.913  21.308  25.750  1.00  0.00    -0.462 OA
BRANCH   4   5
ATOM      5  C   UNL A   1      38.117  22.401  25.959  1.00  0.00     0.325 C 
ATOM      6  O   UNL A   1      38.534  23.468  26.402  1.00  0.00    -0.250 OA
BRANCH   5   7
ATOM      7  C   UNL A   1      36.659  22.226  25.457  1.00  0.00     0.238 C 
BRANCH   7   8
ATOM      8  N   UNL A   1      35.572  21.869  26.373  1.00  0.00    -0.345 N 
ATOM      9  C   UNL A   1      34.314  21.432  26.134  1.00  0.00     0.222 C 
ATOM     10  O   UNL A   1      33.593  21.160  27.096  1.00  0.00    -0.275 OA
ATOM     11  H   UNL A   1      35.797  21.961  27.327  1.00  0.00     0.164 HD
BRANCH   9  12
ATOM     12  C   UNL A   1      33.803  21.300  24.732  1.00  0.00     0.121 C 
BRANCH  12  13
ATOM     13  C   UNL A   1      33.525  22.673  24.148  1.00  0.00     0.126 C 
BRANCH  13  14
ATOM     14  N   UNL A   1      32.156  23.160  24.264  1.00  0.00    -0.350 N 
ATOM     15  C   UNL A   1      31.834  24.172  25.141  1.00  0.00     0.278 C 
ATOM     16  O   UNL A   1      31.959  24.047  26.358  1.00  0.00    -0.268 OA
ATOM     17  H   UNL A   1      31.452  22.760  23.706  1.00  0.00     0.163 HD
BRANCH  15  18
ATOM     18  C   UNL A   1      31.512  25.531  24.550  1.00  0.00     0.278 C 
ATOM     19  C   UNL A   1      33.749  26.430  24.951  1.00  0.00     0.333 C 
ATOM     20  N   UNL A   1      32.307  26.684  25.041  1.00  0.00    -0.323 N 
ATOM     21  C   UNL A   1      31.979  27.844  24.154  1.00  0.00     0.299 C 
ATOM     22  H   UNL A   1      32.079  26.858  26.020  1.00  0.00     0.348 HD
ATOM     23  C   UNL A   1      30.504  28.006  23.809  1.00  0.00     0.010 A 
ATOM     24  C   UNL A   1      30.031  25.785  24.845  1.00  0.00     0.111 C 
ATOM     25  C   UNL A   1      30.066  29.116  23.078  1.00  0.00     0.010 A 
ATOM     26  C   UNL A   1      29.571  27.002  24.114  1.00  0.00    -0.033 A 
ATOM     27  C   UNL A   1      28.727  29.224  22.689  1.00  0.00     0.001 A 
ATOM     28  C   UNL A   1      28.226  27.124  23.750  1.00  0.00     0.004 A 
ATOM     29  C   UNL A   1      27.808  28.234  23.029  1.00  0.00     0.000 A 
ENDBRANCH  15  18
ENDBRANCH  13  14
ENDBRANCH  12  13
ENDBRANCH   9  12
ENDBRANCH   7   8
ENDBRANCH   5   7
ENDBRANCH   4   5
ENDBRANCH   3   4
ENDBRANCH   2   3
ENDBRANCH   1   2
BRANCH   1  30
ATOM     30  C   UNL A   1      42.988  18.819  25.704  1.00  0.00     0.188 C 
BRANCH  30  31
ATOM     31  C   UNL A   1      44.260  19.050  24.871  1.00  0.00     0.188 C 
BRANCH  31  32
ATOM     32  O   UNL A   1      45.352  19.666  25.491  1.00  0.00    -0.376 OA
BRANCH  32  33
ATOM     33  C   UNL A   1      45.956  20.796  24.901  1.00  0.00     0.202 C 
BRANCH  33  34
ATOM     34  C   UNL A   1      45.882  22.237  25.449  1.00  0.00     0.261 C 
BRANCH  34  35
ATOM     35  O   UNL A   1      44.702  22.660  26.147  1.00  0.00    -0.460 OA
BRANCH  35  36
ATOM     36  C   UNL A   1      43.730  23.259  25.414  1.00  0.00     0.338 C 
ATOM     37  O   UNL A   1      43.295  22.890  24.333  1.00  0.00    -0.246 OA
BRANCH  36  38
ATOM     38  C   UNL A   1      43.090  24.307  26.246  1.00  0.00     0.060 A 
ATOM     39  C   UNL A   1      43.418  25.657  26.028  1.00  0.00     0.016 A 
ATOM     40  C   UNL A   1      42.162  23.965  27.229  1.00  0.00     0.016 A 
ATOM     41  C   UNL A   1      42.840  26.662  26.809  1.00  0.00     0.010 A 
ATOM     42  C   UNL A   1      41.609  24.971  28.031  1.00  0.00     0.010 A 
ATOM     43  C   UNL A   1      41.966  26.320  27.849  1.00  0.00    -0.014 A 
BRANCH  43  44
ATOM     44  C   UNL A   1      41.609  27.316  28.893  1.00  0.00     0.031 A 
ATOM     45  C   UNL A   1      42.394  27.300  30.179  1.00  0.00     0.074 A 
ATOM     46  C   UNL A   1      40.617  28.212  28.729  1.00  0.00     0.049 A 
ATOM     47  N   UNL A   1      42.192  27.959  31.290  1.00  0.00    -0.248 NA
ATOM     48  C   UNL A   1      43.567  26.409  30.211  1.00  0.00     0.031 C 
ATOM     49  C   UNL A   1      39.820  28.388  27.518  1.00  0.00     0.029 A 
ATOM     50  N   UNL A   1      40.102  29.134  29.609  1.00  0.00    -0.354 N 
ATOM     51  C   UNL A   1      43.205  27.559  32.154  1.00  0.00     0.074 A 
ATOM     52  C   UNL A   1      43.999  26.576  31.452  1.00  0.00     0.031 C 
ATOM     53  C   UNL A   1      38.900  29.346  27.739  1.00  0.00     0.029 A 
ATOM     54  C   UNL A   1      39.016  29.819  29.118  1.00  0.00     0.049 A 
ATOM     55  H   UNL A   1      40.476  29.290  30.506  1.00  0.00     0.167 HD
ATOM     56  C   UNL A   1      43.460  27.978  33.416  1.00  0.00     0.037 A 
ATOM     57  C   UNL A   1      38.193  30.699  29.726  1.00  0.00     0.037 A 
ATOM     58  C   UNL A   1      42.668  28.949  34.123  1.00  0.00     0.049 A 
ATOM     59  C   UNL A   1      38.427  31.062  31.173  1.00  0.00     0.074 A 
ATOM     60  C   UNL A   1      42.836  29.423  35.413  1.00  0.00     0.029 A 
ATOM     61  N   UNL A   1      41.558  29.592  33.600  1.00  0.00    -0.354 N 
ATOM     62  N   UNL A   1      39.384  30.677  31.983  1.00  0.00    -0.248 NA
ATOM     63  C   UNL A   1      37.460  31.984  31.793  1.00  0.00     0.031 C 
ATOM     64  C   UNL A   1      41.799  30.319  35.687  1.00  0.00     0.029 A 
ATOM     65  C   UNL A   1      41.022  30.448  34.547  1.00  0.00     0.049 A 
ATOM     66  H   UNL A   1      41.204  29.461  32.691  1.00  0.00     0.167 HD
ATOM     67  C   UNL A   1      39.161  31.344  33.184  1.00  0.00     0.074 A 
ATOM     68  C   UNL A   1      37.984  32.163  32.997  1.00  0.00     0.031 C 
ATOM     69  C   UNL A   1      39.869  31.286  34.338  1.00  0.00     0.037 A 
BRANCH  56  70
ATOM     70  C   UNL A   1      44.638  27.373  34.122  1.00  0.00     0.057 A 
ATOM     71  C   UNL A   1      44.529  26.184  34.853  1.00  0.00     0.134 A 
ATOM     72  C   UNL A   1      45.905  27.964  34.034  1.00  0.00     0.134 A 
ATOM     73  F   UNL A   1      43.340  25.577  34.990  1.00  0.00    -0.206 F 
ATOM     74  C   UNL A   1      45.634  25.612  35.486  1.00  0.00     0.040 A 
ATOM     75  C   UNL A   1      47.022  27.386  34.638  1.00  0.00     0.040 A 
ATOM     76  F   UNL A   1      46.080  29.102  33.345  1.00  0.00    -0.206 F 
ATOM     77  C   UNL A   1      46.887  26.210  35.371  1.00  0.00     0.006 A 
ENDBRANCH  56  70
BRANCH  57  78
ATOM     78  C   UNL A   1      37.039  31.292  28.995  1.00  0.00     0.057 A 
ATOM     79  C   UNL A   1      37.056  32.630  28.580  1.00  0.00     0.134 A 
ATOM     80  C   UNL A   1      35.864  30.566  28.767  1.00  0.00     0.134 A 
ATOM     81  F   UNL A   1      38.139  33.392  28.796  1.00  0.00    -0.206 F 
ATOM     82  C   UNL A   1      35.938  33.233  27.998  1.00  0.00     0.040 A 
ATOM     83  C   UNL A   1      34.749  31.147  28.157  1.00  0.00     0.040 A 
ATOM     84  F   UNL A   1      35.776  29.283  29.146  1.00  0.00    -0.206 F 
ATOM     85  C   UNL A   1      34.781  32.488  27.783  1.00  0.00     0.006 A 
ENDBRANCH  57  78
BRANCH  69  86
ATOM     86  C   UNL A   1      39.443  32.181  35.468  1.00  0.00     0.057 A 
ATOM     87  C   UNL A   1      38.542  31.764  36.455  1.00  0.00     0.134 A 
ATOM     88  C   UNL A   1      39.989  33.467  35.596  1.00  0.00     0.134 A 
ATOM     89  F   UNL A   1      37.975  30.549  36.389  1.00  0.00    -0.206 F 
ATOM     90  C   UNL A   1      38.180  32.600  37.514  1.00  0.00     0.040 A 
ATOM     91  C   UNL A   1      39.658  34.300  36.665  1.00  0.00     0.040 A 
ATOM     92  F   UNL A   1      40.867  33.927  34.692  1.00  0.00    -0.206 F 
ATOM     93  C   UNL A   1      38.746  33.869  37.625  1.00  0.00     0.006 A 
ENDBRANCH  69  86
ENDBRANCH  43  44
ENDBRANCH  36  38
ENDBRANCH  35  36
ENDBRANCH  34  35
ENDBRANCH  33  34
ENDBRANCH  32  33
ENDBRANCH  31  32
ENDBRANCH  30  31
ENDBRANCH   1  30
TORSDOF 22
ENDMDL
MODEL 2
REMARK VINA RESULT:     -11.0      3.237      9.549
REMARK SMILES C[N@H+]1Cc2ccccc2C[C@@H]1C(=O)NCCC(=O)NCC(=O)OCCOCCOCCOC(=O)c1ccc(-c2c3nc(c(-c4c(F)cccc4F)c4ccc([nH]4)c(-c4c(F)cccc4F)c4nc(c(-c5c(F)cccc5F)c5ccc2[nH]5)C=C4)C=C3)cc1
REMARK SMILES IDX 26 1 25 2 24 3 23 4 21 5 22 6 20 7 19 8 17 9 18 10 16 12
REMARK SMILES IDX 15 13 14 14 12 15 13 16 11 18 1 19 2 20 3 21 4 23 10 24 5 25
REMARK SMILES IDX 9 26 6 27 8 28 7 29 27 30 28 31 29 32 30 33 31 34 32 35
REMARK SMILES IDX 33 36 34 37 35 38 36 39 88 40 37 41 87 42 38 43 39 44 40 45
REMARK SMILES IDX 81 46 41 47 86 48 80 49 82 50 42 51 85 52 79 53 78 54 43 56
REMARK SMILES IDX 69 57 52 58 68 59 53 60 56 61 67 62 83 63 54 64 55 65 66 67
REMARK SMILES IDX 84 68 57 69 44 70 45 71 50 72 46 73 47 74 49 75 51 76 48 77
REMARK SMILES IDX 70 78 71 79 76 80 72 81 73 82 75 83 77 84 74 85 58 86 59 87
REMARK SMILES IDX 64 88 60 89 61 90 63 91 65 92 62 93
REMARK H PARENT 19 11 14 17 2 22 82 55 56 66
REMARK Flexibility Score: inf
ROOT
ATOM      1  O   UNL A   1      28.664  31.509  21.319  1.00  0.00    -0.376 OA
ENDROOT
BRANCH   1   2
ATOM      2  C   UNL A   1      27.957  30.302  21.567  1.00  0.00     0.202 C 
BRANCH   2   3
ATOM      3  C   UNL A   1      28.663  29.171  22.328  1.00  0.00     0.261 C 
BRANCH   3   4
ATOM      4  O   UNL A   1      29.910  28.718  21.756  1.00  0.00    -0.462 OA
BRANCH   4   5
ATOM      5  C   UNL A   1      30.546  27.681  22.382  1.00  0.00     0.325 C 
ATOM      6  O   UNL A   1      31.190  26.823  21.784  1.00  0.00    -0.250 OA
BRANCH   5   7
ATOM      7  C   UNL A   1      30.502  27.755  23.931  1.00  0.00     0.238 C 
BRANCH   7   8
ATOM      8  N   UNL A   1      30.076  26.609  24.740  1.00  0.00    -0.345 N 
ATOM      9  C   UNL A   1      30.500  26.165  25.946  1.00  0.00     0.222 C 
ATOM     10  O   UNL A   1      29.944  25.181  26.439  1.00  0.00    -0.275 OA
ATOM     11  H   UNL A   1      29.356  26.072  24.338  1.00  0.00     0.164 HD
BRANCH   9  12
ATOM     12  C   UNL A   1      31.632  26.841  26.657  1.00  0.00     0.121 C 
BRANCH  12  13
ATOM     13  C   UNL A   1      32.956  26.249  26.208  1.00  0.00     0.126 C 
BRANCH  13  14
ATOM     14  N   UNL A   1      32.881  25.114  25.296  1.00  0.00    -0.350 N 
ATOM     15  C   UNL A   1      33.801  24.954  24.285  1.00  0.00     0.278 C 
ATOM     16  O   UNL A   1      33.913  25.764  23.366  1.00  0.00    -0.268 OA
ATOM     17  H   UNL A   1      32.162  24.452  25.406  1.00  0.00     0.163 HD
BRANCH  15  18
ATOM     18  C   UNL A   1      34.826  23.847  24.444  1.00  0.00     0.278 C 
ATOM     19  C   UNL A   1      33.325  22.103  23.620  1.00  0.00     0.333 C 
ATOM     20  N   UNL A   1      34.305  22.472  24.648  1.00  0.00    -0.323 N 
ATOM     21  C   UNL A   1      35.474  21.545  24.536  1.00  0.00     0.299 C 
ATOM     22  H   UNL A   1      33.842  22.418  25.556  1.00  0.00     0.348 HD
ATOM     23  C   UNL A   1      36.744  22.008  25.239  1.00  0.00     0.010 A 
ATOM     24  C   UNL A   1      35.691  24.234  25.647  1.00  0.00     0.111 C 
ATOM     25  C   UNL A   1      37.866  21.174  25.295  1.00  0.00     0.010 A 
ATOM     26  C   UNL A   1      36.860  23.312  25.747  1.00  0.00    -0.033 A 
ATOM     27  C   UNL A   1      39.058  21.629  25.867  1.00  0.00     0.001 A 
ATOM     28  C   UNL A   1      38.044  23.757  26.344  1.00  0.00     0.004 A 
ATOM     29  C   UNL A   1      39.146  22.915  26.395  1.00  0.00     0.000 A 
ENDBRANCH  15  18
ENDBRANCH  13  14
ENDBRANCH  12  13
ENDBRANCH   9  12
ENDBRANCH   7   8
ENDBRANCH   5   7
ENDBRANCH   4   5
ENDBRANCH   3   4
ENDBRANCH   2   3
ENDBRANCH   1   2
BRANCH   1  30
ATOM     30  C   UNL A   1      28.422  32.634  22.146  1.00  0.00     0.188 C 
BRANCH  30  31
ATOM     31  C   UNL A   1      29.280  32.838  23.406  1.00  0.00     0.188 C 
BRANCH  31  32
ATOM     32  O   UNL A   1      29.329  31.804  24.346  1.00  0.00    -0.376 OA
BRANCH  32  33
ATOM     33  C   UNL A   1      30.543  31.494  24.994  1.00  0.00     0.202 C 
BRANCH  33  34
ATOM     34  C   UNL A   1      30.961  31.992  26.394  1.00  0.00     0.261 C 
BRANCH  34  35
ATOM     35  O   UNL A   1      32.298  31.744  26.854  1.00  0.00    -0.460 OA
BRANCH  35  36
ATOM     36  C   UNL A   1      32.962  32.786  27.415  1.00  0.00     0.338 C 
ATOM     37  O   UNL A   1      32.511  33.894  27.665  1.00  0.00    -0.246 OA
BRANCH  36  38
ATOM     38  C   UNL A   1      34.270  32.296  27.915  1.00  0.00     0.060 A 
ATOM     39  C   UNL A   1      34.420  30.936  28.235  1.00  0.00     0.016 A 
ATOM     40  C   UNL A   1      35.349  33.169  28.056  1.00  0.00     0.016 A 
ATOM     41  C   UNL A   1      35.638  30.451  28.722  1.00  0.00     0.010 A 
ATOM     42  C   UNL A   1      36.558  32.688  28.574  1.00  0.00     0.010 A 
ATOM     43  C   UNL A   1      36.702  31.336  28.940  1.00  0.00    -0.014 A 
BRANCH  43  44
ATOM     44  C   UNL A   1      37.872  30.924  29.759  1.00  0.00     0.031 A 
ATOM     45  C   UNL A   1      38.862  29.970  29.143  1.00  0.00     0.074 A 
ATOM     46  C   UNL A   1      38.065  31.365  31.017  1.00  0.00     0.049 A 
ATOM     47  N   UNL A   1      39.877  29.353  29.687  1.00  0.00    -0.248 NA
ATOM     48  C   UNL A   1      38.671  29.672  27.713  1.00  0.00     0.031 C 
ATOM     49  C   UNL A   1      37.230  32.338  31.716  1.00  0.00     0.029 A 
ATOM     50  N   UNL A   1      39.029  31.026  31.936  1.00  0.00    -0.354 N 
ATOM     51  C   UNL A   1      40.441  28.589  28.672  1.00  0.00     0.074 A 
ATOM     52  C   UNL A   1      39.636  28.794  27.488  1.00  0.00     0.031 C 
ATOM     53  C   UNL A   1      37.706  32.502  32.964  1.00  0.00     0.029 A 
ATOM     54  C   UNL A   1      38.851  31.615  33.166  1.00  0.00     0.049 A 
ATOM     55  H   UNL A   1      39.777  30.418  31.733  1.00  0.00     0.167 HD
ATOM     56  C   UNL A   1      41.536  27.794  28.715  1.00  0.00     0.037 A 
ATOM     57  C   UNL A   1      39.517  31.430  34.325  1.00  0.00     0.037 A 
ATOM     58  C   UNL A   1      42.336  27.579  29.891  1.00  0.00     0.049 A 
ATOM     59  C   UNL A   1      40.663  30.447  34.378  1.00  0.00     0.074 A 
ATOM     60  C   UNL A   1      43.454  26.776  30.038  1.00  0.00     0.029 A 
ATOM     61  N   UNL A   1      42.101  28.169  31.123  1.00  0.00    -0.354 N 
ATOM     62  N   UNL A   1      41.188  29.728  33.415  1.00  0.00    -0.248 NA
ATOM     63  C   UNL A   1      41.311  30.250  35.685  1.00  0.00     0.031 C 
ATOM     64  C   UNL A   1      43.868  26.843  31.371  1.00  0.00     0.029 A 
ATOM     65  C   UNL A   1      43.044  27.735  32.039  1.00  0.00     0.049 A 
ATOM     66  H   UNL A   1      41.372  28.802  31.317  1.00  0.00     0.167 HD
ATOM     67  C   UNL A   1      42.249  29.035  33.989  1.00  0.00     0.074 A 
ATOM     68  C   UNL A   1      42.301  29.424  35.381  1.00  0.00     0.031 C 
ATOM     69  C   UNL A   1      43.107  28.156  33.415  1.00  0.00     0.037 A 
BRANCH  56  70
ATOM     70  C   UNL A   1      41.926  27.083  27.452  1.00  0.00     0.057 A 
ATOM     71  C   UNL A   1      42.700  27.706  26.464  1.00  0.00     0.134 A 
ATOM     72  C   UNL A   1      41.561  25.747  27.241  1.00  0.00     0.134 A 
ATOM     73  F   UNL A   1      43.068  28.989  26.598  1.00  0.00    -0.206 F 
ATOM     74  C   UNL A   1      43.082  27.031  25.303  1.00  0.00     0.040 A 
ATOM     75  C   UNL A   1      41.962  25.054  26.098  1.00  0.00     0.040 A 
ATOM     76  F   UNL A   1      40.824  25.090  28.150  1.00  0.00    -0.206 F 
ATOM     77  C   UNL A   1      42.720  25.697  25.124  1.00  0.00     0.006 A 
ENDBRANCH  56  70
BRANCH  57  78
ATOM     78  C   UNL A   1      39.115  32.159  35.559  1.00  0.00     0.057 A 
ATOM     79  C   UNL A   1      38.256  31.574  36.498  1.00  0.00     0.134 A 
ATOM     80  C   UNL A   1      39.509  33.483  35.790  1.00  0.00     0.134 A 
ATOM     81  F   UNL A   1      37.815  30.319  36.321  1.00  0.00    -0.206 F 
ATOM     82  C   UNL A   1      37.777  32.287  37.600  1.00  0.00     0.040 A 
ATOM     83  C   UNL A   1      39.063  34.197  36.904  1.00  0.00     0.040 A 
ATOM     84  F   UNL A   1      40.324  34.108  34.927  1.00  0.00    -0.206 F 
ATOM     85  C   UNL A   1      38.184  33.603  37.806  1.00  0.00     0.006 A 
ENDBRANCH  57  78
BRANCH  69  86
ATOM     86  C   UNL A   1      44.221  27.609  34.262  1.00  0.00     0.057 A 
ATOM     87  C   UNL A   1      44.102  26.407  34.971  1.00  0.00     0.134 A 
ATOM     88  C   UNL A   1      45.455  28.274  34.324  1.00  0.00     0.134 A 
ATOM     89  F   UNL A   1      42.946  25.724  34.962  1.00  0.00    -0.206 F 
ATOM     90  C   UNL A   1      45.159  25.899  35.729  1.00  0.00     0.040 A 
ATOM     91  C   UNL A   1      46.528  27.760  35.054  1.00  0.00     0.040 A 
ATOM     92  F   UNL A   1      45.643  29.424  33.659  1.00  0.00    -0.206 F 
ATOM     93  C   UNL A   1      46.378  26.572  35.765  1.00  0.00     0.006 A 
ENDBRANCH  69  86
ENDBRANCH  43  44
ENDBRANCH  36  38
ENDBRANCH  35  36
ENDBRANCH  34  35
ENDBRANCH  33  34
ENDBRANCH  32  33
ENDBRANCH  31  32
ENDBRANCH  30  31
ENDBRANCH   1  30
TORSDOF 22
ENDMDL
MODEL 3
REMARK VINA RESULT:     -10.9      1.169      2.083
REMARK SMILES C[N@H+]1Cc2ccccc2C[C@@H]1C(=O)NCCC(=O)NCC(=O)OCCOCCOCCOC(=O)c1ccc(-c2c3nc(c(-c4c(F)cccc4F)c4ccc([nH]4)c(-c4c(F)cccc4F)c4nc(c(-c5c(F)cccc5F)c5ccc2[nH]5)C=C4)C=C3)cc1
REMARK SMILES IDX 26 1 25 2 24 3 23 4 21 5 22 6 20 7 19 8 17 9 18 10 16 12
REMARK SMILES IDX 15 13 14 14 12 15 13 16 11 18 1 19 2 20 3 21 4 23 10 24 5 25
REMARK SMILES IDX 9 26 6 27 8 28 7 29 27 30 28 31 29 32 30 33 31 34 32 35
REMARK SMILES IDX 33 36 34 37 35 38 36 39 88 40 37 41 87 42 38 43 39 44 40 45
REMARK SMILES IDX 81 46 41 47 86 48 80 49 82 50 42 51 85 52 79 53 78 54 43 56
REMARK SMILES IDX 69 57 52 58 68 59 53 60 56 61 67 62 83 63 54 64 55 65 66 67
REMARK SMILES IDX 84 68 57 69 44 70 45 71 50 72 46 73 47 74 49 75 51 76 48 77
REMARK SMILES IDX 70 78 71 79 76 80 72 81 73 82 75 83 77 84 74 85 58 86 59 87
REMARK SMILES IDX 64 88 60 89 61 90 63 91 65 92 62 93
REMARK H PARENT 19 11 14 17 2 22 82 55 56 66
REMARK Flexibility Score: inf
ROOT
ATOM      1  O   UNL A   1      40.374  20.681  27.078  1.00  0.00    -0.376 OA
ENDROOT
BRANCH   1   2
ATOM      2  C   UNL A   1      39.664  21.839  26.661  1.00  0.00     0.202 C 
BRANCH   2   3
ATOM      3  C   UNL A   1      38.568  21.696  25.596  1.00  0.00     0.261 C 
BRANCH   3   4
ATOM      4  O   UNL A   1      37.589  22.757  25.562  1.00  0.00    -0.462 OA
BRANCH   4   5
ATOM      5  C   UNL A   1      36.304  22.435  25.902  1.00  0.00     0.325 C 
ATOM      6  O   UNL A   1      35.546  23.203  26.487  1.00  0.00    -0.250 OA
BRANCH   5   7
ATOM      7  C   UNL A   1      35.833  21.059  25.359  1.00  0.00     0.238 C 
BRANCH   7   8
ATOM      8  N   UNL A   1      34.410  20.744  25.206  1.00  0.00    -0.345 N 
ATOM      9  C   UNL A   1      33.471  21.251  24.374  1.00  0.00     0.222 C 
ATOM     10  O   UNL A   1      32.332  20.782  24.417  1.00  0.00    -0.275 OA
ATOM     11  H   UNL A   1      34.080  20.042  25.812  1.00  0.00     0.164 HD
BRANCH   9  12
ATOM     12  C   UNL A   1      33.803  22.371  23.436  1.00  0.00     0.121 C 
BRANCH  12  13
ATOM     13  C   UNL A   1      32.609  22.681  22.552  1.00  0.00     0.126 C 
BRANCH  13  14
ATOM     14  N   UNL A   1      32.205  24.079  22.479  1.00  0.00    -0.350 N 
ATOM     15  C   UNL A   1      31.103  24.537  23.165  1.00  0.00     0.278 C 
ATOM     16  O   UNL A   1      29.967  24.132  22.925  1.00  0.00    -0.268 OA
ATOM     17  H   UNL A   1      32.728  24.706  21.929  1.00  0.00     0.163 HD
BRANCH  15  18
ATOM     18  C   UNL A   1      31.352  25.413  24.378  1.00  0.00     0.278 C 
ATOM     19  C   UNL A   1      31.119  23.575  25.971  1.00  0.00     0.333 C 
ATOM     20  N   UNL A   1      30.763  24.965  25.665  1.00  0.00    -0.323 N 
ATOM     21  C   UNL A   1      31.338  25.842  26.732  1.00  0.00     0.299 C 
ATOM     22  H   UNL A   1      29.746  25.024  25.609  1.00  0.00     0.348 HD
ATOM     23  C   UNL A   1      31.417  27.324  26.387  1.00  0.00     0.010 A 
ATOM     24  C   UNL A   1      30.791  26.795  24.030  1.00  0.00     0.111 C 
ATOM     25  C   UNL A   1      31.834  28.253  27.347  1.00  0.00     0.010 A 
ATOM     26  C   UNL A   1      31.183  27.780  25.080  1.00  0.00    -0.033 A 
ATOM     27  C   UNL A   1      31.987  29.601  27.008  1.00  0.00     0.001 A 
ATOM     28  C   UNL A   1      31.309  29.133  24.748  1.00  0.00     0.004 A 
ATOM     29  C   UNL A   1      31.720  30.042  25.714  1.00  0.00     0.000 A 
ENDBRANCH  15  18
ENDBRANCH  13  14
ENDBRANCH  12  13
ENDBRANCH   9  12
ENDBRANCH   7   8
ENDBRANCH   5   7
ENDBRANCH   4   5
ENDBRANCH   3   4
ENDBRANCH   2   3
ENDBRANCH   1   2
BRANCH   1  30
ATOM     30  C   UNL A   1      40.645  19.660  26.134  1.00  0.00     0.188 C 
BRANCH  30  31
ATOM     31  C   UNL A   1      42.097  19.199  25.921  1.00  0.00     0.188 C 
BRANCH  31  32
ATOM     32  O   UNL A   1      43.126  20.064  26.306  1.00  0.00    -0.376 OA
BRANCH  32  33
ATOM     33  C   UNL A   1      44.173  20.363  25.408  1.00  0.00     0.202 C 
BRANCH  33  34
ATOM     34  C   UNL A   1      45.147  21.553  25.535  1.00  0.00     0.261 C 
BRANCH  34  35
ATOM     35  O   UNL A   1      44.686  22.774  26.132  1.00  0.00    -0.460 OA
BRANCH  35  36
ATOM     36  C   UNL A   1      44.020  23.641  25.329  1.00  0.00     0.338 C 
ATOM     37  O   UNL A   1      43.828  23.529  24.128  1.00  0.00    -0.246 OA
BRANCH  36  38
ATOM     38  C   UNL A   1      43.333  24.641  26.184  1.00  0.00     0.060 A 
ATOM     39  C   UNL A   1      43.648  26.003  26.040  1.00  0.00     0.016 A 
ATOM     40  C   UNL A   1      42.374  24.242  27.114  1.00  0.00     0.016 A 
ATOM     41  C   UNL A   1      43.026  26.964  26.843  1.00  0.00     0.010 A 
ATOM     42  C   UNL A   1      41.776  25.202  27.940  1.00  0.00     0.010 A 
ATOM     43  C   UNL A   1      42.119  26.563  27.833  1.00  0.00    -0.014 A 
BRANCH  43  44
ATOM     44  C   UNL A   1      41.708  27.504  28.907  1.00  0.00     0.031 A 
ATOM     45  C   UNL A   1      42.458  27.453  30.213  1.00  0.00     0.074 A 
ATOM     46  C   UNL A   1      40.698  28.381  28.752  1.00  0.00     0.049 A 
ATOM     47  N   UNL A   1      42.209  28.060  31.344  1.00  0.00    -0.248 NA
ATOM     48  C   UNL A   1      43.652  26.591  30.241  1.00  0.00     0.031 C 
ATOM     49  C   UNL A   1      39.930  28.589  27.528  1.00  0.00     0.029 A 
ATOM     50  N   UNL A   1      40.135  29.253  29.654  1.00  0.00    -0.354 N 
ATOM     51  C   UNL A   1      43.208  27.649  32.218  1.00  0.00     0.074 A 
ATOM     52  C   UNL A   1      44.046  26.716  31.499  1.00  0.00     0.031 C 
ATOM     53  C   UNL A   1      38.980  29.514  27.761  1.00  0.00     0.029 A 
ATOM     54  C   UNL A   1      39.045  29.931  29.162  1.00  0.00     0.049 A 
ATOM     55  H   UNL A   1      40.480  29.379  30.568  1.00  0.00     0.167 HD
ATOM     56  C   UNL A   1      43.417  28.019  33.504  1.00  0.00     0.037 A 
ATOM     57  C   UNL A   1      38.184  30.764  29.782  1.00  0.00     0.037 A 
ATOM     58  C   UNL A   1      42.581  28.940  34.228  1.00  0.00     0.049 A 
ATOM     59  C   UNL A   1      38.369  31.070  31.249  1.00  0.00     0.074 A 
ATOM     60  C   UNL A   1      42.702  29.363  35.540  1.00  0.00     0.029 A 
ATOM     61  N   UNL A   1      41.470  29.577  33.701  1.00  0.00    -0.354 N 
ATOM     62  N   UNL A   1      39.314  30.676  32.069  1.00  0.00    -0.248 NA
ATOM     63  C   UNL A   1      37.363  31.941  31.879  1.00  0.00     0.031 C 
ATOM     64  C   UNL A   1      41.635  30.221  35.822  1.00  0.00     0.029 A 
ATOM     65  C   UNL A   1      40.886  30.379  34.667  1.00  0.00     0.049 A 
ATOM     66  H   UNL A   1      41.144  29.476  32.777  1.00  0.00     0.167 HD
ATOM     67  C   UNL A   1      39.040  31.286  33.290  1.00  0.00     0.074 A 
ATOM     68  C   UNL A   1      37.848  32.082  33.104  1.00  0.00     0.031 C 
ATOM     69  C   UNL A   1      39.718  31.196  34.461  1.00  0.00     0.037 A 
BRANCH  56  70
ATOM     70  C   UNL A   1      44.591  27.415  34.217  1.00  0.00     0.057 A 
ATOM     71  C   UNL A   1      45.840  28.047  34.249  1.00  0.00     0.134 A 
ATOM     72  C   UNL A   1      44.459  26.208  34.916  1.00  0.00     0.134 A 
ATOM     73  F   UNL A   1      46.036  29.197  33.585  1.00  0.00    -0.206 F 
ATOM     74  C   UNL A   1      46.921  27.494  34.936  1.00  0.00     0.040 A 
ATOM     75  C   UNL A   1      45.525  25.660  35.631  1.00  0.00     0.040 A 
ATOM     76  F   UNL A   1      43.289  25.553  34.930  1.00  0.00    -0.206 F 
ATOM     77  C   UNL A   1      46.761  26.301  35.638  1.00  0.00     0.006 A 
ENDBRANCH  56  70
BRANCH  57  78
ATOM     78  C   UNL A   1      37.036  31.359  29.045  1.00  0.00     0.057 A 
ATOM     79  C   UNL A   1      37.063  32.693  28.617  1.00  0.00     0.134 A 
ATOM     80  C   UNL A   1      35.855  30.639  28.821  1.00  0.00     0.134 A 
ATOM     81  F   UNL A   1      38.151  33.448  28.828  1.00  0.00    -0.206 F 
ATOM     82  C   UNL A   1      35.950  33.298  28.028  1.00  0.00     0.040 A 
ATOM     83  C   UNL A   1      34.746  31.222  28.205  1.00  0.00     0.040 A 
ATOM     84  F   UNL A   1      35.757  29.360  29.212  1.00  0.00    -0.206 F 
ATOM     85  C   UNL A   1      34.788  32.560  27.818  1.00  0.00     0.006 A 
ENDBRANCH  57  78
BRANCH  69  86
ATOM     86  C   UNL A   1      39.238  32.032  35.614  1.00  0.00     0.057 A 
ATOM     87  C   UNL A   1      39.622  33.368  35.782  1.00  0.00     0.134 A 
ATOM     88  C   UNL A   1      38.330  31.501  36.542  1.00  0.00     0.134 A 
ATOM     89  F   UNL A   1      40.494  33.936  34.934  1.00  0.00    -0.206 F 
ATOM     90  C   UNL A   1      39.141  34.138  36.843  1.00  0.00     0.040 A 
ATOM     91  C   UNL A   1      37.820  32.270  37.590  1.00  0.00     0.040 A 
ATOM     92  F   UNL A   1      37.910  30.232  36.435  1.00  0.00    -0.206 F 
ATOM     93  C   UNL A   1      38.231  33.591  37.746  1.00  0.00     0.006 A 
ENDBRANCH  69  86
ENDBRANCH  43  44
ENDBRANCH  36  38
ENDBRANCH  35  36
ENDBRANCH  34  35
ENDBRANCH  33  34
ENDBRANCH  32  33
ENDBRANCH  31  32
ENDBRANCH  30  31
ENDBRANCH   1  30
TORSDOF 22
ENDMDL
