MODEL 1
REMARK VINA RESULT:     -10.4      0.000      0.000
REMARK SMILES C[NH2+]C[C@H](C)C(=O)N1CCc2cc(C(=O)OCCOCCOCCOC(=O)c3ccc(-c4c5nc(c(-c6c(F)cccc6F)c6ccc([nH]6)c(-c6c(F)cccc6F)c6nc(c(-c7c(F)cccc7F)c7ccc4[nH]7)C=C6)C=C5)cc3)ccc21
REMARK SMILES IDX 20 1 19 2 18 3 17 4 16 5 14 6 15 7 13 8 8 9 9 10 84 11 10 12
REMARK SMILES IDX 11 13 83 14 12 15 82 16 6 17 7 18 4 19 5 20 3 21 2 22 1 23
REMARK SMILES IDX 21 26 22 27 23 28 24 29 25 30 26 31 27 32 28 33 29 34 81 35
REMARK SMILES IDX 30 36 80 37 31 38 32 39 33 40 74 41 34 42 79 43 73 44 75 45
REMARK SMILES IDX 35 46 78 47 72 48 71 49 36 51 62 52 45 53 61 54 46 55 49 56
REMARK SMILES IDX 60 57 76 58 47 59 48 60 59 62 77 63 50 64 37 65 38 66 43 67
REMARK SMILES IDX 39 68 40 69 42 70 44 71 41 72 63 73 64 74 69 75 65 76 66 77
REMARK SMILES IDX 68 78 70 79 67 80 51 81 52 82 57 83 53 84 54 85 56 86 58 87
REMARK SMILES IDX 55 88
REMARK H PARENT 2 24 2 25 75 50 49 61
REMARK Flexibility Score: inf
ROOT
ATOM      1  C   UNL A   1      41.775  20.308  27.076  1.00  0.00     0.188 C 
ENDROOT
BRANCH   1   2
ATOM      2  O   UNL A   1      40.393  20.616  27.106  1.00  0.00    -0.376 OA
BRANCH   2   3
ATOM      3  C   UNL A   1      39.741  21.116  25.949  1.00  0.00     0.202 C 
BRANCH   3   4
ATOM      4  C   UNL A   1      38.583  22.121  26.037  1.00  0.00     0.261 C 
BRANCH   4   5
ATOM      5  O   UNL A   1      37.837  22.284  24.826  1.00  0.00    -0.460 OA
BRANCH   5   6
ATOM      6  C   UNL A   1      36.569  21.805  24.857  1.00  0.00     0.338 C 
ATOM      7  O   UNL A   1      36.217  20.668  25.124  1.00  0.00    -0.246 OA
BRANCH   6   8
ATOM      8  C   UNL A   1      35.610  22.918  24.704  1.00  0.00     0.060 A 
ATOM      9  N   UNL A   1      33.323  26.209  23.741  1.00  0.00    -0.311 N 
ATOM     10  C   UNL A   1      32.757  25.836  22.432  1.00  0.00     0.130 C 
ATOM     11  C   UNL A   1      33.967  25.094  24.279  1.00  0.00     0.047 A 
ATOM     12  C   UNL A   1      33.181  24.391  22.142  1.00  0.00     0.059 C 
ATOM     13  C   UNL A   1      34.062  24.096  23.313  1.00  0.00    -0.022 A 
ATOM     14  C   UNL A   1      34.482  24.893  25.542  1.00  0.00     0.027 A 
ATOM     15  C   UNL A   1      34.912  23.018  23.491  1.00  0.00     0.021 A 
ATOM     16  C   UNL A   1      35.337  23.810  25.753  1.00  0.00     0.018 A 
BRANCH   9  17
ATOM     17  C   UNL A   1      33.379  27.545  24.068  1.00  0.00     0.235 C 
ATOM     18  O   UNL A   1      34.260  28.253  23.555  1.00  0.00    -0.274 OA
BRANCH  17  19
ATOM     19  C   UNL A   1      32.575  28.144  25.241  1.00  0.00     0.131 C 
ATOM     20  C   UNL A   1      32.531  29.650  25.444  1.00  0.00     0.024 C 
BRANCH  19  21
ATOM     21  C   UNL A   1      31.225  27.422  25.458  1.00  0.00     0.273 C 
BRANCH  21  22
ATOM     22  N   UNL A   1      31.170  26.354  26.462  1.00  0.00    -0.348 N 
ATOM     23  C   UNL A   1      30.366  25.220  26.032  1.00  0.00     0.330 C 
ATOM     24  H   UNL A   1      32.119  26.030  26.646  1.00  0.00     0.346 HD
ATOM     25  H   UNL A   1      30.734  26.741  27.299  1.00  0.00     0.346 HD
ENDBRANCH  21  22
ENDBRANCH  19  21
ENDBRANCH  17  19
ENDBRANCH   9  17
ENDBRANCH   6   8
ENDBRANCH   5   6
ENDBRANCH   4   5
ENDBRANCH   3   4
ENDBRANCH   2   3
ENDBRANCH   1   2
BRANCH   1  26
ATOM     26  C   UNL A   1      42.332  19.283  26.067  1.00  0.00     0.188 C 
BRANCH  26  27
ATOM     27  O   UNL A   1      43.166  19.754  25.039  1.00  0.00    -0.376 OA
BRANCH  27  28
ATOM     28  C   UNL A   1      44.514  20.098  25.309  1.00  0.00     0.202 C 
BRANCH  28  29
ATOM     29  C   UNL A   1      45.101  21.524  25.354  1.00  0.00     0.261 C 
BRANCH  29  30
ATOM     30  O   UNL A   1      44.385  22.539  26.063  1.00  0.00    -0.460 OA
BRANCH  30  31
ATOM     31  C   UNL A   1      43.537  23.288  25.320  1.00  0.00     0.338 C 
ATOM     32  O   UNL A   1      43.158  23.072  24.176  1.00  0.00    -0.246 OA
BRANCH  31  33
ATOM     33  C   UNL A   1      42.972  24.349  26.170  1.00  0.00     0.060 A 
ATOM     34  C   UNL A   1      43.555  25.626  26.149  1.00  0.00     0.016 A 
ATOM     35  C   UNL A   1      41.890  24.076  27.008  1.00  0.00     0.016 A 
ATOM     36  C   UNL A   1      43.065  26.632  26.981  1.00  0.00     0.010 A 
ATOM     37  C   UNL A   1      41.417  25.078  27.858  1.00  0.00     0.010 A 
ATOM     38  C   UNL A   1      42.018  26.351  27.869  1.00  0.00    -0.014 A 
BRANCH  38  39
ATOM     39  C   UNL A   1      41.665  27.313  28.940  1.00  0.00     0.031 A 
ATOM     40  C   UNL A   1      42.446  27.268  30.224  1.00  0.00     0.074 A 
ATOM     41  C   UNL A   1      40.666  28.199  28.788  1.00  0.00     0.049 A 
ATOM     42  N   UNL A   1      42.252  27.922  31.340  1.00  0.00    -0.248 NA
ATOM     43  C   UNL A   1      43.599  26.354  30.252  1.00  0.00     0.031 C 
ATOM     44  C   UNL A   1      39.866  28.375  27.578  1.00  0.00     0.029 A 
ATOM     45  N   UNL A   1      40.141  29.105  29.676  1.00  0.00    -0.354 N 
ATOM     46  C   UNL A   1      43.247  27.489  32.206  1.00  0.00     0.074 A 
ATOM     47  C   UNL A   1      44.026  26.497  31.497  1.00  0.00     0.031 C 
ATOM     48  C   UNL A   1      38.936  29.319  27.806  1.00  0.00     0.029 A 
ATOM     49  C   UNL A   1      39.049  29.782  29.189  1.00  0.00     0.049 A 
ATOM     50  H   UNL A   1      40.512  29.256  30.575  1.00  0.00     0.167 HD
ATOM     51  C   UNL A   1      43.494  27.885  33.478  1.00  0.00     0.037 A 
ATOM     52  C   UNL A   1      38.220  30.648  29.803  1.00  0.00     0.037 A 
ATOM     53  C   UNL A   1      42.711  28.864  34.184  1.00  0.00     0.049 A 
ATOM     54  C   UNL A   1      38.457  31.006  31.249  1.00  0.00     0.074 A 
ATOM     55  C   UNL A   1      42.886  29.341  35.471  1.00  0.00     0.029 A 
ATOM     56  N   UNL A   1      41.599  29.509  33.665  1.00  0.00    -0.354 N 
ATOM     57  N   UNL A   1      39.411  30.607  32.057  1.00  0.00    -0.248 NA
ATOM     58  C   UNL A   1      37.500  31.935  31.869  1.00  0.00     0.031 C 
ATOM     59  C   UNL A   1      41.846  30.232  35.751  1.00  0.00     0.029 A 
ATOM     60  C   UNL A   1      41.060  30.360  34.616  1.00  0.00     0.049 A 
ATOM     61  H   UNL A   1      41.244  29.380  32.756  1.00  0.00     0.167 HD
ATOM     62  C   UNL A   1      39.192  31.265  33.262  1.00  0.00     0.074 A 
ATOM     63  C   UNL A   1      38.019  32.092  33.079  1.00  0.00     0.031 C 
ATOM     64  C   UNL A   1      39.902  31.193  34.415  1.00  0.00     0.037 A 
BRANCH  51  65
ATOM     65  C   UNL A   1      44.639  27.230  34.195  1.00  0.00     0.057 A 
ATOM     66  C   UNL A   1      44.483  26.032  34.904  1.00  0.00     0.134 A 
ATOM     67  C   UNL A   1      45.920  27.797  34.157  1.00  0.00     0.134 A 
ATOM     68  F   UNL A   1      43.280  25.445  34.994  1.00  0.00    -0.206 F 
ATOM     69  C   UNL A   1      45.554  25.435  35.571  1.00  0.00     0.040 A 
ATOM     70  C   UNL A   1      47.004  27.193  34.795  1.00  0.00     0.040 A 
ATOM     71  F   UNL A   1      46.139  28.941  33.493  1.00  0.00    -0.206 F 
ATOM     72  C   UNL A   1      46.821  26.012  35.511  1.00  0.00     0.006 A 
ENDBRANCH  51  65
BRANCH  52  73
ATOM     73  C   UNL A   1      37.070  31.234  29.066  1.00  0.00     0.057 A 
ATOM     74  C   UNL A   1      37.098  32.558  28.613  1.00  0.00     0.134 A 
ATOM     75  C   UNL A   1      35.903  30.497  28.826  1.00  0.00     0.134 A 
ATOM     76  F   UNL A   1      38.177  33.323  28.835  1.00  0.00    -0.206 F 
ATOM     77  C   UNL A   1      36.003  33.136  27.968  1.00  0.00     0.040 A 
ATOM     78  C   UNL A   1      34.811  31.053  28.156  1.00  0.00     0.040 A 
ATOM     79  F   UNL A   1      35.809  29.223  29.236  1.00  0.00    -0.206 F 
ATOM     80  C   UNL A   1      34.856  32.379  27.733  1.00  0.00     0.006 A 
ENDBRANCH  52  73
BRANCH  64  81
ATOM     81  C   UNL A   1      39.472  32.074  35.556  1.00  0.00     0.057 A 
ATOM     82  C   UNL A   1      39.933  33.388  35.701  1.00  0.00     0.134 A 
ATOM     83  C   UNL A   1      38.535  31.611  36.492  1.00  0.00     0.134 A 
ATOM     84  F   UNL A   1      40.837  33.890  34.848  1.00  0.00    -0.206 F 
ATOM     85  C   UNL A   1      39.493  34.203  36.746  1.00  0.00     0.040 A 
ATOM     86  C   UNL A   1      38.066  32.426  37.522  1.00  0.00     0.040 A 
ATOM     87  F   UNL A   1      38.044  30.365  36.405  1.00  0.00    -0.206 F 
ATOM     88  C   UNL A   1      38.551  33.726  37.655  1.00  0.00     0.006 A 
ENDBRANCH  64  81
ENDBRANCH  38  39
ENDBRANCH  31  33
ENDBRANCH  30  31
ENDBRANCH  29  30
ENDBRANCH  28  29
ENDBRANCH  27  28
ENDBRANCH  26  27
ENDBRANCH   1  26
TORSDOF 21
ENDMDL
MODEL 2
REMARK VINA RESULT:      -9.7      1.075      2.036
REMARK SMILES C[NH2+]C[C@H](C)C(=O)N1CCc2cc(C(=O)OCCOCCOCCOC(=O)c3ccc(-c4c5nc(c(-c6c(F)cccc6F)c6ccc([nH]6)c(-c6c(F)cccc6F)c6nc(c(-c7c(F)cccc7F)c7ccc4[nH]7)C=C6)C=C5)cc3)ccc21
REMARK SMILES IDX 20 1 19 2 18 3 17 4 16 5 14 6 15 7 13 8 8 9 9 10 84 11 10 12
REMARK SMILES IDX 11 13 83 14 12 15 82 16 6 17 7 18 4 19 5 20 3 21 2 22 1 23
REMARK SMILES IDX 21 26 22 27 23 28 24 29 25 30 26 31 27 32 28 33 29 34 81 35
REMARK SMILES IDX 30 36 80 37 31 38 32 39 33 40 74 41 34 42 79 43 73 44 75 45
REMARK SMILES IDX 35 46 78 47 72 48 71 49 36 51 62 52 45 53 61 54 46 55 49 56
REMARK SMILES IDX 60 57 76 58 47 59 48 60 59 62 77 63 50 64 37 65 38 66 43 67
REMARK SMILES IDX 39 68 40 69 42 70 44 71 41 72 63 73 64 74 69 75 65 76 66 77
REMARK SMILES IDX 68 78 70 79 67 80 51 81 52 82 57 83 53 84 54 85 56 86 58 87
REMARK SMILES IDX 55 88
REMARK H PARENT 2 24 2 25 75 50 49 61
REMARK Flexibility Score: inf
ROOT
ATOM      1  C   UNL A   1      41.418  20.525  26.709  1.00  0.00     0.188 C 
ENDROOT
BRANCH   1   2
ATOM      2  O   UNL A   1      40.082  20.974  26.570  1.00  0.00    -0.376 OA
BRANCH   2   3
ATOM      3  C   UNL A   1      39.158  20.251  25.770  1.00  0.00     0.202 C 
BRANCH   3   4
ATOM      4  C   UNL A   1      38.023  20.948  25.006  1.00  0.00     0.261 C 
BRANCH   4   5
ATOM      5  O   UNL A   1      37.035  21.569  25.835  1.00  0.00    -0.460 OA
BRANCH   5   6
ATOM      6  C   UNL A   1      37.141  22.914  25.957  1.00  0.00     0.338 C 
ATOM      7  O   UNL A   1      38.163  23.578  25.924  1.00  0.00    -0.246 OA
BRANCH   6   8
ATOM      8  C   UNL A   1      35.795  23.525  25.947  1.00  0.00     0.060 A 
ATOM      9  N   UNL A   1      31.844  24.645  25.612  1.00  0.00    -0.311 N 
ATOM     10  C   UNL A   1      31.162  23.697  26.512  1.00  0.00     0.130 C 
ATOM     11  C   UNL A   1      33.221  24.504  25.781  1.00  0.00     0.047 A 
ATOM     12  C   UNL A   1      32.246  22.868  27.213  1.00  0.00     0.059 C 
ATOM     13  C   UNL A   1      33.487  23.375  26.551  1.00  0.00    -0.022 A 
ATOM     14  C   UNL A   1      34.256  25.283  25.306  1.00  0.00     0.027 A 
ATOM     15  C   UNL A   1      34.764  22.846  26.612  1.00  0.00     0.021 A 
ATOM     16  C   UNL A   1      35.556  24.778  25.361  1.00  0.00     0.018 A 
BRANCH   9  17
ATOM     17  C   UNL A   1      31.099  25.255  24.627  1.00  0.00     0.235 C 
ATOM     18  O   UNL A   1      30.242  24.591  24.023  1.00  0.00    -0.274 OA
BRANCH  17  19
ATOM     19  C   UNL A   1      31.463  26.640  24.054  1.00  0.00     0.131 C 
ATOM     20  C   UNL A   1      31.001  27.033  22.659  1.00  0.00     0.024 C 
BRANCH  19  21
ATOM     21  C   UNL A   1      31.353  27.763  25.112  1.00  0.00     0.273 C 
BRANCH  21  22
ATOM     22  N   UNL A   1      31.316  29.151  24.640  1.00  0.00    -0.348 N 
ATOM     23  C   UNL A   1      31.731  30.102  25.660  1.00  0.00     0.330 C 
ATOM     24  H   UNL A   1      31.939  29.239  23.838  1.00  0.00     0.346 HD
ATOM     25  H   UNL A   1      30.349  29.366  24.394  1.00  0.00     0.346 HD
ENDBRANCH  21  22
ENDBRANCH  19  21
ENDBRANCH  17  19
ENDBRANCH   9  17
ENDBRANCH   6   8
ENDBRANCH   5   6
ENDBRANCH   4   5
ENDBRANCH   3   4
ENDBRANCH   2   3
ENDBRANCH   1   2
BRANCH   1  26
ATOM     26  C   UNL A   1      41.987  19.442  25.770  1.00  0.00     0.188 C 
BRANCH  26  27
ATOM     27  O   UNL A   1      43.116  19.763  24.998  1.00  0.00    -0.376 OA
BRANCH  27  28
ATOM     28  C   UNL A   1      44.312  20.198  25.623  1.00  0.00     0.202 C 
BRANCH  28  29
ATOM     29  C   UNL A   1      45.001  21.564  25.423  1.00  0.00     0.261 C 
BRANCH  29  30
ATOM     30  O   UNL A   1      44.441  22.714  26.062  1.00  0.00    -0.460 OA
BRANCH  30  31
ATOM     31  C   UNL A   1      43.478  23.363  25.365  1.00  0.00     0.338 C 
ATOM     32  O   UNL A   1      43.013  23.057  24.274  1.00  0.00    -0.246 OA
BRANCH  31  33
ATOM     33  C   UNL A   1      42.917  24.430  26.210  1.00  0.00     0.060 A 
ATOM     34  C   UNL A   1      43.528  25.693  26.211  1.00  0.00     0.016 A 
ATOM     35  C   UNL A   1      41.812  24.174  27.023  1.00  0.00     0.016 A 
ATOM     36  C   UNL A   1      43.041  26.704  27.039  1.00  0.00     0.010 A 
ATOM     37  C   UNL A   1      41.342  25.180  27.869  1.00  0.00     0.010 A 
ATOM     38  C   UNL A   1      41.969  26.440  27.902  1.00  0.00    -0.014 A 
BRANCH  38  39
ATOM     39  C   UNL A   1      41.614  27.402  28.972  1.00  0.00     0.031 A 
ATOM     40  C   UNL A   1      42.391  27.356  30.260  1.00  0.00     0.074 A 
ATOM     41  C   UNL A   1      40.616  28.289  28.817  1.00  0.00     0.049 A 
ATOM     42  N   UNL A   1      42.194  28.010  31.374  1.00  0.00    -0.248 NA
ATOM     43  C   UNL A   1      43.543  26.441  30.291  1.00  0.00     0.031 C 
ATOM     44  C   UNL A   1      39.821  28.466  27.605  1.00  0.00     0.029 A 
ATOM     45  N   UNL A   1      40.089  29.196  29.704  1.00  0.00    -0.354 N 
ATOM     46  C   UNL A   1      43.186  27.576  32.244  1.00  0.00     0.074 A 
ATOM     47  C   UNL A   1      43.966  26.583  31.537  1.00  0.00     0.031 C 
ATOM     48  C   UNL A   1      38.891  29.411  27.830  1.00  0.00     0.029 A 
ATOM     49  C   UNL A   1      39.000  29.874  29.213  1.00  0.00     0.049 A 
ATOM     50  H   UNL A   1      40.458  29.346  30.604  1.00  0.00     0.167 HD
ATOM     51  C   UNL A   1      43.428  27.972  33.516  1.00  0.00     0.037 A 
ATOM     52  C   UNL A   1      38.169  30.741  29.825  1.00  0.00     0.037 A 
ATOM     53  C   UNL A   1      42.645  28.951  34.220  1.00  0.00     0.049 A 
ATOM     54  C   UNL A   1      38.403  31.098  31.272  1.00  0.00     0.074 A 
ATOM     55  C   UNL A   1      42.816  29.428  35.508  1.00  0.00     0.029 A 
ATOM     56  N   UNL A   1      41.534  29.597  33.698  1.00  0.00    -0.354 N 
ATOM     57  N   UNL A   1      39.353  30.698  32.083  1.00  0.00    -0.248 NA
ATOM     58  C   UNL A   1      37.444  32.028  31.889  1.00  0.00     0.031 C 
ATOM     59  C   UNL A   1      41.775  30.320  35.785  1.00  0.00     0.029 A 
ATOM     60  C   UNL A   1      40.994  30.449  34.647  1.00  0.00     0.049 A 
ATOM     61  H   UNL A   1      41.182  29.469  32.787  1.00  0.00     0.167 HD
ATOM     62  C   UNL A   1      39.131  31.355  33.287  1.00  0.00     0.074 A 
ATOM     63  C   UNL A   1      37.959  32.184  33.100  1.00  0.00     0.031 C 
ATOM     64  C   UNL A   1      39.837  31.283  34.443  1.00  0.00     0.037 A 
BRANCH  51  65
ATOM     65  C   UNL A   1      44.570  27.316  34.237  1.00  0.00     0.057 A 
ATOM     66  C   UNL A   1      45.892  27.756  34.091  1.00  0.00     0.134 A 
ATOM     67  C   UNL A   1      44.340  26.241  35.107  1.00  0.00     0.134 A 
ATOM     68  F   UNL A   1      46.184  28.770  33.262  1.00  0.00    -0.206 F 
ATOM     69  C   UNL A   1      46.947  27.135  34.763  1.00  0.00     0.040 A 
ATOM     70  C   UNL A   1      45.382  25.632  35.807  1.00  0.00     0.040 A 
ATOM     71  F   UNL A   1      43.098  25.772  35.296  1.00  0.00    -0.206 F 
ATOM     72  C   UNL A   1      46.692  26.075  35.630  1.00  0.00     0.006 A 
ENDBRANCH  51  65
BRANCH  52  73
ATOM     73  C   UNL A   1      37.022  31.327  29.084  1.00  0.00     0.057 A 
ATOM     74  C   UNL A   1      37.046  32.657  28.647  1.00  0.00     0.134 A 
ATOM     75  C   UNL A   1      35.863  30.586  28.824  1.00  0.00     0.134 A 
ATOM     76  F   UNL A   1      38.118  33.427  28.888  1.00  0.00    -0.206 F 
ATOM     77  C   UNL A   1      35.953  33.235  27.999  1.00  0.00     0.040 A 
ATOM     78  C   UNL A   1      34.774  31.142  28.151  1.00  0.00     0.040 A 
ATOM     79  F   UNL A   1      35.774  29.307  29.218  1.00  0.00    -0.206 F 
ATOM     80  C   UNL A   1      34.814  32.474  27.745  1.00  0.00     0.006 A 
ENDBRANCH  52  73
BRANCH  64  81
ATOM     81  C   UNL A   1      39.404  32.164  35.582  1.00  0.00     0.057 A 
ATOM     82  C   UNL A   1      38.517  31.723  36.571  1.00  0.00     0.134 A 
ATOM     83  C   UNL A   1      39.931  33.457  35.717  1.00  0.00     0.134 A 
ATOM     84  F   UNL A   1      37.967  30.503  36.498  1.00  0.00    -0.206 F 
ATOM     85  C   UNL A   1      38.155  32.543  37.643  1.00  0.00     0.040 A 
ATOM     86  C   UNL A   1      39.600  34.273  36.798  1.00  0.00     0.040 A 
ATOM     87  F   UNL A   1      40.795  33.937  34.809  1.00  0.00    -0.206 F 
ATOM     88  C   UNL A   1      38.704  33.818  37.763  1.00  0.00     0.006 A 
ENDBRANCH  64  81
ENDBRANCH  38  39
ENDBRANCH  31  33
ENDBRANCH  30  31
ENDBRANCH  29  30
ENDBRANCH  28  29
ENDBRANCH  27  28
ENDBRANCH  26  27
ENDBRANCH   1  26
TORSDOF 21
ENDMDL
MODEL 3
REMARK VINA RESULT:      -9.6      3.912      7.815
REMARK SMILES C[NH2+]C[C@H](C)C(=O)N1CCc2cc(C(=O)OCCOCCOCCOC(=O)c3ccc(-c4c5nc(c(-c6c(F)cccc6F)c6ccc([nH]6)c(-c6c(F)cccc6F)c6nc(c(-c7c(F)cccc7F)c7ccc4[nH]7)C=C6)C=C5)cc3)ccc21
REMARK SMILES IDX 20 1 19 2 18 3 17 4 16 5 14 6 15 7 13 8 8 9 9 10 84 11 10 12
REMARK SMILES IDX 11 13 83 14 12 15 82 16 6 17 7 18 4 19 5 20 3 21 2 22 1 23
REMARK SMILES IDX 21 26 22 27 23 28 24 29 25 30 26 31 27 32 28 33 29 34 81 35
REMARK SMILES IDX 30 36 80 37 31 38 32 39 33 40 74 41 34 42 79 43 73 44 75 45
REMARK SMILES IDX 35 46 78 47 72 48 71 49 36 51 62 52 45 53 61 54 46 55 49 56
REMARK SMILES IDX 60 57 76 58 47 59 48 60 59 62 77 63 50 64 37 65 38 66 43 67
REMARK SMILES IDX 39 68 40 69 42 70 44 71 41 72 63 73 64 74 69 75 65 76 66 77
REMARK SMILES IDX 68 78 70 79 67 80 51 81 52 82 57 83 53 84 54 85 56 86 58 87
REMARK SMILES IDX 55 88
REMARK H PARENT 2 24 2 25 75 50 49 61
REMARK Flexibility Score: inf
ROOT
ATOM      1  C   UNL A   1      32.059  23.012  26.470  1.00  0.00     0.188 C 
ENDROOT
BRANCH   1   2
ATOM      2  O   UNL A   1      31.215  22.622  25.402  1.00  0.00    -0.376 OA
BRANCH   2   3
ATOM      3  C   UNL A   1      31.766  22.125  24.191  1.00  0.00     0.202 C 
BRANCH   3   4
ATOM      4  C   UNL A   1      31.944  23.014  22.952  1.00  0.00     0.261 C 
BRANCH   4   5
ATOM      5  O   UNL A   1      33.210  22.884  22.297  1.00  0.00    -0.460 OA
BRANCH   5   6
ATOM      6  C   UNL A   1      34.218  23.615  22.832  1.00  0.00     0.338 C 
ATOM      7  O   UNL A   1      35.384  23.279  22.960  1.00  0.00    -0.246 OA
BRANCH   6   8
ATOM      8  C   UNL A   1      33.758  24.997  23.080  1.00  0.00     0.060 A 
ATOM      9  N   UNL A   1      32.108  28.575  24.289  1.00  0.00    -0.311 N 
ATOM     10  C   UNL A   1      32.706  28.771  25.623  1.00  0.00     0.130 C 
ATOM     11  C   UNL A   1      32.737  27.490  23.678  1.00  0.00     0.047 A 
ATOM     12  C   UNL A   1      33.722  27.644  25.842  1.00  0.00     0.059 C 
ATOM     13  C   UNL A   1      33.533  26.824  24.606  1.00  0.00    -0.022 A 
ATOM     14  C   UNL A   1      32.656  27.038  22.377  1.00  0.00     0.027 A 
ATOM     15  C   UNL A   1      34.019  25.556  24.340  1.00  0.00     0.021 A 
ATOM     16  C   UNL A   1      33.145  25.765  22.078  1.00  0.00     0.018 A 
BRANCH   9  17
ATOM     17  C   UNL A   1      30.938  29.239  23.998  1.00  0.00     0.235 C 
ATOM     18  O   UNL A   1      30.648  30.257  24.646  1.00  0.00    -0.274 OA
BRANCH  17  19
ATOM     19  C   UNL A   1      29.843  28.630  23.099  1.00  0.00     0.131 C 
ATOM     20  C   UNL A   1      29.157  27.334  23.503  1.00  0.00     0.024 C 
BRANCH  19  21
ATOM     21  C   UNL A   1      28.899  29.704  22.511  1.00  0.00     0.273 C 
BRANCH  21  22
ATOM     22  N   UNL A   1      29.504  30.864  21.848  1.00  0.00    -0.348 N 
ATOM     23  C   UNL A   1      28.906  32.123  22.262  1.00  0.00     0.330 C 
ATOM     24  H   UNL A   1      30.499  30.885  22.073  1.00  0.00     0.346 HD
ATOM     25  H   UNL A   1      29.346  30.762  20.845  1.00  0.00     0.346 HD
ENDBRANCH  21  22
ENDBRANCH  19  21
ENDBRANCH  17  19
ENDBRANCH   9  17
ENDBRANCH   6   8
ENDBRANCH   5   6
ENDBRANCH   4   5
ENDBRANCH   3   4
ENDBRANCH   2   3
ENDBRANCH   1   2
BRANCH   1  26
ATOM     26  C   UNL A   1      33.254  22.131  26.892  1.00  0.00     0.188 C 
BRANCH  26  27
ATOM     27  O   UNL A   1      34.403  22.144  26.083  1.00  0.00    -0.376 OA
BRANCH  27  28
ATOM     28  C   UNL A   1      35.141  20.953  25.868  1.00  0.00     0.202 C 
BRANCH  28  29
ATOM     29  C   UNL A   1      36.433  20.818  25.036  1.00  0.00     0.261 C 
BRANCH  29  30
ATOM     30  O   UNL A   1      37.443  21.822  25.169  1.00  0.00    -0.460 OA
BRANCH  30  31
ATOM     31  C   UNL A   1      38.583  21.432  25.786  1.00  0.00     0.338 C 
ATOM     32  O   UNL A   1      39.111  20.327  25.747  1.00  0.00    -0.246 OA
BRANCH  31  33
ATOM     33  C   UNL A   1      39.222  22.611  26.392  1.00  0.00     0.060 A 
ATOM     34  C   UNL A   1      38.708  23.887  26.114  1.00  0.00     0.016 A 
ATOM     35  C   UNL A   1      40.345  22.460  27.207  1.00  0.00     0.016 A 
ATOM     36  C   UNL A   1      39.328  25.020  26.640  1.00  0.00     0.010 A 
ATOM     37  C   UNL A   1      40.978  23.597  27.713  1.00  0.00     0.010 A 
ATOM     38  C   UNL A   1      40.490  24.882  27.411  1.00  0.00    -0.014 A 
BRANCH  38  39
ATOM     39  C   UNL A   1      41.309  26.070  27.750  1.00  0.00     0.031 A 
ATOM     40  C   UNL A   1      40.666  27.181  28.533  1.00  0.00     0.074 A 
ATOM     41  C   UNL A   1      42.592  26.173  27.361  1.00  0.00     0.049 A 
ATOM     42  N   UNL A   1      41.137  28.359  28.848  1.00  0.00    -0.248 NA
ATOM     43  C   UNL A   1      39.301  26.926  29.021  1.00  0.00     0.031 C 
ATOM     44  C   UNL A   1      43.344  25.149  26.640  1.00  0.00     0.029 A 
ATOM     45  N   UNL A   1      43.482  27.209  27.504  1.00  0.00    -0.354 N 
ATOM     46  C   UNL A   1      40.124  28.991  29.557  1.00  0.00     0.074 A 
ATOM     47  C   UNL A   1      39.004  28.077  29.602  1.00  0.00     0.031 C 
ATOM     48  C   UNL A   1      44.579  25.616  26.385  1.00  0.00     0.029 A 
ATOM     49  C   UNL A   1      44.689  26.985  26.888  1.00  0.00     0.049 A 
ATOM     50  H   UNL A   1      43.275  28.032  28.002  1.00  0.00     0.167 HD
ATOM     51  C   UNL A   1      40.128  30.221  30.123  1.00  0.00     0.037 A 
ATOM     52  C   UNL A   1      45.745  27.806  26.722  1.00  0.00     0.037 A 
ATOM     53  C   UNL A   1      41.240  31.132  30.068  1.00  0.00     0.049 A 
ATOM     54  C   UNL A   1      45.692  29.205  27.281  1.00  0.00     0.074 A 
ATOM     55  C   UNL A   1      41.347  32.397  30.618  1.00  0.00     0.029 A 
ATOM     56  N   UNL A   1      42.436  30.879  29.413  1.00  0.00    -0.354 N 
ATOM     57  N   UNL A   1      44.739  29.790  27.967  1.00  0.00    -0.248 NA
ATOM     58  C   UNL A   1      46.865  30.060  27.042  1.00  0.00     0.031 C 
ATOM     59  C   UNL A   1      42.584  32.932  30.249  1.00  0.00     0.029 A 
ATOM     60  C   UNL A   1      43.276  31.974  29.523  1.00  0.00     0.049 A 
ATOM     61  H   UNL A   1      42.655  30.043  28.939  1.00  0.00     0.167 HD
ATOM     62  C   UNL A   1      45.211  31.061  28.273  1.00  0.00     0.074 A 
ATOM     63  C   UNL A   1      46.538  31.162  27.703  1.00  0.00     0.031 C 
ATOM     64  C   UNL A   1      44.603  32.054  28.967  1.00  0.00     0.037 A 
BRANCH  51  65
ATOM     65  C   UNL A   1      38.875  30.663  30.823  1.00  0.00     0.057 A 
ATOM     66  C   UNL A   1      37.852  31.346  30.154  1.00  0.00     0.134 A 
ATOM     67  C   UNL A   1      38.682  30.381  32.182  1.00  0.00     0.134 A 
ATOM     68  F   UNL A   1      37.980  31.662  28.856  1.00  0.00    -0.206 F 
ATOM     69  C   UNL A   1      36.693  31.756  30.816  1.00  0.00     0.040 A 
ATOM     70  C   UNL A   1      37.515  30.759  32.847  1.00  0.00     0.040 A 
ATOM     71  F   UNL A   1      39.620  29.726  32.882  1.00  0.00    -0.206 F 
ATOM     72  C   UNL A   1      36.520  31.456  32.166  1.00  0.00     0.006 A 
ENDBRANCH  51  65
BRANCH  52  73
ATOM     73  C   UNL A   1      46.944  27.340  25.979  1.00  0.00     0.057 A 
ATOM     74  C   UNL A   1      48.034  26.768  26.647  1.00  0.00     0.134 A 
ATOM     75  C   UNL A   1      47.047  27.486  24.589  1.00  0.00     0.134 A 
ATOM     76  F   UNL A   1      48.007  26.625  27.980  1.00  0.00    -0.206 F 
ATOM     77  C   UNL A   1      49.188  26.378  25.966  1.00  0.00     0.040 A 
ATOM     78  C   UNL A   1      48.184  27.073  23.892  1.00  0.00     0.040 A 
ATOM     79  F   UNL A   1      46.040  28.029  23.889  1.00  0.00    -0.206 F 
ATOM     80  C   UNL A   1      49.263  26.526  24.582  1.00  0.00     0.006 A 
ENDBRANCH  52  73
BRANCH  64  81
ATOM     81  C   UNL A   1      45.382  33.318  29.206  1.00  0.00     0.057 A 
ATOM     82  C   UNL A   1      46.176  33.503  30.344  1.00  0.00     0.134 A 
ATOM     83  C   UNL A   1      45.378  34.343  28.248  1.00  0.00     0.134 A 
ATOM     84  F   UNL A   1      46.218  32.568  31.304  1.00  0.00    -0.206 F 
ATOM     85  C   UNL A   1      46.923  34.669  30.530  1.00  0.00     0.040 A 
ATOM     86  C   UNL A   1      46.143  35.498  28.410  1.00  0.00     0.040 A 
ATOM     87  F   UNL A   1      44.647  34.226  27.129  1.00  0.00    -0.206 F 
ATOM     88  C   UNL A   1      46.914  35.667  29.558  1.00  0.00     0.006 A 
ENDBRANCH  64  81
ENDBRANCH  38  39
ENDBRANCH  31  33
ENDBRANCH  30  31
ENDBRANCH  29  30
ENDBRANCH  28  29
ENDBRANCH  27  28
ENDBRANCH  26  27
ENDBRANCH   1  26
TORSDOF 21
ENDMDL
