MODEL 1
REMARK VINA RESULT:     -10.8      0.000      0.000
REMARK SMILES CCc1nc(Oc2ccc(C(=O)OCCOCCOCCOC(=O)c3ccc(-c4c5nc(c(-c6c(F)cccc6F)c6ccc([nH]6)c(-c6c(F)cccc6F)c6nc(c(-c7c(F)cccc7F)c7ccc4[nH]7)C=C6)C=C5)cc3)cc2)cc(C(C)C)n1
REMARK SMILES IDX 17 1 16 2 15 3 14 4 13 5 11 6 12 7 10 8 7 9 8 10 80 11 9 12
REMARK SMILES IDX 79 13 6 14 5 15 3 16 4 17 86 18 82 19 81 20 2 21 1 22 83 23
REMARK SMILES IDX 84 24 85 25 18 26 19 27 20 28 21 29 22 30 23 31 24 32 25 33
REMARK SMILES IDX 26 34 78 35 27 36 77 37 28 38 29 39 30 40 71 41 31 42 76 43
REMARK SMILES IDX 70 44 72 45 32 46 75 47 69 48 68 49 33 51 59 52 42 53 58 54
REMARK SMILES IDX 43 55 46 56 57 57 73 58 44 59 45 60 56 62 74 63 47 64 34 65
REMARK SMILES IDX 35 66 40 67 36 68 37 69 39 70 41 71 38 72 60 73 61 74 66 75
REMARK SMILES IDX 62 76 63 77 65 78 67 79 64 80 48 81 49 82 54 83 50 84 51 85
REMARK SMILES IDX 53 86 55 87 52 88
REMARK H PARENT 72 50 46 61
REMARK Flexibility Score: inf
ROOT
ATOM      1  C   UNL A   1      35.980  21.455  25.773  1.00  0.00     0.188 C 
ENDROOT
BRANCH   1   2
ATOM      2  O   UNL A   1      34.896  22.037  26.492  1.00  0.00    -0.376 OA
BRANCH   2   3
ATOM      3  C   UNL A   1      33.719  21.277  26.744  1.00  0.00     0.202 C 
BRANCH   3   4
ATOM      4  C   UNL A   1      33.126  20.429  25.612  1.00  0.00     0.261 C 
BRANCH   4   5
ATOM      5  O   UNL A   1      32.007  21.044  24.956  1.00  0.00    -0.460 OA
BRANCH   5   6
ATOM      6  C   UNL A   1      32.155  21.234  23.624  1.00  0.00     0.338 C 
ATOM      7  O   UNL A   1      32.178  20.377  22.757  1.00  0.00    -0.246 OA
BRANCH   6   8
ATOM      8  C   UNL A   1      32.142  22.680  23.299  1.00  0.00     0.060 A 
ATOM      9  C   UNL A   1      31.857  25.302  22.466  1.00  0.00     0.129 A 
ATOM     10  C   UNL A   1      30.837  24.719  23.214  1.00  0.00     0.048 A 
ATOM     11  C   UNL A   1      33.081  24.650  22.268  1.00  0.00     0.048 A 
ATOM     12  C   UNL A   1      30.978  23.397  23.623  1.00  0.00     0.019 A 
ATOM     13  C   UNL A   1      33.216  23.320  22.667  1.00  0.00     0.019 A 
BRANCH   9  14
ATOM     14  O   UNL A   1      31.565  26.448  21.760  1.00  0.00    -0.439 OA
BRANCH  14  15
ATOM     15  C   UNL A   1      31.215  27.555  22.533  1.00  0.00     0.222 A 
ATOM     16  C   UNL A   1      29.676  29.206  22.906  1.00  0.00     0.132 A 
ATOM     17  N   UNL A   1      30.085  28.172  22.147  1.00  0.00    -0.198 NA
ATOM     18  N   UNL A   1      30.284  29.615  24.039  1.00  0.00    -0.237 NA
ATOM     19  C   UNL A   1      31.412  28.982  24.398  1.00  0.00     0.050 A 
ATOM     20  C   UNL A   1      31.941  27.970  23.635  1.00  0.00     0.093 A 
BRANCH  16  21
ATOM     21  C   UNL A   1      28.424  29.921  22.467  1.00  0.00     0.074 C 
ATOM     22  C   UNL A   1      27.868  30.892  23.499  1.00  0.00     0.012 C 
ENDBRANCH  16  21
BRANCH  19  23
ATOM     23  C   UNL A   1      32.080  29.350  25.709  1.00  0.00     0.032 C 
ATOM     24  C   UNL A   1      31.766  30.788  26.106  1.00  0.00     0.014 C 
ATOM     25  C   UNL A   1      31.684  28.360  26.805  1.00  0.00     0.014 C 
ENDBRANCH  19  23
ENDBRANCH  14  15
ENDBRANCH   9  14
ENDBRANCH   6   8
ENDBRANCH   5   6
ENDBRANCH   4   5
ENDBRANCH   3   4
ENDBRANCH   2   3
ENDBRANCH   1   2
BRANCH   1  26
ATOM     26  C   UNL A   1      37.316  22.217  25.640  1.00  0.00     0.188 C 
BRANCH  26  27
ATOM     27  O   UNL A   1      38.329  21.473  25.005  1.00  0.00    -0.376 OA
BRANCH  27  28
ATOM     28  C   UNL A   1      38.303  20.061  25.103  1.00  0.00     0.202 C 
BRANCH  28  29
ATOM     29  C   UNL A   1      39.389  19.269  25.859  1.00  0.00     0.261 C 
BRANCH  29  30
ATOM     30  O   UNL A   1      40.736  19.365  25.380  1.00  0.00    -0.460 OA
BRANCH  30  31
ATOM     31  C   UNL A   1      41.697  19.588  26.304  1.00  0.00     0.338 C 
ATOM     32  O   UNL A   1      42.566  18.817  26.663  1.00  0.00    -0.246 OA
BRANCH  31  33
ATOM     33  C   UNL A   1      41.637  21.011  26.703  1.00  0.00     0.060 A 
ATOM     34  C   UNL A   1      41.493  21.981  25.703  1.00  0.00     0.016 A 
ATOM     35  C   UNL A   1      41.765  21.388  28.043  1.00  0.00     0.016 A 
ATOM     36  C   UNL A   1      41.536  23.335  26.036  1.00  0.00     0.010 A 
ATOM     37  C   UNL A   1      41.823  22.747  28.373  1.00  0.00     0.010 A 
ATOM     38  C   UNL A   1      41.754  23.725  27.364  1.00  0.00    -0.014 A 
BRANCH  38  39
ATOM     39  C   UNL A   1      42.134  25.130  27.652  1.00  0.00     0.031 A 
ATOM     40  C   UNL A   1      43.467  25.625  27.155  1.00  0.00     0.074 A 
ATOM     41  C   UNL A   1      41.303  25.968  28.297  1.00  0.00     0.049 A 
ATOM     42  N   UNL A   1      44.010  26.810  27.265  1.00  0.00    -0.248 NA
ATOM     43  C   UNL A   1      44.299  24.646  26.437  1.00  0.00     0.031 C 
ATOM     44  C   UNL A   1      39.977  25.623  28.803  1.00  0.00     0.029 A 
ATOM     45  N   UNL A   1      41.462  27.289  28.634  1.00  0.00    -0.354 N 
ATOM     46  C   UNL A   1      45.242  26.720  26.629  1.00  0.00     0.074 A 
ATOM     47  C   UNL A   1      45.384  25.356  26.170  1.00  0.00     0.031 C 
ATOM     48  C   UNL A   1      39.442  26.708  29.394  1.00  0.00     0.029 A 
ATOM     49  C   UNL A   1      40.397  27.814  29.322  1.00  0.00     0.049 A 
ATOM     50  H   UNL A   1      42.265  27.812  28.404  1.00  0.00     0.167 HD
ATOM     51  C   UNL A   1      46.169  27.687  26.433  1.00  0.00     0.037 A 
ATOM     52  C   UNL A   1      40.219  29.046  29.840  1.00  0.00     0.037 A 
ATOM     53  C   UNL A   1      46.036  29.043  26.893  1.00  0.00     0.049 A 
ATOM     54  C   UNL A   1      41.288  30.091  29.655  1.00  0.00     0.074 A 
ATOM     55  C   UNL A   1      46.919  30.097  26.742  1.00  0.00     0.029 A 
ATOM     56  N   UNL A   1      44.950  29.530  27.602  1.00  0.00    -0.354 N 
ATOM     57  N   UNL A   1      42.436  30.003  29.028  1.00  0.00    -0.248 NA
ATOM     58  C   UNL A   1      41.028  31.415  30.242  1.00  0.00     0.031 C 
ATOM     59  C   UNL A   1      46.384  31.213  27.395  1.00  0.00     0.029 A 
ATOM     60  C   UNL A   1      45.145  30.867  27.908  1.00  0.00     0.049 A 
ATOM     61  H   UNL A   1      44.156  29.005  27.852  1.00  0.00     0.167 HD
ATOM     62  C   UNL A   1      43.016  31.264  29.112  1.00  0.00     0.074 A 
ATOM     63  C   UNL A   1      42.089  32.101  29.844  1.00  0.00     0.031 C 
ATOM     64  C   UNL A   1      44.207  31.691  28.624  1.00  0.00     0.037 A 
BRANCH  51  65
ATOM     65  C   UNL A   1      47.422  27.298  25.704  1.00  0.00     0.057 A 
ATOM     66  C   UNL A   1      48.534  26.774  26.377  1.00  0.00     0.134 A 
ATOM     67  C   UNL A   1      47.513  27.437  24.315  1.00  0.00     0.134 A 
ATOM     68  F   UNL A   1      48.518  26.632  27.712  1.00  0.00    -0.206 F 
ATOM     69  C   UNL A   1      49.702  26.426  25.695  1.00  0.00     0.040 A 
ATOM     70  C   UNL A   1      48.665  27.070  23.618  1.00  0.00     0.040 A 
ATOM     71  F   UNL A   1      46.484  27.933  23.610  1.00  0.00    -0.206 F 
ATOM     72  C   UNL A   1      49.767  26.568  24.309  1.00  0.00     0.006 A 
ENDBRANCH  51  65
BRANCH  52  73
ATOM     73  C   UNL A   1      38.975  29.369  30.584  1.00  0.00     0.057 A 
ATOM     74  C   UNL A   1      37.871  29.941  29.941  1.00  0.00     0.134 A 
ATOM     75  C   UNL A   1      38.876  29.150  31.964  1.00  0.00     0.134 A 
ATOM     76  F   UNL A   1      37.916  30.199  28.626  1.00  0.00    -0.206 F 
ATOM     77  C   UNL A   1      36.722  30.304  30.645  1.00  0.00     0.040 A 
ATOM     78  C   UNL A   1      37.723  29.485  32.676  1.00  0.00     0.040 A 
ATOM     79  F   UNL A   1      39.899  28.608  32.638  1.00  0.00    -0.206 F 
ATOM     80  C   UNL A   1      36.645  30.072  32.017  1.00  0.00     0.006 A 
ENDBRANCH  52  73
BRANCH  64  81
ATOM     81  C   UNL A   1      44.550  33.141  28.818  1.00  0.00     0.057 A 
ATOM     82  C   UNL A   1      44.177  34.125  27.894  1.00  0.00     0.134 A 
ATOM     83  C   UNL A   1      45.243  33.559  29.962  1.00  0.00     0.134 A 
ATOM     84  F   UNL A   1      43.521  33.790  26.772  1.00  0.00    -0.206 F 
ATOM     85  C   UNL A   1      44.507  35.468  28.085  1.00  0.00     0.040 A 
ATOM     86  C   UNL A   1      45.554  34.902  30.178  1.00  0.00     0.040 A 
ATOM     87  F   UNL A   1      45.620  32.671  30.894  1.00  0.00    -0.206 F 
ATOM     88  C   UNL A   1      45.194  35.860  29.233  1.00  0.00     0.006 A 
ENDBRANCH  64  81
ENDBRANCH  38  39
ENDBRANCH  31  33
ENDBRANCH  30  31
ENDBRANCH  29  30
ENDBRANCH  28  29
ENDBRANCH  27  28
ENDBRANCH  26  27
ENDBRANCH   1  26
TORSDOF 21
ENDMDL
MODEL 2
REMARK VINA RESULT:     -10.8      3.389      8.664
REMARK SMILES CCc1nc(Oc2ccc(C(=O)OCCOCCOCCOC(=O)c3ccc(-c4c5nc(c(-c6c(F)cccc6F)c6ccc([nH]6)c(-c6c(F)cccc6F)c6nc(c(-c7c(F)cccc7F)c7ccc4[nH]7)C=C6)C=C5)cc3)cc2)cc(C(C)C)n1
REMARK SMILES IDX 17 1 16 2 15 3 14 4 13 5 11 6 12 7 10 8 7 9 8 10 80 11 9 12
REMARK SMILES IDX 79 13 6 14 5 15 3 16 4 17 86 18 82 19 81 20 2 21 1 22 83 23
REMARK SMILES IDX 84 24 85 25 18 26 19 27 20 28 21 29 22 30 23 31 24 32 25 33
REMARK SMILES IDX 26 34 78 35 27 36 77 37 28 38 29 39 30 40 71 41 31 42 76 43
REMARK SMILES IDX 70 44 72 45 32 46 75 47 69 48 68 49 33 51 59 52 42 53 58 54
REMARK SMILES IDX 43 55 46 56 57 57 73 58 44 59 45 60 56 62 74 63 47 64 34 65
REMARK SMILES IDX 35 66 40 67 36 68 37 69 39 70 41 71 38 72 60 73 61 74 66 75
REMARK SMILES IDX 62 76 63 77 65 78 67 79 64 80 48 81 49 82 54 83 50 84 51 85
REMARK SMILES IDX 53 86 55 87 52 88
REMARK H PARENT 72 50 46 61
REMARK Flexibility Score: inf
ROOT
ATOM      1  C   UNL A   1      33.306  32.738  27.949  1.00  0.00     0.188 C 
ENDROOT
BRANCH   1   2
ATOM      2  O   UNL A   1      34.041  31.589  27.535  1.00  0.00    -0.376 OA
BRANCH   2   3
ATOM      3  C   UNL A   1      33.358  30.375  27.240  1.00  0.00     0.202 C 
BRANCH   3   4
ATOM      4  C   UNL A   1      33.946  29.429  26.186  1.00  0.00     0.261 C 
BRANCH   4   5
ATOM      5  O   UNL A   1      33.360  28.119  26.196  1.00  0.00    -0.460 OA
BRANCH   5   6
ATOM      6  C   UNL A   1      33.404  27.460  25.014  1.00  0.00     0.338 C 
ATOM      7  O   UNL A   1      34.053  27.762  24.028  1.00  0.00    -0.246 OA
BRANCH   6   8
ATOM      8  C   UNL A   1      32.649  26.188  25.099  1.00  0.00     0.060 A 
ATOM      9  C   UNL A   1      31.501  23.699  25.469  1.00  0.00     0.129 A 
ATOM     10  C   UNL A   1      31.549  24.585  26.544  1.00  0.00     0.048 A 
ATOM     11  C   UNL A   1      31.869  24.097  24.177  1.00  0.00     0.048 A 
ATOM     12  C   UNL A   1      32.136  25.832  26.357  1.00  0.00     0.019 A 
ATOM     13  C   UNL A   1      32.470  25.344  23.995  1.00  0.00     0.019 A 
BRANCH   9  14
ATOM     14  O   UNL A   1      31.270  22.369  25.740  1.00  0.00    -0.439 OA
BRANCH  14  15
ATOM     15  C   UNL A   1      32.340  21.511  25.488  1.00  0.00     0.222 A 
ATOM     16  C   UNL A   1      32.991  19.438  24.773  1.00  0.00     0.132 A 
ATOM     17  N   UNL A   1      31.987  20.278  25.089  1.00  0.00    -0.198 NA
ATOM     18  N   UNL A   1      34.299  19.770  24.774  1.00  0.00    -0.237 NA
ATOM     19  C   UNL A   1      34.623  21.008  25.180  1.00  0.00     0.050 A 
ATOM     20  C   UNL A   1      33.664  21.899  25.597  1.00  0.00     0.093 A 
BRANCH  16  21
ATOM     21  C   UNL A   1      32.607  18.044  24.349  1.00  0.00     0.074 C 
ATOM     22  C   UNL A   1      33.346  17.542  23.116  1.00  0.00     0.012 C 
ENDBRANCH  16  21
BRANCH  19  23
ATOM     23  C   UNL A   1      36.070  21.452  25.115  1.00  0.00     0.032 C 
ATOM     24  C   UNL A   1      37.000  20.273  24.853  1.00  0.00     0.014 C 
ATOM     25  C   UNL A   1      36.243  22.552  24.068  1.00  0.00     0.014 C 
ENDBRANCH  19  23
ENDBRANCH  14  15
ENDBRANCH   9  14
ENDBRANCH   6   8
ENDBRANCH   5   6
ENDBRANCH   4   5
ENDBRANCH   3   4
ENDBRANCH   2   3
ENDBRANCH   1   2
BRANCH   1  26
ATOM     26  C   UNL A   1      34.048  33.966  28.518  1.00  0.00     0.188 C 
BRANCH  26  27
ATOM     27  O   UNL A   1      34.731  33.706  29.721  1.00  0.00    -0.376 OA
BRANCH  27  28
ATOM     28  C   UNL A   1      34.327  34.383  30.897  1.00  0.00     0.202 C 
BRANCH  28  29
ATOM     29  C   UNL A   1      34.465  33.754  32.297  1.00  0.00     0.261 C 
BRANCH  29  30
ATOM     30  O   UNL A   1      34.962  32.412  32.377  1.00  0.00    -0.460 OA
BRANCH  30  31
ATOM     31  C   UNL A   1      36.095  32.223  33.088  1.00  0.00     0.338 C 
ATOM     32  O   UNL A   1      36.302  32.544  34.243  1.00  0.00    -0.246 OA
BRANCH  31  33
ATOM     33  C   UNL A   1      37.017  31.394  32.282  1.00  0.00     0.060 A 
ATOM     34  C   UNL A   1      38.067  30.735  32.932  1.00  0.00     0.016 A 
ATOM     35  C   UNL A   1      36.874  31.302  30.894  1.00  0.00     0.016 A 
ATOM     36  C   UNL A   1      39.013  30.029  32.189  1.00  0.00     0.010 A 
ATOM     37  C   UNL A   1      37.834  30.606  30.148  1.00  0.00     0.010 A 
ATOM     38  C   UNL A   1      38.931  30.006  30.790  1.00  0.00    -0.014 A 
BRANCH  38  39
ATOM     39  C   UNL A   1      40.106  29.553  30.004  1.00  0.00     0.031 A 
ATOM     40  C   UNL A   1      41.235  30.525  29.785  1.00  0.00     0.074 A 
ATOM     41  C   UNL A   1      40.199  28.297  29.534  1.00  0.00     0.049 A 
ATOM     42  N   UNL A   1      42.367  30.358  29.152  1.00  0.00    -0.248 NA
ATOM     43  C   UNL A   1      41.058  31.869  30.359  1.00  0.00     0.031 C 
ATOM     44  C   UNL A   1      39.191  27.252  29.702  1.00  0.00     0.029 A 
ATOM     45  N   UNL A   1      41.199  27.692  28.815  1.00  0.00    -0.354 N 
ATOM     46  C   UNL A   1      43.037  31.572  29.254  1.00  0.00     0.074 A 
ATOM     47  C   UNL A   1      42.170  32.477  29.975  1.00  0.00     0.031 C 
ATOM     48  C   UNL A   1      39.624  26.131  29.095  1.00  0.00     0.029 A 
ATOM     49  C   UNL A   1      40.927  26.387  28.483  1.00  0.00     0.049 A 
ATOM     50  H   UNL A   1      42.033  28.149  28.560  1.00  0.00     0.167 HD
ATOM     51  C   UNL A   1      44.269  31.902  28.800  1.00  0.00     0.037 A 
ATOM     52  C   UNL A   1      41.647  25.507  27.761  1.00  0.00     0.037 A 
ATOM     53  C   UNL A   1      45.133  31.008  28.077  1.00  0.00     0.049 A 
ATOM     54  C   UNL A   1      42.993  25.914  27.219  1.00  0.00     0.074 A 
ATOM     55  C   UNL A   1      46.400  31.248  27.576  1.00  0.00     0.029 A 
ATOM     56  N   UNL A   1      44.814  29.701  27.745  1.00  0.00    -0.354 N 
ATOM     57  N   UNL A   1      43.629  27.054  27.346  1.00  0.00    -0.248 NA
ATOM     58  C   UNL A   1      43.728  24.903  26.443  1.00  0.00     0.031 C 
ATOM     59  C   UNL A   1      46.832  30.098  26.906  1.00  0.00     0.029 A 
ATOM     60  C   UNL A   1      45.854  29.125  27.034  1.00  0.00     0.049 A 
ATOM     61  H   UNL A   1      43.972  29.248  27.980  1.00  0.00     0.167 HD
ATOM     62  C   UNL A   1      44.849  26.885  26.701  1.00  0.00     0.074 A 
ATOM     63  C   UNL A   1      44.867  25.529  26.191  1.00  0.00     0.031 C 
ATOM     64  C   UNL A   1      45.864  27.771  26.546  1.00  0.00     0.037 A 
BRANCH  51  65
ATOM     65  C   UNL A   1      44.741  33.303  29.056  1.00  0.00     0.057 A 
ATOM     66  C   UNL A   1      45.542  33.621  30.162  1.00  0.00     0.134 A 
ATOM     67  C   UNL A   1      44.402  34.343  28.184  1.00  0.00     0.134 A 
ATOM     68  F   UNL A   1      45.887  32.673  31.047  1.00  0.00    -0.206 F 
ATOM     69  C   UNL A   1      45.968  34.929  30.402  1.00  0.00     0.040 A 
ATOM     70  C   UNL A   1      44.842  35.650  28.399  1.00  0.00     0.040 A 
ATOM     71  F   UNL A   1      43.638  34.106  27.106  1.00  0.00    -0.206 F 
ATOM     72  C   UNL A   1      45.622  35.947  29.514  1.00  0.00     0.006 A 
ENDBRANCH  51  65
BRANCH  52  73
ATOM     73  C   UNL A   1      41.118  24.143  27.504  1.00  0.00     0.057 A 
ATOM     74  C   UNL A   1      40.096  23.923  26.573  1.00  0.00     0.134 A 
ATOM     75  C   UNL A   1      41.594  23.033  28.213  1.00  0.00     0.134 A 
ATOM     76  F   UNL A   1      39.581  24.950  25.882  1.00  0.00    -0.206 F 
ATOM     77  C   UNL A   1      39.551  22.654  26.371  1.00  0.00     0.040 A 
ATOM     78  C   UNL A   1      41.076  21.754  28.003  1.00  0.00     0.040 A 
ATOM     79  F   UNL A   1      42.570  23.178  29.121  1.00  0.00    -0.206 F 
ATOM     80  C   UNL A   1      40.045  21.564  27.085  1.00  0.00     0.006 A 
ENDBRANCH  52  73
BRANCH  64  81
ATOM     81  C   UNL A   1      47.101  27.285  25.846  1.00  0.00     0.057 A 
ATOM     82  C   UNL A   1      47.328  27.520  24.485  1.00  0.00     0.134 A 
ATOM     83  C   UNL A   1      48.093  26.594  26.556  1.00  0.00     0.134 A 
ATOM     84  F   UNL A   1      46.413  28.167  23.745  1.00  0.00    -0.206 F 
ATOM     85  C   UNL A   1      48.480  27.058  23.846  1.00  0.00     0.040 A 
ATOM     86  C   UNL A   1      49.262  26.152  25.935  1.00  0.00     0.040 A 
ATOM     87  F   UNL A   1      47.946  26.346  27.866  1.00  0.00    -0.206 F 
ATOM     88  C   UNL A   1      49.454  26.376  24.574  1.00  0.00     0.006 A 
ENDBRANCH  64  81
ENDBRANCH  38  39
ENDBRANCH  31  33
ENDBRANCH  30  31
ENDBRANCH  29  30
ENDBRANCH  28  29
ENDBRANCH  27  28
ENDBRANCH  26  27
ENDBRANCH   1  26
TORSDOF 21
ENDMDL
MODEL 3
REMARK VINA RESULT:     -10.4      4.108      9.252
REMARK SMILES CCc1nc(Oc2ccc(C(=O)OCCOCCOCCOC(=O)c3ccc(-c4c5nc(c(-c6c(F)cccc6F)c6ccc([nH]6)c(-c6c(F)cccc6F)c6nc(c(-c7c(F)cccc7F)c7ccc4[nH]7)C=C6)C=C5)cc3)cc2)cc(C(C)C)n1
REMARK SMILES IDX 17 1 16 2 15 3 14 4 13 5 11 6 12 7 10 8 7 9 8 10 80 11 9 12
REMARK SMILES IDX 79 13 6 14 5 15 3 16 4 17 86 18 82 19 81 20 2 21 1 22 83 23
REMARK SMILES IDX 84 24 85 25 18 26 19 27 20 28 21 29 22 30 23 31 24 32 25 33
REMARK SMILES IDX 26 34 78 35 27 36 77 37 28 38 29 39 30 40 71 41 31 42 76 43
REMARK SMILES IDX 70 44 72 45 32 46 75 47 69 48 68 49 33 51 59 52 42 53 58 54
REMARK SMILES IDX 43 55 46 56 57 57 73 58 44 59 45 60 56 62 74 63 47 64 34 65
REMARK SMILES IDX 35 66 40 67 36 68 37 69 39 70 41 71 38 72 60 73 61 74 66 75
REMARK SMILES IDX 62 76 63 77 65 78 67 79 64 80 48 81 49 82 54 83 50 84 51 85
REMARK SMILES IDX 53 86 55 87 52 88
REMARK H PARENT 72 50 46 61
REMARK Flexibility Score: inf
ROOT
ATOM      1  C   UNL A   1      32.592  36.481  31.838  1.00  0.00     0.188 C 
ENDROOT
BRANCH   1   2
ATOM      2  O   UNL A   1      33.227  36.305  30.574  1.00  0.00    -0.376 OA
BRANCH   2   3
ATOM      3  C   UNL A   1      33.428  34.995  30.055  1.00  0.00     0.202 C 
BRANCH   3   4
ATOM      4  C   UNL A   1      33.805  34.831  28.577  1.00  0.00     0.261 C 
BRANCH   4   5
ATOM      5  O   UNL A   1      33.973  33.464  28.173  1.00  0.00    -0.460 OA
BRANCH   5   6
ATOM      6  C   UNL A   1      32.876  32.886  27.628  1.00  0.00     0.338 C 
ATOM      7  O   UNL A   1      31.875  33.449  27.221  1.00  0.00    -0.246 OA
BRANCH   6   8
ATOM      8  C   UNL A   1      33.093  31.433  27.439  1.00  0.00     0.060 A 
ATOM      9  C   UNL A   1      33.689  28.809  26.800  1.00  0.00     0.129 A 
ATOM     10  C   UNL A   1      34.711  29.639  27.255  1.00  0.00     0.048 A 
ATOM     11  C   UNL A   1      32.350  29.222  26.814  1.00  0.00     0.048 A 
ATOM     12  C   UNL A   1      34.410  30.961  27.565  1.00  0.00     0.019 A 
ATOM     13  C   UNL A   1      32.053  30.552  27.113  1.00  0.00     0.019 A 
BRANCH   9  14
ATOM     14  O   UNL A   1      34.043  27.645  26.153  1.00  0.00    -0.439 OA
BRANCH  14  15
ATOM     15  C   UNL A   1      32.981  26.848  25.727  1.00  0.00     0.222 A 
ATOM     16  C   UNL A   1      31.764  24.945  26.088  1.00  0.00     0.132 A 
ATOM     17  N   UNL A   1      32.819  25.712  26.425  1.00  0.00    -0.198 NA
ATOM     18  N   UNL A   1      30.847  25.269  25.153  1.00  0.00    -0.237 NA
ATOM     19  C   UNL A   1      31.036  26.409  24.469  1.00  0.00     0.050 A 
ATOM     20  C   UNL A   1      32.130  27.208  24.696  1.00  0.00     0.093 A 
BRANCH  16  21
ATOM     21  C   UNL A   1      31.588  23.656  26.848  1.00  0.00     0.074 C 
ATOM     22  C   UNL A   1      30.296  22.916  26.528  1.00  0.00     0.012 C 
ENDBRANCH  16  21
BRANCH  19  23
ATOM     23  C   UNL A   1      29.985  26.855  23.473  1.00  0.00     0.032 C 
ATOM     24  C   UNL A   1      28.596  26.373  23.878  1.00  0.00     0.014 C 
ATOM     25  C   UNL A   1      30.028  28.373  23.297  1.00  0.00     0.014 C 
ENDBRANCH  19  23
ENDBRANCH  14  15
ENDBRANCH   9  14
ENDBRANCH   6   8
ENDBRANCH   5   6
ENDBRANCH   4   5
ENDBRANCH   3   4
ENDBRANCH   2   3
ENDBRANCH   1   2
BRANCH   1  26
ATOM     26  C   UNL A   1      33.418  36.936  33.061  1.00  0.00     0.188 C 
BRANCH  26  27
ATOM     27  O   UNL A   1      34.773  36.560  32.998  1.00  0.00    -0.376 OA
BRANCH  27  28
ATOM     28  C   UNL A   1      35.142  35.260  33.423  1.00  0.00     0.202 C 
BRANCH  28  29
ATOM     29  C   UNL A   1      36.406  34.551  32.897  1.00  0.00     0.261 C 
BRANCH  29  30
ATOM     30  O   UNL A   1      36.315  33.881  31.634  1.00  0.00    -0.460 OA
BRANCH  30  31
ATOM     31  C   UNL A   1      35.797  32.632  31.642  1.00  0.00     0.338 C 
ATOM     32  O   UNL A   1      34.660  32.309  31.926  1.00  0.00    -0.246 OA
BRANCH  31  33
ATOM     33  C   UNL A   1      36.804  31.708  31.076  1.00  0.00     0.060 A 
ATOM     34  C   UNL A   1      37.552  30.915  31.954  1.00  0.00     0.016 A 
ATOM     35  C   UNL A   1      37.040  31.657  29.699  1.00  0.00     0.016 A 
ATOM     36  C   UNL A   1      38.579  30.109  31.462  1.00  0.00     0.010 A 
ATOM     37  C   UNL A   1      38.081  30.860  29.208  1.00  0.00     0.010 A 
ATOM     38  C   UNL A   1      38.883  30.119  30.094  1.00  0.00    -0.014 A 
BRANCH  38  39
ATOM     39  C   UNL A   1      40.169  29.537  29.635  1.00  0.00     0.031 A 
ATOM     40  C   UNL A   1      41.393  30.413  29.648  1.00  0.00     0.074 A 
ATOM     41  C   UNL A   1      40.267  28.249  29.259  1.00  0.00     0.049 A 
ATOM     42  N   UNL A   1      42.626  30.129  29.315  1.00  0.00    -0.248 NA
ATOM     43  C   UNL A   1      41.197  31.800  30.100  1.00  0.00     0.031 C 
ATOM     44  C   UNL A   1      39.167  27.289  29.228  1.00  0.00     0.029 A 
ATOM     45  N   UNL A   1      41.356  27.532  28.829  1.00  0.00    -0.354 N 
ATOM     46  C   UNL A   1      43.350  31.298  29.518  1.00  0.00     0.074 A 
ATOM     47  C   UNL A   1      42.414  32.305  29.968  1.00  0.00     0.031 C 
ATOM     48  C   UNL A   1      39.637  26.105  28.795  1.00  0.00     0.029 A 
ATOM     49  C   UNL A   1      41.064  26.231  28.503  1.00  0.00     0.049 A 
ATOM     50  H   UNL A   1      42.261  27.914  28.762  1.00  0.00     0.167 HD
ATOM     51  C   UNL A   1      44.677  31.513  29.359  1.00  0.00     0.037 A 
ATOM     52  C   UNL A   1      41.860  25.259  28.016  1.00  0.00     0.037 A 
ATOM     53  C   UNL A   1      45.611  30.517  28.906  1.00  0.00     0.049 A 
ATOM     54  C   UNL A   1      43.324  25.537  27.795  1.00  0.00     0.074 A 
ATOM     55  C   UNL A   1      46.976  30.637  28.715  1.00  0.00     0.029 A 
ATOM     56  N   UNL A   1      45.273  29.217  28.569  1.00  0.00    -0.354 N 
ATOM     57  N   UNL A   1      44.003  26.636  28.019  1.00  0.00    -0.248 NA
ATOM     58  C   UNL A   1      44.136  24.430  27.266  1.00  0.00     0.031 C 
ATOM     59  C   UNL A   1      47.458  29.419  28.222  1.00  0.00     0.029 A 
ATOM     60  C   UNL A   1      46.401  28.526  28.156  1.00  0.00     0.049 A 
ATOM     61  H   UNL A   1      44.365  28.839  28.615  1.00  0.00     0.167 HD
ATOM     62  C   UNL A   1      45.324  26.344  27.694  1.00  0.00     0.074 A 
ATOM     63  C   UNL A   1      45.350  24.960  27.266  1.00  0.00     0.031 C 
ATOM     64  C   UNL A   1      46.415  27.146  27.748  1.00  0.00     0.037 A 
BRANCH  51  65
ATOM     65  C   UNL A   1      45.189  32.891  29.657  1.00  0.00     0.057 A 
ATOM     66  C   UNL A   1      45.656  33.247  30.929  1.00  0.00     0.134 A 
ATOM     67  C   UNL A   1      45.225  33.871  28.659  1.00  0.00     0.134 A 
ATOM     68  F   UNL A   1      45.631  32.359  31.936  1.00  0.00    -0.206 F 
ATOM     69  C   UNL A   1      46.119  34.535  31.204  1.00  0.00     0.040 A 
ATOM     70  C   UNL A   1      45.709  35.156  28.913  1.00  0.00     0.040 A 
ATOM     71  F   UNL A   1      44.792  33.597  27.418  1.00  0.00    -0.206 F 
ATOM     72  C   UNL A   1      46.152  35.493  30.191  1.00  0.00     0.006 A 
ENDBRANCH  51  65
BRANCH  52  73
ATOM     73  C   UNL A   1      41.296  23.921  27.703  1.00  0.00     0.057 A 
ATOM     74  C   UNL A   1      41.619  22.798  28.473  1.00  0.00     0.134 A 
ATOM     75  C   UNL A   1      40.453  23.727  26.602  1.00  0.00     0.134 A 
ATOM     76  F   UNL A   1      42.443  22.915  29.524  1.00  0.00    -0.206 F 
ATOM     77  C   UNL A   1      41.142  21.526  28.149  1.00  0.00     0.040 A 
ATOM     78  C   UNL A   1      39.948  22.466  26.281  1.00  0.00     0.040 A 
ATOM     79  F   UNL A   1      40.108  24.762  25.823  1.00  0.00    -0.206 F 
ATOM     80  C   UNL A   1      40.300  21.359  27.052  1.00  0.00     0.006 A 
ENDBRANCH  52  73
BRANCH  64  81
ATOM     81  C   UNL A   1      47.739  26.533  27.388  1.00  0.00     0.057 A 
ATOM     82  C   UNL A   1      48.531  25.866  28.329  1.00  0.00     0.134 A 
ATOM     83  C   UNL A   1      48.213  26.591  26.070  1.00  0.00     0.134 A 
ATOM     84  F   UNL A   1      48.140  25.783  29.611  1.00  0.00    -0.206 F 
ATOM     85  C   UNL A   1      49.761  25.305  27.982  1.00  0.00     0.040 A 
ATOM     86  C   UNL A   1      49.427  26.010  25.704  1.00  0.00     0.040 A 
ATOM     87  F   UNL A   1      47.497  27.204  25.115  1.00  0.00    -0.206 F 
ATOM     88  C   UNL A   1      50.210  25.373  26.664  1.00  0.00     0.006 A 
ENDBRANCH  64  81
ENDBRANCH  38  39
ENDBRANCH  31  33
ENDBRANCH  30  31
ENDBRANCH  29  30
ENDBRANCH  28  29
ENDBRANCH  27  28
ENDBRANCH  26  27
ENDBRANCH   1  26
TORSDOF 21
ENDMDL
