MODEL 1
REMARK VINA RESULT:      -9.3      0.000      0.000
REMARK SMILES CC[NH2+]C[C@@H](C)C(=O)N1CCO[C@@H](CC(=O)OCCOCCOCCOC(=O)c2ccc(-c3c4nc(c(-c5c(F)cccc5F)c5ccc([nH]5)c(-c5c(F)cccc5F)c5nc(c(-c6c(F)cccc6F)c6ccc3[nH]6)C=C5)C=C4)cc2)C1
REMARK SMILES IDX 19 1 18 2 17 3 15 4 16 5 14 6 13 7 9 8 10 9 83 10 11 11
REMARK SMILES IDX 12 12 7 13 8 14 5 15 6 16 4 17 3 18 2 21 1 22 20 23 21 24
REMARK SMILES IDX 22 25 23 26 24 27 25 28 26 29 27 30 28 31 29 32 30 33 82 34
REMARK SMILES IDX 31 35 81 36 32 37 33 38 34 39 75 40 35 41 80 42 74 43 76 44
REMARK SMILES IDX 36 45 79 46 73 47 72 48 37 50 63 51 46 52 62 53 47 54 50 55
REMARK SMILES IDX 61 56 77 57 48 58 49 59 60 61 78 62 51 63 38 64 39 65 44 66
REMARK SMILES IDX 40 67 41 68 43 69 45 70 42 71 64 72 65 73 70 74 66 75 67 76
REMARK SMILES IDX 69 77 71 78 68 79 52 80 53 81 58 82 54 83 55 84 57 85 59 86
REMARK SMILES IDX 56 87
REMARK H PARENT 3 19 3 20 76 49 50 60
REMARK Flexibility Score: inf
ROOT
ATOM      1  C   UNL A   1      33.970  35.321  28.884  1.00  0.00     0.202 C 
ENDROOT
BRANCH   1   2
ATOM      2  C   UNL A   1      34.468  34.351  27.806  1.00  0.00     0.261 C 
BRANCH   2   3
ATOM      3  O   UNL A   1      33.680  33.143  27.717  1.00  0.00    -0.463 OA
BRANCH   3   4
ATOM      4  C   UNL A   1      34.210  32.048  28.313  1.00  0.00     0.308 C 
ATOM      5  O   UNL A   1      34.444  31.956  29.515  1.00  0.00    -0.252 OA
BRANCH   4   6
ATOM      6  C   UNL A   1      34.416  30.869  27.398  1.00  0.00     0.156 C 
BRANCH   6   7
ATOM      7  C   UNL A   1      33.245  30.107  26.783  1.00  0.00     0.148 C 
ATOM      8  N   UNL A   1      32.394  28.663  24.970  1.00  0.00    -0.337 N 
ATOM      9  C   UNL A   1      32.271  27.559  25.911  1.00  0.00     0.148 C 
ATOM     10  C   UNL A   1      33.478  29.592  25.341  1.00  0.00     0.152 C 
ATOM     11  C   UNL A   1      31.998  28.103  27.306  1.00  0.00     0.182 C 
ATOM     12  O   UNL A   1      33.046  28.993  27.705  1.00  0.00    -0.374 OA
BRANCH   8  13
ATOM     13  C   UNL A   1      31.659  28.893  23.825  1.00  0.00     0.231 C 
ATOM     14  O   UNL A   1      32.232  28.978  22.730  1.00  0.00    -0.274 OA
BRANCH  13  15
ATOM     15  C   UNL A   1      30.163  29.276  23.880  1.00  0.00     0.130 C 
ATOM     16  C   UNL A   1      29.342  28.145  23.269  1.00  0.00     0.024 C 
BRANCH  15  17
ATOM     17  C   UNL A   1      29.723  30.650  23.365  1.00  0.00     0.273 C 
BRANCH  17  18
ATOM     18  N   UNL A   1      29.776  30.858  21.910  1.00  0.00    -0.346 N 
ATOM     19  H   UNL A   1      30.234  31.752  21.731  1.00  0.00     0.346 HD
ATOM     20  H   UNL A   1      30.286  30.064  21.522  1.00  0.00     0.346 HD
BRANCH  18  21
ATOM     21  C   UNL A   1      28.474  30.874  21.253  1.00  0.00     0.257 C 
ATOM     22  C   UNL A   1      28.023  32.319  21.088  1.00  0.00     0.071 C 
ENDBRANCH  18  21
ENDBRANCH  17  18
ENDBRANCH  15  17
ENDBRANCH  13  15
ENDBRANCH   8  13
ENDBRANCH   6   7
ENDBRANCH   4   6
ENDBRANCH   3   4
ENDBRANCH   2   3
ENDBRANCH   1   2
BRANCH   1  23
ATOM     23  O   UNL A   1      32.749  34.964  29.530  1.00  0.00    -0.376 OA
BRANCH  23  24
ATOM     24  C   UNL A   1      32.519  35.534  30.813  1.00  0.00     0.188 C 
BRANCH  24  25
ATOM     25  C   UNL A   1      33.724  36.226  31.445  1.00  0.00     0.188 C 
BRANCH  25  26
ATOM     26  O   UNL A   1      34.130  35.797  32.728  1.00  0.00    -0.376 OA
BRANCH  26  27
ATOM     27  C   UNL A   1      35.111  34.764  32.860  1.00  0.00     0.202 C 
BRANCH  27  28
ATOM     28  C   UNL A   1      34.831  33.267  33.175  1.00  0.00     0.261 C 
BRANCH  28  29
ATOM     29  O   UNL A   1      35.690  32.270  32.609  1.00  0.00    -0.460 OA
BRANCH  29  30
ATOM     30  C   UNL A   1      36.807  31.955  33.300  1.00  0.00     0.338 C 
ATOM     31  O   UNL A   1      36.949  31.970  34.510  1.00  0.00    -0.246 OA
BRANCH  30  32
ATOM     32  C   UNL A   1      37.790  31.353  32.364  1.00  0.00     0.060 A 
ATOM     33  C   UNL A   1      38.893  30.683  32.911  1.00  0.00     0.016 A 
ATOM     34  C   UNL A   1      37.624  31.412  30.979  1.00  0.00     0.016 A 
ATOM     35  C   UNL A   1      39.848  30.093  32.081  1.00  0.00     0.010 A 
ATOM     36  C   UNL A   1      38.601  30.852  30.147  1.00  0.00     0.010 A 
ATOM     37  C   UNL A   1      39.734  30.218  30.692  1.00  0.00    -0.014 A 
BRANCH  37  38
ATOM     38  C   UNL A   1      40.893  29.896  29.821  1.00  0.00     0.031 A 
ATOM     39  C   UNL A   1      40.977  28.507  29.243  1.00  0.00     0.074 A 
ATOM     40  C   UNL A   1      41.845  30.800  29.529  1.00  0.00     0.049 A 
ATOM     41  N   UNL A   1      41.936  27.946  28.552  1.00  0.00    -0.248 NA
ATOM     42  C   UNL A   1      39.818  27.632  29.487  1.00  0.00     0.031 C 
ATOM     43  C   UNL A   1      41.857  32.193  29.967  1.00  0.00     0.029 A 
ATOM     44  N   UNL A   1      43.005  30.664  28.803  1.00  0.00    -0.354 N 
ATOM     45  C   UNL A   1      41.500  26.654  28.286  1.00  0.00     0.074 A 
ATOM     46  C   UNL A   1      40.207  26.503  28.918  1.00  0.00     0.031 C 
ATOM     47  C   UNL A   1      42.984  32.779  29.523  1.00  0.00     0.029 A 
ATOM     48  C   UNL A   1      43.790  31.792  28.804  1.00  0.00     0.049 A 
ATOM     49  H   UNL A   1      43.250  29.838  28.327  1.00  0.00     0.167 HD
ATOM     50  C   UNL A   1      42.116  25.681  27.573  1.00  0.00     0.037 A 
ATOM     51  C   UNL A   1      45.031  31.991  28.314  1.00  0.00     0.037 A 
ATOM     52  C   UNL A   1      43.406  25.825  26.954  1.00  0.00     0.049 A 
ATOM     53  C   UNL A   1      45.743  30.860  27.611  1.00  0.00     0.074 A 
ATOM     54  C   UNL A   1      44.119  24.895  26.218  1.00  0.00     0.029 A 
ATOM     55  N   UNL A   1      44.181  26.974  27.004  1.00  0.00    -0.354 N 
ATOM     56  N   UNL A   1      45.324  29.642  27.361  1.00  0.00    -0.248 NA
ATOM     57  C   UNL A   1      47.104  31.132  27.124  1.00  0.00     0.031 C 
ATOM     58  C   UNL A   1      45.347  25.462  25.868  1.00  0.00     0.029 A 
ATOM     59  C   UNL A   1      45.374  26.768  26.331  1.00  0.00     0.049 A 
ATOM     60  H   UNL A   1      43.922  27.812  27.451  1.00  0.00     0.167 HD
ATOM     61  C   UNL A   1      46.351  29.021  26.658  1.00  0.00     0.074 A 
ATOM     62  C   UNL A   1      47.407  29.997  26.511  1.00  0.00     0.031 C 
ATOM     63  C   UNL A   1      46.413  27.754  26.175  1.00  0.00     0.037 A 
BRANCH  50  64
ATOM     64  C   UNL A   1      41.410  24.362  27.452  1.00  0.00     0.057 A 
ATOM     65  C   UNL A   1      41.781  23.249  28.220  1.00  0.00     0.134 A 
ATOM     66  C   UNL A   1      40.326  24.209  26.578  1.00  0.00     0.134 A 
ATOM     67  F   UNL A   1      42.822  23.322  29.064  1.00  0.00    -0.206 F 
ATOM     68  C   UNL A   1      41.116  22.027  28.103  1.00  0.00     0.040 A 
ATOM     69  C   UNL A   1      39.634  23.002  26.475  1.00  0.00     0.040 A 
ATOM     70  F   UNL A   1      39.915  25.235  25.816  1.00  0.00    -0.206 F 
ATOM     71  C   UNL A   1      40.033  21.904  27.235  1.00  0.00     0.006 A 
ENDBRANCH  50  64
BRANCH  51  72
ATOM     72  C   UNL A   1      45.709  33.302  28.493  1.00  0.00     0.057 A 
ATOM     73  C   UNL A   1      45.600  34.317  27.533  1.00  0.00     0.134 A 
ATOM     74  C   UNL A   1      46.527  33.555  29.601  1.00  0.00     0.134 A 
ATOM     75  F   UNL A   1      44.858  34.128  26.433  1.00  0.00    -0.206 F 
ATOM     76  C   UNL A   1      46.298  35.520  27.656  1.00  0.00     0.040 A 
ATOM     77  C   UNL A   1      47.205  34.765  29.753  1.00  0.00     0.040 A 
ATOM     78  F   UNL A   1      46.680  32.624  30.556  1.00  0.00    -0.206 F 
ATOM     79  C   UNL A   1      47.100  35.749  28.772  1.00  0.00     0.006 A 
ENDBRANCH  51  72
BRANCH  63  80
ATOM     80  C   UNL A   1      47.636  27.366  25.394  1.00  0.00     0.057 A 
ATOM     81  C   UNL A   1      47.731  27.560  24.010  1.00  0.00     0.134 A 
ATOM     82  C   UNL A   1      48.756  26.833  26.047  1.00  0.00     0.134 A 
ATOM     83  F   UNL A   1      46.693  28.056  23.321  1.00  0.00    -0.206 F 
ATOM     84  C   UNL A   1      48.883  27.213  23.301  1.00  0.00     0.040 A 
ATOM     85  C   UNL A   1      49.924  26.512  25.356  1.00  0.00     0.040 A 
ATOM     86  F   UNL A   1      48.740  26.633  27.374  1.00  0.00    -0.206 F 
ATOM     87  C   UNL A   1      49.988  26.695  23.976  1.00  0.00     0.006 A 
ENDBRANCH  63  80
ENDBRANCH  37  38
ENDBRANCH  30  32
ENDBRANCH  29  30
ENDBRANCH  28  29
ENDBRANCH  27  28
ENDBRANCH  26  27
ENDBRANCH  25  26
ENDBRANCH  24  25
ENDBRANCH  23  24
ENDBRANCH   1  23
TORSDOF 23
ENDMDL
MODEL 2
REMARK VINA RESULT:      -8.7      2.014      7.044
REMARK SMILES CC[NH2+]C[C@@H](C)C(=O)N1CCO[C@@H](CC(=O)OCCOCCOCCOC(=O)c2ccc(-c3c4nc(c(-c5c(F)cccc5F)c5ccc([nH]5)c(-c5c(F)cccc5F)c5nc(c(-c6c(F)cccc6F)c6ccc3[nH]6)C=C5)C=C4)cc2)C1
REMARK SMILES IDX 19 1 18 2 17 3 15 4 16 5 14 6 13 7 9 8 10 9 83 10 11 11
REMARK SMILES IDX 12 12 7 13 8 14 5 15 6 16 4 17 3 18 2 21 1 22 20 23 21 24
REMARK SMILES IDX 22 25 23 26 24 27 25 28 26 29 27 30 28 31 29 32 30 33 82 34
REMARK SMILES IDX 31 35 81 36 32 37 33 38 34 39 75 40 35 41 80 42 74 43 76 44
REMARK SMILES IDX 36 45 79 46 73 47 72 48 37 50 63 51 46 52 62 53 47 54 50 55
REMARK SMILES IDX 61 56 77 57 48 58 49 59 60 61 78 62 51 63 38 64 39 65 44 66
REMARK SMILES IDX 40 67 41 68 43 69 45 70 42 71 64 72 65 73 70 74 66 75 67 76
REMARK SMILES IDX 69 77 71 78 68 79 52 80 53 81 58 82 54 83 55 84 57 85 59 86
REMARK SMILES IDX 56 87
REMARK H PARENT 3 19 3 20 76 49 50 60
REMARK Flexibility Score: inf
ROOT
ATOM      1  C   UNL A   1      34.129  31.414  27.893  1.00  0.00     0.202 C 
ENDROOT
BRANCH   1   2
ATOM      2  C   UNL A   1      32.893  30.980  27.095  1.00  0.00     0.261 C 
BRANCH   2   3
ATOM      3  O   UNL A   1      33.178  29.968  26.105  1.00  0.00    -0.463 OA
BRANCH   3   4
ATOM      4  C   UNL A   1      33.728  28.823  26.573  1.00  0.00     0.308 C 
ATOM      5  O   UNL A   1      34.905  28.701  26.901  1.00  0.00    -0.252 OA
BRANCH   4   6
ATOM      6  C   UNL A   1      32.756  27.688  26.765  1.00  0.00     0.156 C 
BRANCH   6   7
ATOM      7  C   UNL A   1      32.416  26.713  25.642  1.00  0.00     0.148 C 
ATOM      8  N   UNL A   1      31.142  24.738  24.883  1.00  0.00    -0.337 N 
ATOM      9  C   UNL A   1      30.336  25.593  24.024  1.00  0.00     0.148 C 
ATOM     10  C   UNL A   1      31.628  25.452  26.079  1.00  0.00     0.152 C 
ATOM     11  C   UNL A   1      31.158  26.795  23.579  1.00  0.00     0.182 C 
ATOM     12  O   UNL A   1      31.627  27.523  24.719  1.00  0.00    -0.374 OA
BRANCH   8  13
ATOM     13  C   UNL A   1      31.451  23.404  24.710  1.00  0.00     0.231 C 
ATOM     14  O   UNL A   1      30.964  22.555  25.469  1.00  0.00    -0.274 OA
BRANCH  13  15
ATOM     15  C   UNL A   1      32.565  22.945  23.744  1.00  0.00     0.130 C 
ATOM     16  C   UNL A   1      32.225  21.551  23.228  1.00  0.00     0.024 C 
BRANCH  15  17
ATOM     17  C   UNL A   1      34.029  23.056  24.183  1.00  0.00     0.273 C 
BRANCH  17  18
ATOM     18  N   UNL A   1      34.508  22.050  25.144  1.00  0.00    -0.346 N 
ATOM     19  H   UNL A   1      33.715  21.748  25.711  1.00  0.00     0.346 HD
ATOM     20  H   UNL A   1      34.915  21.294  24.593  1.00  0.00     0.346 HD
BRANCH  18  21
ATOM     21  C   UNL A   1      35.557  22.521  26.041  1.00  0.00     0.257 C 
ATOM     22  C   UNL A   1      36.026  23.892  25.575  1.00  0.00     0.071 C 
ENDBRANCH  18  21
ENDBRANCH  17  18
ENDBRANCH  15  17
ENDBRANCH  13  15
ENDBRANCH   8  13
ENDBRANCH   6   7
ENDBRANCH   4   6
ENDBRANCH   3   4
ENDBRANCH   2   3
ENDBRANCH   1   2
BRANCH   1  23
ATOM     23  O   UNL A   1      34.682  32.683  27.547  1.00  0.00    -0.376 OA
BRANCH  23  24
ATOM     24  C   UNL A   1      34.339  33.776  28.390  1.00  0.00     0.188 C 
BRANCH  24  25
ATOM     25  C   UNL A   1      34.354  33.475  29.887  1.00  0.00     0.188 C 
BRANCH  25  26
ATOM     26  O   UNL A   1      34.391  34.570  30.777  1.00  0.00    -0.376 OA
BRANCH  26  27
ATOM     27  C   UNL A   1      33.882  34.430  32.106  1.00  0.00     0.202 C 
BRANCH  27  28
ATOM     28  C   UNL A   1      34.339  33.379  33.158  1.00  0.00     0.261 C 
BRANCH  28  29
ATOM     29  O   UNL A   1      35.483  32.565  32.869  1.00  0.00    -0.460 OA
BRANCH  29  30
ATOM     30  C   UNL A   1      36.688  33.174  32.868  1.00  0.00     0.338 C 
ATOM     31  O   UNL A   1      37.019  34.143  33.529  1.00  0.00    -0.246 OA
BRANCH  30  32
ATOM     32  C   UNL A   1      37.642  32.335  32.102  1.00  0.00     0.060 A 
ATOM     33  C   UNL A   1      38.474  31.463  32.819  1.00  0.00     0.016 A 
ATOM     34  C   UNL A   1      37.705  32.373  30.707  1.00  0.00     0.016 A 
ATOM     35  C   UNL A   1      39.389  30.646  32.151  1.00  0.00     0.010 A 
ATOM     36  C   UNL A   1      38.649  31.581  30.041  1.00  0.00     0.010 A 
ATOM     37  C   UNL A   1      39.517  30.737  30.761  1.00  0.00    -0.014 A 
BRANCH  37  38
ATOM     38  C   UNL A   1      40.694  30.135  30.084  1.00  0.00     0.031 A 
ATOM     39  C   UNL A   1      41.892  31.014  29.837  1.00  0.00     0.074 A 
ATOM     40  C   UNL A   1      40.722  28.845  29.704  1.00  0.00     0.049 A 
ATOM     41  N   UNL A   1      42.990  30.763  29.171  1.00  0.00    -0.248 NA
ATOM     42  C   UNL A   1      41.835  32.365  30.419  1.00  0.00     0.031 C 
ATOM     43  C   UNL A   1      39.662  27.868  29.936  1.00  0.00     0.029 A 
ATOM     44  N   UNL A   1      41.686  28.142  29.020  1.00  0.00    -0.354 N 
ATOM     45  C   UNL A   1      43.749  31.924  29.248  1.00  0.00     0.074 A 
ATOM     46  C   UNL A   1      42.974  32.890  29.995  1.00  0.00     0.031 C 
ATOM     47  C   UNL A   1      40.020  26.696  29.378  1.00  0.00     0.029 A 
ATOM     48  C   UNL A   1      41.316  26.853  28.719  1.00  0.00     0.049 A 
ATOM     49  H   UNL A   1      42.557  28.525  28.770  1.00  0.00     0.167 HD
ATOM     50  C   UNL A   1      44.985  32.164  28.748  1.00  0.00     0.037 A 
ATOM     51  C   UNL A   1      41.938  25.922  27.966  1.00  0.00     0.037 A 
ATOM     52  C   UNL A   1      45.753  31.209  27.995  1.00  0.00     0.049 A 
ATOM     53  C   UNL A   1      43.269  26.245  27.332  1.00  0.00     0.074 A 
ATOM     54  C   UNL A   1      47.010  31.360  27.438  1.00  0.00     0.029 A 
ATOM     55  N   UNL A   1      45.330  29.925  27.687  1.00  0.00    -0.354 N 
ATOM     56  N   UNL A   1      43.982  27.344  27.411  1.00  0.00    -0.248 NA
ATOM     57  C   UNL A   1      43.882  25.198  26.500  1.00  0.00     0.031 C 
ATOM     58  C   UNL A   1      47.326  30.186  26.748  1.00  0.00     0.029 A 
ATOM     59  C   UNL A   1      46.294  29.281  26.928  1.00  0.00     0.049 A 
ATOM     60  H   UNL A   1      44.472  29.529  27.965  1.00  0.00     0.167 HD
ATOM     61  C   UNL A   1      45.138  27.104  26.675  1.00  0.00     0.074 A 
ATOM     62  C   UNL A   1      45.037  25.754  26.165  1.00  0.00     0.031 C 
ATOM     63  C   UNL A   1      46.190  27.929  26.442  1.00  0.00     0.037 A 
BRANCH  50  64
ATOM     64  C   UNL A   1      45.569  33.528  28.978  1.00  0.00     0.057 A 
ATOM     65  C   UNL A   1      45.295  34.604  28.123  1.00  0.00     0.134 A 
ATOM     66  C   UNL A   1      46.393  33.776  30.083  1.00  0.00     0.134 A 
ATOM     67  F   UNL A   1      44.528  34.431  27.035  1.00  0.00    -0.206 F 
ATOM     68  C   UNL A   1      45.841  35.870  28.346  1.00  0.00     0.040 A 
ATOM     69  C   UNL A   1      46.919  35.044  30.334  1.00  0.00     0.040 A 
ATOM     70  F   UNL A   1      46.692  32.791  30.944  1.00  0.00    -0.206 F 
ATOM     71  C   UNL A   1      46.648  36.094  29.459  1.00  0.00     0.006 A 
ENDBRANCH  50  64
BRANCH  51  72
ATOM     72  C   UNL A   1      41.302  24.598  27.731  1.00  0.00     0.057 A 
ATOM     73  C   UNL A   1      41.721  23.455  28.425  1.00  0.00     0.134 A 
ATOM     74  C   UNL A   1      40.299  24.431  26.769  1.00  0.00     0.134 A 
ATOM     75  F   UNL A   1      42.699  23.540  29.338  1.00  0.00    -0.206 F 
ATOM     76  C   UNL A   1      41.183  22.195  28.154  1.00  0.00     0.040 A 
ATOM     77  C   UNL A   1      39.731  23.183  26.509  1.00  0.00     0.040 A 
ATOM     78  F   UNL A   1      39.856  25.483  26.064  1.00  0.00    -0.206 F 
ATOM     79  C   UNL A   1      40.181  22.058  27.196  1.00  0.00     0.006 A 
ENDBRANCH  51  72
BRANCH  63  80
ATOM     80  C   UNL A   1      47.343  27.379  25.649  1.00  0.00     0.057 A 
ATOM     81  C   UNL A   1      48.405  26.695  26.253  1.00  0.00     0.134 A 
ATOM     82  C   UNL A   1      47.364  27.496  24.253  1.00  0.00     0.134 A 
ATOM     83  F   UNL A   1      48.453  26.555  27.586  1.00  0.00    -0.206 F 
ATOM     84  C   UNL A   1      49.459  26.171  25.501  1.00  0.00     0.040 A 
ATOM     85  C   UNL A   1      48.394  26.950  23.487  1.00  0.00     0.040 A 
ATOM     86  F   UNL A   1      46.371  28.128  23.607  1.00  0.00    -0.206 F 
ATOM     87  C   UNL A   1      49.451  26.292  24.112  1.00  0.00     0.006 A 
ENDBRANCH  63  80
ENDBRANCH  37  38
ENDBRANCH  30  32
ENDBRANCH  29  30
ENDBRANCH  28  29
ENDBRANCH  27  28
ENDBRANCH  26  27
ENDBRANCH  25  26
ENDBRANCH  24  25
ENDBRANCH  23  24
ENDBRANCH   1  23
TORSDOF 23
ENDMDL
MODEL 3
REMARK VINA RESULT:      -8.4      4.733      9.975
REMARK SMILES CC[NH2+]C[C@@H](C)C(=O)N1CCO[C@@H](CC(=O)OCCOCCOCCOC(=O)c2ccc(-c3c4nc(c(-c5c(F)cccc5F)c5ccc([nH]5)c(-c5c(F)cccc5F)c5nc(c(-c6c(F)cccc6F)c6ccc3[nH]6)C=C5)C=C4)cc2)C1
REMARK SMILES IDX 19 1 18 2 17 3 15 4 16 5 14 6 13 7 9 8 10 9 83 10 11 11
REMARK SMILES IDX 12 12 7 13 8 14 5 15 6 16 4 17 3 18 2 21 1 22 20 23 21 24
REMARK SMILES IDX 22 25 23 26 24 27 25 28 26 29 27 30 28 31 29 32 30 33 82 34
REMARK SMILES IDX 31 35 81 36 32 37 33 38 34 39 75 40 35 41 80 42 74 43 76 44
REMARK SMILES IDX 36 45 79 46 73 47 72 48 37 50 63 51 46 52 62 53 47 54 50 55
REMARK SMILES IDX 61 56 77 57 48 58 49 59 60 61 78 62 51 63 38 64 39 65 44 66
REMARK SMILES IDX 40 67 41 68 43 69 45 70 42 71 64 72 65 73 70 74 66 75 67 76
REMARK SMILES IDX 69 77 71 78 68 79 52 80 53 81 58 82 54 83 55 84 57 85 59 86
REMARK SMILES IDX 56 87
REMARK H PARENT 3 19 3 20 76 49 50 60
REMARK Flexibility Score: inf
ROOT
ATOM      1  C   UNL A   1      34.897  34.836  33.524  1.00  0.00     0.202 C 
ENDROOT
BRANCH   1   2
ATOM      2  C   UNL A   1      36.299  34.481  33.014  1.00  0.00     0.261 C 
BRANCH   2   3
ATOM      3  O   UNL A   1      37.359  35.044  33.818  1.00  0.00    -0.463 OA
BRANCH   3   4
ATOM      4  C   UNL A   1      38.395  34.216  34.093  1.00  0.00     0.308 C 
ATOM      5  O   UNL A   1      39.522  34.333  33.619  1.00  0.00    -0.252 OA
BRANCH   4   6
ATOM      6  C   UNL A   1      38.102  33.160  35.127  1.00  0.00     0.156 C 
BRANCH   6   7
ATOM      7  C   UNL A   1      37.764  33.513  36.572  1.00  0.00     0.148 C 
ATOM      8  N   UNL A   1      37.557  32.786  38.923  1.00  0.00    -0.337 N 
ATOM      9  C   UNL A   1      38.709  33.604  39.274  1.00  0.00     0.148 C 
ATOM     10  C   UNL A   1      37.621  32.304  37.531  1.00  0.00     0.152 C 
ATOM     11  C   UNL A   1      38.789  34.804  38.340  1.00  0.00     0.182 C 
ATOM     12  O   UNL A   1      38.874  34.369  36.979  1.00  0.00    -0.374 OA
BRANCH   8  13
ATOM     13  C   UNL A   1      36.495  32.420  39.725  1.00  0.00     0.231 C 
ATOM     14  O   UNL A   1      35.688  31.568  39.329  1.00  0.00    -0.274 OA
BRANCH  13  15
ATOM     15  C   UNL A   1      36.141  33.199  41.012  1.00  0.00     0.130 C 
ATOM     16  C   UNL A   1      37.288  33.053  42.007  1.00  0.00     0.024 C 
BRANCH  15  17
ATOM     17  C   UNL A   1      34.776  32.975  41.670  1.00  0.00     0.273 C 
BRANCH  17  18
ATOM     18  N   UNL A   1      33.778  34.042  41.499  1.00  0.00    -0.346 N 
ATOM     19  H   UNL A   1      33.106  33.977  42.264  1.00  0.00     0.346 HD
ATOM     20  H   UNL A   1      34.292  34.922  41.493  1.00  0.00     0.346 HD
BRANCH  18  21
ATOM     21  C   UNL A   1      33.040  33.985  40.241  1.00  0.00     0.257 C 
ATOM     22  C   UNL A   1      32.212  35.254  40.097  1.00  0.00     0.071 C 
ENDBRANCH  18  21
ENDBRANCH  17  18
ENDBRANCH  15  17
ENDBRANCH  13  15
ENDBRANCH   8  13
ENDBRANCH   6   7
ENDBRANCH   4   6
ENDBRANCH   3   4
ENDBRANCH   2   3
ENDBRANCH   1   2
BRANCH   1  23
ATOM     23  O   UNL A   1      34.294  35.991  32.941  1.00  0.00    -0.376 OA
BRANCH  23  24
ATOM     24  C   UNL A   1      33.057  35.790  32.269  1.00  0.00     0.188 C 
BRANCH  24  25
ATOM     25  C   UNL A   1      32.862  36.618  31.001  1.00  0.00     0.188 C 
BRANCH  25  26
ATOM     26  O   UNL A   1      33.016  35.963  29.759  1.00  0.00    -0.376 OA
BRANCH  26  27
ATOM     27  C   UNL A   1      33.896  34.841  29.646  1.00  0.00     0.202 C 
BRANCH  27  28
ATOM     28  C   UNL A   1      33.868  33.762  28.526  1.00  0.00     0.261 C 
BRANCH  28  29
ATOM     29  O   UNL A   1      34.961  32.842  28.426  1.00  0.00    -0.460 OA
BRANCH  29  30
ATOM     30  C   UNL A   1      34.656  31.538  28.251  1.00  0.00     0.338 C 
ATOM     31  O   UNL A   1      33.637  31.084  27.760  1.00  0.00    -0.246 OA
BRANCH  30  32
ATOM     32  C   UNL A   1      35.863  30.725  28.540  1.00  0.00     0.060 A 
ATOM     33  C   UNL A   1      35.870  29.950  29.709  1.00  0.00     0.016 A 
ATOM     34  C   UNL A   1      36.957  30.691  27.672  1.00  0.00     0.016 A 
ATOM     35  C   UNL A   1      36.976  29.160  30.030  1.00  0.00     0.010 A 
ATOM     36  C   UNL A   1      38.081  29.929  28.014  1.00  0.00     0.010 A 
ATOM     37  C   UNL A   1      38.109  29.185  29.210  1.00  0.00    -0.014 A 
BRANCH  37  38
ATOM     38  C   UNL A   1      39.395  28.627  29.704  1.00  0.00     0.031 A 
ATOM     39  C   UNL A   1      40.043  29.292  30.890  1.00  0.00     0.074 A 
ATOM     40  C   UNL A   1      39.977  27.556  29.137  1.00  0.00     0.049 A 
ATOM     41  N   UNL A   1      41.209  29.070  31.438  1.00  0.00    -0.248 NA
ATOM     42  C   UNL A   1      39.264  30.359  31.541  1.00  0.00     0.031 C 
ATOM     43  C   UNL A   1      39.431  26.779  28.027  1.00  0.00     0.029 A 
ATOM     44  N   UNL A   1      41.178  26.947  29.416  1.00  0.00    -0.354 N 
ATOM     45  C   UNL A   1      41.308  29.972  32.490  1.00  0.00     0.074 A 
ATOM     46  C   UNL A   1      40.098  30.766  32.483  1.00  0.00     0.031 C 
ATOM     47  C   UNL A   1      40.308  25.812  27.700  1.00  0.00     0.029 A 
ATOM     48  C   UNL A   1      41.492  25.927  28.551  1.00  0.00     0.049 A 
ATOM     49  H   UNL A   1      41.758  27.218  30.164  1.00  0.00     0.167 HD
ATOM     50  C   UNL A   1      42.311  30.123  33.388  1.00  0.00     0.037 A 
ATOM     51  C   UNL A   1      42.621  25.196  28.438  1.00  0.00     0.037 A 
ATOM     52  C   UNL A   1      43.519  29.342  33.389  1.00  0.00     0.049 A 
ATOM     53  C   UNL A   1      43.769  25.450  29.384  1.00  0.00     0.074 A 
ATOM     54  C   UNL A   1      44.598  29.425  34.251  1.00  0.00     0.029 A 
ATOM     55  N   UNL A   1      43.810  28.338  32.478  1.00  0.00    -0.354 N 
ATOM     56  N   UNL A   1      43.854  26.303  30.378  1.00  0.00    -0.248 NA
ATOM     57  C   UNL A   1      44.982  24.640  29.191  1.00  0.00     0.031 C 
ATOM     58  C   UNL A   1      45.565  28.508  33.829  1.00  0.00     0.029 A 
ATOM     59  C   UNL A   1      45.063  27.809  32.744  1.00  0.00     0.049 A 
ATOM     60  H   UNL A   1      43.216  28.044  31.749  1.00  0.00     0.167 HD
ATOM     61  C   UNL A   1      45.107  26.104  30.948  1.00  0.00     0.074 A 
ATOM     62  C   UNL A   1      45.744  25.044  30.197  1.00  0.00     0.031 C 
ATOM     63  C   UNL A   1      45.680  26.741  32.000  1.00  0.00     0.037 A 
BRANCH  50  64
ATOM     64  C   UNL A   1      42.152  31.195  34.426  1.00  0.00     0.057 A 
ATOM     65  C   UNL A   1      41.518  30.952  35.652  1.00  0.00     0.134 A 
ATOM     66  C   UNL A   1      42.665  32.481  34.209  1.00  0.00     0.134 A 
ATOM     67  F   UNL A   1      40.989  29.747  35.917  1.00  0.00    -0.206 F 
ATOM     68  C   UNL A   1      41.378  31.955  36.613  1.00  0.00     0.040 A 
ATOM     69  C   UNL A   1      42.558  33.483  35.174  1.00  0.00     0.040 A 
ATOM     70  F   UNL A   1      43.287  32.782  33.059  1.00  0.00    -0.206 F 
ATOM     71  C   UNL A   1      41.906  33.223  36.378  1.00  0.00     0.006 A 
ENDBRANCH  50  64
BRANCH  51  72
ATOM     72  C   UNL A   1      42.750  24.172  27.367  1.00  0.00     0.057 A 
ATOM     73  C   UNL A   1      43.174  24.515  26.077  1.00  0.00     0.134 A 
ATOM     74  C   UNL A   1      42.400  22.835  27.592  1.00  0.00     0.134 A 
ATOM     75  F   UNL A   1      43.495  25.784  25.788  1.00  0.00    -0.206 F 
ATOM     76  C   UNL A   1      43.222  23.573  25.047  1.00  0.00     0.040 A 
ATOM     77  C   UNL A   1      42.472  21.877  26.580  1.00  0.00     0.040 A 
ATOM     78  F   UNL A   1      41.978  22.440  28.803  1.00  0.00    -0.206 F 
ATOM     79  C   UNL A   1      42.874  22.248  25.299  1.00  0.00     0.006 A 
ENDBRANCH  51  72
BRANCH  63  80
ATOM     80  C   UNL A   1      47.039  26.274  32.441  1.00  0.00     0.057 A 
ATOM     81  C   UNL A   1      48.218  26.884  31.996  1.00  0.00     0.134 A 
ATOM     82  C   UNL A   1      47.164  25.227  33.364  1.00  0.00     0.134 A 
ATOM     83  F   UNL A   1      48.171  27.886  31.105  1.00  0.00    -0.206 F 
ATOM     84  C   UNL A   1      49.473  26.453  32.432  1.00  0.00     0.040 A 
ATOM     85  C   UNL A   1      48.410  24.807  33.831  1.00  0.00     0.040 A 
ATOM     86  F   UNL A   1      46.075  24.606  33.843  1.00  0.00    -0.206 F 
ATOM     87  C   UNL A   1      49.571  25.416  33.358  1.00  0.00     0.006 A 
ENDBRANCH  63  80
ENDBRANCH  37  38
ENDBRANCH  30  32
ENDBRANCH  29  30
ENDBRANCH  28  29
ENDBRANCH  27  28
ENDBRANCH  26  27
ENDBRANCH  25  26
ENDBRANCH  24  25
ENDBRANCH  23  24
ENDBRANCH   1  23
TORSDOF 23
ENDMDL
