MODEL 1
REMARK VINA RESULT:     -13.5      0.000      0.000
REMARK SMILES COc1ccc(-c2cc(Cl)cc3c2O[C@@H](C(F)(F)F)C(C(=O)OCCOCCOCCOC(=O)c2ccc(-c4c5nc(c(-c6c(F)cccc6F)c6ccc([nH]6)c(-c6c(F)cccc6F)c6nc(c(-c7c(F)cccc7F)c7ccc4[nH]7)C=C6)C=C5)cc2)=C3)cc1C
REMARK SMILES IDX 27 1 26 2 25 3 24 4 23 5 21 6 22 7 20 8 7 9 8 10 13 11 9 12
REMARK SMILES IDX 12 13 14 14 10 15 11 16 89 17 15 18 6 19 3 20 4 21 91 22
REMARK SMILES IDX 5 23 90 24 92 25 2 26 1 27 16 28 17 29 18 30 19 31 28 32
REMARK SMILES IDX 29 33 30 34 31 35 32 36 33 37 34 38 35 39 36 40 88 41 37 42
REMARK SMILES IDX 87 43 38 44 39 45 40 46 81 47 41 48 86 49 80 50 82 51 42 52
REMARK SMILES IDX 85 53 79 54 78 55 43 57 69 58 52 59 68 60 53 61 56 62 67 63
REMARK SMILES IDX 83 64 54 65 55 66 66 68 84 69 57 70 44 71 45 72 50 73 46 74
REMARK SMILES IDX 47 75 49 76 51 77 48 78 70 79 71 80 76 81 72 82 73 83 75 84
REMARK SMILES IDX 77 85 74 86 58 87 59 88 64 89 60 90 61 91 63 92 65 93 62 94
REMARK H PARENT 82 56 56 67
REMARK Flexibility Score: inf
ROOT
ATOM      1  C   UNL A   1      31.959  31.164  26.929  1.00  0.00     0.188 C 
ENDROOT
BRANCH   1   2
ATOM      2  O   UNL A   1      31.738  30.650  25.587  1.00  0.00    -0.376 OA
BRANCH   2   3
ATOM      3  C   UNL A   1      32.127  29.325  25.178  1.00  0.00     0.202 C 
BRANCH   3   4
ATOM      4  C   UNL A   1      32.690  28.798  23.515  1.00  0.00     0.261 C 
BRANCH   4   5
ATOM      5  O   UNL A   1      32.559  27.092  22.607  1.00  0.00    -0.460 OA
BRANCH   5   6
ATOM      6  C   UNL A   1      32.912  25.460  22.808  1.00  0.00     0.338 C 
ATOM      7  O   UNL A   1      34.016  24.979  22.507  1.00  0.00    -0.246 OA
BRANCH   6   8
ATOM      8  C   UNL A   1      32.162  24.249  23.456  1.00  0.00     0.087 C 
ATOM      9  C   UNL A   1      34.759  21.063  24.898  1.00  0.00     0.026 A 
ATOM     10  C   UNL A   1      34.364  19.743  24.787  1.00  0.00     0.033 A 
ATOM     11  C   UNL A   1      33.621  22.076  24.528  1.00  0.00     0.135 A 
ATOM     12  C   UNL A   1      33.117  19.457  24.203  1.00  0.00     0.042 A 
ATOM     13  C   UNL A   1      32.624  21.791  23.605  1.00  0.00     0.019 A 
ATOM     14  O   UNL A   1      33.165  23.219  25.381  1.00  0.00    -0.475 OA
ATOM     15  Cl  UNL A   1      32.579  17.815  24.259  1.00  0.00    -0.084 Cl
ATOM     16  C   UNL A   1      32.317  20.434  23.531  1.00  0.00     0.032 A 
ATOM     17  C   UNL A   1      32.060  23.003  22.853  1.00  0.00     0.027 C 
ATOM     18  C   UNL A   1      32.000  24.034  24.893  1.00  0.00     0.316 C 
BRANCH   9  19
ATOM     19  C   UNL A   1      36.576  21.277  24.853  1.00  0.00    -0.014 A 
ATOM     20  C   UNL A   1      39.861  21.827  26.390  1.00  0.00     0.121 A 
ATOM     21  C   UNL A   1      39.631  20.267  25.722  1.00  0.00     0.047 A 
ATOM     22  C   UNL A   1      38.641  23.133  26.300  1.00  0.00    -0.008 A 
ATOM     23  C   UNL A   1      38.069  19.922  24.951  1.00  0.00     0.013 A 
ATOM     24  C   UNL A   1      37.011  22.924  25.545  1.00  0.00     0.016 A 
ATOM     25  C   UNL A   1      39.175  24.431  26.823  1.00  0.00     0.048 C 
BRANCH  20  26
ATOM     26  O   UNL A   1      41.116  22.157  26.856  1.00  0.00    -0.496 OA
ATOM     27  C   UNL A   1      41.559  21.318  27.920  1.00  0.00     0.278 C 
ENDBRANCH  20  26
ENDBRANCH   9  19
BRANCH  18  28
ATOM     28  C   UNL A   1      31.412  25.362  25.440  1.00  0.00     0.430 C 
ATOM     29  F   UNL A   1      30.689  25.136  26.585  1.00  0.00    -0.167 F 
ATOM     30  F   UNL A   1      32.395  26.209  25.828  1.00  0.00    -0.167 F 
ATOM     31  F   UNL A   1      30.603  26.024  24.611  1.00  0.00    -0.167 F 
ENDBRANCH  18  28
ENDBRANCH   6   8
ENDBRANCH   5   6
ENDBRANCH   4   5
ENDBRANCH   3   4
ENDBRANCH   2   3
ENDBRANCH   1   2
BRANCH   1  32
ATOM     32  C   UNL A   1      31.844  32.687  26.951  1.00  0.00     0.188 C 
BRANCH  32  33
ATOM     33  O   UNL A   1      32.860  33.091  27.820  1.00  0.00    -0.376 OA
BRANCH  33  34
ATOM     34  C   UNL A   1      34.168  32.666  27.595  1.00  0.00     0.202 C 
BRANCH  34  35
ATOM     35  C   UNL A   1      34.810  32.678  28.974  1.00  0.00     0.261 C 
BRANCH  35  36
ATOM     36  O   UNL A   1      34.955  31.317  29.475  1.00  0.00    -0.460 OA
BRANCH  36  37
ATOM     37  C   UNL A   1      35.521  30.430  28.603  1.00  0.00     0.338 C 
ATOM     38  O   UNL A   1      34.900  29.622  27.932  1.00  0.00    -0.246 OA
BRANCH  37  39
ATOM     39  C   UNL A   1      36.993  30.470  28.672  1.00  0.00     0.060 A 
ATOM     40  C   UNL A   1      37.805  29.715  27.865  1.00  0.00     0.016 A 
ATOM     41  C   UNL A   1      37.665  31.172  29.600  1.00  0.00     0.016 A 
ATOM     42  C   UNL A   1      39.160  29.329  28.266  1.00  0.00     0.010 A 
ATOM     43  C   UNL A   1      38.984  30.753  29.877  1.00  0.00     0.010 A 
ATOM     44  C   UNL A   1      39.795  29.584  29.443  1.00  0.00    -0.014 A 
BRANCH  44  45
ATOM     45  C   UNL A   1      41.492  28.954  29.948  1.00  0.00     0.031 A 
ATOM     46  C   UNL A   1      42.458  27.545  29.156  1.00  0.00     0.074 A 
ATOM     47  C   UNL A   1      42.298  29.571  30.874  1.00  0.00     0.049 A 
ATOM     48  N   UNL A   1      43.540  26.979  29.599  1.00  0.00    -0.248 NA
ATOM     49  C   UNL A   1      42.040  26.613  27.908  1.00  0.00     0.031 C 
ATOM     50  C   UNL A   1      43.706  29.293  31.206  1.00  0.00     0.029 A 
ATOM     51  N   UNL A   1      42.012  30.599  31.783  1.00  0.00    -0.354 N 
ATOM     52  C   UNL A   1      43.900  25.892  28.784  1.00  0.00     0.074 A 
ATOM     53  C   UNL A   1      42.905  25.642  27.831  1.00  0.00     0.031 C 
ATOM     54  C   UNL A   1      43.976  29.788  32.429  1.00  0.00     0.029 A 
ATOM     55  C   UNL A   1      42.717  30.284  32.947  1.00  0.00     0.049 A 
ATOM     56  H   UNL A   1      41.434  31.382  31.633  1.00  0.00     0.167 HD
ATOM     57  C   UNL A   1      45.123  25.334  28.891  1.00  0.00     0.037 A 
ATOM     58  C   UNL A   1      42.053  29.862  34.053  1.00  0.00     0.037 A 
ATOM     59  C   UNL A   1      45.612  25.677  30.208  1.00  0.00     0.049 A 
ATOM     60  C   UNL A   1      42.536  28.401  34.414  1.00  0.00     0.074 A 
ATOM     61  C   UNL A   1      46.406  26.691  30.708  1.00  0.00     0.029 A 
ATOM     62  N   UNL A   1      44.811  25.261  31.274  1.00  0.00    -0.354 N 
ATOM     63  N   UNL A   1      43.272  27.632  33.634  1.00  0.00    -0.248 NA
ATOM     64  C   UNL A   1      42.329  27.735  35.698  1.00  0.00     0.031 C 
ATOM     65  C   UNL A   1      46.099  26.851  32.093  1.00  0.00     0.029 A 
ATOM     66  C   UNL A   1      45.115  25.940  32.433  1.00  0.00     0.049 A 
ATOM     67  H   UNL A   1      44.114  24.570  31.205  1.00  0.00     0.167 HD
ATOM     68  C   UNL A   1      43.648  26.455  34.260  1.00  0.00     0.074 A 
ATOM     69  C   UNL A   1      43.006  26.579  35.554  1.00  0.00     0.031 C 
ATOM     70  C   UNL A   1      44.475  25.513  33.674  1.00  0.00     0.037 A 
BRANCH  57  71
ATOM     71  C   UNL A   1      45.862  24.997  27.604  1.00  0.00     0.057 A 
ATOM     72  C   UNL A   1      46.480  26.036  26.897  1.00  0.00     0.134 A 
ATOM     73  C   UNL A   1      45.861  23.762  26.907  1.00  0.00     0.134 A 
ATOM     74  F   UNL A   1      46.638  27.247  27.443  1.00  0.00    -0.206 F 
ATOM     75  C   UNL A   1      46.955  25.896  25.584  1.00  0.00     0.040 A 
ATOM     76  C   UNL A   1      46.262  23.624  25.566  1.00  0.00     0.040 A 
ATOM     77  F   UNL A   1      45.526  22.605  27.492  1.00  0.00    -0.206 F 
ATOM     78  C   UNL A   1      46.810  24.701  24.896  1.00  0.00     0.006 A 
ENDBRANCH  57  71
BRANCH  58  79
ATOM     79  C   UNL A   1      40.540  30.529  34.188  1.00  0.00     0.057 A 
ATOM     80  C   UNL A   1      38.664  30.355  33.485  1.00  0.00     0.134 A 
ATOM     81  C   UNL A   1      40.793  31.953  35.239  1.00  0.00     0.134 A 
ATOM     82  F   UNL A   1      38.049  29.375  32.734  1.00  0.00    -0.206 F 
ATOM     83  C   UNL A   1      37.402  31.548  33.843  1.00  0.00     0.040 A 
ATOM     84  C   UNL A   1      39.363  33.068  35.513  1.00  0.00     0.040 A 
ATOM     85  F   UNL A   1      42.059  32.326  35.456  1.00  0.00    -0.206 F 
ATOM     86  C   UNL A   1      37.776  32.862  34.823  1.00  0.00     0.006 A 
ENDBRANCH  58  79
BRANCH  70  87
ATOM     87  C   UNL A   1      44.866  24.079  34.131  1.00  0.00     0.057 A 
ATOM     88  C   UNL A   1      43.991  23.023  34.389  1.00  0.00     0.134 A 
ATOM     89  C   UNL A   1      46.242  23.695  34.259  1.00  0.00     0.134 A 
ATOM     90  F   UNL A   1      42.666  23.154  34.298  1.00  0.00    -0.206 F 
ATOM     91  C   UNL A   1      44.429  21.729  34.748  1.00  0.00     0.040 A 
ATOM     92  C   UNL A   1      46.689  22.397  34.529  1.00  0.00     0.040 A 
ATOM     93  F   UNL A   1      47.261  24.556  34.149  1.00  0.00    -0.206 F 
ATOM     94  C   UNL A   1      45.777  21.404  34.796  1.00  0.00     0.006 A 
ENDBRANCH  70  87
ENDBRANCH  44  45
ENDBRANCH  37  39
ENDBRANCH  36  37
ENDBRANCH  35  36
ENDBRANCH  34  35
ENDBRANCH  33  34
ENDBRANCH  32  33
ENDBRANCH   1  32
TORSDOF 20
ENDMDL
MODEL 2
REMARK VINA RESULT:     -12.9      1.503      2.130
REMARK SMILES COc1ccc(-c2cc(Cl)cc3c2O[C@@H](C(F)(F)F)C(C(=O)OCCOCCOCCOC(=O)c2ccc(-c4c5nc(c(-c6c(F)cccc6F)c6ccc([nH]6)c(-c6c(F)cccc6F)c6nc(c(-c7c(F)cccc7F)c7ccc4[nH]7)C=C6)C=C5)cc2)=C3)cc1C
REMARK SMILES IDX 27 1 26 2 25 3 24 4 23 5 21 6 22 7 20 8 7 9 8 10 13 11 9 12
REMARK SMILES IDX 12 13 14 14 10 15 11 16 89 17 15 18 6 19 3 20 4 21 91 22
REMARK SMILES IDX 5 23 90 24 92 25 2 26 1 27 16 28 17 29 18 30 19 31 28 32
REMARK SMILES IDX 29 33 30 34 31 35 32 36 33 37 34 38 35 39 36 40 88 41 37 42
REMARK SMILES IDX 87 43 38 44 39 45 40 46 81 47 41 48 86 49 80 50 82 51 42 52
REMARK SMILES IDX 85 53 79 54 78 55 43 57 69 58 52 59 68 60 53 61 56 62 67 63
REMARK SMILES IDX 83 64 54 65 55 66 66 68 84 69 57 70 44 71 45 72 50 73 46 74
REMARK SMILES IDX 47 75 49 76 51 77 48 78 70 79 71 80 76 81 72 82 73 83 75 84
REMARK SMILES IDX 77 85 74 86 58 87 59 88 64 89 60 90 61 91 63 92 65 93 62 94
REMARK H PARENT 82 56 56 67
REMARK Flexibility Score: inf
ROOT
ATOM      1  C   UNL A   1      35.232  31.744  28.013  1.00  0.00     0.188 C 
ENDROOT
BRANCH   1   2
ATOM      2  O   UNL A   1      34.990  30.311  28.050  1.00  0.00    -0.376 OA
BRANCH   2   3
ATOM      3  C   UNL A   1      34.017  29.655  27.214  1.00  0.00     0.202 C 
BRANCH   3   4
ATOM      4  C   UNL A   1      34.333  28.371  25.945  1.00  0.00     0.261 C 
BRANCH   4   5
ATOM      5  O   UNL A   1      33.481  28.031  24.238  1.00  0.00    -0.460 OA
BRANCH   5   6
ATOM      6  C   UNL A   1      32.728  26.812  23.359  1.00  0.00     0.338 C 
ATOM      7  O   UNL A   1      32.825  26.730  22.123  1.00  0.00    -0.246 OA
BRANCH   6   8
ATOM      8  C   UNL A   1      31.924  25.525  23.738  1.00  0.00     0.087 C 
ATOM      9  C   UNL A   1      34.382  22.051  24.668  1.00  0.00     0.026 A 
ATOM     10  C   UNL A   1      33.964  20.787  24.296  1.00  0.00     0.033 A 
ATOM     11  C   UNL A   1      33.284  23.149  24.446  1.00  0.00     0.135 A 
ATOM     12  C   UNL A   1      32.741  20.651  23.618  1.00  0.00     0.042 A 
ATOM     13  C   UNL A   1      32.326  23.069  23.445  1.00  0.00     0.019 A 
ATOM     14  O   UNL A   1      32.814  24.127  25.477  1.00  0.00    -0.475 OA
ATOM     15  Cl  UNL A   1      32.165  19.043  23.345  1.00  0.00    -0.084 Cl
ATOM     16  C   UNL A   1      31.993  21.759  23.107  1.00  0.00     0.032 A 
ATOM     17  C   UNL A   1      31.823  24.416  22.909  1.00  0.00     0.027 C 
ATOM     18  C   UNL A   1      31.690  25.052  25.101  1.00  0.00     0.316 C 
BRANCH   9  19
ATOM     19  C   UNL A   1      36.203  22.216  24.740  1.00  0.00    -0.014 A 
ATOM     20  C   UNL A   1      39.409  22.550  26.492  1.00  0.00     0.121 A 
ATOM     21  C   UNL A   1      39.178  21.054  25.692  1.00  0.00     0.047 A 
ATOM     22  C   UNL A   1      38.228  23.894  26.440  1.00  0.00    -0.008 A 
ATOM     23  C   UNL A   1      37.655  20.815  24.812  1.00  0.00     0.013 A 
ATOM     24  C   UNL A   1      36.638  23.791  25.582  1.00  0.00     0.016 A 
ATOM     25  C   UNL A   1      38.762  25.131  27.092  1.00  0.00     0.048 C 
BRANCH  20  26
ATOM     26  O   UNL A   1      40.642  22.806  27.052  1.00  0.00    -0.496 OA
ATOM     27  C   UNL A   1      41.036  21.833  28.016  1.00  0.00     0.278 C 
ENDBRANCH  20  26
ENDBRANCH   9  19
BRANCH  18  28
ATOM     28  C   UNL A   1      31.106  26.273  25.860  1.00  0.00     0.430 C 
ATOM     29  F   UNL A   1      29.864  25.979  26.367  1.00  0.00    -0.167 F 
ATOM     30  F   UNL A   1      31.849  26.570  26.954  1.00  0.00    -0.167 F 
ATOM     31  F   UNL A   1      30.965  27.390  25.144  1.00  0.00    -0.167 F 
ENDBRANCH  18  28
ENDBRANCH   6   8
ENDBRANCH   5   6
ENDBRANCH   4   5
ENDBRANCH   3   4
ENDBRANCH   2   3
ENDBRANCH   1   2
BRANCH   1  32
ATOM     32  C   UNL A   1      33.956  32.499  27.646  1.00  0.00     0.188 C 
BRANCH  32  33
ATOM     33  O   UNL A   1      33.656  33.236  28.794  1.00  0.00    -0.376 OA
BRANCH  33  34
ATOM     34  C   UNL A   1      34.616  34.088  29.336  1.00  0.00     0.202 C 
BRANCH  34  35
ATOM     35  C   UNL A   1      34.360  34.039  30.834  1.00  0.00     0.261 C 
BRANCH  35  36
ATOM     36  O   UNL A   1      34.374  32.659  31.304  1.00  0.00    -0.460 OA
BRANCH  36  37
ATOM     37  C   UNL A   1      35.345  32.363  32.218  1.00  0.00     0.338 C 
ATOM     38  O   UNL A   1      35.286  32.629  33.407  1.00  0.00    -0.246 OA
BRANCH  37  39
ATOM     39  C   UNL A   1      36.544  31.804  31.568  1.00  0.00     0.060 A 
ATOM     40  C   UNL A   1      36.762  30.458  31.420  1.00  0.00     0.016 A 
ATOM     41  C   UNL A   1      37.575  32.560  31.154  1.00  0.00     0.016 A 
ATOM     42  C   UNL A   1      38.109  29.895  31.303  1.00  0.00     0.010 A 
ATOM     43  C   UNL A   1      38.822  31.911  31.022  1.00  0.00     0.010 A 
ATOM     44  C   UNL A   1      39.303  30.547  31.365  1.00  0.00    -0.014 A 
BRANCH  44  45
ATOM     45  C   UNL A   1      41.005  29.751  31.332  1.00  0.00     0.031 A 
ATOM     46  C   UNL A   1      41.555  28.300  30.265  1.00  0.00     0.074 A 
ATOM     47  C   UNL A   1      42.102  30.254  31.987  1.00  0.00     0.049 A 
ATOM     48  N   UNL A   1      42.661  27.624  30.356  1.00  0.00    -0.248 NA
ATOM     49  C   UNL A   1      40.702  27.465  29.181  1.00  0.00     0.031 C 
ATOM     50  C   UNL A   1      43.513  29.840  31.881  1.00  0.00     0.029 A 
ATOM     51  N   UNL A   1      42.197  31.261  32.957  1.00  0.00    -0.354 N 
ATOM     52  C   UNL A   1      42.659  26.548  29.452  1.00  0.00     0.074 A 
ATOM     53  C   UNL A   1      41.409  26.427  28.834  1.00  0.00     0.031 C 
ATOM     54  C   UNL A   1      44.177  30.255  32.978  1.00  0.00     0.029 A 
ATOM     55  C   UNL A   1      43.179  30.834  33.854  1.00  0.00     0.049 A 
ATOM     56  H   UNL A   1      41.678  32.096  33.000  1.00  0.00     0.167 HD
ATOM     57  C   UNL A   1      43.801  25.882  29.182  1.00  0.00     0.037 A 
ATOM     58  C   UNL A   1      42.833  30.421  35.100  1.00  0.00     0.037 A 
ATOM     59  C   UNL A   1      44.685  26.121  30.300  1.00  0.00     0.049 A 
ATOM     60  C   UNL A   1      43.259  28.909  35.276  1.00  0.00     0.074 A 
ATOM     61  C   UNL A   1      45.685  27.040  30.559  1.00  0.00     0.029 A 
ATOM     62  N   UNL A   1      44.197  25.729  31.548  1.00  0.00    -0.354 N 
ATOM     63  N   UNL A   1      43.655  28.115  34.299  1.00  0.00    -0.248 NA
ATOM     64  C   UNL A   1      43.375  28.207  36.552  1.00  0.00     0.031 C 
ATOM     65  C   UNL A   1      45.816  27.163  31.974  1.00  0.00     0.029 A 
ATOM     66  C   UNL A   1      44.893  26.326  32.576  1.00  0.00     0.049 A 
ATOM     67  H   UNL A   1      43.449  25.104  31.677  1.00  0.00     0.167 HD
ATOM     68  C   UNL A   1      44.084  26.884  34.765  1.00  0.00     0.074 A 
ATOM     69  C   UNL A   1      43.866  27.004  36.194  1.00  0.00     0.031 C 
ATOM     70  C   UNL A   1      44.608  25.901  33.944  1.00  0.00     0.037 A 
BRANCH  57  71
ATOM     71  C   UNL A   1      44.093  25.540  27.728  1.00  0.00     0.057 A 
ATOM     72  C   UNL A   1      44.133  26.582  26.792  1.00  0.00     0.134 A 
ATOM     73  C   UNL A   1      44.157  24.250  27.140  1.00  0.00     0.134 A 
ATOM     74  F   UNL A   1      44.162  27.861  27.181  1.00  0.00    -0.206 F 
ATOM     75  C   UNL A   1      44.128  26.369  25.405  1.00  0.00     0.040 A 
ATOM     76  C   UNL A   1      44.075  24.020  25.756  1.00  0.00     0.040 A 
ATOM     77  F   UNL A   1      44.358  23.141  27.862  1.00  0.00    -0.206 F 
ATOM     78  C   UNL A   1      44.056  25.088  24.879  1.00  0.00     0.006 A 
ENDBRANCH  57  71
BRANCH  58  79
ATOM     79  C   UNL A   1      41.497  31.210  35.690  1.00  0.00     0.057 A 
ATOM     80  C   UNL A   1      39.594  31.666  35.227  1.00  0.00     0.134 A 
ATOM     81  C   UNL A   1      42.087  31.989  37.187  1.00  0.00     0.134 A 
ATOM     82  F   UNL A   1      38.756  31.215  34.228  1.00  0.00    -0.206 F 
ATOM     83  C   UNL A   1      38.623  32.786  36.199  1.00  0.00     0.040 A 
ATOM     84  C   UNL A   1      40.932  33.104  38.074  1.00  0.00     0.040 A 
ATOM     85  F   UNL A   1      43.413  32.018  37.371  1.00  0.00    -0.206 F 
ATOM     86  C   UNL A   1      39.306  33.477  37.571  1.00  0.00     0.006 A 
ENDBRANCH  58  79
BRANCH  70  87
ATOM     87  C   UNL A   1      44.977  24.420  34.239  1.00  0.00     0.057 A 
ATOM     88  C   UNL A   1      46.263  23.878  34.285  1.00  0.00     0.134 A 
ATOM     89  C   UNL A   1      43.965  23.460  34.574  1.00  0.00     0.134 A 
ATOM     90  F   UNL A   1      47.353  24.604  34.036  1.00  0.00    -0.206 F 
ATOM     91  C   UNL A   1      46.518  22.529  34.616  1.00  0.00     0.040 A 
ATOM     92  C   UNL A   1      44.213  22.147  34.986  1.00  0.00     0.040 A 
ATOM     93  F   UNL A   1      42.653  23.720  34.511  1.00  0.00    -0.206 F 
ATOM     94  C   UNL A   1      45.499  21.665  34.991  1.00  0.00     0.006 A 
ENDBRANCH  70  87
ENDBRANCH  44  45
ENDBRANCH  37  39
ENDBRANCH  36  37
ENDBRANCH  35  36
ENDBRANCH  34  35
ENDBRANCH  33  34
ENDBRANCH  32  33
ENDBRANCH   1  32
TORSDOF 20
ENDMDL
MODEL 3
REMARK VINA RESULT:     -11.7      1.829      2.638
REMARK SMILES COc1ccc(-c2cc(Cl)cc3c2O[C@@H](C(F)(F)F)C(C(=O)OCCOCCOCCOC(=O)c2ccc(-c4c5nc(c(-c6c(F)cccc6F)c6ccc([nH]6)c(-c6c(F)cccc6F)c6nc(c(-c7c(F)cccc7F)c7ccc4[nH]7)C=C6)C=C5)cc2)=C3)cc1C
REMARK SMILES IDX 27 1 26 2 25 3 24 4 23 5 21 6 22 7 20 8 7 9 8 10 13 11 9 12
REMARK SMILES IDX 12 13 14 14 10 15 11 16 89 17 15 18 6 19 3 20 4 21 91 22
REMARK SMILES IDX 5 23 90 24 92 25 2 26 1 27 16 28 17 29 18 30 19 31 28 32
REMARK SMILES IDX 29 33 30 34 31 35 32 36 33 37 34 38 35 39 36 40 88 41 37 42
REMARK SMILES IDX 87 43 38 44 39 45 40 46 81 47 41 48 86 49 80 50 82 51 42 52
REMARK SMILES IDX 85 53 79 54 78 55 43 57 69 58 52 59 68 60 53 61 56 62 67 63
REMARK SMILES IDX 83 64 54 65 55 66 66 68 84 69 57 70 44 71 45 72 50 73 46 74
REMARK SMILES IDX 47 75 49 76 51 77 48 78 70 79 71 80 76 81 72 82 73 83 75 84
REMARK SMILES IDX 77 85 74 86 58 87 59 88 64 89 60 90 61 91 63 92 65 93 62 94
REMARK H PARENT 82 56 56 67
REMARK Flexibility Score: inf
ROOT
ATOM      1  C   UNL A   1      34.190  30.163  27.276  1.00  0.00     0.188 C 
ENDROOT
BRANCH   1   2
ATOM      2  O   UNL A   1      33.760  29.383  26.127  1.00  0.00    -0.376 OA
BRANCH   2   3
ATOM      3  C   UNL A   1      33.649  27.947  26.147  1.00  0.00     0.202 C 
BRANCH   3   4
ATOM      4  C   UNL A   1      33.655  26.815  24.705  1.00  0.00     0.261 C 
BRANCH   4   5
ATOM      5  O   UNL A   1      32.410  25.430  24.170  1.00  0.00    -0.460 OA
BRANCH   5   6
ATOM      6  C   UNL A   1      32.358  23.905  23.463  1.00  0.00     0.338 C 
ATOM      7  O   UNL A   1      32.847  23.675  22.345  1.00  0.00    -0.246 OA
BRANCH   6   8
ATOM      8  C   UNL A   1      31.893  22.490  23.945  1.00  0.00     0.087 C 
ATOM      9  C   UNL A   1      35.133  19.751  24.932  1.00  0.00     0.026 A 
ATOM     10  C   UNL A   1      35.014  18.404  24.645  1.00  0.00     0.033 A 
ATOM     11  C   UNL A   1      33.800  20.546  24.707  1.00  0.00     0.135 A 
ATOM     12  C   UNL A   1      33.834  17.944  24.032  1.00  0.00     0.042 A 
ATOM     13  C   UNL A   1      32.854  20.184  23.757  1.00  0.00     0.019 A 
ATOM     14  O   UNL A   1      33.147  21.447  25.709  1.00  0.00    -0.475 OA
ATOM     15  Cl  UNL A   1      33.646  16.234  23.869  1.00  0.00    -0.084 Cl
ATOM     16  C   UNL A   1      32.829  18.815  23.502  1.00  0.00     0.032 A 
ATOM     17  C   UNL A   1      32.030  21.341  23.179  1.00  0.00     0.027 C 
ATOM     18  C   UNL A   1      31.825  22.059  25.340  1.00  0.00     0.316 C 
BRANCH   9  19
ATOM     19  C   UNL A   1      36.865  20.341  24.910  1.00  0.00    -0.014 A 
ATOM     20  C   UNL A   1      39.897  21.698  26.465  1.00  0.00     0.121 A 
ATOM     21  C   UNL A   1      40.026  20.075  25.933  1.00  0.00     0.047 A 
ATOM     22  C   UNL A   1      38.436  22.704  26.234  1.00  0.00    -0.008 A 
ATOM     23  C   UNL A   1      38.603  19.346  25.159  1.00  0.00     0.013 A 
ATOM     24  C   UNL A   1      36.917  22.094  25.464  1.00  0.00     0.016 A 
ATOM     25  C   UNL A   1      38.664  24.123  26.653  1.00  0.00     0.048 C 
BRANCH  20  26
ATOM     26  O   UNL A   1      41.035  22.323  26.929  1.00  0.00    -0.496 OA
ATOM     27  C   UNL A   1      42.153  22.178  26.057  1.00  0.00     0.278 C 
ENDBRANCH  20  26
ENDBRANCH   9  19
BRANCH  18  28
ATOM     28  C   UNL A   1      30.994  23.152  26.063  1.00  0.00     0.430 C 
ATOM     29  F   UNL A   1      31.820  24.092  26.629  1.00  0.00    -0.167 F 
ATOM     30  F   UNL A   1      30.242  23.858  25.183  1.00  0.00    -0.167 F 
ATOM     31  F   UNL A   1      30.191  22.723  27.038  1.00  0.00    -0.167 F 
ENDBRANCH  18  28
ENDBRANCH   6   8
ENDBRANCH   5   6
ENDBRANCH   4   5
ENDBRANCH   3   4
ENDBRANCH   2   3
ENDBRANCH   1   2
BRANCH   1  32
ATOM     32  C   UNL A   1      33.440  31.492  27.340  1.00  0.00     0.188 C 
BRANCH  32  33
ATOM     33  O   UNL A   1      33.903  32.085  28.517  1.00  0.00    -0.376 OA
BRANCH  33  34
ATOM     34  C   UNL A   1      35.250  31.982  28.857  1.00  0.00     0.202 C 
BRANCH  34  35
ATOM     35  C   UNL A   1      35.906  33.160  28.153  1.00  0.00     0.261 C 
BRANCH  35  36
ATOM     36  O   UNL A   1      35.759  34.371  28.950  1.00  0.00    -0.460 OA
BRANCH  36  37
ATOM     37  C   UNL A   1      35.959  34.216  30.293  1.00  0.00     0.338 C 
ATOM     38  O   UNL A   1      35.105  34.385  31.148  1.00  0.00    -0.246 OA
BRANCH  37  39
ATOM     39  C   UNL A   1      37.377  33.953  30.600  1.00  0.00     0.060 A 
ATOM     40  C   UNL A   1      38.360  33.925  29.645  1.00  0.00     0.016 A 
ATOM     41  C   UNL A   1      37.812  33.617  31.826  1.00  0.00     0.016 A 
ATOM     42  C   UNL A   1      39.595  33.157  29.821  1.00  0.00     0.010 A 
ATOM     43  C   UNL A   1      39.041  32.924  31.893  1.00  0.00     0.010 A 
ATOM     44  C   UNL A   1      39.945  32.350  30.861  1.00  0.00    -0.014 A 
BRANCH  44  45
ATOM     45  C   UNL A   1      41.493  31.291  30.972  1.00  0.00     0.031 A 
ATOM     46  C   UNL A   1      41.906  29.777  29.932  1.00  0.00     0.074 A 
ATOM     47  C   UNL A   1      42.589  31.608  31.738  1.00  0.00     0.049 A 
ATOM     48  N   UNL A   1      42.875  28.931  30.114  1.00  0.00    -0.248 NA
ATOM     49  C   UNL A   1      41.039  29.095  28.756  1.00  0.00     0.031 C 
ATOM     50  C   UNL A   1      43.919  30.973  31.758  1.00  0.00     0.029 A 
ATOM     51  N   UNL A   1      42.748  32.582  32.734  1.00  0.00    -0.354 N 
ATOM     52  C   UNL A   1      42.789  27.873  29.192  1.00  0.00     0.074 A 
ATOM     53  C   UNL A   1      41.601  27.959  28.456  1.00  0.00     0.031 C 
ATOM     54  C   UNL A   1      44.531  31.270  32.920  1.00  0.00     0.029 A 
ATOM     55  C   UNL A   1      43.559  31.998  33.710  1.00  0.00     0.049 A 
ATOM     56  H   UNL A   1      42.368  33.489  32.744  1.00  0.00     0.167 HD
ATOM     57  C   UNL A   1      43.830  27.035  29.017  1.00  0.00     0.037 A 
ATOM     58  C   UNL A   1      43.033  31.640  34.909  1.00  0.00     0.037 A 
ATOM     59  C   UNL A   1      44.629  27.123  30.218  1.00  0.00     0.049 A 
ATOM     60  C   UNL A   1      43.193  30.078  35.094  1.00  0.00     0.074 A 
ATOM     61  C   UNL A   1      45.733  27.868  30.589  1.00  0.00     0.029 A 
ATOM     62  N   UNL A   1      43.967  26.808  31.406  1.00  0.00    -0.354 N 
ATOM     63  N   UNL A   1      43.550  29.236  34.143  1.00  0.00    -0.248 NA
ATOM     64  C   UNL A   1      43.073  29.360  36.360  1.00  0.00     0.031 C 
ATOM     65  C   UNL A   1      45.745  27.961  32.013  1.00  0.00     0.029 A 
ATOM     66  C   UNL A   1      44.647  27.280  32.507  1.00  0.00     0.049 A 
ATOM     67  H   UNL A   1      43.120  26.311  31.451  1.00  0.00     0.167 HD
ATOM     68  C   UNL A   1      43.730  27.949  34.622  1.00  0.00     0.074 A 
ATOM     69  C   UNL A   1      43.398  28.096  36.025  1.00  0.00     0.031 C 
ATOM     70  C   UNL A   1      44.168  26.899  33.833  1.00  0.00     0.037 A 
BRANCH  57  71
ATOM     71  C   UNL A   1      44.203  26.658  27.590  1.00  0.00     0.057 A 
ATOM     72  C   UNL A   1      44.266  25.300  27.253  1.00  0.00     0.134 A 
ATOM     73  C   UNL A   1      44.682  27.517  26.568  1.00  0.00     0.134 A 
ATOM     74  F   UNL A   1      43.782  24.360  28.071  1.00  0.00    -0.206 F 
ATOM     75  C   UNL A   1      44.848  24.830  26.065  1.00  0.00     0.040 A 
ATOM     76  C   UNL A   1      45.336  27.060  25.409  1.00  0.00     0.040 A 
ATOM     77  F   UNL A   1      44.501  28.843  26.599  1.00  0.00    -0.206 F 
ATOM     78  C   UNL A   1      45.424  25.705  25.157  1.00  0.00     0.006 A 
ENDBRANCH  57  71
BRANCH  58  79
ATOM     79  C   UNL A   1      41.790  32.630  35.386  1.00  0.00     0.057 A 
ATOM     80  C   UNL A   1      39.788  32.810  35.307  1.00  0.00     0.134 A 
ATOM     81  C   UNL A   1      42.619  34.049  36.090  1.00  0.00     0.134 A 
ATOM     82  F   UNL A   1      38.798  31.928  34.926  1.00  0.00    -0.206 F 
ATOM     83  C   UNL A   1      38.945  34.275  35.841  1.00  0.00     0.040 A 
ATOM     84  C   UNL A   1      41.578  35.468  36.608  1.00  0.00     0.040 A 
ATOM     85  F   UNL A   1      43.934  34.154  35.864  1.00  0.00    -0.206 F 
ATOM     86  C   UNL A   1      39.844  35.554  36.458  1.00  0.00     0.006 A 
ENDBRANCH  58  79
BRANCH  70  87
ATOM     87  C   UNL A   1      44.265  25.377  34.131  1.00  0.00     0.057 A 
ATOM     88  C   UNL A   1      45.390  24.567  33.961  1.00  0.00     0.134 A 
ATOM     89  C   UNL A   1      43.160  24.664  34.704  1.00  0.00     0.134 A 
ATOM     90  F   UNL A   1      46.538  25.036  33.470  1.00  0.00    -0.206 F 
ATOM     91  C   UNL A   1      45.414  23.199  34.308  1.00  0.00     0.040 A 
ATOM     92  C   UNL A   1      43.200  23.333  35.131  1.00  0.00     0.040 A 
ATOM     93  F   UNL A   1      41.947  25.204  34.878  1.00  0.00    -0.206 F 
ATOM     94  C   UNL A   1      44.330  22.582  34.916  1.00  0.00     0.006 A 
ENDBRANCH  70  87
ENDBRANCH  44  45
ENDBRANCH  37  39
ENDBRANCH  36  37
ENDBRANCH  35  36
ENDBRANCH  34  35
ENDBRANCH  33  34
ENDBRANCH  32  33
ENDBRANCH   1  32
TORSDOF 20
ENDMDL
