MODEL 1
REMARK VINA RESULT:     -10.5      0.000      0.000
REMARK SMILES Cc1ccc(-c2nn(CCC(=O)OCCOCCOCCOC(=O)c3ccc(-c4c5nc(c(-c6c(F)cccc6F)c6ccc([nH]6)c(-c6c(F)cccc6F)c6nc(c(-c7c(F)cccc7F)c7ccc4[nH]7)C=C6)C=C5)cc3)c(=O)c3noc(C)c23)cc1C
REMARK SMILES IDX 17 1 16 2 15 3 14 4 13 5 11 6 12 7 10 8 9 9 8 10 6 11 7 12
REMARK SMILES IDX 86 13 81 14 84 15 79 16 82 17 83 18 85 19 80 20 5 21 1 22
REMARK SMILES IDX 2 23 3 24 88 25 4 26 87 27 89 28 18 29 19 30 20 31 21 32
REMARK SMILES IDX 22 33 23 34 24 35 25 36 26 37 78 38 27 39 77 40 28 41 29 42
REMARK SMILES IDX 30 43 71 44 31 45 76 46 70 47 72 48 32 49 75 50 69 51 68 52
REMARK SMILES IDX 33 54 59 55 42 56 58 57 43 58 46 59 57 60 73 61 44 62 45 63
REMARK SMILES IDX 56 65 74 66 47 67 34 68 35 69 40 70 36 71 37 72 39 73 41 74
REMARK SMILES IDX 38 75 60 76 61 77 66 78 62 79 63 80 65 81 67 82 64 83 48 84
REMARK SMILES IDX 49 85 54 86 50 87 51 88 53 89 55 90 52 91
REMARK H PARENT 72 53 46 64
REMARK Flexibility Score: inf
ROOT
ATOM      1  C   UNL A   1      34.125  31.357  28.054  1.00  0.00     0.188 C 
ENDROOT
BRANCH   1   2
ATOM      2  O   UNL A   1      33.348  30.515  27.220  1.00  0.00    -0.376 OA
BRANCH   2   3
ATOM      3  C   UNL A   1      33.678  29.122  27.275  1.00  0.00     0.202 C 
BRANCH   3   4
ATOM      4  C   UNL A   1      33.803  28.357  25.930  1.00  0.00     0.261 C 
BRANCH   4   5
ATOM      5  O   UNL A   1      33.154  28.981  24.792  1.00  0.00    -0.463 OA
BRANCH   5   6
ATOM      6  C   UNL A   1      33.532  28.596  23.551  1.00  0.00     0.307 C 
ATOM      7  O   UNL A   1      34.692  28.582  23.153  1.00  0.00    -0.252 OA
BRANCH   6   8
ATOM      8  C   UNL A   1      32.367  28.159  22.677  1.00  0.00     0.146 C 
BRANCH   8   9
ATOM      9  C   UNL A   1      32.107  26.658  22.472  1.00  0.00     0.160 C 
BRANCH   9  10
ATOM     10  N   UNL A   1      32.201  25.812  23.665  1.00  0.00    -0.227 N 
ATOM     11  C   UNL A   1      33.574  24.309  24.838  1.00  0.00     0.104 A 
ATOM     12  N   UNL A   1      33.385  25.068  23.794  1.00  0.00    -0.169 NA
ATOM     13  C   UNL A   1      32.549  24.173  25.836  1.00  0.00     0.078 A 
ATOM     14  C   UNL A   1      31.404  24.963  25.748  1.00  0.00     0.183 A 
ATOM     15  C   UNL A   1      32.341  23.406  26.957  1.00  0.00     0.143 A 
ATOM     16  C   UNL A   1      31.228  25.902  24.678  1.00  0.00     0.296 A 
ATOM     17  N   UNL A   1      30.533  24.722  26.734  1.00  0.00    -0.074 NA
ATOM     18  O   UNL A   1      31.129  23.733  27.496  1.00  0.00    -0.360 OA
ATOM     19  C   UNL A   1      33.066  22.345  27.676  1.00  0.00     0.091 C 
ATOM     20  O   UNL A   1      30.290  26.685  24.678  1.00  0.00    -0.265 OA
BRANCH  11  21
ATOM     21  C   UNL A   1      34.823  23.567  24.983  1.00  0.00     0.003 A 
ATOM     22  C   UNL A   1      38.557  21.495  25.392  1.00  0.00     0.044 C 
ATOM     23  C   UNL A   1      37.258  22.242  25.264  1.00  0.00    -0.048 A 
ATOM     24  C   UNL A   1      36.195  21.646  24.560  1.00  0.00     0.004 A 
ATOM     25  C   UNL A   1      37.085  23.518  25.838  1.00  0.00    -0.048 A 
ATOM     26  C   UNL A   1      34.974  22.303  24.417  1.00  0.00     0.011 A 
ATOM     27  C   UNL A   1      35.852  24.161  25.707  1.00  0.00     0.014 A 
ATOM     28  C   UNL A   1      38.155  24.260  26.586  1.00  0.00     0.044 C 
ENDBRANCH  11  21
ENDBRANCH   9  10
ENDBRANCH   8   9
ENDBRANCH   6   8
ENDBRANCH   5   6
ENDBRANCH   4   5
ENDBRANCH   3   4
ENDBRANCH   2   3
ENDBRANCH   1   2
BRANCH   1  29
ATOM     29  C   UNL A   1      35.614  31.399  27.764  1.00  0.00     0.188 C 
BRANCH  29  30
ATOM     30  O   UNL A   1      36.466  31.287  28.900  1.00  0.00    -0.376 OA
BRANCH  30  31
ATOM     31  C   UNL A   1      36.310  30.109  29.688  1.00  0.00     0.202 C 
BRANCH  31  32
ATOM     32  C   UNL A   1      36.441  30.306  31.212  1.00  0.00     0.261 C 
BRANCH  32  33
ATOM     33  O   UNL A   1      37.766  30.119  31.726  1.00  0.00    -0.460 OA
BRANCH  33  34
ATOM     34  C   UNL A   1      37.980  28.880  32.234  1.00  0.00     0.338 C 
ATOM     35  O   UNL A   1      37.432  28.370  33.197  1.00  0.00    -0.246 OA
BRANCH  34  36
ATOM     36  C   UNL A   1      38.946  28.150  31.399  1.00  0.00     0.060 A 
ATOM     37  C   UNL A   1      40.289  28.552  31.395  1.00  0.00     0.016 A 
ATOM     38  C   UNL A   1      38.485  27.200  30.497  1.00  0.00     0.016 A 
ATOM     39  C   UNL A   1      41.167  28.054  30.433  1.00  0.00     0.010 A 
ATOM     40  C   UNL A   1      39.349  26.761  29.499  1.00  0.00     0.010 A 
ATOM     41  C   UNL A   1      40.687  27.201  29.436  1.00  0.00    -0.014 A 
BRANCH  41  42
ATOM     42  C   UNL A   1      41.601  26.767  28.344  1.00  0.00     0.031 A 
ATOM     43  C   UNL A   1      42.321  27.907  27.701  1.00  0.00     0.074 A 
ATOM     44  C   UNL A   1      42.175  25.535  28.344  1.00  0.00     0.049 A 
ATOM     45  N   UNL A   1      43.321  28.476  28.307  1.00  0.00    -0.248 NA
ATOM     46  C   UNL A   1      41.790  28.699  26.592  1.00  0.00     0.031 C 
ATOM     47  C   UNL A   1      42.295  24.706  29.554  1.00  0.00     0.029 A 
ATOM     48  N   UNL A   1      42.930  24.850  27.406  1.00  0.00    -0.354 N 
ATOM     49  C   UNL A   1      43.485  29.730  27.764  1.00  0.00     0.074 A 
ATOM     50  C   UNL A   1      42.559  29.802  26.654  1.00  0.00     0.031 C 
ATOM     51  C   UNL A   1      43.213  23.743  29.339  1.00  0.00     0.029 A 
ATOM     52  C   UNL A   1      43.674  23.793  27.949  1.00  0.00     0.049 A 
ATOM     53  H   UNL A   1      42.942  25.084  26.450  1.00  0.00     0.167 HD
ATOM     54  C   UNL A   1      44.334  30.637  28.315  1.00  0.00     0.037 A 
ATOM     55  C   UNL A   1      44.960  23.473  27.610  1.00  0.00     0.037 A 
ATOM     56  C   UNL A   1      44.945  30.245  29.554  1.00  0.00     0.049 A 
ATOM     57  C   UNL A   1      45.715  24.686  28.092  1.00  0.00     0.074 A 
ATOM     58  C   UNL A   1      44.766  30.490  30.899  1.00  0.00     0.029 A 
ATOM     59  N   UNL A   1      45.966  29.329  29.502  1.00  0.00    -0.354 N 
ATOM     60  N   UNL A   1      46.038  24.969  29.325  1.00  0.00    -0.248 NA
ATOM     61  C   UNL A   1      45.816  25.803  27.153  1.00  0.00     0.031 C 
ATOM     62  C   UNL A   1      45.347  29.365  31.570  1.00  0.00     0.029 A 
ATOM     63  C   UNL A   1      45.825  28.502  30.586  1.00  0.00     0.049 A 
ATOM     64  H   UNL A   1      46.670  29.276  28.816  1.00  0.00     0.167 HD
ATOM     65  C   UNL A   1      46.114  26.362  29.370  1.00  0.00     0.074 A 
ATOM     66  C   UNL A   1      45.989  26.809  27.997  1.00  0.00     0.031 C 
ATOM     67  C   UNL A   1      46.099  27.084  30.527  1.00  0.00     0.037 A 
BRANCH  54  68
ATOM     68  C   UNL A   1      44.813  31.852  27.641  1.00  0.00     0.057 A 
ATOM     69  C   UNL A   1      45.968  31.715  26.857  1.00  0.00     0.134 A 
ATOM     70  C   UNL A   1      44.364  33.138  27.930  1.00  0.00     0.134 A 
ATOM     71  F   UNL A   1      46.453  30.491  26.585  1.00  0.00    -0.206 F 
ATOM     72  C   UNL A   1      46.682  32.819  26.407  1.00  0.00     0.040 A 
ATOM     73  C   UNL A   1      45.067  34.257  27.472  1.00  0.00     0.040 A 
ATOM     74  F   UNL A   1      43.283  33.330  28.699  1.00  0.00    -0.206 F 
ATOM     75  C   UNL A   1      46.237  34.098  26.725  1.00  0.00     0.006 A 
ENDBRANCH  54  68
BRANCH  55  76
ATOM     76  C   UNL A   1      45.242  22.868  26.267  1.00  0.00     0.057 A 
ATOM     77  C   UNL A   1      44.392  21.875  25.753  1.00  0.00     0.134 A 
ATOM     78  C   UNL A   1      46.355  23.180  25.467  1.00  0.00     0.134 A 
ATOM     79  F   UNL A   1      43.381  21.394  26.494  1.00  0.00    -0.206 F 
ATOM     80  C   UNL A   1      44.555  21.336  24.472  1.00  0.00     0.040 A 
ATOM     81  C   UNL A   1      46.514  22.675  24.171  1.00  0.00     0.040 A 
ATOM     82  F   UNL A   1      47.327  23.989  25.911  1.00  0.00    -0.206 F 
ATOM     83  C   UNL A   1      45.598  21.765  23.660  1.00  0.00     0.006 A 
ENDBRANCH  55  76
BRANCH  67  84
ATOM     84  C   UNL A   1      46.170  26.299  31.790  1.00  0.00     0.057 A 
ATOM     85  C   UNL A   1      47.412  25.974  32.344  1.00  0.00     0.134 A 
ATOM     86  C   UNL A   1      45.023  25.931  32.507  1.00  0.00     0.134 A 
ATOM     87  F   UNL A   1      48.547  26.307  31.710  1.00  0.00    -0.206 F 
ATOM     88  C   UNL A   1      47.513  25.335  33.580  1.00  0.00     0.040 A 
ATOM     89  C   UNL A   1      45.113  25.309  33.755  1.00  0.00     0.040 A 
ATOM     90  F   UNL A   1      43.796  26.198  32.031  1.00  0.00    -0.206 F 
ATOM     91  C   UNL A   1      46.362  25.016  34.297  1.00  0.00     0.006 A 
ENDBRANCH  67  84
ENDBRANCH  41  42
ENDBRANCH  34  36
ENDBRANCH  33  34
ENDBRANCH  32  33
ENDBRANCH  31  32
ENDBRANCH  30  31
ENDBRANCH  29  30
ENDBRANCH   1  29
TORSDOF 20
ENDMDL
MODEL 2
REMARK VINA RESULT:     -10.5      3.788      9.271
REMARK SMILES Cc1ccc(-c2nn(CCC(=O)OCCOCCOCCOC(=O)c3ccc(-c4c5nc(c(-c6c(F)cccc6F)c6ccc([nH]6)c(-c6c(F)cccc6F)c6nc(c(-c7c(F)cccc7F)c7ccc4[nH]7)C=C6)C=C5)cc3)c(=O)c3noc(C)c23)cc1C
REMARK SMILES IDX 17 1 16 2 15 3 14 4 13 5 11 6 12 7 10 8 9 9 8 10 6 11 7 12
REMARK SMILES IDX 86 13 81 14 84 15 79 16 82 17 83 18 85 19 80 20 5 21 1 22
REMARK SMILES IDX 2 23 3 24 88 25 4 26 87 27 89 28 18 29 19 30 20 31 21 32
REMARK SMILES IDX 22 33 23 34 24 35 25 36 26 37 78 38 27 39 77 40 28 41 29 42
REMARK SMILES IDX 30 43 71 44 31 45 76 46 70 47 72 48 32 49 75 50 69 51 68 52
REMARK SMILES IDX 33 54 59 55 42 56 58 57 43 58 46 59 57 60 73 61 44 62 45 63
REMARK SMILES IDX 56 65 74 66 47 67 34 68 35 69 40 70 36 71 37 72 39 73 41 74
REMARK SMILES IDX 38 75 60 76 61 77 66 78 62 79 63 80 65 81 67 82 64 83 48 84
REMARK SMILES IDX 49 85 54 86 50 87 51 88 53 89 55 90 52 91
REMARK H PARENT 72 53 46 64
REMARK Flexibility Score: inf
ROOT
ATOM      1  C   UNL A   1      37.765  22.945  25.804  1.00  0.00     0.188 C 
ENDROOT
BRANCH   1   2
ATOM      2  O   UNL A   1      36.787  23.473  24.926  1.00  0.00    -0.376 OA
BRANCH   2   3
ATOM      3  C   UNL A   1      35.740  22.569  24.557  1.00  0.00     0.202 C 
BRANCH   3   4
ATOM      4  C   UNL A   1      35.309  21.501  25.597  1.00  0.00     0.261 C 
BRANCH   4   5
ATOM      5  O   UNL A   1      33.933  21.587  26.049  1.00  0.00    -0.463 OA
BRANCH   5   6
ATOM      6  C   UNL A   1      33.640  22.455  27.045  1.00  0.00     0.307 C 
ATOM      7  O   UNL A   1      34.469  22.937  27.810  1.00  0.00    -0.252 OA
BRANCH   6   8
ATOM      8  C   UNL A   1      32.162  22.799  27.127  1.00  0.00     0.146 C 
BRANCH   8   9
ATOM      9  C   UNL A   1      31.405  23.164  25.839  1.00  0.00     0.160 C 
BRANCH   9  10
ATOM     10  N   UNL A   1      31.996  24.220  25.014  1.00  0.00    -0.227 N 
ATOM     11  C   UNL A   1      32.686  26.467  24.991  1.00  0.00     0.104 A 
ATOM     12  N   UNL A   1      32.141  25.472  25.635  1.00  0.00    -0.169 NA
ATOM     13  C   UNL A   1      33.085  26.316  23.619  1.00  0.00     0.078 A 
ATOM     14  C   UNL A   1      33.009  25.058  23.022  1.00  0.00     0.183 A 
ATOM     15  C   UNL A   1      33.554  27.133  22.619  1.00  0.00     0.143 A 
ATOM     16  C   UNL A   1      32.534  23.916  23.749  1.00  0.00     0.296 A 
ATOM     17  N   UNL A   1      33.399  25.069  21.743  1.00  0.00    -0.074 NA
ATOM     18  O   UNL A   1      33.742  26.386  21.491  1.00  0.00    -0.360 OA
ATOM     19  C   UNL A   1      33.870  28.564  22.467  1.00  0.00     0.091 C 
ATOM     20  O   UNL A   1      32.596  22.796  23.267  1.00  0.00    -0.265 OA
BRANCH  11  21
ATOM     21  C   UNL A   1      32.865  27.754  25.656  1.00  0.00     0.003 A 
ATOM     22  C   UNL A   1      33.452  31.476  27.705  1.00  0.00     0.044 C 
ATOM     23  C   UNL A   1      33.273  30.164  26.994  1.00  0.00    -0.048 A 
ATOM     24  C   UNL A   1      32.064  29.916  26.316  1.00  0.00     0.004 A 
ATOM     25  C   UNL A   1      34.288  29.186  26.988  1.00  0.00    -0.048 A 
ATOM     26  C   UNL A   1      31.854  28.712  25.644  1.00  0.00     0.011 A 
ATOM     27  C   UNL A   1      34.078  27.991  26.296  1.00  0.00     0.014 A 
ATOM     28  C   UNL A   1      35.604  29.331  27.697  1.00  0.00     0.044 C 
ENDBRANCH  11  21
ENDBRANCH   9  10
ENDBRANCH   8   9
ENDBRANCH   6   8
ENDBRANCH   5   6
ENDBRANCH   4   5
ENDBRANCH   3   4
ENDBRANCH   2   3
ENDBRANCH   1   2
BRANCH   1  29
ATOM     29  C   UNL A   1      38.483  23.946  26.690  1.00  0.00     0.188 C 
BRANCH  29  30
ATOM     30  O   UNL A   1      39.810  24.280  26.294  1.00  0.00    -0.376 OA
BRANCH  30  31
ATOM     31  C   UNL A   1      40.564  25.059  27.219  1.00  0.00     0.202 C 
BRANCH  31  32
ATOM     32  C   UNL A   1      41.812  25.756  26.641  1.00  0.00     0.261 C 
BRANCH  32  33
ATOM     33  O   UNL A   1      41.567  26.539  25.465  1.00  0.00    -0.460 OA
BRANCH  33  34
ATOM     34  C   UNL A   1      42.087  27.789  25.529  1.00  0.00     0.338 C 
ATOM     35  O   UNL A   1      42.999  28.247  24.861  1.00  0.00    -0.246 OA
BRANCH  34  36
ATOM     36  C   UNL A   1      41.333  28.603  26.495  1.00  0.00     0.060 A 
ATOM     37  C   UNL A   1      41.945  28.977  27.700  1.00  0.00     0.016 A 
ATOM     38  C   UNL A   1      39.980  28.831  26.284  1.00  0.00     0.016 A 
ATOM     39  C   UNL A   1      41.184  29.520  28.734  1.00  0.00     0.010 A 
ATOM     40  C   UNL A   1      39.215  29.308  27.344  1.00  0.00     0.010 A 
ATOM     41  C   UNL A   1      39.799  29.631  28.586  1.00  0.00    -0.014 A 
BRANCH  41  42
ATOM     42  C   UNL A   1      38.977  30.100  29.736  1.00  0.00     0.031 A 
ATOM     43  C   UNL A   1      39.298  29.388  31.009  1.00  0.00     0.074 A 
ATOM     44  C   UNL A   1      38.486  31.366  29.791  1.00  0.00     0.049 A 
ATOM     45  N   UNL A   1      40.381  29.680  31.668  1.00  0.00    -0.248 NA
ATOM     46  C   UNL A   1      38.691  28.124  31.424  1.00  0.00     0.031 C 
ATOM     47  C   UNL A   1      39.029  32.473  28.986  1.00  0.00     0.029 A 
ATOM     48  N   UNL A   1      37.603  31.996  30.652  1.00  0.00    -0.354 N 
ATOM     49  C   UNL A   1      40.676  28.614  32.487  1.00  0.00     0.074 A 
ATOM     50  C   UNL A   1      39.563  27.697  32.357  1.00  0.00     0.031 C 
ATOM     51  C   UNL A   1      38.617  33.643  29.511  1.00  0.00     0.029 A 
ATOM     52  C   UNL A   1      37.685  33.396  30.615  1.00  0.00     0.049 A 
ATOM     53  H   UNL A   1      36.979  31.508  31.235  1.00  0.00     0.167 HD
ATOM     54  C   UNL A   1      41.851  28.544  33.165  1.00  0.00     0.037 A 
ATOM     55  C   UNL A   1      37.629  34.223  31.703  1.00  0.00     0.037 A 
ATOM     56  C   UNL A   1      42.800  29.582  32.876  1.00  0.00     0.049 A 
ATOM     57  C   UNL A   1      38.887  33.841  32.442  1.00  0.00     0.074 A 
ATOM     58  C   UNL A   1      43.939  29.737  32.114  1.00  0.00     0.029 A 
ATOM     59  N   UNL A   1      42.571  30.825  33.413  1.00  0.00    -0.354 N 
ATOM     60  N   UNL A   1      40.108  34.198  32.147  1.00  0.00    -0.248 NA
ATOM     61  C   UNL A   1      38.778  32.718  33.372  1.00  0.00     0.031 C 
ATOM     62  C   UNL A   1      44.036  31.143  31.859  1.00  0.00     0.029 A 
ATOM     63  C   UNL A   1      42.939  31.749  32.468  1.00  0.00     0.049 A 
ATOM     64  H   UNL A   1      42.212  31.018  34.308  1.00  0.00     0.167 HD
ATOM     65  C   UNL A   1      40.916  33.169  32.636  1.00  0.00     0.074 A 
ATOM     66  C   UNL A   1      40.036  32.305  33.396  1.00  0.00     0.031 C 
ATOM     67  C   UNL A   1      42.211  32.979  32.256  1.00  0.00     0.037 A 
BRANCH  54  68
ATOM     68  C   UNL A   1      42.117  27.634  34.289  1.00  0.00     0.057 A 
ATOM     69  C   UNL A   1      41.643  28.040  35.545  1.00  0.00     0.134 A 
ATOM     70  C   UNL A   1      43.003  26.561  34.237  1.00  0.00     0.134 A 
ATOM     71  F   UNL A   1      40.813  29.094  35.640  1.00  0.00    -0.206 F 
ATOM     72  C   UNL A   1      42.067  27.431  36.719  1.00  0.00     0.040 A 
ATOM     73  C   UNL A   1      43.427  25.930  35.411  1.00  0.00     0.040 A 
ATOM     74  F   UNL A   1      43.512  26.148  33.067  1.00  0.00    -0.206 F 
ATOM     75  C   UNL A   1      42.973  26.377  36.655  1.00  0.00     0.006 A 
ENDBRANCH  54  68
BRANCH  55  76
ATOM     76  C   UNL A   1      36.329  34.403  32.428  1.00  0.00     0.057 A 
ATOM     77  C   UNL A   1      36.329  34.713  33.798  1.00  0.00     0.134 A 
ATOM     78  C   UNL A   1      35.060  34.231  31.849  1.00  0.00     0.134 A 
ATOM     79  F   UNL A   1      37.480  34.756  34.487  1.00  0.00    -0.206 F 
ATOM     80  C   UNL A   1      35.151  34.976  34.508  1.00  0.00     0.040 A 
ATOM     81  C   UNL A   1      33.875  34.523  32.536  1.00  0.00     0.040 A 
ATOM     82  F   UNL A   1      34.921  33.778  30.595  1.00  0.00    -0.206 F 
ATOM     83  C   UNL A   1      33.920  34.920  33.866  1.00  0.00     0.006 A 
ENDBRANCH  55  76
BRANCH  67  84
ATOM     84  C   UNL A   1      42.806  34.042  31.399  1.00  0.00     0.057 A 
ATOM     85  C   UNL A   1      42.792  33.909  30.008  1.00  0.00     0.134 A 
ATOM     86  C   UNL A   1      43.321  35.232  31.933  1.00  0.00     0.134 A 
ATOM     87  F   UNL A   1      42.304  32.798  29.435  1.00  0.00    -0.206 F 
ATOM     88  C   UNL A   1      43.242  34.933  29.174  1.00  0.00     0.040 A 
ATOM     89  C   UNL A   1      43.756  36.272  31.107  1.00  0.00     0.040 A 
ATOM     90  F   UNL A   1      43.380  35.424  33.261  1.00  0.00    -0.206 F 
ATOM     91  C   UNL A   1      43.710  36.125  29.723  1.00  0.00     0.006 A 
ENDBRANCH  67  84
ENDBRANCH  41  42
ENDBRANCH  34  36
ENDBRANCH  33  34
ENDBRANCH  32  33
ENDBRANCH  31  32
ENDBRANCH  30  31
ENDBRANCH  29  30
ENDBRANCH   1  29
TORSDOF 20
ENDMDL
MODEL 3
REMARK VINA RESULT:     -10.1      3.644      6.115
REMARK SMILES Cc1ccc(-c2nn(CCC(=O)OCCOCCOCCOC(=O)c3ccc(-c4c5nc(c(-c6c(F)cccc6F)c6ccc([nH]6)c(-c6c(F)cccc6F)c6nc(c(-c7c(F)cccc7F)c7ccc4[nH]7)C=C6)C=C5)cc3)c(=O)c3noc(C)c23)cc1C
REMARK SMILES IDX 17 1 16 2 15 3 14 4 13 5 11 6 12 7 10 8 9 9 8 10 6 11 7 12
REMARK SMILES IDX 86 13 81 14 84 15 79 16 82 17 83 18 85 19 80 20 5 21 1 22
REMARK SMILES IDX 2 23 3 24 88 25 4 26 87 27 89 28 18 29 19 30 20 31 21 32
REMARK SMILES IDX 22 33 23 34 24 35 25 36 26 37 78 38 27 39 77 40 28 41 29 42
REMARK SMILES IDX 30 43 71 44 31 45 76 46 70 47 72 48 32 49 75 50 69 51 68 52
REMARK SMILES IDX 33 54 59 55 42 56 58 57 43 58 46 59 57 60 73 61 44 62 45 63
REMARK SMILES IDX 56 65 74 66 47 67 34 68 35 69 40 70 36 71 37 72 39 73 41 74
REMARK SMILES IDX 38 75 60 76 61 77 66 78 62 79 63 80 65 81 67 82 64 83 48 84
REMARK SMILES IDX 49 85 54 86 50 87 51 88 53 89 55 90 52 91
REMARK H PARENT 72 53 46 64
REMARK Flexibility Score: inf
ROOT
ATOM      1  C   UNL A   1      33.181  27.796  26.074  1.00  0.00     0.188 C 
ENDROOT
BRANCH   1   2
ATOM      2  O   UNL A   1      31.780  27.979  25.959  1.00  0.00    -0.376 OA
BRANCH   2   3
ATOM      3  C   UNL A   1      31.358  28.833  24.889  1.00  0.00     0.202 C 
BRANCH   3   4
ATOM      4  C   UNL A   1      32.326  29.021  23.692  1.00  0.00     0.261 C 
BRANCH   4   5
ATOM      5  O   UNL A   1      32.144  28.096  22.588  1.00  0.00    -0.463 OA
BRANCH   5   6
ATOM      6  C   UNL A   1      33.247  27.577  22.001  1.00  0.00     0.307 C 
ATOM      7  O   UNL A   1      34.316  28.168  21.891  1.00  0.00    -0.252 OA
BRANCH   6   8
ATOM      8  C   UNL A   1      33.045  26.160  21.489  1.00  0.00     0.146 C 
BRANCH   8   9
ATOM      9  C   UNL A   1      31.885  25.320  22.048  1.00  0.00     0.160 C 
BRANCH   9  10
ATOM     10  N   UNL A   1      32.080  24.748  23.382  1.00  0.00    -0.227 N 
ATOM     11  C   UNL A   1      33.605  23.632  24.780  1.00  0.00     0.104 A 
ATOM     12  N   UNL A   1      33.327  24.142  23.611  1.00  0.00    -0.169 NA
ATOM     13  C   UNL A   1      32.619  23.623  25.825  1.00  0.00     0.078 A 
ATOM     14  C   UNL A   1      31.409  24.285  25.625  1.00  0.00     0.183 A 
ATOM     15  C   UNL A   1      32.504  23.088  27.086  1.00  0.00     0.143 A 
ATOM     16  C   UNL A   1      31.127  24.967  24.395  1.00  0.00     0.296 A 
ATOM     17  N   UNL A   1      30.585  24.183  26.674  1.00  0.00    -0.074 NA
ATOM     18  O   UNL A   1      31.282  23.422  27.596  1.00  0.00    -0.360 OA
ATOM     19  C   UNL A   1      33.335  22.259  27.975  1.00  0.00     0.091 C 
ATOM     20  O   UNL A   1      30.125  25.655  24.275  1.00  0.00    -0.265 OA
BRANCH  11  21
ATOM     21  C   UNL A   1      34.916  23.037  25.021  1.00  0.00     0.003 A 
ATOM     22  C   UNL A   1      38.823  21.398  25.694  1.00  0.00     0.044 C 
ATOM     23  C   UNL A   1      37.462  21.997  25.470  1.00  0.00    -0.048 A 
ATOM     24  C   UNL A   1      36.453  21.200  24.894  1.00  0.00     0.004 A 
ATOM     25  C   UNL A   1      37.177  23.330  25.828  1.00  0.00    -0.048 A 
ATOM     26  C   UNL A   1      35.177  21.715  24.668  1.00  0.00     0.011 A 
ATOM     27  C   UNL A   1      35.890  23.831  25.616  1.00  0.00     0.014 A 
ATOM     28  C   UNL A   1      38.179  24.277  26.423  1.00  0.00     0.044 C 
ENDBRANCH  11  21
ENDBRANCH   9  10
ENDBRANCH   8   9
ENDBRANCH   6   8
ENDBRANCH   5   6
ENDBRANCH   4   5
ENDBRANCH   3   4
ENDBRANCH   2   3
ENDBRANCH   1   2
BRANCH   1  29
ATOM     29  C   UNL A   1      33.866  28.554  27.196  1.00  0.00     0.188 C 
BRANCH  29  30
ATOM     30  O   UNL A   1      34.330  29.860  26.865  1.00  0.00    -0.376 OA
BRANCH  30  31
ATOM     31  C   UNL A   1      33.427  30.931  27.124  1.00  0.00     0.202 C 
BRANCH  31  32
ATOM     32  C   UNL A   1      33.981  32.070  28.003  1.00  0.00     0.261 C 
BRANCH  32  33
ATOM     33  O   UNL A   1      35.190  32.667  27.515  1.00  0.00    -0.460 OA
BRANCH  33  34
ATOM     34  C   UNL A   1      35.920  33.278  28.479  1.00  0.00     0.338 C 
ATOM     35  O   UNL A   1      35.623  34.277  29.113  1.00  0.00    -0.246 OA
BRANCH  34  36
ATOM     36  C   UNL A   1      37.148  32.513  28.747  1.00  0.00     0.060 A 
ATOM     37  C   UNL A   1      37.168  31.137  28.480  1.00  0.00     0.016 A 
ATOM     38  C   UNL A   1      38.196  33.121  29.424  1.00  0.00     0.016 A 
ATOM     39  C   UNL A   1      38.212  30.345  28.957  1.00  0.00     0.010 A 
ATOM     40  C   UNL A   1      39.198  32.316  29.955  1.00  0.00     0.010 A 
ATOM     41  C   UNL A   1      39.205  30.920  29.754  1.00  0.00    -0.014 A 
BRANCH  41  42
ATOM     42  C   UNL A   1      40.251  30.050  30.358  1.00  0.00     0.031 A 
ATOM     43  C   UNL A   1      41.618  30.329  29.825  1.00  0.00     0.074 A 
ATOM     44  C   UNL A   1      40.120  29.542  31.612  1.00  0.00     0.049 A 
ATOM     45  N   UNL A   1      42.272  31.382  30.219  1.00  0.00    -0.248 NA
ATOM     46  C   UNL A   1      42.174  29.721  28.616  1.00  0.00     0.031 C 
ATOM     47  C   UNL A   1      39.196  30.103  32.611  1.00  0.00     0.029 A 
ATOM     48  N   UNL A   1      40.857  28.620  32.335  1.00  0.00    -0.354 N 
ATOM     49  C   UNL A   1      43.235  31.658  29.275  1.00  0.00     0.074 A 
ATOM     50  C   UNL A   1      43.187  30.561  28.331  1.00  0.00     0.031 C 
ATOM     51  C   UNL A   1      39.546  29.657  33.833  1.00  0.00     0.029 A 
ATOM     52  C   UNL A   1      40.638  28.686  33.719  1.00  0.00     0.049 A 
ATOM     53  H   UNL A   1      41.476  27.979  31.917  1.00  0.00     0.167 HD
ATOM     54  C   UNL A   1      43.960  32.806  29.314  1.00  0.00     0.037 A 
ATOM     55  C   UNL A   1      41.604  28.580  34.680  1.00  0.00     0.037 A 
ATOM     56  C   UNL A   1      43.571  33.754  30.321  1.00  0.00     0.049 A 
ATOM     57  C   UNL A   1      42.433  29.812  34.420  1.00  0.00     0.074 A 
ATOM     58  C   UNL A   1      42.838  34.919  30.392  1.00  0.00     0.029 A 
ATOM     59  N   UNL A   1      43.929  33.490  31.620  1.00  0.00    -0.354 N 
ATOM     60  N   UNL A   1      42.139  31.039  34.755  1.00  0.00    -0.248 NA
ATOM     61  C   UNL A   1      43.500  29.680  33.428  1.00  0.00     0.031 C 
ATOM     62  C   UNL A   1      42.402  35.010  31.754  1.00  0.00     0.029 A 
ATOM     63  C   UNL A   1      42.885  33.884  32.417  1.00  0.00     0.049 A 
ATOM     64  H   UNL A   1      44.778  33.094  31.923  1.00  0.00     0.167 HD
ATOM     65  C   UNL A   1      42.789  31.839  33.814  1.00  0.00     0.074 A 
ATOM     66  C   UNL A   1      43.624  30.941  33.042  1.00  0.00     0.031 C 
ATOM     67  C   UNL A   1      42.486  33.150  33.596  1.00  0.00     0.037 A 
BRANCH  54  68
ATOM     68  C   UNL A   1      45.203  33.039  28.565  1.00  0.00     0.057 A 
ATOM     69  C   UNL A   1      45.061  33.528  27.258  1.00  0.00     0.134 A 
ATOM     70  C   UNL A   1      46.455  32.576  28.960  1.00  0.00     0.134 A 
ATOM     71  F   UNL A   1      43.859  33.952  26.828  1.00  0.00    -0.206 F 
ATOM     72  C   UNL A   1      46.116  33.520  26.355  1.00  0.00     0.040 A 
ATOM     73  C   UNL A   1      47.529  32.574  28.064  1.00  0.00     0.040 A 
ATOM     74  F   UNL A   1      46.643  32.070  30.187  1.00  0.00    -0.206 F 
ATOM     75  C   UNL A   1      47.356  33.030  26.755  1.00  0.00     0.006 A 
ENDBRANCH  54  68
BRANCH  55  76
ATOM     76  C   UNL A   1      42.251  27.251  34.934  1.00  0.00     0.057 A 
ATOM     77  C   UNL A   1      42.988  26.624  33.915  1.00  0.00     0.134 A 
ATOM     78  C   UNL A   1      42.137  26.520  36.130  1.00  0.00     0.134 A 
ATOM     79  F   UNL A   1      43.040  27.160  32.685  1.00  0.00    -0.206 F 
ATOM     80  C   UNL A   1      43.683  25.426  34.119  1.00  0.00     0.040 A 
ATOM     81  C   UNL A   1      42.853  25.339  36.360  1.00  0.00     0.040 A 
ATOM     82  F   UNL A   1      41.332  26.928  37.121  1.00  0.00    -0.206 F 
ATOM     83  C   UNL A   1      43.649  24.799  35.358  1.00  0.00     0.006 A 
ENDBRANCH  55  76
BRANCH  67  84
ATOM     84  C   UNL A   1      41.519  33.766  34.547  1.00  0.00     0.057 A 
ATOM     85  C   UNL A   1      40.150  33.743  34.265  1.00  0.00     0.134 A 
ATOM     86  C   UNL A   1      41.920  34.310  35.775  1.00  0.00     0.134 A 
ATOM     87  F   UNL A   1      39.701  33.228  33.110  1.00  0.00    -0.206 F 
ATOM     88  C   UNL A   1      39.209  34.213  35.183  1.00  0.00     0.040 A 
ATOM     89  C   UNL A   1      40.986  34.765  36.710  1.00  0.00     0.040 A 
ATOM     90  F   UNL A   1      43.219  34.378  36.108  1.00  0.00    -0.206 F 
ATOM     91  C   UNL A   1      39.626  34.710  36.416  1.00  0.00     0.006 A 
ENDBRANCH  67  84
ENDBRANCH  41  42
ENDBRANCH  34  36
ENDBRANCH  33  34
ENDBRANCH  32  33
ENDBRANCH  31  32
ENDBRANCH  30  31
ENDBRANCH  29  30
ENDBRANCH   1  29
TORSDOF 20
ENDMDL
