MODEL 1
REMARK VINA RESULT:     -11.1      0.000      0.000
REMARK SMILES C[C@@H]1[NH2+]CC[C@@H]1C(=O)Nc1cc(F)ccc1C(=O)OCCOCCOCCOC(=O)c1ccc(-c2c3nc(c(-c4c(F)cccc4F)c4ccc([nH]4)c(-c4c(F)cccc4F)c4nc(c(-c5c(F)cccc5F)c5ccc2[nH]5)C=C4)C=C3)cc1
REMARK SMILES IDX 23 1 22 2 21 3 20 4 19 5 17 6 18 7 16 8 10 9 11 10 12 11
REMARK SMILES IDX 15 12 13 13 14 14 9 15 7 16 8 17 6 19 1 20 2 21 3 22 4 23
REMARK SMILES IDX 5 26 24 27 25 28 26 29 27 30 28 31 29 32 30 33 31 34 32 35
REMARK SMILES IDX 84 36 33 37 83 38 34 39 35 40 36 41 77 42 37 43 82 44 76 45
REMARK SMILES IDX 78 46 38 47 81 48 75 49 74 50 39 52 65 53 48 54 64 55 49 56
REMARK SMILES IDX 52 57 63 58 79 59 50 60 51 61 62 63 80 64 53 65 40 66 41 67
REMARK SMILES IDX 46 68 42 69 43 70 45 71 47 72 44 73 66 74 67 75 72 76 68 77
REMARK SMILES IDX 69 78 71 79 73 80 70 81 54 82 55 83 60 84 56 85 57 86 59 87
REMARK SMILES IDX 61 88 58 89
REMARK H PARENT 9 18 3 24 3 25 78 51 52 62
REMARK Flexibility Score: inf
ROOT
ATOM      1  C   UNL A   1      40.274  20.024  26.153  1.00  0.00     0.188 C 
ENDROOT
BRANCH   1   2
ATOM      2  O   UNL A   1      40.322  21.381  25.783  1.00  0.00    -0.376 OA
BRANCH   2   3
ATOM      3  C   UNL A   1      39.385  22.303  26.315  1.00  0.00     0.202 C 
BRANCH   3   4
ATOM      4  C   UNL A   1      37.945  22.532  25.800  1.00  0.00     0.261 C 
BRANCH   4   5
ATOM      5  O   UNL A   1      37.567  21.890  24.577  1.00  0.00    -0.460 OA
BRANCH   5   6
ATOM      6  C   UNL A   1      36.678  22.541  23.789  1.00  0.00     0.340 C 
ATOM      7  O   UNL A   1      36.944  23.328  22.899  1.00  0.00    -0.246 OA
BRANCH   6   8
ATOM      8  C   UNL A   1      35.316  21.964  24.002  1.00  0.00     0.083 A 
ATOM      9  C   UNL A   1      34.093  22.565  23.589  1.00  0.00     0.058 A 
ATOM     10  C   UNL A   1      32.916  21.929  23.974  1.00  0.00     0.066 A 
ATOM     11  C   UNL A   1      32.936  20.735  24.698  1.00  0.00     0.125 A 
ATOM     12  C   UNL A   1      35.316  20.782  24.776  1.00  0.00     0.021 A 
ATOM     13  F   UNL A   1      31.776  20.144  25.011  1.00  0.00    -0.207 F 
ATOM     14  C   UNL A   1      34.122  20.164  25.119  1.00  0.00     0.040 A 
BRANCH   9  15
ATOM     15  N   UNL A   1      34.121  23.781  22.868  1.00  0.00    -0.325 N 
ATOM     16  C   UNL A   1      33.688  25.066  22.979  1.00  0.00     0.233 C 
ATOM     17  O   UNL A   1      34.013  25.774  22.013  1.00  0.00    -0.274 OA
ATOM     18  H   UNL A   1      34.605  23.660  22.019  1.00  0.00     0.169 HD
BRANCH  16  19
ATOM     19  C   UNL A   1      32.948  25.700  24.167  1.00  0.00     0.142 C 
ATOM     20  C   UNL A   1      30.707  24.857  23.187  1.00  0.00     0.076 C 
ATOM     21  C   UNL A   1      31.473  25.351  24.407  1.00  0.00     0.192 C 
ATOM     22  N   UNL A   1      30.852  26.574  24.955  1.00  0.00    -0.343 N 
ATOM     23  C   UNL A   1      31.468  27.668  24.212  1.00  0.00     0.261 C 
ATOM     24  H   UNL A   1      31.047  26.662  25.952  1.00  0.00     0.346 HD
ATOM     25  H   UNL A   1      29.836  26.567  24.859  1.00  0.00     0.346 HD
ATOM     26  C   UNL A   1      32.920  27.250  24.056  1.00  0.00     0.081 C 
ENDBRANCH  16  19
ENDBRANCH   9  15
ENDBRANCH   6   8
ENDBRANCH   5   6
ENDBRANCH   4   5
ENDBRANCH   3   4
ENDBRANCH   2   3
ENDBRANCH   1   2
BRANCH   1  27
ATOM     27  C   UNL A   1      41.639  19.313  26.137  1.00  0.00     0.188 C 
BRANCH  27  28
ATOM     28  O   UNL A   1      42.540  19.559  25.078  1.00  0.00    -0.376 OA
BRANCH  28  29
ATOM     29  C   UNL A   1      43.836  20.062  25.372  1.00  0.00     0.202 C 
BRANCH  29  30
ATOM     30  C   UNL A   1      44.274  21.515  25.077  1.00  0.00     0.261 C 
BRANCH  30  31
ATOM     31  O   UNL A   1      43.560  22.573  25.734  1.00  0.00    -0.460 OA
BRANCH  31  32
ATOM     32  C   UNL A   1      43.909  23.832  25.363  1.00  0.00     0.338 C 
ATOM     33  O   UNL A   1      44.598  24.160  24.416  1.00  0.00    -0.246 OA
BRANCH  32  34
ATOM     34  C   UNL A   1      43.152  24.809  26.175  1.00  0.00     0.060 A 
ATOM     35  C   UNL A   1      43.571  26.149  26.180  1.00  0.00     0.016 A 
ATOM     36  C   UNL A   1      42.085  24.400  26.974  1.00  0.00     0.016 A 
ATOM     37  C   UNL A   1      42.950  27.077  27.014  1.00  0.00     0.010 A 
ATOM     38  C   UNL A   1      41.479  25.326  27.830  1.00  0.00     0.010 A 
ATOM     39  C   UNL A   1      41.936  26.657  27.883  1.00  0.00    -0.014 A 
BRANCH  39  40
ATOM     40  C   UNL A   1      41.510  27.541  28.996  1.00  0.00     0.031 A 
ATOM     41  C   UNL A   1      42.269  27.467  30.294  1.00  0.00     0.074 A 
ATOM     42  C   UNL A   1      40.491  28.407  28.861  1.00  0.00     0.049 A 
ATOM     43  N   UNL A   1      42.042  28.081  31.427  1.00  0.00    -0.248 NA
ATOM     44  C   UNL A   1      43.443  26.579  30.316  1.00  0.00     0.031 C 
ATOM     45  C   UNL A   1      39.713  28.616  27.642  1.00  0.00     0.029 A 
ATOM     46  N   UNL A   1      39.931  29.269  29.773  1.00  0.00    -0.354 N 
ATOM     47  C   UNL A   1      43.035  27.646  32.295  1.00  0.00     0.074 A 
ATOM     48  C   UNL A   1      43.849  26.695  31.572  1.00  0.00     0.031 C 
ATOM     49  C   UNL A   1      38.767  29.540  27.885  1.00  0.00     0.029 A 
ATOM     50  C   UNL A   1      38.850  29.960  29.285  1.00  0.00     0.049 A 
ATOM     51  H   UNL A   1      40.273  29.382  30.688  1.00  0.00     0.167 HD
ATOM     52  C   UNL A   1      43.255  28.015  33.578  1.00  0.00     0.037 A 
ATOM     53  C   UNL A   1      38.010  30.816  29.902  1.00  0.00     0.037 A 
ATOM     54  C   UNL A   1      42.449  28.965  34.296  1.00  0.00     0.049 A 
ATOM     55  C   UNL A   1      38.225  31.149  31.357  1.00  0.00     0.074 A 
ATOM     56  C   UNL A   1      42.600  29.408  35.598  1.00  0.00     0.029 A 
ATOM     57  N   UNL A   1      41.341  29.615  33.776  1.00  0.00    -0.354 N 
ATOM     58  N   UNL A   1      39.167  30.737  32.170  1.00  0.00    -0.248 NA
ATOM     59  C   UNL A   1      37.260  32.070  31.981  1.00  0.00     0.031 C 
ATOM     60  C   UNL A   1      41.550  30.283  35.885  1.00  0.00     0.029 A 
ATOM     61  C   UNL A   1      40.784  30.439  34.739  1.00  0.00     0.049 A 
ATOM     62  H   UNL A   1      41.001  29.508  32.858  1.00  0.00     0.167 HD
ATOM     63  C   UNL A   1      38.930  31.370  33.385  1.00  0.00     0.074 A 
ATOM     64  C   UNL A   1      37.758  32.199  33.203  1.00  0.00     0.031 C 
ATOM     65  C   UNL A   1      39.627  31.276  34.544  1.00  0.00     0.037 A 
BRANCH  52  66
ATOM     66  C   UNL A   1      44.407  27.379  34.301  1.00  0.00     0.057 A 
ATOM     67  C   UNL A   1      45.660  28.006  34.332  1.00  0.00     0.134 A 
ATOM     68  C   UNL A   1      44.299  26.120  34.904  1.00  0.00     0.134 A 
ATOM     69  F   UNL A   1      45.833  29.212  33.770  1.00  0.00    -0.206 F 
ATOM     70  C   UNL A   1      46.767  27.394  34.921  1.00  0.00     0.040 A 
ATOM     71  C   UNL A   1      45.392  25.512  35.521  1.00  0.00     0.040 A 
ATOM     72  F   UNL A   1      43.123  25.474  34.923  1.00  0.00    -0.206 F 
ATOM     73  C   UNL A   1      46.634  26.144  35.521  1.00  0.00     0.006 A 
ENDBRANCH  52  66
BRANCH  53  74
ATOM     74  C   UNL A   1      36.884  31.421  29.145  1.00  0.00     0.057 A 
ATOM     75  C   UNL A   1      35.738  30.681  28.823  1.00  0.00     0.134 A 
ATOM     76  C   UNL A   1      36.930  32.753  28.719  1.00  0.00     0.134 A 
ATOM     77  F   UNL A   1      35.630  29.401  29.203  1.00  0.00    -0.206 F 
ATOM     78  C   UNL A   1      34.690  31.239  28.088  1.00  0.00     0.040 A 
ATOM     79  C   UNL A   1      35.878  33.331  28.006  1.00  0.00     0.040 A 
ATOM     80  F   UNL A   1      37.988  33.520  29.018  1.00  0.00    -0.206 F 
ATOM     81  C   UNL A   1      34.757  32.570  27.680  1.00  0.00     0.006 A 
ENDBRANCH  53  74
BRANCH  65  82
ATOM     82  C   UNL A   1      39.185  32.117  35.708  1.00  0.00     0.057 A 
ATOM     83  C   UNL A   1      38.246  31.620  36.624  1.00  0.00     0.134 A 
ATOM     84  C   UNL A   1      39.603  33.443  35.868  1.00  0.00     0.134 A 
ATOM     85  F   UNL A   1      37.792  30.362  36.520  1.00  0.00    -0.206 F 
ATOM     86  C   UNL A   1      37.724  32.419  37.642  1.00  0.00     0.040 A 
ATOM     87  C   UNL A   1      39.110  34.243  36.902  1.00  0.00     0.040 A 
ATOM     88  F   UNL A   1      40.504  33.978  35.031  1.00  0.00    -0.206 F 
ATOM     89  C   UNL A   1      38.159  33.735  37.784  1.00  0.00     0.006 A 
ENDBRANCH  65  82
ENDBRANCH  39  40
ENDBRANCH  32  34
ENDBRANCH  31  32
ENDBRANCH  30  31
ENDBRANCH  29  30
ENDBRANCH  28  29
ENDBRANCH  27  28
ENDBRANCH   1  27
TORSDOF 19
ENDMDL
MODEL 2
REMARK VINA RESULT:     -11.1      4.934     10.200
REMARK SMILES C[C@@H]1[NH2+]CC[C@@H]1C(=O)Nc1cc(F)ccc1C(=O)OCCOCCOCCOC(=O)c1ccc(-c2c3nc(c(-c4c(F)cccc4F)c4ccc([nH]4)c(-c4c(F)cccc4F)c4nc(c(-c5c(F)cccc5F)c5ccc2[nH]5)C=C4)C=C3)cc1
REMARK SMILES IDX 23 1 22 2 21 3 20 4 19 5 17 6 18 7 16 8 10 9 11 10 12 11
REMARK SMILES IDX 15 12 13 13 14 14 9 15 7 16 8 17 6 19 1 20 2 21 3 22 4 23
REMARK SMILES IDX 5 26 24 27 25 28 26 29 27 30 28 31 29 32 30 33 31 34 32 35
REMARK SMILES IDX 84 36 33 37 83 38 34 39 35 40 36 41 77 42 37 43 82 44 76 45
REMARK SMILES IDX 78 46 38 47 81 48 75 49 74 50 39 52 65 53 48 54 64 55 49 56
REMARK SMILES IDX 52 57 63 58 79 59 50 60 51 61 62 63 80 64 53 65 40 66 41 67
REMARK SMILES IDX 46 68 42 69 43 70 45 71 47 72 44 73 66 74 67 75 72 76 68 77
REMARK SMILES IDX 69 78 71 79 73 80 70 81 54 82 55 83 60 84 56 85 57 86 59 87
REMARK SMILES IDX 61 88 58 89
REMARK H PARENT 9 18 3 24 3 25 78 51 52 62
REMARK Flexibility Score: inf
ROOT
ATOM      1  C   UNL A   1      34.044  33.841  28.023  1.00  0.00     0.188 C 
ENDROOT
BRANCH   1   2
ATOM      2  O   UNL A   1      33.419  32.582  27.944  1.00  0.00    -0.376 OA
BRANCH   2   3
ATOM      3  C   UNL A   1      34.196  31.399  27.859  1.00  0.00     0.202 C 
BRANCH   3   4
ATOM      4  C   UNL A   1      33.693  30.014  27.390  1.00  0.00     0.261 C 
BRANCH   4   5
ATOM      5  O   UNL A   1      32.282  29.843  27.219  1.00  0.00    -0.460 OA
BRANCH   5   6
ATOM      6  C   UNL A   1      31.812  28.573  27.214  1.00  0.00     0.340 C 
ATOM      7  O   UNL A   1      31.606  27.877  28.191  1.00  0.00    -0.246 OA
BRANCH   6   8
ATOM      8  C   UNL A   1      31.341  28.227  25.838  1.00  0.00     0.083 A 
ATOM      9  C   UNL A   1      31.028  26.915  25.380  1.00  0.00     0.058 A 
ATOM     10  C   UNL A   1      30.711  26.778  24.032  1.00  0.00     0.066 A 
ATOM     11  C   UNL A   1      30.664  27.880  23.177  1.00  0.00     0.125 A 
ATOM     12  C   UNL A   1      31.337  29.324  24.948  1.00  0.00     0.021 A 
ATOM     13  F   UNL A   1      30.317  27.698  21.896  1.00  0.00    -0.207 F 
ATOM     14  C   UNL A   1      30.991  29.150  23.615  1.00  0.00     0.040 A 
BRANCH   9  15
ATOM     15  N   UNL A   1      31.100  25.826  26.278  1.00  0.00    -0.325 N 
ATOM     16  C   UNL A   1      31.837  24.704  26.494  1.00  0.00     0.233 C 
ATOM     17  O   UNL A   1      31.469  24.064  27.492  1.00  0.00    -0.274 OA
ATOM     18  H   UNL A   1      30.397  25.905  26.963  1.00  0.00     0.169 HD
BRANCH  16  19
ATOM     19  C   UNL A   1      33.067  24.231  25.704  1.00  0.00     0.142 C 
ATOM     20  C   UNL A   1      31.497  23.106  23.983  1.00  0.00     0.076 C 
ATOM     21  C   UNL A   1      32.881  23.663  24.291  1.00  0.00     0.192 C 
ATOM     22  N   UNL A   1      33.913  22.618  24.136  1.00  0.00    -0.343 N 
ATOM     23  C   UNL A   1      33.968  21.954  25.433  1.00  0.00     0.261 C 
ATOM     24  H   UNL A   1      34.815  23.033  23.905  1.00  0.00     0.346 HD
ATOM     25  H   UNL A   1      33.693  21.968  23.380  1.00  0.00     0.346 HD
ATOM     26  C   UNL A   1      33.808  23.080  26.441  1.00  0.00     0.081 C 
ENDBRANCH  16  19
ENDBRANCH   9  15
ENDBRANCH   6   8
ENDBRANCH   5   6
ENDBRANCH   4   5
ENDBRANCH   3   4
ENDBRANCH   2   3
ENDBRANCH   1   2
BRANCH   1  27
ATOM     27  C   UNL A   1      33.278  34.878  28.864  1.00  0.00     0.188 C 
BRANCH  27  28
ATOM     28  O   UNL A   1      33.261  34.758  30.271  1.00  0.00    -0.376 OA
BRANCH  28  29
ATOM     29  C   UNL A   1      34.294  34.028  30.917  1.00  0.00     0.202 C 
BRANCH  29  30
ATOM     30  C   UNL A   1      35.177  34.614  32.044  1.00  0.00     0.261 C 
BRANCH  30  31
ATOM     31  O   UNL A   1      36.449  33.994  32.284  1.00  0.00    -0.460 OA
BRANCH  31  32
ATOM     32  C   UNL A   1      36.400  32.743  32.809  1.00  0.00     0.338 C 
ATOM     33  O   UNL A   1      35.633  32.326  33.656  1.00  0.00    -0.246 OA
BRANCH  32  34
ATOM     34  C   UNL A   1      37.303  31.856  32.046  1.00  0.00     0.060 A 
ATOM     35  C   UNL A   1      38.235  31.076  32.751  1.00  0.00     0.016 A 
ATOM     36  C   UNL A   1      37.282  31.841  30.652  1.00  0.00     0.016 A 
ATOM     37  C   UNL A   1      39.174  30.310  32.063  1.00  0.00     0.010 A 
ATOM     38  C   UNL A   1      38.242  31.093  29.962  1.00  0.00     0.010 A 
ATOM     39  C   UNL A   1      39.216  30.357  30.664  1.00  0.00    -0.014 A 
BRANCH  39  40
ATOM     40  C   UNL A   1      40.402  29.827  29.947  1.00  0.00     0.031 A 
ATOM     41  C   UNL A   1      41.565  30.754  29.712  1.00  0.00     0.074 A 
ATOM     42  C   UNL A   1      40.464  28.551  29.529  1.00  0.00     0.049 A 
ATOM     43  N   UNL A   1      42.673  30.547  29.050  1.00  0.00    -0.248 NA
ATOM     44  C   UNL A   1      41.461  32.097  30.306  1.00  0.00     0.031 C 
ATOM     45  C   UNL A   1      39.432  27.539  29.743  1.00  0.00     0.029 A 
ATOM     46  N   UNL A   1      41.444  27.893  28.826  1.00  0.00    -0.354 N 
ATOM     47  C   UNL A   1      43.390  31.733  29.138  1.00  0.00     0.074 A 
ATOM     48  C   UNL A   1      42.582  32.667  29.891  1.00  0.00     0.031 C 
ATOM     49  C   UNL A   1      39.829  26.388  29.172  1.00  0.00     0.029 A 
ATOM     50  C   UNL A   1      41.124  26.593  28.521  1.00  0.00     0.049 A 
ATOM     51  H   UNL A   1      42.295  28.313  28.566  1.00  0.00     0.167 HD
ATOM     52  C   UNL A   1      44.618  32.016  28.645  1.00  0.00     0.037 A 
ATOM     53  C   UNL A   1      41.790  25.681  27.784  1.00  0.00     0.037 A 
ATOM     54  C   UNL A   1      45.425  31.086  27.901  1.00  0.00     0.049 A 
ATOM     55  C   UNL A   1      43.120  26.045  27.173  1.00  0.00     0.074 A 
ATOM     56  C   UNL A   1      46.686  31.280  27.367  1.00  0.00     0.029 A 
ATOM     57  N   UNL A   1      45.048  29.791  27.583  1.00  0.00    -0.354 N 
ATOM     58  N   UNL A   1      43.792  27.166  27.263  1.00  0.00    -0.248 NA
ATOM     59  C   UNL A   1      43.785  25.015  26.359  1.00  0.00     0.031 C 
ATOM     60  C   UNL A   1      47.050  30.122  26.677  1.00  0.00     0.029 A 
ATOM     61  C   UNL A   1      46.044  29.181  26.840  1.00  0.00     0.049 A 
ATOM     62  H   UNL A   1      44.200  29.367  27.847  1.00  0.00     0.167 HD
ATOM     63  C   UNL A   1      44.970  26.967  26.551  1.00  0.00     0.074 A 
ATOM     64  C   UNL A   1      44.923  25.615  26.037  1.00  0.00     0.031 C 
ATOM     65  C   UNL A   1      45.998  27.827  26.347  1.00  0.00     0.037 A 
BRANCH  52  66
ATOM     66  C   UNL A   1      45.166  33.394  28.878  1.00  0.00     0.057 A 
ATOM     67  C   UNL A   1      44.950  34.413  27.942  1.00  0.00     0.134 A 
ATOM     68  C   UNL A   1      45.964  33.694  29.989  1.00  0.00     0.134 A 
ATOM     69  F   UNL A   1      44.198  34.191  26.853  1.00  0.00    -0.206 F 
ATOM     70  C   UNL A   1      45.522  35.676  28.094  1.00  0.00     0.040 A 
ATOM     71  C   UNL A   1      46.517  34.963  30.167  1.00  0.00     0.040 A 
ATOM     72  F   UNL A   1      46.196  32.767  30.931  1.00  0.00    -0.206 F 
ATOM     73  C   UNL A   1      46.306  35.955  29.211  1.00  0.00     0.006 A 
ENDBRANCH  52  66
BRANCH  53  74
ATOM     74  C   UNL A   1      41.208  24.329  27.581  1.00  0.00     0.057 A 
ATOM     75  C   UNL A   1      41.691  23.214  28.277  1.00  0.00     0.134 A 
ATOM     76  C   UNL A   1      40.158  24.119  26.680  1.00  0.00     0.134 A 
ATOM     77  F   UNL A   1      42.694  23.346  29.157  1.00  0.00    -0.206 F 
ATOM     78  C   UNL A   1      41.165  21.937  28.069  1.00  0.00     0.040 A 
ATOM     79  C   UNL A   1      39.605  22.853  26.481  1.00  0.00     0.040 A 
ATOM     80  F   UNL A   1      39.635  25.152  26.002  1.00  0.00    -0.206 F 
ATOM     81  C   UNL A   1      40.116  21.754  27.171  1.00  0.00     0.006 A 
ENDBRANCH  53  74
BRANCH  65  82
ATOM     82  C   UNL A   1      47.189  27.337  25.574  1.00  0.00     0.057 A 
ATOM     83  C   UNL A   1      48.245  26.691  26.234  1.00  0.00     0.134 A 
ATOM     84  C   UNL A   1      47.343  27.591  24.206  1.00  0.00     0.134 A 
ATOM     85  F   UNL A   1      48.168  26.430  27.548  1.00  0.00    -0.206 F 
ATOM     86  C   UNL A   1      49.417  26.335  25.566  1.00  0.00     0.040 A 
ATOM     87  C   UNL A   1      48.500  27.212  23.520  1.00  0.00     0.040 A 
ATOM     88  F   UNL A   1      46.369  28.200  23.514  1.00  0.00    -0.206 F 
ATOM     89  C   UNL A   1      49.545  26.594  24.203  1.00  0.00     0.006 A 
ENDBRANCH  65  82
ENDBRANCH  39  40
ENDBRANCH  32  34
ENDBRANCH  31  32
ENDBRANCH  30  31
ENDBRANCH  29  30
ENDBRANCH  28  29
ENDBRANCH  27  28
ENDBRANCH   1  27
TORSDOF 19
ENDMDL
MODEL 3
REMARK VINA RESULT:     -10.8      1.301      1.766
REMARK SMILES C[C@@H]1[NH2+]CC[C@@H]1C(=O)Nc1cc(F)ccc1C(=O)OCCOCCOCCOC(=O)c1ccc(-c2c3nc(c(-c4c(F)cccc4F)c4ccc([nH]4)c(-c4c(F)cccc4F)c4nc(c(-c5c(F)cccc5F)c5ccc2[nH]5)C=C4)C=C3)cc1
REMARK SMILES IDX 23 1 22 2 21 3 20 4 19 5 17 6 18 7 16 8 10 9 11 10 12 11
REMARK SMILES IDX 15 12 13 13 14 14 9 15 7 16 8 17 6 19 1 20 2 21 3 22 4 23
REMARK SMILES IDX 5 26 24 27 25 28 26 29 27 30 28 31 29 32 30 33 31 34 32 35
REMARK SMILES IDX 84 36 33 37 83 38 34 39 35 40 36 41 77 42 37 43 82 44 76 45
REMARK SMILES IDX 78 46 38 47 81 48 75 49 74 50 39 52 65 53 48 54 64 55 49 56
REMARK SMILES IDX 52 57 63 58 79 59 50 60 51 61 62 63 80 64 53 65 40 66 41 67
REMARK SMILES IDX 46 68 42 69 43 70 45 71 47 72 44 73 66 74 67 75 72 76 68 77
REMARK SMILES IDX 69 78 71 79 73 80 70 81 54 82 55 83 60 84 56 85 57 86 59 87
REMARK SMILES IDX 61 88 58 89
REMARK H PARENT 9 18 3 24 3 25 78 51 52 62
REMARK Flexibility Score: inf
ROOT
ATOM      1  C   UNL A   1      40.028  22.249  27.083  1.00  0.00     0.188 C 
ENDROOT
BRANCH   1   2
ATOM      2  O   UNL A   1      39.274  23.280  26.493  1.00  0.00    -0.376 OA
BRANCH   2   3
ATOM      3  C   UNL A   1      37.989  23.012  25.955  1.00  0.00     0.202 C 
BRANCH   3   4
ATOM      4  C   UNL A   1      37.539  21.686  25.299  1.00  0.00     0.261 C 
BRANCH   4   5
ATOM      5  O   UNL A   1      36.186  21.599  24.838  1.00  0.00    -0.460 OA
BRANCH   5   6
ATOM      6  C   UNL A   1      35.265  21.138  25.718  1.00  0.00     0.340 C 
ATOM      7  O   UNL A   1      34.975  21.641  26.787  1.00  0.00    -0.246 OA
BRANCH   6   8
ATOM      8  C   UNL A   1      34.469  20.050  25.072  1.00  0.00     0.083 A 
ATOM      9  C   UNL A   1      33.049  20.022  24.964  1.00  0.00     0.058 A 
ATOM     10  C   UNL A   1      32.481  18.871  24.425  1.00  0.00     0.066 A 
ATOM     11  C   UNL A   1      33.269  17.810  23.976  1.00  0.00     0.125 A 
ATOM     12  C   UNL A   1      35.247  18.947  24.657  1.00  0.00     0.021 A 
ATOM     13  F   UNL A   1      32.673  16.741  23.432  1.00  0.00    -0.207 F 
ATOM     14  C   UNL A   1      34.645  17.827  24.102  1.00  0.00     0.040 A 
BRANCH   9  15
ATOM     15  N   UNL A   1      32.290  21.114  25.443  1.00  0.00    -0.325 N 
ATOM     16  C   UNL A   1      31.720  22.263  24.990  1.00  0.00     0.233 C 
ATOM     17  O   UNL A   1      31.118  22.890  25.875  1.00  0.00    -0.274 OA
ATOM     18  H   UNL A   1      32.120  21.011  26.408  1.00  0.00     0.169 HD
BRANCH  16  19
ATOM     19  C   UNL A   1      31.688  22.778  23.543  1.00  0.00     0.142 C 
ATOM     20  C   UNL A   1      33.937  23.989  23.951  1.00  0.00     0.076 C 
ATOM     21  C   UNL A   1      32.947  23.419  22.944  1.00  0.00     0.192 C 
ATOM     22  N   UNL A   1      32.467  24.473  22.027  1.00  0.00    -0.343 N 
ATOM     23  C   UNL A   1      31.324  25.067  22.709  1.00  0.00     0.261 C 
ATOM     24  H   UNL A   1      32.184  24.071  21.133  1.00  0.00     0.346 HD
ATOM     25  H   UNL A   1      33.192  25.161  21.818  1.00  0.00     0.346 HD
ATOM     26  C   UNL A   1      30.617  23.891  23.360  1.00  0.00     0.081 C 
ENDBRANCH  16  19
ENDBRANCH   9  15
ENDBRANCH   6   8
ENDBRANCH   5   6
ENDBRANCH   4   5
ENDBRANCH   3   4
ENDBRANCH   2   3
ENDBRANCH   1   2
BRANCH   1  27
ATOM     27  C   UNL A   1      40.875  21.434  26.088  1.00  0.00     0.188 C 
BRANCH  27  28
ATOM     28  O   UNL A   1      41.916  20.611  26.571  1.00  0.00    -0.376 OA
BRANCH  28  29
ATOM     29  C   UNL A   1      43.189  20.664  25.942  1.00  0.00     0.202 C 
BRANCH  29  30
ATOM     30  C   UNL A   1      43.758  21.935  25.270  1.00  0.00     0.261 C 
BRANCH  30  31
ATOM     31  O   UNL A   1      44.426  22.890  26.108  1.00  0.00    -0.460 OA
BRANCH  31  32
ATOM     32  C   UNL A   1      44.523  24.146  25.602  1.00  0.00     0.338 C 
ATOM     33  O   UNL A   1      45.053  24.484  24.560  1.00  0.00    -0.246 OA
BRANCH  32  34
ATOM     34  C   UNL A   1      43.697  25.066  26.411  1.00  0.00     0.060 A 
ATOM     35  C   UNL A   1      44.003  26.437  26.396  1.00  0.00     0.016 A 
ATOM     36  C   UNL A   1      42.677  24.581  27.228  1.00  0.00     0.016 A 
ATOM     37  C   UNL A   1      43.317  27.320  27.227  1.00  0.00     0.010 A 
ATOM     38  C   UNL A   1      42.007  25.463  28.082  1.00  0.00     0.010 A 
ATOM     39  C   UNL A   1      42.352  26.828  28.114  1.00  0.00    -0.014 A 
BRANCH  39  40
ATOM     40  C   UNL A   1      41.867  27.687  29.222  1.00  0.00     0.031 A 
ATOM     41  C   UNL A   1      42.600  27.637  30.536  1.00  0.00     0.074 A 
ATOM     42  C   UNL A   1      40.816  28.512  29.070  1.00  0.00     0.049 A 
ATOM     43  N   UNL A   1      42.325  28.234  31.666  1.00  0.00    -0.248 NA
ATOM     44  C   UNL A   1      43.809  26.797  30.578  1.00  0.00     0.031 C 
ATOM     45  C   UNL A   1      40.056  28.696  27.836  1.00  0.00     0.029 A 
ATOM     46  N   UNL A   1      40.202  29.345  29.974  1.00  0.00    -0.354 N 
ATOM     47  C   UNL A   1      43.316  27.834  32.553  1.00  0.00     0.074 A 
ATOM     48  C   UNL A   1      44.184  26.921  31.842  1.00  0.00     0.031 C 
ATOM     49  C   UNL A   1      39.068  29.580  28.063  1.00  0.00     0.029 A 
ATOM     50  C   UNL A   1      39.104  29.994  29.467  1.00  0.00     0.049 A 
ATOM     51  H   UNL A   1      40.520  29.466  30.897  1.00  0.00     0.167 HD
ATOM     52  C   UNL A   1      43.494  28.204  33.843  1.00  0.00     0.037 A 
ATOM     53  C   UNL A   1      38.217  30.811  30.071  1.00  0.00     0.037 A 
ATOM     54  C   UNL A   1      42.635  29.117  34.548  1.00  0.00     0.049 A 
ATOM     55  C   UNL A   1      38.388  31.144  31.532  1.00  0.00     0.074 A 
ATOM     56  C   UNL A   1      42.741  29.557  35.855  1.00  0.00     0.029 A 
ATOM     57  N   UNL A   1      41.513  29.724  34.008  1.00  0.00    -0.354 N 
ATOM     58  N   UNL A   1      39.329  30.766  32.362  1.00  0.00    -0.248 NA
ATOM     59  C   UNL A   1      37.374  32.021  32.140  1.00  0.00     0.031 C 
ATOM     60  C   UNL A   1      41.650  30.387  36.124  1.00  0.00     0.029 A 
ATOM     61  C   UNL A   1      40.903  30.519  34.964  1.00  0.00     0.049 A 
ATOM     62  H   UNL A   1      41.196  29.609  33.083  1.00  0.00     0.167 HD
ATOM     63  C   UNL A   1      39.041  31.382  33.575  1.00  0.00     0.074 A 
ATOM     64  C   UNL A   1      37.840  32.163  33.373  1.00  0.00     0.031 C 
ATOM     65  C   UNL A   1      39.717  31.309  34.748  1.00  0.00     0.037 A 
BRANCH  52  66
ATOM     66  C   UNL A   1      44.656  27.612  34.586  1.00  0.00     0.057 A 
ATOM     67  C   UNL A   1      45.926  28.197  34.504  1.00  0.00     0.134 A 
ATOM     68  C   UNL A   1      44.536  26.427  35.324  1.00  0.00     0.134 A 
ATOM     69  F   UNL A   1      46.111  29.331  33.810  1.00  0.00    -0.206 F 
ATOM     70  C   UNL A   1      47.038  27.616  35.114  1.00  0.00     0.040 A 
ATOM     71  C   UNL A   1      45.635  25.853  35.963  1.00  0.00     0.040 A 
ATOM     72  F   UNL A   1      43.344  25.826  35.456  1.00  0.00    -0.206 F 
ATOM     73  C   UNL A   1      46.894  26.441  35.849  1.00  0.00     0.006 A 
ENDBRANCH  52  66
BRANCH  53  74
ATOM     74  C   UNL A   1      37.084  31.374  29.293  1.00  0.00     0.057 A 
ATOM     75  C   UNL A   1      35.940  30.615  29.014  1.00  0.00     0.134 A 
ATOM     76  C   UNL A   1      37.121  32.685  28.804  1.00  0.00     0.134 A 
ATOM     77  F   UNL A   1      35.840  29.353  29.454  1.00  0.00    -0.206 F 
ATOM     78  C   UNL A   1      34.885  31.132  28.259  1.00  0.00     0.040 A 
ATOM     79  C   UNL A   1      36.061  33.223  28.071  1.00  0.00     0.040 A 
ATOM     80  F   UNL A   1      38.177  33.470  29.060  1.00  0.00    -0.206 F 
ATOM     81  C   UNL A   1      34.942  32.443  27.788  1.00  0.00     0.006 A 
ENDBRANCH  53  74
BRANCH  65  82
ATOM     82  C   UNL A   1      39.216  32.124  35.906  1.00  0.00     0.057 A 
ATOM     83  C   UNL A   1      38.263  31.592  36.788  1.00  0.00     0.134 A 
ATOM     84  C   UNL A   1      39.593  33.459  36.094  1.00  0.00     0.134 A 
ATOM     85  F   UNL A   1      37.847  30.323  36.656  1.00  0.00    -0.206 F 
ATOM     86  C   UNL A   1      37.689  32.364  37.797  1.00  0.00     0.040 A 
ATOM     87  C   UNL A   1      39.047  34.234  37.120  1.00  0.00     0.040 A 
ATOM     88  F   UNL A   1      40.504  34.027  35.291  1.00  0.00    -0.206 F 
ATOM     89  C   UNL A   1      38.083  33.690  37.967  1.00  0.00     0.006 A 
ENDBRANCH  65  82
ENDBRANCH  39  40
ENDBRANCH  32  34
ENDBRANCH  31  32
ENDBRANCH  30  31
ENDBRANCH  29  30
ENDBRANCH  28  29
ENDBRANCH  27  28
ENDBRANCH   1  27
TORSDOF 19
ENDMDL
