MODEL 1
REMARK VINA RESULT:     -10.9      0.000      0.000
REMARK SMILES Cc1oc2cc3c(cc2c1C)[C@H](C)[C@@H](CC(=O)N[C@H](CC1=c2ccccc2=NC1)C(=O)OCCOCCOCCOC(=O)c1ccc(-c2c4nc(c(-c5c(F)cccc5F)c5ccc([nH]5)c(-c5c(F)cccc5F)c5nc(c(-c6c(F)cccc6F)c6ccc2[nH]6)C=C5)C=C4)cc1)C(=O)O3
REMARK SMILES IDX 36 1 35 2 34 3 33 4 32 5 30 6 31 7 19 8 18 9 16 10 17 11
REMARK SMILES IDX 15 13 14 14 1 15 2 16 3 17 10 18 4 19 9 20 11 21 5 22 8 23
REMARK SMILES IDX 6 24 7 25 100 26 12 27 98 28 13 29 99 30 20 31 21 32 22 33
REMARK SMILES IDX 29 34 23 35 27 36 28 37 24 38 26 39 25 40 37 41 38 42 39 43
REMARK SMILES IDX 40 44 41 45 42 46 43 47 44 48 45 49 97 50 46 51 96 52 47 53
REMARK SMILES IDX 48 54 49 55 90 56 50 57 95 58 89 59 91 60 51 61 94 62 88 63
REMARK SMILES IDX 87 64 52 66 78 67 61 68 77 69 62 70 65 71 76 72 92 73 63 74
REMARK SMILES IDX 64 75 75 77 93 78 66 79 53 80 54 81 59 82 55 83 56 84 58 85
REMARK SMILES IDX 60 86 57 87 79 88 80 89 85 90 81 91 82 92 84 93 86 94 83 95
REMARK SMILES IDX 67 96 68 97 73 98 69 99 70 100 72 101 74 102 71 103
REMARK H PARENT 18 12 91 65 65 76
REMARK Flexibility Score: inf
ROOT
ATOM      1  C   UNL A   1      31.861  22.128  25.264  1.00  0.00     0.188 C 
ENDROOT
BRANCH   1   2
ATOM      2  O   UNL A   1      31.579  22.607  26.563  1.00  0.00    -0.376 OA
BRANCH   2   3
ATOM      3  C   UNL A   1      31.923  23.959  26.836  1.00  0.00     0.202 C 
BRANCH   3   4
ATOM      4  C   UNL A   1      32.330  24.832  25.645  1.00  0.00     0.261 C 
BRANCH   4   5
ATOM      5  O   UNL A   1      31.767  26.165  25.726  1.00  0.00    -0.462 OA
BRANCH   5   6
ATOM      6  C   UNL A   1      30.702  26.442  24.930  1.00  0.00     0.329 C 
ATOM      7  O   UNL A   1      29.592  25.952  25.139  1.00  0.00    -0.250 OA
BRANCH   6   8
ATOM      8  C   UNL A   1      31.009  27.194  23.594  1.00  0.00     0.196 C 
BRANCH   8   9
ATOM      9  N   UNL A   1      32.374  27.775  23.662  1.00  0.00    -0.342 N 
ATOM     10  C   UNL A   1      32.927  28.844  24.289  1.00  0.00     0.221 C 
ATOM     11  O   UNL A   1      34.075  29.148  23.948  1.00  0.00    -0.275 OA
ATOM     12  H   UNL A   1      33.028  27.267  23.131  1.00  0.00     0.164 HD
BRANCH  10  13
ATOM     13  C   UNL A   1      32.255  29.630  25.414  1.00  0.00     0.116 C 
BRANCH  13  14
ATOM     14  C   UNL A   1      33.140  30.656  26.123  1.00  0.00     0.116 C 
ATOM     15  C   UNL A   1      35.865  34.987  32.927  1.00  0.00     0.088 C 
ATOM     16  C   UNL A   1      35.433  34.053  31.867  1.00  0.00     0.105 A 
ATOM     17  O   UNL A   1      34.689  34.612  30.876  1.00  0.00    -0.461 OA
ATOM     18  C   UNL A   1      35.657  32.711  31.607  1.00  0.00    -0.002 A 
ATOM     19  C   UNL A   1      34.465  33.646  29.951  1.00  0.00     0.138 A 
ATOM     20  C   UNL A   1      35.012  32.438  30.360  1.00  0.00     0.024 A 
ATOM     21  C   UNL A   1      36.450  31.747  32.404  1.00  0.00     0.049 C 
ATOM     22  C   UNL A   1      33.801  33.839  28.754  1.00  0.00     0.095 A 
ATOM     23  C   UNL A   1      34.850  31.296  29.542  1.00  0.00     0.020 A 
ATOM     24  C   UNL A   1      33.711  32.710  27.939  1.00  0.00     0.138 A 
ATOM     25  C   UNL A   1      34.204  31.427  28.303  1.00  0.00    -0.001 A 
ATOM     26  O   UNL A   1      33.039  32.914  26.738  1.00  0.00    -0.426 OA
ATOM     27  C   UNL A   1      33.794  30.195  27.458  1.00  0.00     0.035 C 
ATOM     28  C   UNL A   1      32.324  31.768  26.659  1.00  0.00     0.315 C 
ATOM     29  C   UNL A   1      34.878  29.150  27.221  1.00  0.00     0.014 C 
ATOM     30  O   UNL A   1      31.273  31.589  27.244  1.00  0.00    -0.251 OA
ENDBRANCH  13  14
ENDBRANCH  10  13
ENDBRANCH   8   9
BRANCH   8  31
ATOM     31  C   UNL A   1      30.033  28.057  22.694  1.00  0.00     0.070 C 
BRANCH  31  32
ATOM     32  C   UNL A   1      29.061  29.064  23.320  1.00  0.00    -0.037 C 
ATOM     33  C   UNL A   1      29.167  30.355  22.978  1.00  0.00     0.001 A 
ATOM     34  C   UNL A   1      27.626  28.643  23.220  1.00  0.00     0.174 C 
ATOM     35  C   UNL A   1      29.053  31.551  23.799  1.00  0.00     0.010 A 
ATOM     36  C   UNL A   1      28.046  30.352  21.989  1.00  0.00     0.065 A 
ATOM     37  N   UNL A   1      27.154  29.413  22.052  1.00  0.00    -0.280 NA
ATOM     38  C   UNL A   1      28.670  32.683  23.172  1.00  0.00     0.001 A 
ATOM     39  C   UNL A   1      28.085  31.524  21.100  1.00  0.00     0.028 A 
ATOM     40  C   UNL A   1      28.422  32.665  21.728  1.00  0.00     0.002 A 
ENDBRANCH  31  32
ENDBRANCH   8  31
ENDBRANCH   6   8
ENDBRANCH   5   6
ENDBRANCH   4   5
ENDBRANCH   3   4
ENDBRANCH   2   3
ENDBRANCH   1   2
BRANCH   1  41
ATOM     41  C   UNL A   1      33.080  21.216  25.053  1.00  0.00     0.188 C 
BRANCH  41  42
ATOM     42  O   UNL A   1      34.131  21.580  24.185  1.00  0.00    -0.376 OA
BRANCH  42  43
ATOM     43  C   UNL A   1      34.996  22.630  24.591  1.00  0.00     0.202 C 
BRANCH  43  44
ATOM     44  C   UNL A   1      35.576  22.580  26.012  1.00  0.00     0.261 C 
BRANCH  44  45
ATOM     45  O   UNL A   1      36.888  23.167  26.070  1.00  0.00    -0.460 OA
BRANCH  45  46
ATOM     46  C   UNL A   1      37.958  22.332  25.986  1.00  0.00     0.338 C 
ATOM     47  O   UNL A   1      38.036  21.270  25.389  1.00  0.00    -0.246 OA
BRANCH  46  48
ATOM     48  C   UNL A   1      39.117  23.111  26.475  1.00  0.00     0.060 A 
ATOM     49  C   UNL A   1      38.960  24.461  26.785  1.00  0.00     0.016 A 
ATOM     50  C   UNL A   1      40.398  22.544  26.383  1.00  0.00     0.016 A 
ATOM     51  C   UNL A   1      40.088  25.260  26.949  1.00  0.00     0.010 A 
ATOM     52  C   UNL A   1      41.524  23.360  26.500  1.00  0.00     0.010 A 
ATOM     53  C   UNL A   1      41.376  24.726  26.785  1.00  0.00    -0.014 A 
BRANCH  53  54
ATOM     54  C   UNL A   1      42.526  25.592  27.105  1.00  0.00     0.031 A 
ATOM     55  C   UNL A   1      42.181  26.981  27.556  1.00  0.00     0.074 A 
ATOM     56  C   UNL A   1      43.731  25.067  27.414  1.00  0.00     0.049 A 
ATOM     57  N   UNL A   1      42.030  27.371  28.789  1.00  0.00    -0.248 NA
ATOM     58  C   UNL A   1      41.711  27.959  26.571  1.00  0.00     0.031 C 
ATOM     59  C   UNL A   1      43.986  24.134  28.513  1.00  0.00     0.029 A 
ATOM     60  N   UNL A   1      44.987  25.440  26.981  1.00  0.00    -0.354 N 
ATOM     61  C   UNL A   1      41.462  28.640  28.751  1.00  0.00     0.074 A 
ATOM     62  C   UNL A   1      41.263  28.950  27.353  1.00  0.00     0.031 C 
ATOM     63  C   UNL A   1      45.309  24.143  28.784  1.00  0.00     0.029 A 
ATOM     64  C   UNL A   1      46.004  25.005  27.826  1.00  0.00     0.049 A 
ATOM     65  H   UNL A   1      45.147  25.960  26.160  1.00  0.00     0.167 HD
ATOM     66  C   UNL A   1      41.212  29.392  29.856  1.00  0.00     0.037 A 
ATOM     67  C   UNL A   1      47.137  25.720  28.081  1.00  0.00     0.037 A 
ATOM     68  C   UNL A   1      41.617  28.814  31.099  1.00  0.00     0.049 A 
ATOM     69  C   UNL A   1      46.621  26.691  29.118  1.00  0.00     0.074 A 
ATOM     70  C   UNL A   1      41.051  28.139  32.157  1.00  0.00     0.029 A 
ATOM     71  N   UNL A   1      42.950  28.903  31.418  1.00  0.00    -0.354 N 
ATOM     72  N   UNL A   1      46.393  26.434  30.379  1.00  0.00    -0.248 NA
ATOM     73  C   UNL A   1      45.964  27.900  28.613  1.00  0.00     0.031 C 
ATOM     74  C   UNL A   1      42.139  27.458  32.792  1.00  0.00     0.029 A 
ATOM     75  C   UNL A   1      43.288  27.740  32.054  1.00  0.00     0.049 A 
ATOM     76  H   UNL A   1      43.548  29.660  31.225  1.00  0.00     0.167 HD
ATOM     77  C   UNL A   1      45.340  27.278  30.743  1.00  0.00     0.074 A 
ATOM     78  C   UNL A   1      45.140  28.167  29.616  1.00  0.00     0.031 C 
ATOM     79  C   UNL A   1      44.561  27.090  31.848  1.00  0.00     0.037 A 
BRANCH  66  80
ATOM     80  C   UNL A   1      40.818  30.819  29.851  1.00  0.00     0.057 A 
ATOM     81  C   UNL A   1      41.845  31.776  29.859  1.00  0.00     0.134 A 
ATOM     82  C   UNL A   1      39.520  31.261  30.104  1.00  0.00     0.134 A 
ATOM     83  F   UNL A   1      43.115  31.404  29.621  1.00  0.00    -0.206 F 
ATOM     84  C   UNL A   1      41.607  33.111  30.177  1.00  0.00     0.040 A 
ATOM     85  C   UNL A   1      39.264  32.605  30.406  1.00  0.00     0.040 A 
ATOM     86  F   UNL A   1      38.493  30.400  30.115  1.00  0.00    -0.206 F 
ATOM     87  C   UNL A   1      40.311  33.525  30.468  1.00  0.00     0.006 A 
ENDBRANCH  66  80
BRANCH  67  88
ATOM     88  C   UNL A   1      47.948  26.139  26.892  1.00  0.00     0.057 A 
ATOM     89  C   UNL A   1      49.223  25.567  26.716  1.00  0.00     0.134 A 
ATOM     90  C   UNL A   1      47.561  27.061  25.911  1.00  0.00     0.134 A 
ATOM     91  F   UNL A   1      49.749  24.776  27.665  1.00  0.00    -0.206 F 
ATOM     92  C   UNL A   1      49.991  25.776  25.567  1.00  0.00     0.040 A 
ATOM     93  C   UNL A   1      48.307  27.263  24.742  1.00  0.00     0.040 A 
ATOM     94  F   UNL A   1      46.443  27.790  26.039  1.00  0.00    -0.206 F 
ATOM     95  C   UNL A   1      49.513  26.598  24.555  1.00  0.00     0.006 A 
ENDBRANCH  67  88
BRANCH  79  96
ATOM     96  C   UNL A   1      44.964  25.981  32.754  1.00  0.00     0.057 A 
ATOM     97  C   UNL A   1      44.511  24.679  32.532  1.00  0.00     0.134 A 
ATOM     98  C   UNL A   1      45.862  26.187  33.811  1.00  0.00     0.134 A 
ATOM     99  F   UNL A   1      43.658  24.414  31.530  1.00  0.00    -0.206 F 
ATOM    100  C   UNL A   1      44.955  23.614  33.315  1.00  0.00     0.040 A 
ATOM    101  C   UNL A   1      46.340  25.126  34.579  1.00  0.00     0.040 A 
ATOM    102  F   UNL A   1      46.313  27.418  34.103  1.00  0.00    -0.206 F 
ATOM    103  C   UNL A   1      45.886  23.832  34.331  1.00  0.00     0.006 A 
ENDBRANCH  79  96
ENDBRANCH  53  54
ENDBRANCH  46  48
ENDBRANCH  45  46
ENDBRANCH  44  45
ENDBRANCH  43  44
ENDBRANCH  42  43
ENDBRANCH  41  42
ENDBRANCH   1  41
TORSDOF 22
ENDMDL
MODEL 2
REMARK VINA RESULT:     -10.0      7.384     12.729
REMARK SMILES Cc1oc2cc3c(cc2c1C)[C@H](C)[C@@H](CC(=O)N[C@H](CC1=c2ccccc2=NC1)C(=O)OCCOCCOCCOC(=O)c1ccc(-c2c4nc(c(-c5c(F)cccc5F)c5ccc([nH]5)c(-c5c(F)cccc5F)c5nc(c(-c6c(F)cccc6F)c6ccc2[nH]6)C=C5)C=C4)cc1)C(=O)O3
REMARK SMILES IDX 36 1 35 2 34 3 33 4 32 5 30 6 31 7 19 8 18 9 16 10 17 11
REMARK SMILES IDX 15 13 14 14 1 15 2 16 3 17 10 18 4 19 9 20 11 21 5 22 8 23
REMARK SMILES IDX 6 24 7 25 100 26 12 27 98 28 13 29 99 30 20 31 21 32 22 33
REMARK SMILES IDX 29 34 23 35 27 36 28 37 24 38 26 39 25 40 37 41 38 42 39 43
REMARK SMILES IDX 40 44 41 45 42 46 43 47 44 48 45 49 97 50 46 51 96 52 47 53
REMARK SMILES IDX 48 54 49 55 90 56 50 57 95 58 89 59 91 60 51 61 94 62 88 63
REMARK SMILES IDX 87 64 52 66 78 67 61 68 77 69 62 70 65 71 76 72 92 73 63 74
REMARK SMILES IDX 64 75 75 77 93 78 66 79 53 80 54 81 59 82 55 83 56 84 58 85
REMARK SMILES IDX 60 86 57 87 79 88 80 89 85 90 81 91 82 92 84 93 86 94 83 95
REMARK SMILES IDX 67 96 68 97 73 98 69 99 70 100 72 101 74 102 71 103
REMARK H PARENT 18 12 91 65 65 76
REMARK Flexibility Score: inf
ROOT
ATOM      1  C   UNL A   1      50.581  28.404  29.673  1.00  0.00     0.188 C 
ENDROOT
BRANCH   1   2
ATOM      2  O   UNL A   1      50.939  27.113  30.120  1.00  0.00    -0.376 OA
BRANCH   2   3
ATOM      3  C   UNL A   1      50.202  26.022  29.582  1.00  0.00     0.202 C 
BRANCH   3   4
ATOM      4  C   UNL A   1      48.691  26.211  29.418  1.00  0.00     0.261 C 
BRANCH   4   5
ATOM      5  O   UNL A   1      48.181  25.542  28.237  1.00  0.00    -0.462 OA
BRANCH   5   6
ATOM      6  C   UNL A   1      46.957  24.963  28.328  1.00  0.00     0.329 C 
ATOM      7  O   UNL A   1      46.330  24.937  29.387  1.00  0.00    -0.250 OA
BRANCH   6   8
ATOM      8  C   UNL A   1      46.501  24.105  27.104  1.00  0.00     0.196 C 
BRANCH   8   9
ATOM      9  N   UNL A   1      47.075  24.681  25.861  1.00  0.00    -0.342 N 
ATOM     10  C   UNL A   1      46.696  25.655  24.996  1.00  0.00     0.221 C 
ATOM     11  O   UNL A   1      47.328  25.728  23.938  1.00  0.00    -0.275 OA
ATOM     12  H   UNL A   1      47.928  24.260  25.608  1.00  0.00     0.164 HD
BRANCH  10  13
ATOM     13  C   UNL A   1      45.604  26.686  25.279  1.00  0.00     0.116 C 
BRANCH  13  14
ATOM     14  C   UNL A   1      46.018  27.862  26.164  1.00  0.00     0.116 C 
ATOM     15  C   UNL A   1      46.124  36.077  28.394  1.00  0.00     0.088 C 
ATOM     16  C   UNL A   1      45.885  34.670  28.012  1.00  0.00     0.105 A 
ATOM     17  O   UNL A   1      46.955  34.030  27.470  1.00  0.00    -0.461 OA
ATOM     18  C   UNL A   1      44.809  33.804  28.126  1.00  0.00    -0.002 A 
ATOM     19  C   UNL A   1      46.591  32.739  27.272  1.00  0.00     0.138 A 
ATOM     20  C   UNL A   1      45.264  32.544  27.628  1.00  0.00     0.024 A 
ATOM     21  C   UNL A   1      43.472  34.082  28.699  1.00  0.00     0.049 C 
ATOM     22  C   UNL A   1      47.429  31.748  26.799  1.00  0.00     0.095 A 
ATOM     23  C   UNL A   1      44.687  31.263  27.458  1.00  0.00     0.020 A 
ATOM     24  C   UNL A   1      46.850  30.482  26.700  1.00  0.00     0.138 A 
ATOM     25  C   UNL A   1      45.488  30.206  27.001  1.00  0.00    -0.001 A 
ATOM     26  O   UNL A   1      47.701  29.491  26.221  1.00  0.00    -0.426 OA
ATOM     27  C   UNL A   1      44.885  28.843  26.581  1.00  0.00     0.035 C 
ATOM     28  C   UNL A   1      46.857  28.816  25.405  1.00  0.00     0.315 C 
ATOM     29  C   UNL A   1      43.920  28.199  27.570  1.00  0.00     0.014 C 
ATOM     30  O   UNL A   1      46.591  29.169  24.272  1.00  0.00    -0.251 OA
ENDBRANCH  13  14
ENDBRANCH  10  13
ENDBRANCH   8   9
BRANCH   8  31
ATOM     31  C   UNL A   1      45.106  23.399  26.850  1.00  0.00     0.070 C 
BRANCH  31  32
ATOM     32  C   UNL A   1      44.830  22.636  25.550  1.00  0.00    -0.037 C 
ATOM     33  C   UNL A   1      44.702  21.302  25.603  1.00  0.00     0.001 A 
ATOM     34  C   UNL A   1      43.694  23.208  24.757  1.00  0.00     0.174 C 
ATOM     35  C   UNL A   1      45.195  20.280  24.692  1.00  0.00     0.010 A 
ATOM     36  C   UNL A   1      43.208  21.282  25.574  1.00  0.00     0.065 A 
ATOM     37  N   UNL A   1      42.573  22.322  25.129  1.00  0.00    -0.280 NA
ATOM     38  C   UNL A   1      44.511  19.117  24.660  1.00  0.00     0.001 A 
ATOM     39  C   UNL A   1      42.660  19.985  26.002  1.00  0.00     0.028 A 
ATOM     40  C   UNL A   1      43.355  18.929  25.540  1.00  0.00     0.002 A 
ENDBRANCH  31  32
ENDBRANCH   8  31
ENDBRANCH   6   8
ENDBRANCH   5   6
ENDBRANCH   4   5
ENDBRANCH   3   4
ENDBRANCH   2   3
ENDBRANCH   1   2
BRANCH   1  41
ATOM     41  C   UNL A   1      51.565  29.566  29.883  1.00  0.00     0.188 C 
BRANCH  41  42
ATOM     42  O   UNL A   1      51.196  30.723  30.601  1.00  0.00    -0.376 OA
BRANCH  42  43
ATOM     43  C   UNL A   1      51.833  31.946  30.264  1.00  0.00     0.202 C 
BRANCH  43  44
ATOM     44  C   UNL A   1      51.095  32.911  29.324  1.00  0.00     0.261 C 
BRANCH  44  45
ATOM     45  O   UNL A   1      49.670  32.727  29.389  1.00  0.00    -0.460 OA
BRANCH  45  46
ATOM     46  C   UNL A   1      48.980  33.456  30.307  1.00  0.00     0.338 C 
ATOM     47  O   UNL A   1      49.063  34.653  30.530  1.00  0.00    -0.246 OA
BRANCH  46  48
ATOM     48  C   UNL A   1      47.868  32.589  30.756  1.00  0.00     0.060 A 
ATOM     49  C   UNL A   1      47.839  31.249  30.375  1.00  0.00     0.016 A 
ATOM     50  C   UNL A   1      46.745  33.188  31.349  1.00  0.00     0.016 A 
ATOM     51  C   UNL A   1      46.666  30.518  30.533  1.00  0.00     0.010 A 
ATOM     52  C   UNL A   1      45.556  32.464  31.460  1.00  0.00     0.010 A 
ATOM     53  C   UNL A   1      45.509  31.122  31.053  1.00  0.00    -0.014 A 
BRANCH  53  54
ATOM     54  C   UNL A   1      44.343  30.259  31.321  1.00  0.00     0.031 A 
ATOM     55  C   UNL A   1      44.404  29.472  32.597  1.00  0.00     0.074 A 
ATOM     56  C   UNL A   1      43.149  30.496  30.736  1.00  0.00     0.049 A 
ATOM     57  N   UNL A   1      43.917  29.838  33.747  1.00  0.00    -0.248 NA
ATOM     58  C   UNL A   1      45.292  28.309  32.680  1.00  0.00     0.031 C 
ATOM     59  C   UNL A   1      42.392  31.744  30.845  1.00  0.00     0.029 A 
ATOM     60  N   UNL A   1      42.273  29.610  30.145  1.00  0.00    -0.354 N 
ATOM     61  C   UNL A   1      44.417  28.959  34.703  1.00  0.00     0.074 A 
ATOM     62  C   UNL A   1      45.281  28.043  33.993  1.00  0.00     0.031 C 
ATOM     63  C   UNL A   1      41.109  31.496  30.502  1.00  0.00     0.029 A 
ATOM     64  C   UNL A   1      40.974  30.106  30.062  1.00  0.00     0.049 A 
ATOM     65  H   UNL A   1      42.537  28.721  29.815  1.00  0.00     0.167 HD
ATOM     66  C   UNL A   1      44.076  28.996  36.019  1.00  0.00     0.037 A 
ATOM     67  C   UNL A   1      39.857  29.336  30.202  1.00  0.00     0.037 A 
ATOM     68  C   UNL A   1      43.112  29.989  36.377  1.00  0.00     0.049 A 
ATOM     69  C   UNL A   1      39.779  29.238  31.709  1.00  0.00     0.074 A 
ATOM     70  C   UNL A   1      43.083  31.243  36.945  1.00  0.00     0.029 A 
ATOM     71  N   UNL A   1      41.796  29.700  36.110  1.00  0.00    -0.354 N 
ATOM     72  N   UNL A   1      39.352  30.163  32.527  1.00  0.00    -0.248 NA
ATOM     73  C   UNL A   1      40.587  28.191  32.339  1.00  0.00     0.031 C 
ATOM     74  C   UNL A   1      41.830  31.808  36.542  1.00  0.00     0.029 A 
ATOM     75  C   UNL A   1      41.198  30.869  35.729  1.00  0.00     0.049 A 
ATOM     76  H   UNL A   1      41.365  28.818  36.181  1.00  0.00     0.167 HD
ATOM     77  C   UNL A   1      40.076  29.974  33.708  1.00  0.00     0.074 A 
ATOM     78  C   UNL A   1      40.800  28.731  33.531  1.00  0.00     0.031 C 
ATOM     79  C   UNL A   1      40.203  30.921  34.683  1.00  0.00     0.037 A 
BRANCH  66  80
ATOM     80  C   UNL A   1      44.405  27.956  37.019  1.00  0.00     0.057 A 
ATOM     81  C   UNL A   1      43.562  26.836  37.093  1.00  0.00     0.134 A 
ATOM     82  C   UNL A   1      45.325  28.144  38.051  1.00  0.00     0.134 A 
ATOM     83  F   UNL A   1      42.658  26.608  36.126  1.00  0.00    -0.206 F 
ATOM     84  C   UNL A   1      43.578  25.972  38.185  1.00  0.00     0.040 A 
ATOM     85  C   UNL A   1      45.365  27.271  39.146  1.00  0.00     0.040 A 
ATOM     86  F   UNL A   1      46.157  29.195  38.045  1.00  0.00    -0.206 F 
ATOM     87  C   UNL A   1      44.474  26.198  39.225  1.00  0.00     0.006 A 
ENDBRANCH  66  80
BRANCH  67  88
ATOM     88  C   UNL A   1      39.741  28.150  29.293  1.00  0.00     0.057 A 
ATOM     89  C   UNL A   1      40.226  28.266  27.975  1.00  0.00     0.134 A 
ATOM     90  C   UNL A   1      39.189  26.906  29.625  1.00  0.00     0.134 A 
ATOM     91  F   UNL A   1      40.649  29.451  27.510  1.00  0.00    -0.206 F 
ATOM     92  C   UNL A   1      40.301  27.177  27.102  1.00  0.00     0.040 A 
ATOM     93  C   UNL A   1      39.280  25.798  28.770  1.00  0.00     0.040 A 
ATOM     94  F   UNL A   1      38.556  26.710  30.790  1.00  0.00    -0.206 F 
ATOM     95  C   UNL A   1      39.863  25.926  27.515  1.00  0.00     0.006 A 
ENDBRANCH  67  88
BRANCH  79  96
ATOM     96  C   UNL A   1      39.414  32.167  34.493  1.00  0.00     0.057 A 
ATOM     97  C   UNL A   1      39.957  33.257  33.810  1.00  0.00     0.134 A 
ATOM     98  C   UNL A   1      38.085  32.267  34.927  1.00  0.00     0.134 A 
ATOM     99  F   UNL A   1      41.221  33.221  33.360  1.00  0.00    -0.206 F 
ATOM    100  C   UNL A   1      39.197  34.396  33.542  1.00  0.00     0.040 A 
ATOM    101  C   UNL A   1      37.304  33.386  34.636  1.00  0.00     0.040 A 
ATOM    102  F   UNL A   1      37.509  31.271  35.620  1.00  0.00    -0.206 F 
ATOM    103  C   UNL A   1      37.861  34.456  33.940  1.00  0.00     0.006 A 
ENDBRANCH  79  96
ENDBRANCH  53  54
ENDBRANCH  46  48
ENDBRANCH  45  46
ENDBRANCH  44  45
ENDBRANCH  43  44
ENDBRANCH  42  43
ENDBRANCH  41  42
ENDBRANCH   1  41
TORSDOF 22
ENDMDL
MODEL 3
REMARK VINA RESULT:      -9.7      7.644     14.180
REMARK SMILES Cc1oc2cc3c(cc2c1C)[C@H](C)[C@@H](CC(=O)N[C@H](CC1=c2ccccc2=NC1)C(=O)OCCOCCOCCOC(=O)c1ccc(-c2c4nc(c(-c5c(F)cccc5F)c5ccc([nH]5)c(-c5c(F)cccc5F)c5nc(c(-c6c(F)cccc6F)c6ccc2[nH]6)C=C5)C=C4)cc1)C(=O)O3
REMARK SMILES IDX 36 1 35 2 34 3 33 4 32 5 30 6 31 7 19 8 18 9 16 10 17 11
REMARK SMILES IDX 15 13 14 14 1 15 2 16 3 17 10 18 4 19 9 20 11 21 5 22 8 23
REMARK SMILES IDX 6 24 7 25 100 26 12 27 98 28 13 29 99 30 20 31 21 32 22 33
REMARK SMILES IDX 29 34 23 35 27 36 28 37 24 38 26 39 25 40 37 41 38 42 39 43
REMARK SMILES IDX 40 44 41 45 42 46 43 47 44 48 45 49 97 50 46 51 96 52 47 53
REMARK SMILES IDX 48 54 49 55 90 56 50 57 95 58 89 59 91 60 51 61 94 62 88 63
REMARK SMILES IDX 87 64 52 66 78 67 61 68 77 69 62 70 65 71 76 72 92 73 63 74
REMARK SMILES IDX 64 75 75 77 93 78 66 79 53 80 54 81 59 82 55 83 56 84 58 85
REMARK SMILES IDX 60 86 57 87 79 88 80 89 85 90 81 91 82 92 84 93 86 94 83 95
REMARK SMILES IDX 67 96 68 97 73 98 69 99 70 100 72 101 74 102 71 103
REMARK H PARENT 18 12 91 65 65 76
REMARK Flexibility Score: inf
ROOT
ATOM      1  C   UNL A   1      46.474  22.042  39.236  1.00  0.00     0.188 C 
ENDROOT
BRANCH   1   2
ATOM      2  O   UNL A   1      47.582  21.735  40.057  1.00  0.00    -0.376 OA
BRANCH   2   3
ATOM      3  C   UNL A   1      48.842  22.253  39.651  1.00  0.00     0.202 C 
BRANCH   3   4
ATOM      4  C   UNL A   1      49.061  22.467  38.150  1.00  0.00     0.261 C 
BRANCH   4   5
ATOM      5  O   UNL A   1      49.990  21.505  37.590  1.00  0.00    -0.462 OA
BRANCH   5   6
ATOM      6  C   UNL A   1      49.475  20.340  37.121  1.00  0.00     0.329 C 
ATOM      7  O   UNL A   1      49.539  19.296  37.770  1.00  0.00    -0.250 OA
BRANCH   6   8
ATOM      8  C   UNL A   1      49.037  20.327  35.620  1.00  0.00     0.196 C 
BRANCH   8   9
ATOM      9  N   UNL A   1      47.689  19.716  35.509  1.00  0.00    -0.342 N 
ATOM     10  C   UNL A   1      46.483  20.138  35.052  1.00  0.00     0.221 C 
ATOM     11  O   UNL A   1      45.514  19.418  35.308  1.00  0.00    -0.275 OA
ATOM     12  H   UNL A   1      47.664  18.791  35.845  1.00  0.00     0.164 HD
BRANCH  10  13
ATOM     13  C   UNL A   1      46.272  21.388  34.198  1.00  0.00     0.116 C 
BRANCH  13  14
ATOM     14  C   UNL A   1      45.078  22.261  34.587  1.00  0.00     0.116 C 
ATOM     15  C   UNL A   1      41.130  29.707  35.791  1.00  0.00     0.088 C 
ATOM     16  C   UNL A   1      41.858  28.489  35.377  1.00  0.00     0.105 A 
ATOM     17  O   UNL A   1      42.263  27.686  36.397  1.00  0.00    -0.461 OA
ATOM     18  C   UNL A   1      42.191  27.927  34.156  1.00  0.00    -0.002 A 
ATOM     19  C   UNL A   1      42.820  26.583  35.840  1.00  0.00     0.138 A 
ATOM     20  C   UNL A   1      42.834  26.686  34.455  1.00  0.00     0.024 A 
ATOM     21  C   UNL A   1      41.897  28.449  32.801  1.00  0.00     0.049 C 
ATOM     22  C   UNL A   1      43.292  25.495  36.549  1.00  0.00     0.095 A 
ATOM     23  C   UNL A   1      43.412  25.644  33.693  1.00  0.00     0.020 A 
ATOM     24  C   UNL A   1      43.799  24.455  35.768  1.00  0.00     0.138 A 
ATOM     25  C   UNL A   1      43.891  24.500  34.349  1.00  0.00    -0.001 A 
ATOM     26  O   UNL A   1      44.274  23.366  36.490  1.00  0.00    -0.426 OA
ATOM     27  C   UNL A   1      44.730  23.425  33.615  1.00  0.00     0.035 C 
ATOM     28  C   UNL A   1      45.391  23.071  35.785  1.00  0.00     0.315 C 
ATOM     29  C   UNL A   1      44.159  22.907  32.300  1.00  0.00     0.014 C 
ATOM     30  O   UNL A   1      46.448  23.655  35.925  1.00  0.00    -0.251 OA
ENDBRANCH  13  14
ENDBRANCH  10  13
ENDBRANCH   8   9
BRANCH   8  31
ATOM     31  C   UNL A   1      49.921  20.073  34.331  1.00  0.00     0.070 C 
BRANCH  31  32
ATOM     32  C   UNL A   1      50.491  21.242  33.519  1.00  0.00    -0.037 C 
ATOM     33  C   UNL A   1      50.289  22.491  33.963  1.00  0.00     0.001 A 
ATOM     34  C   UNL A   1      51.940  21.071  33.172  1.00  0.00     0.174 C 
ATOM     35  C   UNL A   1      49.963  23.702  33.225  1.00  0.00     0.010 A 
ATOM     36  C   UNL A   1      51.638  22.662  34.583  1.00  0.00     0.065 A 
ATOM     37  N   UNL A   1      52.608  21.890  34.203  1.00  0.00    -0.280 NA
ATOM     38  C   UNL A   1      50.331  24.872  33.790  1.00  0.00     0.001 A 
ATOM     39  C   UNL A   1      51.678  23.794  35.522  1.00  0.00     0.028 A 
ATOM     40  C   UNL A   1      50.994  24.872  35.095  1.00  0.00     0.002 A 
ENDBRANCH  31  32
ENDBRANCH   8  31
ENDBRANCH   6   8
ENDBRANCH   5   6
ENDBRANCH   4   5
ENDBRANCH   3   4
ENDBRANCH   2   3
ENDBRANCH   1   2
BRANCH   1  41
ATOM     41  C   UNL A   1      45.432  23.055  39.737  1.00  0.00     0.188 C 
BRANCH  41  42
ATOM     42  O   UNL A   1      45.764  24.409  39.951  1.00  0.00    -0.376 OA
BRANCH  42  43
ATOM     43  C   UNL A   1      46.584  25.053  38.988  1.00  0.00     0.202 C 
BRANCH  43  44
ATOM     44  C   UNL A   1      46.267  26.513  38.630  1.00  0.00     0.261 C 
BRANCH  44  45
ATOM     45  O   UNL A   1      46.296  26.727  37.208  1.00  0.00    -0.460 OA
BRANCH  45  46
ATOM     46  C   UNL A   1      45.930  27.952  36.746  1.00  0.00     0.338 C 
ATOM     47  O   UNL A   1      45.644  28.944  37.398  1.00  0.00    -0.246 OA
BRANCH  46  48
ATOM     48  C   UNL A   1      46.268  27.958  35.305  1.00  0.00     0.060 A 
ATOM     49  C   UNL A   1      45.661  28.883  34.457  1.00  0.00     0.016 A 
ATOM     50  C   UNL A   1      47.002  26.882  34.781  1.00  0.00     0.016 A 
ATOM     51  C   UNL A   1      45.738  28.700  33.080  1.00  0.00     0.010 A 
ATOM     52  C   UNL A   1      47.036  26.678  33.401  1.00  0.00     0.010 A 
ATOM     53  C   UNL A   1      46.404  27.588  32.540  1.00  0.00    -0.014 A 
BRANCH  53  54
ATOM     54  C   UNL A   1      46.566  27.528  31.075  1.00  0.00     0.031 A 
ATOM     55  C   UNL A   1      45.364  27.053  30.313  1.00  0.00     0.074 A 
ATOM     56  C   UNL A   1      47.514  28.256  30.446  1.00  0.00     0.049 A 
ATOM     57  N   UNL A   1      44.437  27.807  29.797  1.00  0.00    -0.248 NA
ATOM     58  C   UNL A   1      45.014  25.630  30.339  1.00  0.00     0.031 C 
ATOM     59  C   UNL A   1      47.636  29.713  30.512  1.00  0.00     0.029 A 
ATOM     60  N   UNL A   1      48.387  27.881  29.447  1.00  0.00    -0.354 N 
ATOM     61  C   UNL A   1      43.391  26.971  29.420  1.00  0.00     0.074 A 
ATOM     62  C   UNL A   1      43.789  25.634  29.797  1.00  0.00     0.031 C 
ATOM     63  C   UNL A   1      48.397  30.125  29.475  1.00  0.00     0.029 A 
ATOM     64  C   UNL A   1      48.891  28.964  28.732  1.00  0.00     0.049 A 
ATOM     65  H   UNL A   1      48.630  26.945  29.259  1.00  0.00     0.167 HD
ATOM     66  C   UNL A   1      42.266  27.402  28.787  1.00  0.00     0.037 A 
ATOM     67  C   UNL A   1      49.155  28.934  27.394  1.00  0.00     0.037 A 
ATOM     68  C   UNL A   1      42.230  28.796  28.478  1.00  0.00     0.049 A 
ATOM     69  C   UNL A   1      47.766  29.146  26.836  1.00  0.00     0.074 A 
ATOM     70  C   UNL A   1      41.674  29.951  28.981  1.00  0.00     0.029 A 
ATOM     71  N   UNL A   1      42.932  29.204  27.370  1.00  0.00    -0.354 N 
ATOM     72  N   UNL A   1      47.117  30.278  26.772  1.00  0.00    -0.248 NA
ATOM     73  C   UNL A   1      46.925  27.952  26.703  1.00  0.00     0.031 C 
ATOM     74  C   UNL A   1      42.463  31.015  28.434  1.00  0.00     0.029 A 
ATOM     75  C   UNL A   1      43.464  30.429  27.661  1.00  0.00     0.049 A 
ATOM     76  H   UNL A   1      43.032  28.708  26.527  1.00  0.00     0.167 HD
ATOM     77  C   UNL A   1      45.767  29.936  26.886  1.00  0.00     0.074 A 
ATOM     78  C   UNL A   1      45.719  28.489  26.817  1.00  0.00     0.031 C 
ATOM     79  C   UNL A   1      44.783  30.822  27.221  1.00  0.00     0.037 A 
BRANCH  66  80
ATOM     80  C   UNL A   1      41.239  26.528  28.176  1.00  0.00     0.057 A 
ATOM     81  C   UNL A   1      40.029  26.367  28.869  1.00  0.00     0.134 A 
ATOM     82  C   UNL A   1      41.497  25.663  27.113  1.00  0.00     0.134 A 
ATOM     83  F   UNL A   1      39.730  27.173  29.901  1.00  0.00    -0.206 F 
ATOM     84  C   UNL A   1      39.137  25.340  28.567  1.00  0.00     0.040 A 
ATOM     85  C   UNL A   1      40.600  24.638  26.787  1.00  0.00     0.040 A 
ATOM     86  F   UNL A   1      42.635  25.759  26.412  1.00  0.00    -0.206 F 
ATOM     87  C   UNL A   1      39.431  24.460  27.530  1.00  0.00     0.006 A 
ENDBRANCH  66  80
BRANCH  67  88
ATOM     88  C   UNL A   1      50.079  27.855  26.916  1.00  0.00     0.057 A 
ATOM     89  C   UNL A   1      51.127  27.446  27.764  1.00  0.00     0.134 A 
ATOM     90  C   UNL A   1      50.005  27.190  25.685  1.00  0.00     0.134 A 
ATOM     91  F   UNL A   1      51.372  28.107  28.906  1.00  0.00    -0.206 F 
ATOM     92  C   UNL A   1      51.946  26.350  27.475  1.00  0.00     0.040 A 
ATOM     93  C   UNL A   1      50.802  26.074  25.391  1.00  0.00     0.040 A 
ATOM     94  F   UNL A   1      49.155  27.585  24.726  1.00  0.00    -0.206 F 
ATOM     95  C   UNL A   1      51.756  25.634  26.301  1.00  0.00     0.006 A 
ENDBRANCH  67  88
BRANCH  79  96
ATOM     96  C   UNL A   1      45.197  32.244  27.349  1.00  0.00     0.057 A 
ATOM     97  C   UNL A   1      45.092  33.119  26.266  1.00  0.00     0.134 A 
ATOM     98  C   UNL A   1      45.637  32.772  28.572  1.00  0.00     0.134 A 
ATOM     99  F   UNL A   1      44.668  32.678  25.071  1.00  0.00    -0.206 F 
ATOM    100  C   UNL A   1      45.387  34.476  26.399  1.00  0.00     0.040 A 
ATOM    101  C   UNL A   1      45.902  34.132  28.727  1.00  0.00     0.040 A 
ATOM    102  F   UNL A   1      45.794  31.983  29.647  1.00  0.00    -0.206 F 
ATOM    103  C   UNL A   1      45.776  34.990  27.636  1.00  0.00     0.006 A 
ENDBRANCH  79  96
ENDBRANCH  53  54
ENDBRANCH  46  48
ENDBRANCH  45  46
ENDBRANCH  44  45
ENDBRANCH  43  44
ENDBRANCH  42  43
ENDBRANCH  41  42
ENDBRANCH   1  41
TORSDOF 22
ENDMDL
