MODEL 1
REMARK VINA RESULT:     -11.7      0.000      0.000
REMARK SMILES O=C(OCCOCCOCCOC(=O)c1cc(S(=O)(=O)Nc2cc(F)ccc2F)cc2c1OCCO2)c1ccc(-c2c3nc(c(-c4c(F)cccc4F)c4ccc([nH]4)c(-c4c(F)cccc4F)c4nc(c(-c5c(F)cccc5F)c5ccc2[nH]5)C=C4)C=C3)cc1
REMARK SMILES IDX 8 1 7 2 6 3 5 4 4 5 3 6 2 7 1 8 37 9 38 10 90 11 39 12 89 13
REMARK SMILES IDX 40 14 41 15 42 16 83 17 43 18 88 19 82 20 84 21 44 22 87 23
REMARK SMILES IDX 81 24 80 25 45 27 71 28 54 29 70 30 55 31 58 32 69 33 85 34
REMARK SMILES IDX 56 35 57 36 68 38 86 39 59 40 46 41 47 42 52 43 48 44 49 45
REMARK SMILES IDX 51 46 53 47 50 48 72 49 73 50 78 51 74 52 75 53 77 54 79 55
REMARK SMILES IDX 76 56 60 57 61 58 66 59 62 60 63 61 65 62 67 63 64 64 9 65
REMARK SMILES IDX 10 66 11 67 12 68 13 69 14 70 15 71 16 72 32 73 17 74 31 75
REMARK SMILES IDX 33 76 30 77 36 78 34 79 35 80 18 81 19 82 20 83 21 84 22 86
REMARK SMILES IDX 23 87 28 88 24 89 27 90 29 91 25 92 26 93
REMARK H PARENT 84 26 58 37 21 85
REMARK Flexibility Score: inf
ROOT
ATOM      1  C   UNL A   1      41.254  21.420  27.146  1.00  0.00     0.188 C 
ENDROOT
BRANCH   1   2
ATOM      2  C   UNL A   1      42.722  21.351  26.696  1.00  0.00     0.188 C 
BRANCH   2   3
ATOM      3  O   UNL A   1      43.029  21.134  25.323  1.00  0.00    -0.376 OA
BRANCH   3   4
ATOM      4  C   UNL A   1      44.379  21.438  24.960  1.00  0.00     0.202 C 
BRANCH   4   5
ATOM      5  C   UNL A   1      44.638  22.858  24.412  1.00  0.00     0.261 C 
BRANCH   5   6
ATOM      6  O   UNL A   1      45.052  23.791  25.419  1.00  0.00    -0.460 OA
BRANCH   6   7
ATOM      7  C   UNL A   1      44.989  25.133  25.222  1.00  0.00     0.338 C 
ATOM      8  O   UNL A   1      45.919  25.733  24.694  1.00  0.00    -0.246 OA
BRANCH   7   9
ATOM      9  C   UNL A   1      43.906  25.901  25.917  1.00  0.00     0.060 A 
ATOM     10  C   UNL A   1      43.971  27.264  26.190  1.00  0.00     0.016 A 
ATOM     11  C   UNL A   1      42.774  25.181  26.357  1.00  0.00     0.016 A 
ATOM     12  C   UNL A   1      43.001  27.881  26.966  1.00  0.00     0.010 A 
ATOM     13  C   UNL A   1      41.768  25.802  27.104  1.00  0.00     0.010 A 
ATOM     14  C   UNL A   1      41.944  27.134  27.491  1.00  0.00    -0.014 A 
BRANCH  14  15
ATOM     15  C   UNL A   1      41.318  27.682  28.713  1.00  0.00     0.031 A 
ATOM     16  C   UNL A   1      42.099  27.545  29.995  1.00  0.00     0.074 A 
ATOM     17  C   UNL A   1      40.239  28.477  28.629  1.00  0.00     0.049 A 
ATOM     18  N   UNL A   1      41.892  28.099  31.159  1.00  0.00    -0.248 NA
ATOM     19  C   UNL A   1      43.298  26.688  29.948  1.00  0.00     0.031 C 
ATOM     20  C   UNL A   1      39.482  28.745  27.407  1.00  0.00     0.029 A 
ATOM     21  N   UNL A   1      39.629  29.250  29.582  1.00  0.00    -0.354 N 
ATOM     22  C   UNL A   1      42.923  27.645  31.975  1.00  0.00     0.074 A 
ATOM     23  C   UNL A   1      43.737  26.752  31.191  1.00  0.00     0.031 C 
ATOM     24  C   UNL A   1      38.528  29.652  27.678  1.00  0.00     0.029 A 
ATOM     25  C   UNL A   1      38.596  30.010  29.091  1.00  0.00     0.049 A 
ATOM     26  H   UNL A   1      39.905  29.259  30.527  1.00  0.00     0.167 HD
ATOM     27  C   UNL A   1      43.178  27.956  33.266  1.00  0.00     0.037 A 
ATOM     28  C   UNL A   1      37.805  30.898  29.723  1.00  0.00     0.037 A 
ATOM     29  C   UNL A   1      42.360  28.847  34.036  1.00  0.00     0.049 A 
ATOM     30  C   UNL A   1      38.062  31.169  31.183  1.00  0.00     0.074 A 
ATOM     31  C   UNL A   1      42.473  29.196  35.366  1.00  0.00     0.029 A 
ATOM     32  N   UNL A   1      41.264  29.529  33.525  1.00  0.00    -0.354 N 
ATOM     33  N   UNL A   1      39.023  30.714  31.954  1.00  0.00    -0.248 NA
ATOM     34  C   UNL A   1      37.126  32.074  31.862  1.00  0.00     0.031 C 
ATOM     35  C   UNL A   1      41.414  30.057  35.674  1.00  0.00     0.029 A 
ATOM     36  C   UNL A   1      40.678  30.287  34.521  1.00  0.00     0.049 A 
ATOM     37  H   UNL A   1      40.950  29.480  32.594  1.00  0.00     0.167 HD
ATOM     38  C   UNL A   1      38.824  31.297  33.198  1.00  0.00     0.074 A 
ATOM     39  C   UNL A   1      37.661  32.152  33.072  1.00  0.00     0.031 C 
ATOM     40  C   UNL A   1      39.530  31.141  34.346  1.00  0.00     0.037 A 
BRANCH  27  41
ATOM     41  C   UNL A   1      44.339  27.258  33.911  1.00  0.00     0.057 A 
ATOM     42  C   UNL A   1      44.221  25.993  34.502  1.00  0.00     0.134 A 
ATOM     43  C   UNL A   1      45.580  27.900  34.004  1.00  0.00     0.134 A 
ATOM     44  F   UNL A   1      43.048  25.340  34.481  1.00  0.00    -0.206 F 
ATOM     45  C   UNL A   1      45.284  25.408  35.194  1.00  0.00     0.040 A 
ATOM     46  C   UNL A   1      46.658  27.314  34.669  1.00  0.00     0.040 A 
ATOM     47  F   UNL A   1      45.759  29.117  33.469  1.00  0.00    -0.206 F 
ATOM     48  C   UNL A   1      46.508  26.069  35.278  1.00  0.00     0.006 A 
ENDBRANCH  27  41
BRANCH  28  49
ATOM     49  C   UNL A   1      36.708  31.588  28.994  1.00  0.00     0.057 A 
ATOM     50  C   UNL A   1      36.798  32.940  28.640  1.00  0.00     0.134 A 
ATOM     51  C   UNL A   1      35.524  30.919  28.660  1.00  0.00     0.134 A 
ATOM     52  F   UNL A   1      37.897  33.647  28.944  1.00  0.00    -0.206 F 
ATOM     53  C   UNL A   1      35.747  33.605  28.003  1.00  0.00     0.040 A 
ATOM     54  C   UNL A   1      34.476  31.563  27.998  1.00  0.00     0.040 A 
ATOM     55  F   UNL A   1      35.368  29.624  28.968  1.00  0.00    -0.206 F 
ATOM     56  C   UNL A   1      34.582  32.913  27.676  1.00  0.00     0.006 A 
ENDBRANCH  28  49
BRANCH  40  57
ATOM     57  C   UNL A   1      39.092  31.946  35.531  1.00  0.00     0.057 A 
ATOM     58  C   UNL A   1      38.267  31.411  36.527  1.00  0.00     0.134 A 
ATOM     59  C   UNL A   1      39.551  33.258  35.702  1.00  0.00     0.134 A 
ATOM     60  F   UNL A   1      37.788  30.162  36.417  1.00  0.00    -0.206 F 
ATOM     61  C   UNL A   1      37.891  32.163  37.640  1.00  0.00     0.040 A 
ATOM     62  C   UNL A   1      39.207  34.010  36.824  1.00  0.00     0.040 A 
ATOM     63  F   UNL A   1      40.357  33.822  34.789  1.00  0.00    -0.206 F 
ATOM     64  C   UNL A   1      38.368  33.464  37.794  1.00  0.00     0.006 A 
ENDBRANCH  40  57
ENDBRANCH  14  15
ENDBRANCH   7   9
ENDBRANCH   6   7
ENDBRANCH   5   6
ENDBRANCH   4   5
ENDBRANCH   3   4
ENDBRANCH   2   3
ENDBRANCH   1   2
BRANCH   1  65
ATOM     65  O   UNL A   1      40.230  21.019  26.260  1.00  0.00    -0.376 OA
BRANCH  65  66
ATOM     66  C   UNL A   1      39.122  21.894  26.095  1.00  0.00     0.202 C 
BRANCH  66  67
ATOM     67  C   UNL A   1      37.803  21.336  25.542  1.00  0.00     0.261 C 
BRANCH  67  68
ATOM     68  O   UNL A   1      36.659  22.207  25.635  1.00  0.00    -0.460 OA
BRANCH  68  69
ATOM     69  C   UNL A   1      35.936  22.335  24.491  1.00  0.00     0.342 C 
ATOM     70  O   UNL A   1      36.364  22.521  23.363  1.00  0.00    -0.246 OA
BRANCH  69  71
ATOM     71  C   UNL A   1      34.494  22.182  24.753  1.00  0.00     0.107 A 
ATOM     72  C   UNL A   1      33.740  23.295  25.179  1.00  0.00     0.042 A 
ATOM     73  C   UNL A   1      33.939  20.899  24.753  1.00  0.00     0.175 A 
ATOM     74  C   UNL A   1      32.397  23.118  25.536  1.00  0.00     0.092 A 
ATOM     75  C   UNL A   1      32.620  20.733  25.186  1.00  0.00     0.163 A 
ATOM     76  O   UNL A   1      34.738  19.840  24.401  1.00  0.00    -0.485 OA
ATOM     77  C   UNL A   1      31.840  21.833  25.537  1.00  0.00     0.072 A 
ATOM     78  O   UNL A   1      32.033  19.501  25.335  1.00  0.00    -0.486 OA
ATOM     79  C   UNL A   1      34.026  18.600  24.329  1.00  0.00     0.271 C 
ATOM     80  C   UNL A   1      33.035  18.488  25.473  1.00  0.00     0.271 C 
BRANCH  74  81
ATOM     81  S   UNL A   1      31.297  24.429  26.051  1.00  0.00     0.262 S 
ATOM     82  O   UNL A   1      30.558  24.838  24.876  1.00  0.00    -0.201 OA
ATOM     83  O   UNL A   1      30.618  23.938  27.231  1.00  0.00    -0.201 OA
BRANCH  81  84
ATOM     84  N   UNL A   1      32.221  25.703  26.584  1.00  0.00    -0.277 N 
ATOM     85  H   UNL A   1      32.702  25.574  27.433  1.00  0.00     0.180 HD
BRANCH  84  86
ATOM     86  C   UNL A   1      32.388  26.960  25.940  1.00  0.00     0.087 A 
ATOM     87  C   UNL A   1      33.186  27.149  24.822  1.00  0.00     0.069 A 
ATOM     88  C   UNL A   1      31.804  28.082  26.550  1.00  0.00     0.147 A 
ATOM     89  C   UNL A   1      33.435  28.446  24.396  1.00  0.00     0.125 A 
ATOM     90  C   UNL A   1      32.068  29.378  26.112  1.00  0.00     0.044 A 
ATOM     91  F   UNL A   1      31.006  27.914  27.616  1.00  0.00    -0.205 F 
ATOM     92  F   UNL A   1      34.265  28.635  23.381  1.00  0.00    -0.207 F 
ATOM     93  C   UNL A   1      32.914  29.563  25.032  1.00  0.00     0.042 A 
ENDBRANCH  84  86
ENDBRANCH  81  84
ENDBRANCH  74  81
ENDBRANCH  69  71
ENDBRANCH  68  69
ENDBRANCH  67  68
ENDBRANCH  66  67
ENDBRANCH  65  66
ENDBRANCH   1  65
TORSDOF 20
ENDMDL
MODEL 2
REMARK VINA RESULT:     -11.6      1.589      2.175
REMARK SMILES O=C(OCCOCCOCCOC(=O)c1cc(S(=O)(=O)Nc2cc(F)ccc2F)cc2c1OCCO2)c1ccc(-c2c3nc(c(-c4c(F)cccc4F)c4ccc([nH]4)c(-c4c(F)cccc4F)c4nc(c(-c5c(F)cccc5F)c5ccc2[nH]5)C=C4)C=C3)cc1
REMARK SMILES IDX 8 1 7 2 6 3 5 4 4 5 3 6 2 7 1 8 37 9 38 10 90 11 39 12 89 13
REMARK SMILES IDX 40 14 41 15 42 16 83 17 43 18 88 19 82 20 84 21 44 22 87 23
REMARK SMILES IDX 81 24 80 25 45 27 71 28 54 29 70 30 55 31 58 32 69 33 85 34
REMARK SMILES IDX 56 35 57 36 68 38 86 39 59 40 46 41 47 42 52 43 48 44 49 45
REMARK SMILES IDX 51 46 53 47 50 48 72 49 73 50 78 51 74 52 75 53 77 54 79 55
REMARK SMILES IDX 76 56 60 57 61 58 66 59 62 60 63 61 65 62 67 63 64 64 9 65
REMARK SMILES IDX 10 66 11 67 12 68 13 69 14 70 15 71 16 72 32 73 17 74 31 75
REMARK SMILES IDX 33 76 30 77 36 78 34 79 35 80 18 81 19 82 20 83 21 84 22 86
REMARK SMILES IDX 23 87 28 88 24 89 27 90 29 91 25 92 26 93
REMARK H PARENT 84 26 58 37 21 85
REMARK Flexibility Score: inf
ROOT
ATOM      1  C   UNL A   1      40.583  21.428  26.971  1.00  0.00     0.188 C 
ENDROOT
BRANCH   1   2
ATOM      2  C   UNL A   1      41.760  20.536  26.544  1.00  0.00     0.188 C 
BRANCH   2   3
ATOM      3  O   UNL A   1      42.640  20.975  25.516  1.00  0.00    -0.376 OA
BRANCH   3   4
ATOM      4  C   UNL A   1      43.470  22.083  25.875  1.00  0.00     0.202 C 
BRANCH   4   5
ATOM      5  C   UNL A   1      43.273  23.380  25.059  1.00  0.00     0.261 C 
BRANCH   5   6
ATOM      6  O   UNL A   1      42.279  24.255  25.609  1.00  0.00    -0.460 OA
BRANCH   6   7
ATOM      7  C   UNL A   1      42.268  25.586  25.340  1.00  0.00     0.338 C 
ATOM      8  O   UNL A   1      43.111  26.083  24.601  1.00  0.00    -0.246 OA
BRANCH   7   9
ATOM      9  C   UNL A   1      41.400  26.471  26.181  1.00  0.00     0.060 A 
ATOM     10  C   UNL A   1      41.482  27.861  26.189  1.00  0.00     0.016 A 
ATOM     11  C   UNL A   1      40.477  25.848  27.048  1.00  0.00     0.016 A 
ATOM     12  C   UNL A   1      40.751  28.610  27.099  1.00  0.00     0.010 A 
ATOM     13  C   UNL A   1      39.704  26.597  27.940  1.00  0.00     0.010 A 
ATOM     14  C   UNL A   1      39.925  27.974  28.028  1.00  0.00    -0.014 A 
BRANCH  14  15
ATOM     15  C   UNL A   1      39.656  28.732  29.269  1.00  0.00     0.031 A 
ATOM     16  C   UNL A   1      40.667  28.596  30.378  1.00  0.00     0.074 A 
ATOM     17  C   UNL A   1      38.703  29.677  29.297  1.00  0.00     0.049 A 
ATOM     18  N   UNL A   1      40.791  29.286  31.480  1.00  0.00    -0.248 NA
ATOM     19  C   UNL A   1      41.698  27.558  30.207  1.00  0.00     0.031 C 
ATOM     20  C   UNL A   1      37.747  29.944  28.223  1.00  0.00     0.029 A 
ATOM     21  N   UNL A   1      38.423  30.627  30.244  1.00  0.00    -0.354 N 
ATOM     22  C   UNL A   1      41.900  28.754  32.128  1.00  0.00     0.074 A 
ATOM     23  C   UNL A   1      42.397  27.670  31.321  1.00  0.00     0.031 C 
ATOM     24  C   UNL A   1      37.006  31.014  28.558  1.00  0.00     0.029 A 
ATOM     25  C   UNL A   1      37.423  31.492  29.873  1.00  0.00     0.049 A 
ATOM     26  H   UNL A   1      38.893  30.684  31.107  1.00  0.00     0.167 HD
ATOM     27  C   UNL A   1      42.465  29.144  33.294  1.00  0.00     0.037 A 
ATOM     28  C   UNL A   1      36.914  32.553  30.528  1.00  0.00     0.037 A 
ATOM     29  C   UNL A   1      41.961  30.225  34.088  1.00  0.00     0.049 A 
ATOM     30  C   UNL A   1      37.512  32.919  31.862  1.00  0.00     0.074 A 
ATOM     31  C   UNL A   1      42.402  30.679  35.314  1.00  0.00     0.029 A 
ATOM     32  N   UNL A   1      40.884  31.021  33.720  1.00  0.00    -0.354 N 
ATOM     33  N   UNL A   1      38.544  32.393  32.481  1.00  0.00    -0.248 NA
ATOM     34  C   UNL A   1      36.876  34.025  32.590  1.00  0.00     0.031 C 
ATOM     35  C   UNL A   1      41.562  31.725  35.712  1.00  0.00     0.029 A 
ATOM     36  C   UNL A   1      40.635  31.957  34.706  1.00  0.00     0.049 A 
ATOM     37  H   UNL A   1      40.375  30.933  32.883  1.00  0.00     0.167 HD
ATOM     38  C   UNL A   1      38.697  33.118  33.655  1.00  0.00     0.074 A 
ATOM     39  C   UNL A   1      37.662  34.133  33.651  1.00  0.00     0.031 C 
ATOM     40  C   UNL A   1      39.604  32.963  34.652  1.00  0.00     0.037 A 
BRANCH  27  41
ATOM     41  C   UNL A   1      43.631  28.335  33.782  1.00  0.00     0.057 A 
ATOM     42  C   UNL A   1      44.958  28.680  33.493  1.00  0.00     0.134 A 
ATOM     43  C   UNL A   1      43.413  27.148  34.492  1.00  0.00     0.134 A 
ATOM     44  F   UNL A   1      45.233  29.786  32.783  1.00  0.00    -0.206 F 
ATOM     45  C   UNL A   1      46.023  27.857  33.861  1.00  0.00     0.040 A 
ATOM     46  C   UNL A   1      44.472  26.329  34.890  1.00  0.00     0.040 A 
ATOM     47  F   UNL A   1      42.168  26.753  34.792  1.00  0.00    -0.206 F 
ATOM     48  C   UNL A   1      45.781  26.677  34.564  1.00  0.00     0.006 A 
ENDBRANCH  27  41
BRANCH  28  49
ATOM     49  C   UNL A   1      35.793  33.336  29.947  1.00  0.00     0.057 A 
ATOM     50  C   UNL A   1      35.989  34.219  28.877  1.00  0.00     0.134 A 
ATOM     51  C   UNL A   1      34.496  33.247  30.469  1.00  0.00     0.134 A 
ATOM     52  F   UNL A   1      37.208  34.367  28.339  1.00  0.00    -0.206 F 
ATOM     53  C   UNL A   1      34.947  34.996  28.364  1.00  0.00     0.040 A 
ATOM     54  C   UNL A   1      33.438  33.997  29.948  1.00  0.00     0.040 A 
ATOM     55  F   UNL A   1      34.235  32.423  31.494  1.00  0.00    -0.206 F 
ATOM     56  C   UNL A   1      33.665  34.882  28.899  1.00  0.00     0.006 A 
ENDBRANCH  28  49
BRANCH  40  57
ATOM     57  C   UNL A   1      39.544  33.940  35.787  1.00  0.00     0.057 A 
ATOM     58  C   UNL A   1      38.905  33.634  36.994  1.00  0.00     0.134 A 
ATOM     59  C   UNL A   1      40.184  35.181  35.684  1.00  0.00     0.134 A 
ATOM     60  F   UNL A   1      38.268  32.464  37.151  1.00  0.00    -0.206 F 
ATOM     61  C   UNL A   1      38.883  34.542  38.053  1.00  0.00     0.040 A 
ATOM     62  C   UNL A   1      40.194  36.084  36.745  1.00  0.00     0.040 A 
ATOM     63  F   UNL A   1      40.826  35.526  34.558  1.00  0.00    -0.206 F 
ATOM     64  C   UNL A   1      39.536  35.768  37.933  1.00  0.00     0.006 A 
ENDBRANCH  40  57
ENDBRANCH  14  15
ENDBRANCH   7   9
ENDBRANCH   6   7
ENDBRANCH   5   6
ENDBRANCH   4   5
ENDBRANCH   3   4
ENDBRANCH   2   3
ENDBRANCH   1   2
BRANCH   1  65
ATOM     65  O   UNL A   1      39.918  22.217  26.008  1.00  0.00    -0.376 OA
BRANCH  65  66
ATOM     66  C   UNL A   1      38.611  22.679  26.323  1.00  0.00     0.202 C 
BRANCH  66  67
ATOM     67  C   UNL A   1      37.438  22.292  25.412  1.00  0.00     0.261 C 
BRANCH  67  68
ATOM     68  O   UNL A   1      36.553  23.362  25.028  1.00  0.00    -0.460 OA
BRANCH  68  69
ATOM     69  C   UNL A   1      35.832  23.138  23.897  1.00  0.00     0.342 C 
ATOM     70  O   UNL A   1      36.263  22.981  22.766  1.00  0.00    -0.246 OA
BRANCH  69  71
ATOM     71  C   UNL A   1      34.391  23.060  24.192  1.00  0.00     0.107 A 
ATOM     72  C   UNL A   1      33.649  24.247  24.365  1.00  0.00     0.042 A 
ATOM     73  C   UNL A   1      33.825  21.814  24.476  1.00  0.00     0.175 A 
ATOM     74  C   UNL A   1      32.306  24.165  24.758  1.00  0.00     0.092 A 
ATOM     75  C   UNL A   1      32.507  21.760  24.940  1.00  0.00     0.163 A 
ATOM     76  O   UNL A   1      34.613  20.695  24.363  1.00  0.00    -0.485 OA
ATOM     77  C   UNL A   1      31.738  22.918  25.043  1.00  0.00     0.072 A 
ATOM     78  O   UNL A   1      31.910  20.597  25.359  1.00  0.00    -0.486 OA
ATOM     79  C   UNL A   1      33.889  19.477  24.568  1.00  0.00     0.271 C 
ATOM     80  C   UNL A   1      32.904  19.629  25.713  1.00  0.00     0.271 C 
BRANCH  74  81
ATOM     81  S   UNL A   1      31.221  25.568  24.976  1.00  0.00     0.262 S 
ATOM     82  O   UNL A   1      30.173  25.442  23.986  1.00  0.00    -0.201 OA
ATOM     83  O   UNL A   1      30.914  25.618  26.389  1.00  0.00    -0.201 OA
BRANCH  81  84
ATOM     84  N   UNL A   1      32.092  26.951  24.674  1.00  0.00    -0.277 N 
ATOM     85  H   UNL A   1      32.434  27.065  23.758  1.00  0.00     0.180 HD
BRANCH  84  86
ATOM     86  C   UNL A   1      32.393  27.986  25.602  1.00  0.00     0.087 A 
ATOM     87  C   UNL A   1      31.625  29.130  25.751  1.00  0.00     0.069 A 
ATOM     88  C   UNL A   1      33.601  27.885  26.313  1.00  0.00     0.147 A 
ATOM     89  C   UNL A   1      32.117  30.161  26.539  1.00  0.00     0.125 A 
ATOM     90  C   UNL A   1      34.082  28.932  27.097  1.00  0.00     0.044 A 
ATOM     91  F   UNL A   1      34.342  26.772  26.202  1.00  0.00    -0.205 F 
ATOM     92  F   UNL A   1      31.426  31.289  26.616  1.00  0.00    -0.207 F 
ATOM     93  C   UNL A   1      33.338  30.096  27.192  1.00  0.00     0.042 A 
ENDBRANCH  84  86
ENDBRANCH  81  84
ENDBRANCH  74  81
ENDBRANCH  69  71
ENDBRANCH  68  69
ENDBRANCH  67  68
ENDBRANCH  66  67
ENDBRANCH  65  66
ENDBRANCH   1  65
TORSDOF 20
ENDMDL
MODEL 3
REMARK VINA RESULT:     -11.4      2.160      6.750
REMARK SMILES O=C(OCCOCCOCCOC(=O)c1cc(S(=O)(=O)Nc2cc(F)ccc2F)cc2c1OCCO2)c1ccc(-c2c3nc(c(-c4c(F)cccc4F)c4ccc([nH]4)c(-c4c(F)cccc4F)c4nc(c(-c5c(F)cccc5F)c5ccc2[nH]5)C=C4)C=C3)cc1
REMARK SMILES IDX 8 1 7 2 6 3 5 4 4 5 3 6 2 7 1 8 37 9 38 10 90 11 39 12 89 13
REMARK SMILES IDX 40 14 41 15 42 16 83 17 43 18 88 19 82 20 84 21 44 22 87 23
REMARK SMILES IDX 81 24 80 25 45 27 71 28 54 29 70 30 55 31 58 32 69 33 85 34
REMARK SMILES IDX 56 35 57 36 68 38 86 39 59 40 46 41 47 42 52 43 48 44 49 45
REMARK SMILES IDX 51 46 53 47 50 48 72 49 73 50 78 51 74 52 75 53 77 54 79 55
REMARK SMILES IDX 76 56 60 57 61 58 66 59 62 60 63 61 65 62 67 63 64 64 9 65
REMARK SMILES IDX 10 66 11 67 12 68 13 69 14 70 15 71 16 72 32 73 17 74 31 75
REMARK SMILES IDX 33 76 30 77 36 78 34 79 35 80 18 81 19 82 20 83 21 84 22 86
REMARK SMILES IDX 23 87 28 88 24 89 27 90 29 91 25 92 26 93
REMARK H PARENT 84 26 58 37 21 85
REMARK Flexibility Score: inf
ROOT
ATOM      1  C   UNL A   1      35.665  22.000  25.766  1.00  0.00     0.188 C 
ENDROOT
BRANCH   1   2
ATOM      2  C   UNL A   1      36.879  21.140  25.379  1.00  0.00     0.188 C 
BRANCH   2   3
ATOM      3  O   UNL A   1      38.153  21.752  25.213  1.00  0.00    -0.376 OA
BRANCH   3   4
ATOM      4  C   UNL A   1      39.236  21.049  25.826  1.00  0.00     0.202 C 
BRANCH   4   5
ATOM      5  C   UNL A   1      40.088  21.847  26.838  1.00  0.00     0.261 C 
BRANCH   5   6
ATOM      6  O   UNL A   1      40.023  23.266  26.642  1.00  0.00    -0.460 OA
BRANCH   6   7
ATOM      7  C   UNL A   1      41.029  24.090  27.033  1.00  0.00     0.338 C 
ATOM      8  O   UNL A   1      42.172  23.665  27.165  1.00  0.00    -0.246 OA
BRANCH   7   9
ATOM      9  C   UNL A   1      40.669  25.439  27.577  1.00  0.00     0.060 A 
ATOM     10  C   UNL A   1      41.341  26.614  27.253  1.00  0.00     0.016 A 
ATOM     11  C   UNL A   1      39.610  25.506  28.508  1.00  0.00     0.016 A 
ATOM     12  C   UNL A   1      41.049  27.803  27.905  1.00  0.00     0.010 A 
ATOM     13  C   UNL A   1      39.279  26.709  29.140  1.00  0.00     0.010 A 
ATOM     14  C   UNL A   1      40.075  27.833  28.906  1.00  0.00    -0.014 A 
BRANCH  14  15
ATOM     15  C   UNL A   1      40.219  28.912  29.906  1.00  0.00     0.031 A 
ATOM     16  C   UNL A   1      39.161  29.985  29.903  1.00  0.00     0.074 A 
ATOM     17  C   UNL A   1      41.099  28.795  30.913  1.00  0.00     0.049 A 
ATOM     18  N   UNL A   1      38.927  30.926  30.778  1.00  0.00    -0.248 NA
ATOM     19  C   UNL A   1      38.218  29.978  28.771  1.00  0.00     0.031 C 
ATOM     20  C   UNL A   1      42.092  27.730  31.046  1.00  0.00     0.029 A 
ATOM     21  N   UNL A   1      41.258  29.549  32.046  1.00  0.00    -0.354 N 
ATOM     22  C   UNL A   1      37.824  31.619  30.292  1.00  0.00     0.074 A 
ATOM     23  C   UNL A   1      37.451  31.019  29.037  1.00  0.00     0.031 C 
ATOM     24  C   UNL A   1      42.734  27.880  32.217  1.00  0.00     0.029 A 
ATOM     25  C   UNL A   1      42.213  29.058  32.902  1.00  0.00     0.049 A 
ATOM     26  H   UNL A   1      40.738  30.365  32.228  1.00  0.00     0.167 HD
ATOM     27  C   UNL A   1      37.169  32.662  30.849  1.00  0.00     0.037 A 
ATOM     28  C   UNL A   1      42.606  29.514  34.106  1.00  0.00     0.037 A 
ATOM     29  C   UNL A   1      37.550  33.251  32.100  1.00  0.00     0.049 A 
ATOM     30  C   UNL A   1      41.911  30.726  34.671  1.00  0.00     0.074 A 
ATOM     31  C   UNL A   1      37.010  34.347  32.742  1.00  0.00     0.029 A 
ATOM     32  N   UNL A   1      38.585  32.779  32.896  1.00  0.00    -0.354 N 
ATOM     33  N   UNL A   1      40.887  31.393  34.191  1.00  0.00    -0.248 NA
ATOM     34  C   UNL A   1      42.424  31.250  35.942  1.00  0.00     0.031 C 
ATOM     35  C   UNL A   1      37.749  34.567  33.909  1.00  0.00     0.029 A 
ATOM     36  C   UNL A   1      38.712  33.574  34.019  1.00  0.00     0.049 A 
ATOM     37  H   UNL A   1      39.145  31.997  32.691  1.00  0.00     0.167 HD
ATOM     38  C   UNL A   1      40.617  32.397  35.112  1.00  0.00     0.074 A 
ATOM     39  C   UNL A   1      41.575  32.237  36.188  1.00  0.00     0.031 C 
ATOM     40  C   UNL A   1      39.669  33.367  35.077  1.00  0.00     0.037 A 
BRANCH  27  41
ATOM     41  C   UNL A   1      36.039  33.251  30.057  1.00  0.00     0.057 A 
ATOM     42  C   UNL A   1      36.252  34.109  28.969  1.00  0.00     0.134 A 
ATOM     43  C   UNL A   1      34.714  33.009  30.438  1.00  0.00     0.134 A 
ATOM     44  F   UNL A   1      37.500  34.412  28.576  1.00  0.00    -0.206 F 
ATOM     45  C   UNL A   1      35.190  34.734  28.313  1.00  0.00     0.040 A 
ATOM     46  C   UNL A   1      33.641  33.607  29.773  1.00  0.00     0.040 A 
ATOM     47  F   UNL A   1      34.439  32.207  31.476  1.00  0.00    -0.206 F 
ATOM     48  C   UNL A   1      33.879  34.482  28.715  1.00  0.00     0.006 A 
ENDBRANCH  27  41
BRANCH  28  49
ATOM     49  C   UNL A   1      43.700  28.838  34.852  1.00  0.00     0.057 A 
ATOM     50  C   UNL A   1      45.048  29.118  34.596  1.00  0.00     0.134 A 
ATOM     51  C   UNL A   1      43.424  27.866  35.823  1.00  0.00     0.134 A 
ATOM     52  F   UNL A   1      45.385  30.024  33.667  1.00  0.00    -0.206 F 
ATOM     53  C   UNL A   1      46.077  28.444  35.258  1.00  0.00     0.040 A 
ATOM     54  C   UNL A   1      44.443  27.205  36.514  1.00  0.00     0.040 A 
ATOM     55  F   UNL A   1      42.156  27.547  36.120  1.00  0.00    -0.206 F 
ATOM     56  C   UNL A   1      45.775  27.487  36.224  1.00  0.00     0.006 A 
ENDBRANCH  28  49
BRANCH  40  57
ATOM     57  C   UNL A   1      39.596  34.292  36.253  1.00  0.00     0.057 A 
ATOM     58  C   UNL A   1      38.904  33.951  37.421  1.00  0.00     0.134 A 
ATOM     59  C   UNL A   1      40.274  35.516  36.232  1.00  0.00     0.134 A 
ATOM     60  F   UNL A   1      38.227  32.795  37.500  1.00  0.00    -0.206 F 
ATOM     61  C   UNL A   1      38.868  34.809  38.520  1.00  0.00     0.040 A 
ATOM     62  C   UNL A   1      40.271  36.369  37.334  1.00  0.00     0.040 A 
ATOM     63  F   UNL A   1      40.968  35.892  35.147  1.00  0.00    -0.206 F 
ATOM     64  C   UNL A   1      39.560  36.019  38.481  1.00  0.00     0.006 A 
ENDBRANCH  40  57
ENDBRANCH  14  15
ENDBRANCH   7   9
ENDBRANCH   6   7
ENDBRANCH   5   6
ENDBRANCH   4   5
ENDBRANCH   3   4
ENDBRANCH   2   3
ENDBRANCH   1   2
BRANCH   1  65
ATOM     65  O   UNL A   1      34.774  21.545  26.763  1.00  0.00    -0.376 OA
BRANCH  65  66
ATOM     66  C   UNL A   1      34.184  22.520  27.613  1.00  0.00     0.202 C 
BRANCH  66  67
ATOM     67  C   UNL A   1      32.714  22.363  28.026  1.00  0.00     0.261 C 
BRANCH  67  68
ATOM     68  O   UNL A   1      31.844  23.465  27.704  1.00  0.00    -0.460 OA
BRANCH  68  69
ATOM     69  C   UNL A   1      30.894  23.198  26.769  1.00  0.00     0.342 C 
ATOM     70  O   UNL A   1      29.818  22.649  26.945  1.00  0.00    -0.246 OA
BRANCH  69  71
ATOM     71  C   UNL A   1      31.297  23.699  25.443  1.00  0.00     0.107 A 
ATOM     72  C   UNL A   1      30.996  25.027  25.078  1.00  0.00     0.042 A 
ATOM     73  C   UNL A   1      31.806  22.796  24.505  1.00  0.00     0.175 A 
ATOM     74  C   UNL A   1      31.279  25.462  23.776  1.00  0.00     0.092 A 
ATOM     75  C   UNL A   1      32.009  23.230  23.191  1.00  0.00     0.163 A 
ATOM     76  O   UNL A   1      32.011  21.495  24.892  1.00  0.00    -0.485 OA
ATOM     77  C   UNL A   1      31.788  24.559  22.836  1.00  0.00     0.072 A 
ATOM     78  O   UNL A   1      32.389  22.386  22.177  1.00  0.00    -0.486 OA
ATOM     79  C   UNL A   1      32.640  20.702  23.879  1.00  0.00     0.271 C 
ATOM     80  C   UNL A   1      32.067  21.032  22.513  1.00  0.00     0.271 C 
BRANCH  74  81
ATOM     81  S   UNL A   1      31.000  27.120  23.173  1.00  0.00     0.262 S 
ATOM     82  O   UNL A   1      30.935  27.033  21.729  1.00  0.00    -0.201 OA
ATOM     83  O   UNL A   1      29.892  27.643  23.942  1.00  0.00    -0.201 OA
BRANCH  81  84
ATOM     84  N   UNL A   1      32.304  28.057  23.603  1.00  0.00    -0.277 N 
ATOM     85  H   UNL A   1      32.962  28.248  22.896  1.00  0.00     0.180 HD
BRANCH  84  86
ATOM     86  C   UNL A   1      32.567  28.609  24.886  1.00  0.00     0.087 A 
ATOM     87  C   UNL A   1      32.040  29.814  25.326  1.00  0.00     0.069 A 
ATOM     88  C   UNL A   1      33.507  27.949  25.695  1.00  0.00     0.147 A 
ATOM     89  C   UNL A   1      32.518  30.354  26.511  1.00  0.00     0.125 A 
ATOM     90  C   UNL A   1      33.979  28.508  26.881  1.00  0.00     0.044 A 
ATOM     91  F   UNL A   1      34.005  26.768  25.298  1.00  0.00    -0.205 F 
ATOM     92  F   UNL A   1      32.080  31.546  26.891  1.00  0.00    -0.207 F 
ATOM     93  C   UNL A   1      33.492  29.740  27.282  1.00  0.00     0.042 A 
ENDBRANCH  84  86
ENDBRANCH  81  84
ENDBRANCH  74  81
ENDBRANCH  69  71
ENDBRANCH  68  69
ENDBRANCH  67  68
ENDBRANCH  66  67
ENDBRANCH  65  66
ENDBRANCH   1  65
TORSDOF 20
ENDMDL
