MODEL 1
REMARK VINA RESULT:     -11.2      0.000      0.000
REMARK SMILES COC(=O)c1sc(NC(=O)[C@H]2CC=CC[C@H]2C(=O)OCCOCCOCCOC(=O)c2ccc(-c3c4nc(c(-c5c(F)cccc5F)c5ccc([nH]5)c(-c5c(F)cccc5F)c5nc(c(-c6c(F)cccc6F)c6ccc3[nH]6)C=C5)C=C4)cc2)nc1C
REMARK SMILES IDX 23 1 22 2 21 3 20 4 19 5 17 6 18 7 16 8 11 9 12 10 13 11
REMARK SMILES IDX 15 12 14 13 9 14 8 15 10 17 7 18 5 19 6 20 86 21 85 22 87 23
REMARK SMILES IDX 3 24 4 25 2 26 1 27 24 28 25 29 26 30 27 31 28 32 29 33
REMARK SMILES IDX 30 34 31 35 32 36 84 37 33 38 83 39 34 40 35 41 36 42 77 43
REMARK SMILES IDX 37 44 82 45 76 46 78 47 38 48 81 49 75 50 74 51 39 53 65 54
REMARK SMILES IDX 48 55 64 56 49 57 52 58 63 59 79 60 50 61 51 62 62 64 80 65
REMARK SMILES IDX 53 66 40 67 41 68 46 69 42 70 43 71 45 72 47 73 44 74 66 75
REMARK SMILES IDX 67 76 72 77 68 78 69 79 71 80 73 81 70 82 54 83 55 84 60 85
REMARK SMILES IDX 56 86 57 87 59 88 61 89 58 90
REMARK H PARENT 8 16 78 52 52 63
REMARK Flexibility Score: inf
ROOT
ATOM      1  C   UNL A   1      41.146  21.415  26.570  1.00  0.00     0.188 C 
ENDROOT
BRANCH   1   2
ATOM      2  O   UNL A   1      39.839  20.879  26.392  1.00  0.00    -0.376 OA
BRANCH   2   3
ATOM      3  C   UNL A   1      38.871  21.741  25.790  1.00  0.00     0.202 C 
BRANCH   3   4
ATOM      4  C   UNL A   1      37.693  21.062  25.074  1.00  0.00     0.261 C 
BRANCH   4   5
ATOM      5  O   UNL A   1      36.769  21.972  24.428  1.00  0.00    -0.463 OA
BRANCH   5   6
ATOM      6  C   UNL A   1      35.632  22.219  25.126  1.00  0.00     0.310 C 
ATOM      7  O   UNL A   1      35.364  21.683  26.202  1.00  0.00    -0.252 OA
BRANCH   6   8
ATOM      8  C   UNL A   1      34.731  23.314  24.568  1.00  0.00     0.116 C 
ATOM      9  C   UNL A   1      33.228  23.058  24.292  1.00  0.00     0.097 C 
ATOM     10  C   UNL A   1      32.564  24.358  23.756  1.00  0.00     0.041 C 
ATOM     11  C   UNL A   1      33.036  25.637  24.378  1.00  0.00    -0.030 C 
ATOM     12  C   UNL A   1      34.997  24.551  25.446  1.00  0.00     0.043 C 
ATOM     13  C   UNL A   1      34.117  25.719  25.158  1.00  0.00    -0.030 C 
BRANCH   9  14
ATOM     14  C   UNL A   1      32.446  22.514  25.484  1.00  0.00     0.230 C 
ATOM     15  N   UNL A   1      32.147  21.185  25.600  1.00  0.00    -0.302 N 
ATOM     16  H   UNL A   1      31.653  20.931  26.412  1.00  0.00     0.172 HD
ATOM     17  O   UNL A   1      32.048  23.263  26.382  1.00  0.00    -0.274 OA
BRANCH  15  18
ATOM     18  C   UNL A   1      32.440  20.160  24.744  1.00  0.00     0.190 A 
ATOM     19  C   UNL A   1      33.192  17.974  24.010  1.00  0.00     0.137 A 
ATOM     20  S   UNL A   1      33.273  18.868  25.481  1.00  0.00    -0.089 S 
ATOM     21  C   UNL A   1      32.533  18.732  23.052  1.00  0.00     0.065 A 
ATOM     22  N   UNL A   1      32.140  20.003  23.481  1.00  0.00    -0.224 NA
ATOM     23  C   UNL A   1      32.162  18.334  21.665  1.00  0.00     0.069 C 
BRANCH  19  24
ATOM     24  C   UNL A   1      33.750  16.639  23.969  1.00  0.00     0.350 C 
ATOM     25  O   UNL A   1      34.210  16.084  22.979  1.00  0.00    -0.245 OA
BRANCH  24  26
ATOM     26  O   UNL A   1      33.685  16.059  25.203  1.00  0.00    -0.465 OA
ATOM     27  C   UNL A   1      32.632  15.105  25.369  1.00  0.00     0.282 C 
ENDBRANCH  24  26
ENDBRANCH  19  24
ENDBRANCH  15  18
ENDBRANCH   9  14
ENDBRANCH   6   8
ENDBRANCH   5   6
ENDBRANCH   4   5
ENDBRANCH   3   4
ENDBRANCH   2   3
ENDBRANCH   1   2
BRANCH   1  28
ATOM     28  C   UNL A   1      42.289  20.395  26.583  1.00  0.00     0.188 C 
BRANCH  28  29
ATOM     29  O   UNL A   1      43.005  20.271  25.362  1.00  0.00    -0.376 OA
BRANCH  29  30
ATOM     30  C   UNL A   1      44.243  20.978  25.267  1.00  0.00     0.202 C 
BRANCH  30  31
ATOM     31  C   UNL A   1      44.277  22.178  24.296  1.00  0.00     0.261 C 
BRANCH  31  32
ATOM     32  O   UNL A   1      43.622  23.374  24.767  1.00  0.00    -0.460 OA
BRANCH  32  33
ATOM     33  C   UNL A   1      44.412  24.415  25.132  1.00  0.00     0.338 C 
ATOM     34  O   UNL A   1      45.469  24.733  24.629  1.00  0.00    -0.246 OA
BRANCH  33  35
ATOM     35  C   UNL A   1      43.644  25.263  26.086  1.00  0.00     0.060 A 
ATOM     36  C   UNL A   1      43.903  26.641  26.100  1.00  0.00     0.016 A 
ATOM     37  C   UNL A   1      42.639  24.740  26.905  1.00  0.00     0.016 A 
ATOM     38  C   UNL A   1      43.207  27.487  26.970  1.00  0.00     0.010 A 
ATOM     39  C   UNL A   1      41.946  25.585  27.782  1.00  0.00     0.010 A 
ATOM     40  C   UNL A   1      42.254  26.955  27.849  1.00  0.00    -0.014 A 
BRANCH  40  41
ATOM     41  C   UNL A   1      41.741  27.781  28.973  1.00  0.00     0.031 A 
ATOM     42  C   UNL A   1      42.435  27.674  30.305  1.00  0.00     0.074 A 
ATOM     43  C   UNL A   1      40.695  28.615  28.837  1.00  0.00     0.049 A 
ATOM     44  N   UNL A   1      42.152  28.254  31.443  1.00  0.00    -0.248 NA
ATOM     45  C   UNL A   1      43.605  26.782  30.356  1.00  0.00     0.031 C 
ATOM     46  C   UNL A   1      39.943  28.841  27.606  1.00  0.00     0.029 A 
ATOM     47  N   UNL A   1      40.075  29.418  29.764  1.00  0.00    -0.354 N 
ATOM     48  C   UNL A   1      43.099  27.789  32.347  1.00  0.00     0.074 A 
ATOM     49  C   UNL A   1      43.945  26.858  31.633  1.00  0.00     0.031 C 
ATOM     50  C   UNL A   1      38.946  29.708  27.860  1.00  0.00     0.029 A 
ATOM     51  C   UNL A   1      38.973  30.077  29.276  1.00  0.00     0.049 A 
ATOM     52  H   UNL A   1      40.392  29.513  30.692  1.00  0.00     0.167 HD
ATOM     53  C   UNL A   1      43.258  28.110  33.652  1.00  0.00     0.037 A 
ATOM     54  C   UNL A   1      38.075  30.864  29.903  1.00  0.00     0.037 A 
ATOM     55  C   UNL A   1      42.421  29.032  34.372  1.00  0.00     0.049 A 
ATOM     56  C   UNL A   1      38.235  31.165  31.371  1.00  0.00     0.074 A 
ATOM     57  C   UNL A   1      42.533  29.450  35.687  1.00  0.00     0.029 A 
ATOM     58  N   UNL A   1      41.306  29.664  33.846  1.00  0.00    -0.354 N 
ATOM     59  N   UNL A   1      39.162  30.761  32.206  1.00  0.00    -0.248 NA
ATOM     60  C   UNL A   1      37.221  32.039  31.986  1.00  0.00     0.031 C 
ATOM     61  C   UNL A   1      41.451  30.290  35.972  1.00  0.00     0.029 A 
ATOM     62  C   UNL A   1      40.699  30.441  34.819  1.00  0.00     0.049 A 
ATOM     63  H   UNL A   1      40.992  29.575  32.917  1.00  0.00     0.167 HD
ATOM     64  C   UNL A   1      38.858  31.346  33.431  1.00  0.00     0.074 A 
ATOM     65  C   UNL A   1      37.668  32.144  33.230  1.00  0.00     0.031 C 
ATOM     66  C   UNL A   1      39.511  31.232  34.615  1.00  0.00     0.037 A 
BRANCH  53  67
ATOM     67  C   UNL A   1      44.363  27.417  34.395  1.00  0.00     0.057 A 
ATOM     68  C   UNL A   1      44.184  26.164  34.999  1.00  0.00     0.134 A 
ATOM     69  C   UNL A   1      45.625  28.014  34.505  1.00  0.00     0.134 A 
ATOM     70  F   UNL A   1      42.994  25.548  34.946  1.00  0.00    -0.206 F 
ATOM     71  C   UNL A   1      45.212  25.548  35.715  1.00  0.00     0.040 A 
ATOM     72  C   UNL A   1      46.668  27.394  35.194  1.00  0.00     0.040 A 
ATOM     73  F   UNL A   1      45.863  29.211  33.949  1.00  0.00    -0.206 F 
ATOM     74  C   UNL A   1      46.459  26.161  35.809  1.00  0.00     0.006 A 
ENDBRANCH  53  67
BRANCH  54  75
ATOM     75  C   UNL A   1      36.918  31.408  29.147  1.00  0.00     0.057 A 
ATOM     76  C   UNL A   1      35.813  30.611  28.829  1.00  0.00     0.134 A 
ATOM     77  C   UNL A   1      36.900  32.739  28.714  1.00  0.00     0.134 A 
ATOM     78  F   UNL A   1      35.784  29.320  29.188  1.00  0.00    -0.206 F 
ATOM     79  C   UNL A   1      34.734  31.116  28.100  1.00  0.00     0.040 A 
ATOM     80  C   UNL A   1      35.818  33.264  28.005  1.00  0.00     0.040 A 
ATOM     81  F   UNL A   1      37.933  33.552  28.981  1.00  0.00    -0.206 F 
ATOM     82  C   UNL A   1      34.732  32.449  27.693  1.00  0.00     0.006 A 
ENDBRANCH  54  75
BRANCH  66  83
ATOM     83  C   UNL A   1      38.974  32.007  35.785  1.00  0.00     0.057 A 
ATOM     84  C   UNL A   1      38.157  31.415  36.756  1.00  0.00     0.134 A 
ATOM     85  C   UNL A   1      39.323  33.353  35.970  1.00  0.00     0.134 A 
ATOM     86  F   UNL A   1      37.779  30.134  36.637  1.00  0.00    -0.206 F 
ATOM     87  C   UNL A   1      37.689  32.138  37.857  1.00  0.00     0.040 A 
ATOM     88  C   UNL A   1      38.882  34.078  37.079  1.00  0.00     0.040 A 
ATOM     89  F   UNL A   1      40.112  33.980  35.084  1.00  0.00    -0.206 F 
ATOM     90  C   UNL A   1      38.058  33.471  38.024  1.00  0.00     0.006 A 
ENDBRANCH  66  83
ENDBRANCH  40  41
ENDBRANCH  33  35
ENDBRANCH  32  33
ENDBRANCH  31  32
ENDBRANCH  30  31
ENDBRANCH  29  30
ENDBRANCH  28  29
ENDBRANCH   1  28
TORSDOF 21
ENDMDL
MODEL 2
REMARK VINA RESULT:     -10.7      1.953      3.954
REMARK SMILES COC(=O)c1sc(NC(=O)[C@H]2CC=CC[C@H]2C(=O)OCCOCCOCCOC(=O)c2ccc(-c3c4nc(c(-c5c(F)cccc5F)c5ccc([nH]5)c(-c5c(F)cccc5F)c5nc(c(-c6c(F)cccc6F)c6ccc3[nH]6)C=C5)C=C4)cc2)nc1C
REMARK SMILES IDX 23 1 22 2 21 3 20 4 19 5 17 6 18 7 16 8 11 9 12 10 13 11
REMARK SMILES IDX 15 12 14 13 9 14 8 15 10 17 7 18 5 19 6 20 86 21 85 22 87 23
REMARK SMILES IDX 3 24 4 25 2 26 1 27 24 28 25 29 26 30 27 31 28 32 29 33
REMARK SMILES IDX 30 34 31 35 32 36 84 37 33 38 83 39 34 40 35 41 36 42 77 43
REMARK SMILES IDX 37 44 82 45 76 46 78 47 38 48 81 49 75 50 74 51 39 53 65 54
REMARK SMILES IDX 48 55 64 56 49 57 52 58 63 59 79 60 50 61 51 62 62 64 80 65
REMARK SMILES IDX 53 66 40 67 41 68 46 69 42 70 43 71 45 72 47 73 44 74 66 75
REMARK SMILES IDX 67 76 72 77 68 78 69 79 71 80 73 81 70 82 54 83 55 84 60 85
REMARK SMILES IDX 56 86 57 87 59 88 61 89 58 90
REMARK H PARENT 8 16 78 52 52 63
REMARK Flexibility Score: inf
ROOT
ATOM      1  C   UNL A   1      39.891  20.890  25.867  1.00  0.00     0.188 C 
ENDROOT
BRANCH   1   2
ATOM      2  O   UNL A   1      38.562  21.383  25.727  1.00  0.00    -0.376 OA
BRANCH   2   3
ATOM      3  C   UNL A   1      38.306  22.689  26.246  1.00  0.00     0.202 C 
BRANCH   3   4
ATOM      4  C   UNL A   1      37.669  23.702  25.280  1.00  0.00     0.261 C 
BRANCH   4   5
ATOM      5  O   UNL A   1      36.449  23.250  24.644  1.00  0.00    -0.463 OA
BRANCH   5   6
ATOM      6  C   UNL A   1      35.307  23.724  25.201  1.00  0.00     0.310 C 
ATOM      7  O   UNL A   1      35.133  24.906  25.496  1.00  0.00    -0.252 OA
BRANCH   6   8
ATOM      8  C   UNL A   1      34.165  22.723  25.338  1.00  0.00     0.116 C 
ATOM      9  C   UNL A   1      32.812  22.940  24.617  1.00  0.00     0.097 C 
ATOM     10  C   UNL A   1      31.859  21.749  24.919  1.00  0.00     0.041 C 
ATOM     11  C   UNL A   1      32.502  20.397  24.981  1.00  0.00    -0.030 C 
ATOM     12  C   UNL A   1      34.796  21.343  25.071  1.00  0.00     0.043 C 
ATOM     13  C   UNL A   1      33.824  20.214  25.025  1.00  0.00    -0.030 C 
BRANCH   9  14
ATOM     14  C   UNL A   1      32.923  23.163  23.111  1.00  0.00     0.230 C 
ATOM     15  N   UNL A   1      32.301  24.213  22.494  1.00  0.00    -0.302 N 
ATOM     16  H   UNL A   1      32.446  24.280  21.522  1.00  0.00     0.172 HD
ATOM     17  O   UNL A   1      33.573  22.392  22.398  1.00  0.00    -0.274 OA
BRANCH  15  18
ATOM     18  C   UNL A   1      31.508  25.184  23.039  1.00  0.00     0.190 A 
ATOM     19  C   UNL A   1      30.864  27.360  23.893  1.00  0.00     0.137 A 
ATOM     20  S   UNL A   1      32.348  26.609  23.445  1.00  0.00    -0.089 S 
ATOM     21  C   UNL A   1      29.823  26.461  23.703  1.00  0.00     0.065 A 
ATOM     22  N   UNL A   1      30.216  25.201  23.246  1.00  0.00    -0.224 NA
ATOM     23  C   UNL A   1      28.363  26.699  23.879  1.00  0.00     0.069 C 
BRANCH  19  24
ATOM     24  C   UNL A   1      30.882  28.735  24.346  1.00  0.00     0.350 C 
ATOM     25  O   UNL A   1      30.345  29.682  23.784  1.00  0.00    -0.245 OA
BRANCH  24  26
ATOM     26  O   UNL A   1      31.600  28.845  25.501  1.00  0.00    -0.465 OA
ATOM     27  C   UNL A   1      32.719  29.734  25.435  1.00  0.00     0.282 C 
ENDBRANCH  24  26
ENDBRANCH  19  24
ENDBRANCH  15  18
ENDBRANCH   9  14
ENDBRANCH   6   8
ENDBRANCH   5   6
ENDBRANCH   4   5
ENDBRANCH   3   4
ENDBRANCH   2   3
ENDBRANCH   1   2
BRANCH   1  28
ATOM     28  C   UNL A   1      40.553  21.132  27.226  1.00  0.00     0.188 C 
BRANCH  28  29
ATOM     29  O   UNL A   1      41.968  21.017  27.240  1.00  0.00    -0.376 OA
BRANCH  29  30
ATOM     30  C   UNL A   1      42.587  20.518  26.053  1.00  0.00     0.202 C 
BRANCH  30  31
ATOM     31  C   UNL A   1      43.623  21.441  25.376  1.00  0.00     0.261 C 
BRANCH  31  32
ATOM     32  O   UNL A   1      43.102  22.684  24.863  1.00  0.00    -0.460 OA
BRANCH  32  33
ATOM     33  C   UNL A   1      43.889  23.784  24.976  1.00  0.00     0.338 C 
ATOM     34  O   UNL A   1      44.845  24.064  24.285  1.00  0.00    -0.246 OA
BRANCH  33  35
ATOM     35  C   UNL A   1      43.232  24.725  25.927  1.00  0.00     0.060 A 
ATOM     36  C   UNL A   1      43.705  26.044  25.982  1.00  0.00     0.016 A 
ATOM     37  C   UNL A   1      42.129  24.351  26.701  1.00  0.00     0.016 A 
ATOM     38  C   UNL A   1      43.121  26.972  26.850  1.00  0.00     0.010 A 
ATOM     39  C   UNL A   1      41.548  25.279  27.576  1.00  0.00     0.010 A 
ATOM     40  C   UNL A   1      42.067  26.582  27.686  1.00  0.00    -0.014 A 
BRANCH  40  41
ATOM     41  C   UNL A   1      41.652  27.456  28.813  1.00  0.00     0.031 A 
ATOM     42  C   UNL A   1      42.401  27.340  30.114  1.00  0.00     0.074 A 
ATOM     43  C   UNL A   1      40.645  28.343  28.706  1.00  0.00     0.049 A 
ATOM     44  N   UNL A   1      42.203  27.957  31.250  1.00  0.00    -0.248 NA
ATOM     45  C   UNL A   1      43.524  26.388  30.131  1.00  0.00     0.031 C 
ATOM     46  C   UNL A   1      39.849  28.583  27.507  1.00  0.00     0.029 A 
ATOM     47  N   UNL A   1      40.113  29.197  29.643  1.00  0.00    -0.354 N 
ATOM     48  C   UNL A   1      43.166  27.461  32.120  1.00  0.00     0.074 A 
ATOM     49  C   UNL A   1      43.928  26.471  31.389  1.00  0.00     0.031 C 
ATOM     50  C   UNL A   1      38.912  29.507  27.787  1.00  0.00     0.029 A 
ATOM     51  C   UNL A   1      39.025  29.903  29.191  1.00  0.00     0.049 A 
ATOM     52  H   UNL A   1      40.478  29.293  30.552  1.00  0.00     0.167 HD
ATOM     53  C   UNL A   1      43.404  27.799  33.408  1.00  0.00     0.037 A 
ATOM     54  C   UNL A   1      38.201  30.749  29.841  1.00  0.00     0.037 A 
ATOM     55  C   UNL A   1      42.651  28.780  34.145  1.00  0.00     0.049 A 
ATOM     56  C   UNL A   1      38.445  31.072  31.293  1.00  0.00     0.074 A 
ATOM     57  C   UNL A   1      42.848  29.218  35.443  1.00  0.00     0.029 A 
ATOM     58  N   UNL A   1      41.547  29.460  33.656  1.00  0.00    -0.354 N 
ATOM     59  N   UNL A   1      39.389  30.636  32.093  1.00  0.00    -0.248 NA
ATOM     60  C   UNL A   1      37.510  32.011  31.933  1.00  0.00     0.031 C 
ATOM     61  C   UNL A   1      41.826  30.121  35.759  1.00  0.00     0.029 A 
ATOM     62  C   UNL A   1      41.030  30.288  34.638  1.00  0.00     0.049 A 
ATOM     63  H   UNL A   1      41.186  29.369  32.745  1.00  0.00     0.167 HD
ATOM     64  C   UNL A   1      39.175  31.261  33.317  1.00  0.00     0.074 A 
ATOM     65  C   UNL A   1      38.020  32.118  33.152  1.00  0.00     0.031 C 
ATOM     66  C   UNL A   1      39.876  31.137  34.471  1.00  0.00     0.037 A 
BRANCH  53  67
ATOM     67  C   UNL A   1      44.505  27.064  34.115  1.00  0.00     0.057 A 
ATOM     68  C   UNL A   1      44.283  25.850  34.780  1.00  0.00     0.134 A 
ATOM     69  C   UNL A   1      45.807  27.580  34.128  1.00  0.00     0.134 A 
ATOM     70  F   UNL A   1      43.055  25.312  34.821  1.00  0.00    -0.206 F 
ATOM     71  C   UNL A   1      45.311  25.195  35.462  1.00  0.00     0.040 A 
ATOM     72  C   UNL A   1      46.848  26.919  34.781  1.00  0.00     0.040 A 
ATOM     73  F   UNL A   1      46.087  28.737  33.509  1.00  0.00    -0.206 F 
ATOM     74  C   UNL A   1      46.598  25.727  35.458  1.00  0.00     0.006 A 
ENDBRANCH  53  67
BRANCH  54  75
ATOM     75  C   UNL A   1      37.039  31.339  29.127  1.00  0.00     0.057 A 
ATOM     76  C   UNL A   1      37.060  32.657  28.660  1.00  0.00     0.134 A 
ATOM     77  C   UNL A   1      35.873  30.595  28.907  1.00  0.00     0.134 A 
ATOM     78  F   UNL A   1      38.135  33.431  28.868  1.00  0.00    -0.206 F 
ATOM     79  C   UNL A   1      35.961  33.219  28.008  1.00  0.00     0.040 A 
ATOM     80  C   UNL A   1      34.776  31.136  28.235  1.00  0.00     0.040 A 
ATOM     81  F   UNL A   1      35.788  29.328  29.337  1.00  0.00    -0.206 F 
ATOM     82  C   UNL A   1      34.817  32.454  27.786  1.00  0.00     0.006 A 
ENDBRANCH  54  75
BRANCH  66  83
ATOM     83  C   UNL A   1      39.437  31.964  35.647  1.00  0.00     0.057 A 
ATOM     84  C   UNL A   1      38.431  31.535  36.522  1.00  0.00     0.134 A 
ATOM     85  C   UNL A   1      40.067  33.183  35.937  1.00  0.00     0.134 A 
ATOM     86  F   UNL A   1      37.782  30.383  36.299  1.00  0.00    -0.206 F 
ATOM     87  C   UNL A   1      38.052  32.299  37.630  1.00  0.00     0.040 A 
ATOM     88  C   UNL A   1      39.714  33.941  37.056  1.00  0.00     0.040 A 
ATOM     89  F   UNL A   1      41.046  33.648  35.148  1.00  0.00    -0.206 F 
ATOM     90  C   UNL A   1      38.700  33.501  37.903  1.00  0.00     0.006 A 
ENDBRANCH  66  83
ENDBRANCH  40  41
ENDBRANCH  33  35
ENDBRANCH  32  33
ENDBRANCH  31  32
ENDBRANCH  30  31
ENDBRANCH  29  30
ENDBRANCH  28  29
ENDBRANCH   1  28
TORSDOF 21
ENDMDL
MODEL 3
REMARK VINA RESULT:     -10.6      4.467      9.568
REMARK SMILES COC(=O)c1sc(NC(=O)[C@H]2CC=CC[C@H]2C(=O)OCCOCCOCCOC(=O)c2ccc(-c3c4nc(c(-c5c(F)cccc5F)c5ccc([nH]5)c(-c5c(F)cccc5F)c5nc(c(-c6c(F)cccc6F)c6ccc3[nH]6)C=C5)C=C4)cc2)nc1C
REMARK SMILES IDX 23 1 22 2 21 3 20 4 19 5 17 6 18 7 16 8 11 9 12 10 13 11
REMARK SMILES IDX 15 12 14 13 9 14 8 15 10 17 7 18 5 19 6 20 86 21 85 22 87 23
REMARK SMILES IDX 3 24 4 25 2 26 1 27 24 28 25 29 26 30 27 31 28 32 29 33
REMARK SMILES IDX 30 34 31 35 32 36 84 37 33 38 83 39 34 40 35 41 36 42 77 43
REMARK SMILES IDX 37 44 82 45 76 46 78 47 38 48 81 49 75 50 74 51 39 53 65 54
REMARK SMILES IDX 48 55 64 56 49 57 52 58 63 59 79 60 50 61 51 62 62 64 80 65
REMARK SMILES IDX 53 66 40 67 41 68 46 69 42 70 43 71 45 72 47 73 44 74 66 75
REMARK SMILES IDX 67 76 72 77 68 78 69 79 71 80 73 81 70 82 54 83 55 84 60 85
REMARK SMILES IDX 56 86 57 87 59 88 61 89 58 90
REMARK H PARENT 8 16 78 52 52 63
REMARK Flexibility Score: inf
ROOT
ATOM      1  C   UNL A   1      34.894  31.619  28.129  1.00  0.00     0.188 C 
ENDROOT
BRANCH   1   2
ATOM      2  O   UNL A   1      33.876  30.763  27.621  1.00  0.00    -0.376 OA
BRANCH   2   3
ATOM      3  C   UNL A   1      34.272  29.437  27.268  1.00  0.00     0.202 C 
BRANCH   3   4
ATOM      4  C   UNL A   1      33.822  28.925  25.890  1.00  0.00     0.261 C 
BRANCH   4   5
ATOM      5  O   UNL A   1      34.075  27.519  25.652  1.00  0.00    -0.463 OA
BRANCH   5   6
ATOM      6  C   UNL A   1      32.964  26.744  25.584  1.00  0.00     0.310 C 
ATOM      7  O   UNL A   1      31.851  27.116  25.954  1.00  0.00    -0.252 OA
BRANCH   6   8
ATOM      8  C   UNL A   1      33.132  25.395  24.893  1.00  0.00     0.116 C 
ATOM      9  C   UNL A   1      32.557  25.136  23.479  1.00  0.00     0.097 C 
ATOM     10  C   UNL A   1      32.906  23.690  23.027  1.00  0.00     0.041 C 
ATOM     11  C   UNL A   1      34.265  23.193  23.419  1.00  0.00    -0.030 C 
ATOM     12  C   UNL A   1      34.628  25.051  25.026  1.00  0.00     0.043 C 
ATOM     13  C   UNL A   1      35.049  23.819  24.300  1.00  0.00    -0.030 C 
BRANCH   9  14
ATOM     14  C   UNL A   1      32.993  26.144  22.420  1.00  0.00     0.230 C 
ATOM     15  N   UNL A   1      32.222  27.228  22.101  1.00  0.00    -0.302 N 
ATOM     16  H   UNL A   1      32.598  27.828  21.417  1.00  0.00     0.172 HD
ATOM     17  O   UNL A   1      34.057  26.007  21.808  1.00  0.00    -0.274 OA
BRANCH  15  18
ATOM     18  C   UNL A   1      31.004  27.595  22.602  1.00  0.00     0.190 A 
ATOM     19  C   UNL A   1      29.100  29.011  23.101  1.00  0.00     0.137 A 
ATOM     20  S   UNL A   1      30.687  29.265  22.479  1.00  0.00    -0.089 S 
ATOM     21  C   UNL A   1      28.925  27.659  23.364  1.00  0.00     0.065 A 
ATOM     22  N   UNL A   1      30.044  26.864  23.106  1.00  0.00    -0.224 NA
ATOM     23  C   UNL A   1      27.690  26.969  23.833  1.00  0.00     0.069 C 
BRANCH  19  24
ATOM     24  C   UNL A   1      28.209  30.144  23.233  1.00  0.00     0.350 C 
ATOM     25  O   UNL A   1      27.005  30.140  23.002  1.00  0.00    -0.245 OA
BRANCH  24  26
ATOM     26  O   UNL A   1      28.899  31.246  23.645  1.00  0.00    -0.465 OA
ATOM     27  C   UNL A   1      28.679  32.425  22.865  1.00  0.00     0.282 C 
ENDBRANCH  24  26
ENDBRANCH  19  24
ENDBRANCH  15  18
ENDBRANCH   9  14
ENDBRANCH   6   8
ENDBRANCH   5   6
ENDBRANCH   4   5
ENDBRANCH   3   4
ENDBRANCH   2   3
ENDBRANCH   1   2
BRANCH   1  28
ATOM     28  C   UNL A   1      34.486  32.518  29.300  1.00  0.00     0.188 C 
BRANCH  28  29
ATOM     29  O   UNL A   1      34.711  33.907  29.105  1.00  0.00    -0.376 OA
BRANCH  29  30
ATOM     30  C   UNL A   1      33.620  34.671  28.588  1.00  0.00     0.202 C 
BRANCH  30  31
ATOM     31  C   UNL A   1      32.973  35.688  29.553  1.00  0.00     0.261 C 
BRANCH  31  32
ATOM     32  O   UNL A   1      32.398  35.126  30.750  1.00  0.00    -0.460 OA
BRANCH  32  33
ATOM     33  C   UNL A   1      32.746  35.692  31.934  1.00  0.00     0.338 C 
ATOM     34  O   UNL A   1      32.106  36.509  32.561  1.00  0.00    -0.246 OA
BRANCH  33  35
ATOM     35  C   UNL A   1      33.924  34.953  32.469  1.00  0.00     0.060 A 
ATOM     36  C   UNL A   1      35.186  35.553  32.355  1.00  0.00     0.016 A 
ATOM     37  C   UNL A   1      33.796  33.730  33.134  1.00  0.00     0.016 A 
ATOM     38  C   UNL A   1      36.326  34.909  32.846  1.00  0.00     0.010 A 
ATOM     39  C   UNL A   1      34.939  33.080  33.620  1.00  0.00     0.010 A 
ATOM     40  C   UNL A   1      36.214  33.647  33.443  1.00  0.00    -0.014 A 
BRANCH  40  41
ATOM     41  C   UNL A   1      37.432  32.830  33.684  1.00  0.00     0.031 A 
ATOM     42  C   UNL A   1      38.228  33.095  34.935  1.00  0.00     0.074 A 
ATOM     43  C   UNL A   1      37.836  31.869  32.834  1.00  0.00     0.049 A 
ATOM     44  N   UNL A   1      39.344  32.551  35.346  1.00  0.00    -0.248 NA
ATOM     45  C   UNL A   1      37.688  34.124  35.839  1.00  0.00     0.031 C 
ATOM     46  C   UNL A   1      37.156  31.484  31.601  1.00  0.00     0.029 A 
ATOM     47  N   UNL A   1      38.940  31.050  32.881  1.00  0.00    -0.354 N 
ATOM     48  C   UNL A   1      39.647  33.177  36.548  1.00  0.00     0.074 A 
ATOM     49  C   UNL A   1      38.614  34.162  36.784  1.00  0.00     0.031 C 
ATOM     50  C   UNL A   1      37.870  30.519  30.995  1.00  0.00     0.029 A 
ATOM     51  C   UNL A   1      39.071  30.236  31.783  1.00  0.00     0.049 A 
ATOM     52  H   UNL A   1      39.575  31.047  33.633  1.00  0.00     0.167 HD
ATOM     53  C   UNL A   1      40.685  32.952  37.386  1.00  0.00     0.037 A 
ATOM     54  C   UNL A   1      40.057  29.383  31.439  1.00  0.00     0.037 A 
ATOM     55  C   UNL A   1      41.719  31.978  37.159  1.00  0.00     0.049 A 
ATOM     56  C   UNL A   1      41.236  29.186  32.358  1.00  0.00     0.074 A 
ATOM     57  C   UNL A   1      42.788  31.651  37.975  1.00  0.00     0.029 A 
ATOM     58  N   UNL A   1      41.824  31.186  36.027  1.00  0.00    -0.354 N 
ATOM     59  N   UNL A   1      41.488  29.747  33.516  1.00  0.00    -0.248 NA
ATOM     60  C   UNL A   1      42.269  28.233  31.920  1.00  0.00     0.031 C 
ATOM     61  C   UNL A   1      43.573  30.704  37.309  1.00  0.00     0.029 A 
ATOM     62  C   UNL A   1      42.960  30.398  36.105  1.00  0.00     0.049 A 
ATOM     63  H   UNL A   1      41.185  31.184  35.278  1.00  0.00     0.167 HD
ATOM     64  C   UNL A   1      42.690  29.200  33.955  1.00  0.00     0.074 A 
ATOM     65  C   UNL A   1      43.111  28.253  32.944  1.00  0.00     0.031 C 
ATOM     66  C   UNL A   1      43.378  29.458  35.094  1.00  0.00     0.037 A 
BRANCH  53  67
ATOM     67  C   UNL A   1      40.772  33.815  38.612  1.00  0.00     0.057 A 
ATOM     68  C   UNL A   1      40.077  33.507  39.790  1.00  0.00     0.134 A 
ATOM     69  C   UNL A   1      41.565  34.969  38.611  1.00  0.00     0.134 A 
ATOM     70  F   UNL A   1      39.285  32.425  39.850  1.00  0.00    -0.206 F 
ATOM     71  C   UNL A   1      40.140  34.337  40.910  1.00  0.00     0.040 A 
ATOM     72  C   UNL A   1      41.658  35.791  39.735  1.00  0.00     0.040 A 
ATOM     73  F   UNL A   1      42.257  35.320  37.517  1.00  0.00    -0.206 F 
ATOM     74  C   UNL A   1      40.937  35.479  40.886  1.00  0.00     0.006 A 
ENDBRANCH  53  67
BRANCH  54  75
ATOM     75  C   UNL A   1      39.987  28.661  30.143  1.00  0.00     0.057 A 
ATOM     76  C   UNL A   1      40.596  29.168  28.990  1.00  0.00     0.134 A 
ATOM     77  C   UNL A   1      39.295  27.449  30.027  1.00  0.00     0.134 A 
ATOM     78  F   UNL A   1      41.247  30.340  29.028  1.00  0.00    -0.206 F 
ATOM     79  C   UNL A   1      40.513  28.501  27.766  1.00  0.00     0.040 A 
ATOM     80  C   UNL A   1      39.225  26.759  28.816  1.00  0.00     0.040 A 
ATOM     81  F   UNL A   1      38.684  26.915  31.095  1.00  0.00    -0.206 F 
ATOM     82  C   UNL A   1      39.832  27.288  27.679  1.00  0.00     0.006 A 
ENDBRANCH  54  75
BRANCH  66  83
ATOM     83  C   UNL A   1      44.649  28.691  35.331  1.00  0.00     0.057 A 
ATOM     84  C   UNL A   1      45.910  29.251  35.093  1.00  0.00     0.134 A 
ATOM     85  C   UNL A   1      44.610  27.391  35.855  1.00  0.00     0.134 A 
ATOM     86  F   UNL A   1      46.020  30.488  34.586  1.00  0.00    -0.206 F 
ATOM     87  C   UNL A   1      47.086  28.539  35.347  1.00  0.00     0.040 A 
ATOM     88  C   UNL A   1      45.778  26.680  36.136  1.00  0.00     0.040 A 
ATOM     89  F   UNL A   1      43.436  26.797  36.117  1.00  0.00    -0.206 F 
ATOM     90  C   UNL A   1      47.021  27.253  35.877  1.00  0.00     0.006 A 
ENDBRANCH  66  83
ENDBRANCH  40  41
ENDBRANCH  33  35
ENDBRANCH  32  33
ENDBRANCH  31  32
ENDBRANCH  30  31
ENDBRANCH  29  30
ENDBRANCH  28  29
ENDBRANCH   1  28
TORSDOF 21
ENDMDL
