MODEL 1
REMARK VINA RESULT:      -9.6      0.000      0.000
REMARK SMILES C[C@@H](C(=O)OCCOCCOCCOC(=O)c1ccc(-c2c3nc(c(-c4c(F)cccc4F)c4ccc([nH]4)c(-c4c(F)cccc4F)c4nc(c(-c5c(F)cccc5F)c5ccc2[nH]5)C=C4)C=C3)cc1)c1cccn(C(F)F)c1=O
REMARK SMILES IDX 9 1 8 2 7 3 6 4 5 5 3 6 4 7 2 8 1 9 71 10 72 11 79 12 73 13
REMARK SMILES IDX 75 14 80 15 74 16 76 17 77 18 78 19 10 20 11 21 12 22 13 23
REMARK SMILES IDX 14 24 15 25 16 26 17 27 18 28 70 29 19 30 69 31 20 32 21 33
REMARK SMILES IDX 22 34 63 35 23 36 68 37 62 38 64 39 24 40 67 41 61 42 60 43
REMARK SMILES IDX 25 45 51 46 34 47 50 48 35 49 38 50 49 51 65 52 36 53 37 54
REMARK SMILES IDX 48 56 66 57 39 58 26 59 27 60 32 61 28 62 29 63 31 64 33 65
REMARK SMILES IDX 30 66 52 67 53 68 58 69 54 70 55 71 57 72 59 73 56 74 40 75
REMARK SMILES IDX 41 76 46 77 42 78 43 79 45 80 47 81 44 82
REMARK H PARENT 64 44 38 55
REMARK Flexibility Score: inf
ROOT
ATOM      1  C   UNL A   1      33.563  28.377  24.159  1.00  0.00     0.188 C 
ENDROOT
BRANCH   1   2
ATOM      2  O   UNL A   1      34.012  27.210  23.481  1.00  0.00    -0.376 OA
BRANCH   2   3
ATOM      3  C   UNL A   1      33.618  27.020  22.122  1.00  0.00     0.202 C 
BRANCH   3   4
ATOM      4  C   UNL A   1      32.802  25.765  21.750  1.00  0.00     0.261 C 
BRANCH   4   5
ATOM      5  O   UNL A   1      31.370  25.942  21.803  1.00  0.00    -0.463 OA
BRANCH   5   6
ATOM      6  C   UNL A   1      30.733  25.569  22.946  1.00  0.00     0.313 C 
ATOM      7  O   UNL A   1      30.449  24.406  23.219  1.00  0.00    -0.252 OA
BRANCH   6   8
ATOM      8  C   UNL A   1      30.507  26.734  23.942  1.00  0.00     0.132 C 
ATOM      9  C   UNL A   1      30.521  26.257  25.407  1.00  0.00     0.025 C 
BRANCH   8  10
ATOM     10  C   UNL A   1      29.360  27.664  23.513  1.00  0.00     0.032 A 
ATOM     11  C   UNL A   1      28.059  27.443  23.799  1.00  0.00     0.012 A 
ATOM     12  C   UNL A   1      29.661  28.857  22.626  1.00  0.00     0.259 A 
ATOM     13  C   UNL A   1      26.996  28.287  23.322  1.00  0.00     0.019 A 
ATOM     14  N   UNL A   1      28.581  29.618  22.200  1.00  0.00    -0.258 N 
ATOM     15  O   UNL A   1      30.815  29.124  22.305  1.00  0.00    -0.269 OA
ATOM     16  C   UNL A   1      27.276  29.330  22.540  1.00  0.00     0.095 A 
BRANCH  14  17
ATOM     17  C   UNL A   1      28.836  30.731  21.315  1.00  0.00     0.451 C 
ATOM     18  F   UNL A   1      27.751  30.936  20.522  1.00  0.00    -0.185 F 
ATOM     19  F   UNL A   1      28.991  31.867  22.048  1.00  0.00    -0.185 F 
ENDBRANCH  14  17
ENDBRANCH   8  10
ENDBRANCH   6   8
ENDBRANCH   5   6
ENDBRANCH   4   5
ENDBRANCH   3   4
ENDBRANCH   2   3
ENDBRANCH   1   2
BRANCH   1  20
ATOM     20  C   UNL A   1      33.661  28.432  25.693  1.00  0.00     0.188 C 
BRANCH  20  21
ATOM     21  O   UNL A   1      32.540  29.002  26.323  1.00  0.00    -0.376 OA
BRANCH  21  22
ATOM     22  C   UNL A   1      31.750  29.924  25.596  1.00  0.00     0.202 C 
BRANCH  22  23
ATOM     23  C   UNL A   1      31.564  31.366  26.106  1.00  0.00     0.261 C 
BRANCH  23  24
ATOM     24  O   UNL A   1      32.071  31.673  27.416  1.00  0.00    -0.460 OA
BRANCH  24  25
ATOM     25  C   UNL A   1      32.856  32.767  27.539  1.00  0.00     0.338 C 
ATOM     26  O   UNL A   1      32.511  33.937  27.425  1.00  0.00    -0.246 OA
BRANCH  25  27
ATOM     27  C   UNL A   1      34.161  32.324  28.077  1.00  0.00     0.060 A 
ATOM     28  C   UNL A   1      34.348  30.968  28.386  1.00  0.00     0.016 A 
ATOM     29  C   UNL A   1      35.204  33.236  28.257  1.00  0.00     0.016 A 
ATOM     30  C   UNL A   1      35.573  30.526  28.890  1.00  0.00     0.010 A 
ATOM     31  C   UNL A   1      36.421  32.794  28.787  1.00  0.00     0.010 A 
ATOM     32  C   UNL A   1      36.604  31.442  29.130  1.00  0.00    -0.014 A 
BRANCH  32  33
ATOM     33  C   UNL A   1      37.795  31.029  29.915  1.00  0.00     0.031 A 
ATOM     34  C   UNL A   1      38.793  30.109  29.268  1.00  0.00     0.074 A 
ATOM     35  C   UNL A   1      37.998  31.461  31.173  1.00  0.00     0.049 A 
ATOM     36  N   UNL A   1      39.856  29.541  29.776  1.00  0.00    -0.248 NA
ATOM     37  C   UNL A   1      38.549  29.779  27.855  1.00  0.00     0.031 C 
ATOM     38  C   UNL A   1      37.137  32.387  31.900  1.00  0.00     0.029 A 
ATOM     39  N   UNL A   1      39.001  31.162  32.064  1.00  0.00    -0.354 N 
ATOM     40  C   UNL A   1      40.397  28.774  28.752  1.00  0.00     0.074 A 
ATOM     41  C   UNL A   1      39.534  28.929  27.603  1.00  0.00     0.031 C 
ATOM     42  C   UNL A   1      37.645  32.578  33.132  1.00  0.00     0.029 A 
ATOM     43  C   UNL A   1      38.841  31.752  33.294  1.00  0.00     0.049 A 
ATOM     44  H   UNL A   1      39.762  30.577  31.842  1.00  0.00     0.167 HD
ATOM     45  C   UNL A   1      41.513  28.008  28.769  1.00  0.00     0.037 A 
ATOM     46  C   UNL A   1      39.560  31.615  34.426  1.00  0.00     0.037 A 
ATOM     47  C   UNL A   1      42.374  27.852  29.912  1.00  0.00     0.049 A 
ATOM     48  C   UNL A   1      40.753  30.690  34.443  1.00  0.00     0.074 A 
ATOM     49  C   UNL A   1      43.538  27.111  30.019  1.00  0.00     0.029 A 
ATOM     50  N   UNL A   1      42.158  28.440  31.148  1.00  0.00    -0.354 N 
ATOM     51  N   UNL A   1      41.266  29.980  33.468  1.00  0.00    -0.248 NA
ATOM     52  C   UNL A   1      41.462  30.546  35.724  1.00  0.00     0.031 C 
ATOM     53  C   UNL A   1      43.992  27.200  31.338  1.00  0.00     0.029 A 
ATOM     54  C   UNL A   1      43.151  28.052  32.035  1.00  0.00     0.049 A 
ATOM     55  H   UNL A   1      41.411  29.044  31.366  1.00  0.00     0.167 HD
ATOM     56  C   UNL A   1      42.375  29.333  34.007  1.00  0.00     0.074 A 
ATOM     57  C   UNL A   1      42.465  29.746  35.391  1.00  0.00     0.031 C 
ATOM     58  C   UNL A   1      43.239  28.477  33.409  1.00  0.00     0.037 A 
BRANCH  45  59
ATOM     59  C   UNL A   1      41.844  27.242  27.519  1.00  0.00     0.057 A 
ATOM     60  C   UNL A   1      41.423  25.921  27.319  1.00  0.00     0.134 A 
ATOM     61  C   UNL A   1      42.575  27.850  26.491  1.00  0.00     0.134 A 
ATOM     62  F   UNL A   1      40.732  25.276  28.272  1.00  0.00    -0.206 F 
ATOM     63  C   UNL A   1      41.739  25.224  26.152  1.00  0.00     0.040 A 
ATOM     64  C   UNL A   1      42.872  27.173  25.307  1.00  0.00     0.040 A 
ATOM     65  F   UNL A   1      43.007  29.115  26.615  1.00  0.00    -0.206 F 
ATOM     66  C   UNL A   1      42.459  25.854  25.138  1.00  0.00     0.006 A 
ENDBRANCH  45  59
BRANCH  46  67
ATOM     67  C   UNL A   1      39.167  32.349  35.659  1.00  0.00     0.057 A 
ATOM     68  C   UNL A   1      39.626  33.649  35.906  1.00  0.00     0.134 A 
ATOM     69  C   UNL A   1      38.363  31.756  36.638  1.00  0.00     0.134 A 
ATOM     70  F   UNL A   1      40.424  34.261  35.019  1.00  0.00    -0.206 F 
ATOM     71  C   UNL A   1      39.318  34.323  37.088  1.00  0.00     0.040 A 
ATOM     72  C   UNL A   1      38.021  32.430  37.813  1.00  0.00     0.040 A 
ATOM     73  F   UNL A   1      37.892  30.512  36.467  1.00  0.00    -0.206 F 
ATOM     74  C   UNL A   1      38.507  33.714  38.044  1.00  0.00     0.006 A 
ENDBRANCH  46  67
BRANCH  58  75
ATOM     75  C   UNL A   1      44.391  27.965  34.228  1.00  0.00     0.057 A 
ATOM     76  C   UNL A   1      44.316  26.772  34.959  1.00  0.00     0.134 A 
ATOM     77  C   UNL A   1      45.612  28.654  34.244  1.00  0.00     0.134 A 
ATOM     78  F   UNL A   1      43.176  26.068  34.995  1.00  0.00    -0.206 F 
ATOM     79  C   UNL A   1      45.403  26.298  35.698  1.00  0.00     0.040 A 
ATOM     80  C   UNL A   1      46.715  28.174  34.954  1.00  0.00     0.040 A 
ATOM     81  F   UNL A   1      45.760  29.797  33.557  1.00  0.00    -0.206 F 
ATOM     82  C   UNL A   1      46.610  26.996  35.688  1.00  0.00     0.006 A 
ENDBRANCH  58  75
ENDBRANCH  32  33
ENDBRANCH  25  27
ENDBRANCH  24  25
ENDBRANCH  23  24
ENDBRANCH  22  23
ENDBRANCH  21  22
ENDBRANCH  20  21
ENDBRANCH   1  20
TORSDOF 19
ENDMDL
MODEL 2
REMARK VINA RESULT:      -9.5      3.063      4.262
REMARK SMILES C[C@@H](C(=O)OCCOCCOCCOC(=O)c1ccc(-c2c3nc(c(-c4c(F)cccc4F)c4ccc([nH]4)c(-c4c(F)cccc4F)c4nc(c(-c5c(F)cccc5F)c5ccc2[nH]5)C=C4)C=C3)cc1)c1cccn(C(F)F)c1=O
REMARK SMILES IDX 9 1 8 2 7 3 6 4 5 5 3 6 4 7 2 8 1 9 71 10 72 11 79 12 73 13
REMARK SMILES IDX 75 14 80 15 74 16 76 17 77 18 78 19 10 20 11 21 12 22 13 23
REMARK SMILES IDX 14 24 15 25 16 26 17 27 18 28 70 29 19 30 69 31 20 32 21 33
REMARK SMILES IDX 22 34 63 35 23 36 68 37 62 38 64 39 24 40 67 41 61 42 60 43
REMARK SMILES IDX 25 45 51 46 34 47 50 48 35 49 38 50 49 51 65 52 36 53 37 54
REMARK SMILES IDX 48 56 66 57 39 58 26 59 27 60 32 61 28 62 29 63 31 64 33 65
REMARK SMILES IDX 30 66 52 67 53 68 58 69 54 70 55 71 57 72 59 73 56 74 40 75
REMARK SMILES IDX 41 76 46 77 42 78 43 79 45 80 47 81 44 82
REMARK H PARENT 64 44 38 55
REMARK Flexibility Score: inf
ROOT
ATOM      1  C   UNL A   1      32.049  29.189  26.053  1.00  0.00     0.188 C 
ENDROOT
BRANCH   1   2
ATOM      2  O   UNL A   1      32.151  29.125  24.636  1.00  0.00    -0.376 OA
BRANCH   2   3
ATOM      3  C   UNL A   1      33.415  28.798  24.059  1.00  0.00     0.202 C 
BRANCH   3   4
ATOM      4  C   UNL A   1      33.746  27.318  23.778  1.00  0.00     0.261 C 
BRANCH   4   5
ATOM      5  O   UNL A   1      32.617  26.517  23.366  1.00  0.00    -0.463 OA
BRANCH   5   6
ATOM      6  C   UNL A   1      32.846  25.528  22.459  1.00  0.00     0.313 C 
ATOM      7  O   UNL A   1      33.380  25.714  21.370  1.00  0.00    -0.252 OA
BRANCH   6   8
ATOM      8  C   UNL A   1      32.489  24.113  22.978  1.00  0.00     0.132 C 
ATOM      9  C   UNL A   1      30.969  23.914  23.126  1.00  0.00     0.025 C 
BRANCH   8  10
ATOM     10  C   UNL A   1      33.376  23.673  24.154  1.00  0.00     0.032 A 
ATOM     11  C   UNL A   1      32.963  23.632  25.439  1.00  0.00     0.012 A 
ATOM     12  C   UNL A   1      34.839  23.358  23.907  1.00  0.00     0.259 A 
ATOM     13  C   UNL A   1      33.833  23.289  26.533  1.00  0.00     0.019 A 
ATOM     14  N   UNL A   1      35.615  23.046  25.014  1.00  0.00    -0.258 N 
ATOM     15  O   UNL A   1      35.302  23.385  22.770  1.00  0.00    -0.269 OA
ATOM     16  C   UNL A   1      35.118  23.019  26.300  1.00  0.00     0.095 A 
BRANCH  14  17
ATOM     17  C   UNL A   1      37.022  22.789  24.811  1.00  0.00     0.451 C 
ATOM     18  F   UNL A   1      37.743  23.862  25.233  1.00  0.00    -0.185 F 
ATOM     19  F   UNL A   1      37.410  21.741  25.589  1.00  0.00    -0.185 F 
ENDBRANCH  14  17
ENDBRANCH   8  10
ENDBRANCH   6   8
ENDBRANCH   5   6
ENDBRANCH   4   5
ENDBRANCH   3   4
ENDBRANCH   2   3
ENDBRANCH   1   2
BRANCH   1  20
ATOM     20  C   UNL A   1      33.279  29.617  26.871  1.00  0.00     0.188 C 
BRANCH  20  21
ATOM     21  O   UNL A   1      33.306  30.985  27.202  1.00  0.00    -0.376 OA
BRANCH  21  22
ATOM     22  C   UNL A   1      32.187  31.784  26.868  1.00  0.00     0.202 C 
BRANCH  22  23
ATOM     23  C   UNL A   1      32.282  33.321  26.918  1.00  0.00     0.261 C 
BRANCH  23  24
ATOM     24  O   UNL A   1      32.026  33.958  28.181  1.00  0.00    -0.460 OA
BRANCH  24  25
ATOM     25  C   UNL A   1      32.906  34.897  28.594  1.00  0.00     0.338 C 
ATOM     26  O   UNL A   1      32.685  36.091  28.756  1.00  0.00    -0.246 OA
BRANCH  25  27
ATOM     27  C   UNL A   1      34.127  34.198  29.053  1.00  0.00     0.060 A 
ATOM     28  C   UNL A   1      34.015  33.204  30.037  1.00  0.00     0.016 A 
ATOM     29  C   UNL A   1      35.373  34.505  28.502  1.00  0.00     0.016 A 
ATOM     30  C   UNL A   1      35.153  32.527  30.481  1.00  0.00     0.010 A 
ATOM     31  C   UNL A   1      36.514  33.844  28.969  1.00  0.00     0.010 A 
ATOM     32  C   UNL A   1      36.414  32.869  29.979  1.00  0.00    -0.014 A 
BRANCH  32  33
ATOM     33  C   UNL A   1      37.640  32.355  30.640  1.00  0.00     0.031 A 
ATOM     34  C   UNL A   1      38.334  31.167  30.033  1.00  0.00     0.074 A 
ATOM     35  C   UNL A   1      38.139  32.928  31.750  1.00  0.00     0.049 A 
ATOM     36  N   UNL A   1      39.360  30.485  30.473  1.00  0.00    -0.248 NA
ATOM     37  C   UNL A   1      37.785  30.677  28.758  1.00  0.00     0.031 C 
ATOM     38  C   UNL A   1      37.594  34.107  32.413  1.00  0.00     0.029 A 
ATOM     39  N   UNL A   1      39.222  32.577  32.520  1.00  0.00    -0.354 N 
ATOM     40  C   UNL A   1      39.568  29.477  29.540  1.00  0.00     0.074 A 
ATOM     41  C   UNL A   1      38.549  29.620  28.524  1.00  0.00     0.031 C 
ATOM     42  C   UNL A   1      38.342  34.383  33.497  1.00  0.00     0.029 A 
ATOM     43  C   UNL A   1      39.390  33.371  33.629  1.00  0.00     0.049 A 
ATOM     44  H   UNL A   1      39.820  31.826  32.299  1.00  0.00     0.167 HD
ATOM     45  C   UNL A   1      40.522  28.516  29.531  1.00  0.00     0.037 A 
ATOM     46  C   UNL A   1      40.270  33.271  34.646  1.00  0.00     0.037 A 
ATOM     47  C   UNL A   1      41.538  28.372  30.541  1.00  0.00     0.049 A 
ATOM     48  C   UNL A   1      41.272  32.143  34.656  1.00  0.00     0.074 A 
ATOM     49  C   UNL A   1      42.559  27.442  30.609  1.00  0.00     0.029 A 
ATOM     50  N   UNL A   1      41.653  29.176  31.665  1.00  0.00    -0.354 N 
ATOM     51  N   UNL A   1      41.472  31.203  33.765  1.00  0.00    -0.248 NA
ATOM     52  C   UNL A   1      42.167  32.060  35.821  1.00  0.00     0.031 C 
ATOM     53  C   UNL A   1      43.254  27.642  31.805  1.00  0.00     0.029 A 
ATOM     54  C   UNL A   1      42.710  28.741  32.450  1.00  0.00     0.049 A 
ATOM     55  H   UNL A   1      41.071  29.942  31.876  1.00  0.00     0.167 HD
ATOM     56  C   UNL A   1      42.534  30.440  34.242  1.00  0.00     0.074 A 
ATOM     57  C   UNL A   1      42.943  31.036  35.496  1.00  0.00     0.031 C 
ATOM     58  C   UNL A   1      43.118  29.348  33.691  1.00  0.00     0.037 A 
BRANCH  45  59
ATOM     59  C   UNL A   1      40.486  27.517  28.411  1.00  0.00     0.057 A 
ATOM     60  C   UNL A   1      41.173  27.720  27.207  1.00  0.00     0.134 A 
ATOM     61  C   UNL A   1      39.772  26.320  28.553  1.00  0.00     0.134 A 
ATOM     62  F   UNL A   1      41.864  28.852  27.000  1.00  0.00    -0.206 F 
ATOM     63  C   UNL A   1      41.129  26.780  26.175  1.00  0.00     0.040 A 
ATOM     64  C   UNL A   1      39.746  25.360  27.541  1.00  0.00     0.040 A 
ATOM     65  F   UNL A   1      39.094  26.060  29.683  1.00  0.00    -0.206 F 
ATOM     66  C   UNL A   1      40.420  25.593  26.345  1.00  0.00     0.006 A 
ENDBRANCH  45  59
BRANCH  46  67
ATOM     67  C   UNL A   1      40.238  34.250  35.766  1.00  0.00     0.057 A 
ATOM     68  C   UNL A   1      39.483  34.006  36.920  1.00  0.00     0.134 A 
ATOM     69  C   UNL A   1      40.923  35.468  35.693  1.00  0.00     0.134 A 
ATOM     70  F   UNL A   1      38.781  32.870  37.038  1.00  0.00    -0.206 F 
ATOM     71  C   UNL A   1      39.394  34.944  37.949  1.00  0.00     0.040 A 
ATOM     72  C   UNL A   1      40.867  36.404  36.728  1.00  0.00     0.040 A 
ATOM     73  F   UNL A   1      41.662  35.767  34.615  1.00  0.00    -0.206 F 
ATOM     74  C   UNL A   1      40.092  36.146  37.857  1.00  0.00     0.006 A 
ENDBRANCH  46  67
BRANCH  58  75
ATOM     75  C   UNL A   1      44.296  28.751  34.409  1.00  0.00     0.057 A 
ATOM     76  C   UNL A   1      45.605  29.205  34.203  1.00  0.00     0.134 A 
ATOM     77  C   UNL A   1      44.109  27.735  35.358  1.00  0.00     0.134 A 
ATOM     78  F   UNL A   1      45.857  30.166  33.303  1.00  0.00    -0.206 F 
ATOM     79  C   UNL A   1      46.687  28.654  34.895  1.00  0.00     0.040 A 
ATOM     80  C   UNL A   1      45.178  27.199  36.078  1.00  0.00     0.040 A 
ATOM     81  F   UNL A   1      42.881  27.261  35.615  1.00  0.00    -0.206 F 
ATOM     82  C   UNL A   1      46.472  27.654  35.842  1.00  0.00     0.006 A 
ENDBRANCH  58  75
ENDBRANCH  32  33
ENDBRANCH  25  27
ENDBRANCH  24  25
ENDBRANCH  23  24
ENDBRANCH  22  23
ENDBRANCH  21  22
ENDBRANCH  20  21
ENDBRANCH   1  20
TORSDOF 19
ENDMDL
MODEL 3
REMARK VINA RESULT:      -9.4      3.284      4.340
REMARK SMILES C[C@@H](C(=O)OCCOCCOCCOC(=O)c1ccc(-c2c3nc(c(-c4c(F)cccc4F)c4ccc([nH]4)c(-c4c(F)cccc4F)c4nc(c(-c5c(F)cccc5F)c5ccc2[nH]5)C=C4)C=C3)cc1)c1cccn(C(F)F)c1=O
REMARK SMILES IDX 9 1 8 2 7 3 6 4 5 5 3 6 4 7 2 8 1 9 71 10 72 11 79 12 73 13
REMARK SMILES IDX 75 14 80 15 74 16 76 17 77 18 78 19 10 20 11 21 12 22 13 23
REMARK SMILES IDX 14 24 15 25 16 26 17 27 18 28 70 29 19 30 69 31 20 32 21 33
REMARK SMILES IDX 22 34 63 35 23 36 68 37 62 38 64 39 24 40 67 41 61 42 60 43
REMARK SMILES IDX 25 45 51 46 34 47 50 48 35 49 38 50 49 51 65 52 36 53 37 54
REMARK SMILES IDX 48 56 66 57 39 58 26 59 27 60 32 61 28 62 29 63 31 64 33 65
REMARK SMILES IDX 30 66 52 67 53 68 58 69 54 70 55 71 57 72 59 73 56 74 40 75
REMARK SMILES IDX 41 76 46 77 42 78 43 79 45 80 47 81 44 82
REMARK H PARENT 64 44 38 55
REMARK Flexibility Score: inf
ROOT
ATOM      1  C   UNL A   1      32.267  28.589  27.574  1.00  0.00     0.188 C 
ENDROOT
BRANCH   1   2
ATOM      2  O   UNL A   1      32.161  27.369  26.850  1.00  0.00    -0.376 OA
BRANCH   2   3
ATOM      3  C   UNL A   1      33.114  27.105  25.820  1.00  0.00     0.202 C 
BRANCH   3   4
ATOM      4  C   UNL A   1      33.426  25.641  25.450  1.00  0.00     0.261 C 
BRANCH   4   5
ATOM      5  O   UNL A   1      32.952  24.665  26.405  1.00  0.00    -0.463 OA
BRANCH   5   6
ATOM      6  C   UNL A   1      32.026  23.765  25.977  1.00  0.00     0.313 C 
ATOM      7  O   UNL A   1      31.028  23.457  26.621  1.00  0.00    -0.252 OA
BRANCH   6   8
ATOM      8  C   UNL A   1      32.275  23.253  24.537  1.00  0.00     0.132 C 
ATOM      9  C   UNL A   1      31.040  23.435  23.633  1.00  0.00     0.025 C 
BRANCH   8  10
ATOM     10  C   UNL A   1      32.974  21.884  24.509  1.00  0.00     0.032 A 
ATOM     11  C   UNL A   1      32.325  20.704  24.402  1.00  0.00     0.012 A 
ATOM     12  C   UNL A   1      34.475  21.810  24.715  1.00  0.00     0.259 A 
ATOM     13  C   UNL A   1      32.995  19.432  24.455  1.00  0.00     0.019 A 
ATOM     14  N   UNL A   1      35.045  20.546  24.763  1.00  0.00    -0.258 N 
ATOM     15  O   UNL A   1      35.142  22.833  24.836  1.00  0.00    -0.269 OA
ATOM     16  C   UNL A   1      34.314  19.384  24.641  1.00  0.00     0.095 A 
BRANCH  14  17
ATOM     17  C   UNL A   1      36.466  20.447  25.007  1.00  0.00     0.451 C 
ATOM     18  F   UNL A   1      36.836  19.138  24.999  1.00  0.00    -0.185 F 
ATOM     19  F   UNL A   1      37.144  21.039  23.986  1.00  0.00    -0.185 F 
ENDBRANCH  14  17
ENDBRANCH   8  10
ENDBRANCH   6   8
ENDBRANCH   5   6
ENDBRANCH   4   5
ENDBRANCH   3   4
ENDBRANCH   2   3
ENDBRANCH   1   2
BRANCH   1  20
ATOM     20  C   UNL A   1      33.378  29.585  27.200  1.00  0.00     0.188 C 
BRANCH  20  21
ATOM     21  O   UNL A   1      32.994  30.548  26.249  1.00  0.00    -0.376 OA
BRANCH  21  22
ATOM     22  C   UNL A   1      31.733  31.174  26.389  1.00  0.00     0.202 C 
BRANCH  22  23
ATOM     23  C   UNL A   1      31.616  32.547  27.079  1.00  0.00     0.261 C 
BRANCH  23  24
ATOM     24  O   UNL A   1      32.726  33.450  26.945  1.00  0.00    -0.460 OA
BRANCH  24  25
ATOM     25  C   UNL A   1      33.133  34.106  28.054  1.00  0.00     0.338 C 
ATOM     26  O   UNL A   1      32.529  34.989  28.650  1.00  0.00    -0.246 OA
BRANCH  25  27
ATOM     27  C   UNL A   1      34.331  33.410  28.573  1.00  0.00     0.060 A 
ATOM     28  C   UNL A   1      34.165  32.260  29.359  1.00  0.00     0.016 A 
ATOM     29  C   UNL A   1      35.612  33.875  28.270  1.00  0.00     0.016 A 
ATOM     30  C   UNL A   1      35.281  31.583  29.856  1.00  0.00     0.010 A 
ATOM     31  C   UNL A   1      36.728  33.210  28.791  1.00  0.00     0.010 A 
ATOM     32  C   UNL A   1      36.568  32.075  29.607  1.00  0.00    -0.014 A 
BRANCH  32  33
ATOM     33  C   UNL A   1      37.729  31.527  30.353  1.00  0.00     0.031 A 
ATOM     34  C   UNL A   1      38.608  30.519  29.666  1.00  0.00     0.074 A 
ATOM     35  C   UNL A   1      38.009  31.914  31.611  1.00  0.00     0.049 A 
ATOM     36  N   UNL A   1      39.619  29.835  30.137  1.00  0.00    -0.248 NA
ATOM     37  C   UNL A   1      38.295  30.241  28.256  1.00  0.00     0.031 C 
ATOM     38  C   UNL A   1      37.268  32.913  32.375  1.00  0.00     0.029 A 
ATOM     39  N   UNL A   1      38.997  31.497  32.469  1.00  0.00    -0.354 N 
ATOM     40  C   UNL A   1      40.051  29.033  29.088  1.00  0.00     0.074 A 
ATOM     41  C   UNL A   1      39.179  29.297  27.965  1.00  0.00     0.031 C 
ATOM     42  C   UNL A   1      37.824  33.029  33.594  1.00  0.00     0.029 A 
ATOM     43  C   UNL A   1      38.931  32.080  33.712  1.00  0.00     0.049 A 
ATOM     44  H   UNL A   1      39.687  30.840  32.219  1.00  0.00     0.167 HD
ATOM     45  C   UNL A   1      41.080  28.155  29.063  1.00  0.00     0.037 A 
ATOM     46  C   UNL A   1      39.661  31.850  34.822  1.00  0.00     0.037 A 
ATOM     47  C   UNL A   1      41.949  27.891  30.180  1.00  0.00     0.049 A 
ATOM     48  C   UNL A   1      40.751  30.806  34.793  1.00  0.00     0.074 A 
ATOM     49  C   UNL A   1      43.032  27.032  30.245  1.00  0.00     0.029 A 
ATOM     50  N   UNL A   1      41.828  28.478  31.430  1.00  0.00    -0.354 N 
ATOM     51  N   UNL A   1      41.162  30.063  33.795  1.00  0.00    -0.248 NA
ATOM     52  C   UNL A   1      41.474  30.566  36.052  1.00  0.00     0.031 C 
ATOM     53  C   UNL A   1      43.526  27.050  31.552  1.00  0.00     0.029 A 
ATOM     54  C   UNL A   1      42.797  27.973  32.284  1.00  0.00     0.049 A 
ATOM     55  H   UNL A   1      41.154  29.152  31.676  1.00  0.00     0.167 HD
ATOM     56  C   UNL A   1      42.210  29.295  34.294  1.00  0.00     0.074 A 
ATOM     57  C   UNL A   1      42.379  29.672  35.681  1.00  0.00     0.031 C 
ATOM     58  C   UNL A   1      42.965  28.364  33.660  1.00  0.00     0.037 A 
BRANCH  45  59
ATOM     59  C   UNL A   1      41.297  27.381  27.794  1.00  0.00     0.057 A 
ATOM     60  C   UNL A   1      40.701  26.133  27.570  1.00  0.00     0.134 A 
ATOM     61  C   UNL A   1      42.097  27.908  26.772  1.00  0.00     0.134 A 
ATOM     62  F   UNL A   1      39.936  25.565  28.514  1.00  0.00    -0.206 F 
ATOM     63  C   UNL A   1      40.913  25.427  26.384  1.00  0.00     0.040 A 
ATOM     64  C   UNL A   1      42.292  27.224  25.571  1.00  0.00     0.040 A 
ATOM     65  F   UNL A   1      42.696  29.100  26.920  1.00  0.00    -0.206 F 
ATOM     66  C   UNL A   1      41.705  25.977  25.378  1.00  0.00     0.006 A 
ENDBRANCH  45  59
BRANCH  46  67
ATOM     67  C   UNL A   1      39.379  32.599  36.075  1.00  0.00     0.057 A 
ATOM     68  C   UNL A   1      40.059  33.786  36.379  1.00  0.00     0.134 A 
ATOM     69  C   UNL A   1      38.459  32.128  37.019  1.00  0.00     0.134 A 
ATOM     70  F   UNL A   1      40.974  34.274  35.529  1.00  0.00    -0.206 F 
ATOM     71  C   UNL A   1      39.850  34.463  37.580  1.00  0.00     0.040 A 
ATOM     72  C   UNL A   1      38.218  32.812  38.212  1.00  0.00     0.040 A 
ATOM     73  F   UNL A   1      37.776  30.997  36.793  1.00  0.00    -0.206 F 
ATOM     74  C   UNL A   1      38.922  33.979  38.500  1.00  0.00     0.006 A 
ENDBRANCH  46  67
BRANCH  58  75
ATOM     75  C   UNL A   1      44.078  27.721  34.440  1.00  0.00     0.057 A 
ATOM     76  C   UNL A   1      45.351  28.297  34.539  1.00  0.00     0.134 A 
ATOM     77  C   UNL A   1      43.855  26.528  35.143  1.00  0.00     0.134 A 
ATOM     78  F   UNL A   1      45.636  29.432  33.884  1.00  0.00    -0.206 F 
ATOM     79  C   UNL A   1      46.368  27.697  35.286  1.00  0.00     0.040 A 
ATOM     80  C   UNL A   1      44.854  25.936  35.918  1.00  0.00     0.040 A 
ATOM     81  F   UNL A   1      42.656  25.927  35.103  1.00  0.00    -0.206 F 
ATOM     82  C   UNL A   1      46.117  26.518  35.985  1.00  0.00     0.006 A 
ENDBRANCH  58  75
ENDBRANCH  32  33
ENDBRANCH  25  27
ENDBRANCH  24  25
ENDBRANCH  23  24
ENDBRANCH  22  23
ENDBRANCH  21  22
ENDBRANCH  20  21
ENDBRANCH   1  20
TORSDOF 19
ENDMDL
