MODEL 1
REMARK VINA RESULT:     -11.9      0.000      0.000
REMARK SMILES C[C@H]1c2ccc(O)cc2OC(=O)[C@@H]1CC(=O)N[C@@H](CC1=c2ccccc2=NC1)C(=O)OCCOCCOCCOC(=O)c1ccc(-c2c3nc(c(-c4c(F)cccc4F)c4ccc([nH]4)c(-c4c(F)cccc4F)c4nc(c(-c5c(F)cccc5F)c5ccc2[nH]5)C=C4)C=C3)cc1
REMARK SMILES IDX 35 1 34 2 33 3 32 4 31 5 29 6 30 7 18 8 17 9 15 10 16 11
REMARK SMILES IDX 14 13 13 14 1 15 2 16 3 17 4 18 9 19 11 20 5 21 8 22 10 23
REMARK SMILES IDX 12 24 6 25 7 26 19 28 20 29 21 30 28 31 22 32 26 33 27 34
REMARK SMILES IDX 23 35 25 36 24 37 36 38 37 39 38 40 39 41 40 42 41 43 42 44
REMARK SMILES IDX 43 45 44 46 96 47 45 48 95 49 46 50 47 51 48 52 89 53 49 54
REMARK SMILES IDX 94 55 88 56 90 57 50 58 93 59 87 60 86 61 51 63 77 64 60 65
REMARK SMILES IDX 76 66 61 67 64 68 75 69 91 70 62 71 63 72 74 74 92 75 65 76
REMARK SMILES IDX 52 77 53 78 58 79 54 80 55 81 57 82 59 83 56 84 78 85 79 86
REMARK SMILES IDX 84 87 80 88 81 89 83 90 85 91 82 92 66 93 67 94 72 95 68 96
REMARK SMILES IDX 69 97 71 98 73 99 70 100
REMARK H PARENT 17 12 7 27 90 62 64 73
REMARK Flexibility Score: inf
ROOT
ATOM      1  C   UNL A   1      35.084  32.696  28.081  1.00  0.00     0.188 C 
ENDROOT
BRANCH   1   2
ATOM      2  O   UNL A   1      33.956  31.858  28.233  1.00  0.00    -0.376 OA
BRANCH   2   3
ATOM      3  C   UNL A   1      33.795  30.728  27.383  1.00  0.00     0.202 C 
BRANCH   3   4
ATOM      4  C   UNL A   1      32.427  30.377  26.779  1.00  0.00     0.261 C 
BRANCH   4   5
ATOM      5  O   UNL A   1      32.468  29.985  25.393  1.00  0.00    -0.462 OA
BRANCH   5   6
ATOM      6  C   UNL A   1      31.509  29.108  25.024  1.00  0.00     0.329 C 
ATOM      7  O   UNL A   1      30.882  28.400  25.811  1.00  0.00    -0.250 OA
BRANCH   6   8
ATOM      8  C   UNL A   1      31.253  28.999  23.514  1.00  0.00     0.196 C 
BRANCH   8   9
ATOM      9  N   UNL A   1      32.204  28.602  22.457  1.00  0.00    -0.342 N 
ATOM     10  C   UNL A   1      33.094  27.558  22.413  1.00  0.00     0.221 C 
ATOM     11  O   UNL A   1      34.018  27.604  21.598  1.00  0.00    -0.275 OA
ATOM     12  H   UNL A   1      32.199  29.178  21.658  1.00  0.00     0.164 HD
BRANCH  10  13
ATOM     13  C   UNL A   1      32.879  26.289  23.243  1.00  0.00     0.116 C 
BRANCH  13  14
ATOM     14  C   UNL A   1      33.990  25.911  24.247  1.00  0.00     0.116 C 
ATOM     15  C   UNL A   1      35.478  24.066  25.225  1.00  0.00     0.014 C 
ATOM     16  C   UNL A   1      34.235  24.384  24.378  1.00  0.00     0.034 C 
ATOM     17  C   UNL A   1      33.024  23.736  25.004  1.00  0.00    -0.001 A 
ATOM     18  C   UNL A   1      32.732  22.381  24.836  1.00  0.00     0.011 A 
ATOM     19  C   UNL A   1      32.173  24.507  25.796  1.00  0.00     0.138 A 
ATOM     20  C   UNL A   1      33.663  26.394  25.631  1.00  0.00     0.315 C 
ATOM     21  C   UNL A   1      31.577  21.847  25.413  1.00  0.00     0.047 A 
ATOM     22  C   UNL A   1      30.967  24.018  26.284  1.00  0.00     0.093 A 
ATOM     23  O   UNL A   1      32.555  25.794  26.213  1.00  0.00    -0.426 OA
ATOM     24  O   UNL A   1      34.296  27.272  26.203  1.00  0.00    -0.251 OA
ATOM     25  C   UNL A   1      30.683  22.676  26.089  1.00  0.00     0.119 A 
BRANCH  25  26
ATOM     26  O   UNL A   1      29.535  22.135  26.581  1.00  0.00    -0.508 OA
ATOM     27  H   UNL A   1      28.714  22.562  26.432  1.00  0.00     0.293 HD
ENDBRANCH  25  26
ENDBRANCH  13  14
ENDBRANCH  10  13
ENDBRANCH   8   9
BRANCH   8  28
ATOM     28  C   UNL A   1      29.939  28.203  23.393  1.00  0.00     0.070 C 
BRANCH  28  29
ATOM     29  C   UNL A   1      28.813  28.704  22.466  1.00  0.00    -0.037 C 
ATOM     30  C   UNL A   1      28.734  30.003  22.156  1.00  0.00     0.001 A 
ATOM     31  C   UNL A   1      27.482  28.335  23.104  1.00  0.00     0.174 C 
ATOM     32  C   UNL A   1      28.766  30.729  20.915  1.00  0.00     0.010 A 
ATOM     33  C   UNL A   1      27.735  30.476  23.142  1.00  0.00     0.065 A 
ATOM     34  N   UNL A   1      27.013  29.585  23.743  1.00  0.00    -0.280 NA
ATOM     35  C   UNL A   1      28.403  32.026  20.955  1.00  0.00     0.001 A 
ATOM     36  C   UNL A   1      27.702  31.942  23.302  1.00  0.00     0.028 A 
ATOM     37  C   UNL A   1      28.059  32.662  22.223  1.00  0.00     0.002 A 
ENDBRANCH  28  29
ENDBRANCH   8  28
ENDBRANCH   6   8
ENDBRANCH   5   6
ENDBRANCH   4   5
ENDBRANCH   3   4
ENDBRANCH   2   3
ENDBRANCH   1   2
BRANCH   1  38
ATOM     38  C   UNL A   1      35.045  34.134  28.621  1.00  0.00     0.188 C 
BRANCH  38  39
ATOM     39  O   UNL A   1      34.138  34.437  29.646  1.00  0.00    -0.376 OA
BRANCH  39  40
ATOM     40  C   UNL A   1      34.284  33.846  30.925  1.00  0.00     0.202 C 
BRANCH  40  41
ATOM     41  C   UNL A   1      35.023  34.472  32.130  1.00  0.00     0.261 C 
BRANCH  41  42
ATOM     42  O   UNL A   1      36.379  34.085  32.382  1.00  0.00    -0.460 OA
BRANCH  42  43
ATOM     43  C   UNL A   1      36.567  32.821  32.844  1.00  0.00     0.338 C 
ATOM     44  O   UNL A   1      35.871  32.218  33.646  1.00  0.00    -0.246 OA
BRANCH  43  45
ATOM     45  C   UNL A   1      37.628  32.188  32.028  1.00  0.00     0.060 A 
ATOM     46  C   UNL A   1      37.606  32.295  30.639  1.00  0.00     0.016 A 
ATOM     47  C   UNL A   1      38.645  31.456  32.666  1.00  0.00     0.016 A 
ATOM     48  C   UNL A   1      38.621  31.695  29.890  1.00  0.00     0.010 A 
ATOM     49  C   UNL A   1      39.640  30.826  31.912  1.00  0.00     0.010 A 
ATOM     50  C   UNL A   1      39.651  30.969  30.517  1.00  0.00    -0.014 A 
BRANCH  50  51
ATOM     51  C   UNL A   1      40.814  30.514  29.712  1.00  0.00     0.031 A 
ATOM     52  C   UNL A   1      42.036  31.354  29.517  1.00  0.00     0.074 A 
ATOM     53  C   UNL A   1      40.786  29.266  29.213  1.00  0.00     0.049 A 
ATOM     54  N   UNL A   1      43.134  31.087  28.849  1.00  0.00    -0.248 NA
ATOM     55  C   UNL A   1      42.027  32.665  30.170  1.00  0.00     0.031 C 
ATOM     56  C   UNL A   1      39.683  28.322  29.379  1.00  0.00     0.029 A 
ATOM     57  N   UNL A   1      41.733  28.565  28.514  1.00  0.00    -0.354 N 
ATOM     58  C   UNL A   1      43.923  32.228  28.939  1.00  0.00     0.074 A 
ATOM     59  C   UNL A   1      43.205  33.144  29.799  1.00  0.00     0.031 C 
ATOM     60  C   UNL A   1      40.046  27.138  28.864  1.00  0.00     0.029 A 
ATOM     61  C   UNL A   1      41.385  27.256  28.292  1.00  0.00     0.049 A 
ATOM     62  H   UNL A   1      42.579  28.960  28.204  1.00  0.00     0.167 HD
ATOM     63  C   UNL A   1      45.106  32.499  28.328  1.00  0.00     0.037 A 
ATOM     64  C   UNL A   1      42.075  26.261  27.708  1.00  0.00     0.037 A 
ATOM     65  C   UNL A   1      45.874  31.524  27.587  1.00  0.00     0.049 A 
ATOM     66  C   UNL A   1      43.458  26.522  27.179  1.00  0.00     0.074 A 
ATOM     67  C   UNL A   1      47.122  31.669  27.000  1.00  0.00     0.029 A 
ATOM     68  N   UNL A   1      45.488  30.211  27.372  1.00  0.00    -0.354 N 
ATOM     69  N   UNL A   1      44.159  27.629  27.197  1.00  0.00    -0.248 NA
ATOM     70  C   UNL A   1      44.148  25.385  26.553  1.00  0.00     0.031 C 
ATOM     71  C   UNL A   1      47.482  30.447  26.418  1.00  0.00     0.029 A 
ATOM     72  C   UNL A   1      46.480  29.529  26.683  1.00  0.00     0.049 A 
ATOM     73  H   UNL A   1      44.634  29.819  27.666  1.00  0.00     0.167 HD
ATOM     74  C   UNL A   1      45.376  27.318  26.604  1.00  0.00     0.074 A 
ATOM     75  C   UNL A   1      45.329  25.911  26.265  1.00  0.00     0.031 C 
ATOM     76  C   UNL A   1      46.434  28.128  26.354  1.00  0.00     0.037 A 
BRANCH  63  77
ATOM     77  C   UNL A   1      45.624  33.916  28.371  1.00  0.00     0.057 A 
ATOM     78  C   UNL A   1      46.502  34.312  29.394  1.00  0.00     0.134 A 
ATOM     79  C   UNL A   1      45.251  34.898  27.445  1.00  0.00     0.134 A 
ATOM     80  F   UNL A   1      46.888  33.439  30.338  1.00  0.00    -0.206 F 
ATOM     81  C   UNL A   1      46.989  35.618  29.488  1.00  0.00     0.040 A 
ATOM     82  C   UNL A   1      45.769  36.196  27.500  1.00  0.00     0.040 A 
ATOM     83  F   UNL A   1      44.406  34.605  26.445  1.00  0.00    -0.206 F 
ATOM     84  C   UNL A   1      46.636  36.561  28.527  1.00  0.00     0.006 A 
ENDBRANCH  63  77
BRANCH  64  85
ATOM     85  C   UNL A   1      41.483  24.903  27.633  1.00  0.00     0.057 A 
ATOM     86  C   UNL A   1      40.483  24.593  26.707  1.00  0.00     0.134 A 
ATOM     87  C   UNL A   1      41.916  23.884  28.488  1.00  0.00     0.134 A 
ATOM     88  F   UNL A   1      40.015  25.534  25.872  1.00  0.00    -0.206 F 
ATOM     89  C   UNL A   1      39.931  23.315  26.631  1.00  0.00     0.040 A 
ATOM     90  C   UNL A   1      41.396  22.592  28.402  1.00  0.00     0.040 A 
ATOM     91  F   UNL A   1      42.881  24.120  29.389  1.00  0.00    -0.206 F 
ATOM     92  C   UNL A   1      40.397  22.307  27.474  1.00  0.00     0.006 A 
ENDBRANCH  64  85
BRANCH  76  93
ATOM     93  C   UNL A   1      47.644  27.507  25.713  1.00  0.00     0.057 A 
ATOM     94  C   UNL A   1      47.759  27.450  24.318  1.00  0.00     0.134 A 
ATOM     95  C   UNL A   1      48.683  26.949  26.469  1.00  0.00     0.134 A 
ATOM     96  F   UNL A   1      46.798  27.957  23.532  1.00  0.00    -0.206 F 
ATOM     97  C   UNL A   1      48.865  26.863  23.699  1.00  0.00     0.040 A 
ATOM     98  C   UNL A   1      49.807  26.385  25.862  1.00  0.00     0.040 A 
ATOM     99  F   UNL A   1      48.641  26.980  27.810  1.00  0.00    -0.206 F 
ATOM    100  C   UNL A   1      49.897  26.337  24.473  1.00  0.00     0.006 A 
ENDBRANCH  76  93
ENDBRANCH  50  51
ENDBRANCH  43  45
ENDBRANCH  42  43
ENDBRANCH  41  42
ENDBRANCH  40  41
ENDBRANCH  39  40
ENDBRANCH  38  39
ENDBRANCH   1  38
TORSDOF 23
ENDMDL
MODEL 2
REMARK VINA RESULT:     -11.5      1.534      2.720
REMARK SMILES C[C@H]1c2ccc(O)cc2OC(=O)[C@@H]1CC(=O)N[C@@H](CC1=c2ccccc2=NC1)C(=O)OCCOCCOCCOC(=O)c1ccc(-c2c3nc(c(-c4c(F)cccc4F)c4ccc([nH]4)c(-c4c(F)cccc4F)c4nc(c(-c5c(F)cccc5F)c5ccc2[nH]5)C=C4)C=C3)cc1
REMARK SMILES IDX 35 1 34 2 33 3 32 4 31 5 29 6 30 7 18 8 17 9 15 10 16 11
REMARK SMILES IDX 14 13 13 14 1 15 2 16 3 17 4 18 9 19 11 20 5 21 8 22 10 23
REMARK SMILES IDX 12 24 6 25 7 26 19 28 20 29 21 30 28 31 22 32 26 33 27 34
REMARK SMILES IDX 23 35 25 36 24 37 36 38 37 39 38 40 39 41 40 42 41 43 42 44
REMARK SMILES IDX 43 45 44 46 96 47 45 48 95 49 46 50 47 51 48 52 89 53 49 54
REMARK SMILES IDX 94 55 88 56 90 57 50 58 93 59 87 60 86 61 51 63 77 64 60 65
REMARK SMILES IDX 76 66 61 67 64 68 75 69 91 70 62 71 63 72 74 74 92 75 65 76
REMARK SMILES IDX 52 77 53 78 58 79 54 80 55 81 57 82 59 83 56 84 78 85 79 86
REMARK SMILES IDX 84 87 80 88 81 89 83 90 85 91 82 92 66 93 67 94 72 95 68 96
REMARK SMILES IDX 69 97 71 98 73 99 70 100
REMARK H PARENT 17 12 7 27 90 62 64 73
REMARK Flexibility Score: inf
ROOT
ATOM      1  C   UNL A   1      35.057  32.200  27.925  1.00  0.00     0.188 C 
ENDROOT
BRANCH   1   2
ATOM      2  O   UNL A   1      33.909  31.377  27.983  1.00  0.00    -0.376 OA
BRANCH   2   3
ATOM      3  C   UNL A   1      33.751  30.317  27.047  1.00  0.00     0.202 C 
BRANCH   3   4
ATOM      4  C   UNL A   1      32.371  29.702  26.768  1.00  0.00     0.261 C 
BRANCH   4   5
ATOM      5  O   UNL A   1      32.408  28.353  26.264  1.00  0.00    -0.462 OA
BRANCH   5   6
ATOM      6  C   UNL A   1      31.496  27.520  26.807  1.00  0.00     0.329 C 
ATOM      7  O   UNL A   1      30.987  27.682  27.916  1.00  0.00    -0.250 OA
BRANCH   6   8
ATOM      8  C   UNL A   1      31.134  26.288  25.964  1.00  0.00     0.196 C 
BRANCH   8   9
ATOM      9  N   UNL A   1      30.837  24.921  26.434  1.00  0.00    -0.342 N 
ATOM     10  C   UNL A   1      31.526  23.749  26.244  1.00  0.00     0.221 C 
ATOM     11  O   UNL A   1      30.938  22.682  26.427  1.00  0.00    -0.275 OA
ATOM     12  H   UNL A   1      30.013  24.835  26.967  1.00  0.00     0.164 HD
BRANCH  10  13
ATOM     13  C   UNL A   1      33.030  23.745  25.953  1.00  0.00     0.116 C 
BRANCH  13  14
ATOM     14  C   UNL A   1      33.459  23.807  24.471  1.00  0.00     0.116 C 
ATOM     15  C   UNL A   1      33.015  23.053  22.062  1.00  0.00     0.014 C 
ATOM     16  C   UNL A   1      32.705  22.813  23.549  1.00  0.00     0.034 C 
ATOM     17  C   UNL A   1      33.088  21.402  23.918  1.00  0.00    -0.001 A 
ATOM     18  C   UNL A   1      32.276  20.306  23.622  1.00  0.00     0.011 A 
ATOM     19  C   UNL A   1      34.306  21.172  24.559  1.00  0.00     0.138 A 
ATOM     20  C   UNL A   1      34.919  23.490  24.311  1.00  0.00     0.315 C 
ATOM     21  C   UNL A   1      32.669  19.025  24.020  1.00  0.00     0.047 A 
ATOM     22  C   UNL A   1      34.660  19.924  25.057  1.00  0.00     0.093 A 
ATOM     23  O   UNL A   1      35.272  22.190  24.642  1.00  0.00    -0.426 OA
ATOM     24  O   UNL A   1      35.750  24.313  23.950  1.00  0.00    -0.251 OA
ATOM     25  C   UNL A   1      33.829  18.852  24.773  1.00  0.00     0.119 A 
BRANCH  25  26
ATOM     26  O   UNL A   1      34.149  17.599  25.201  1.00  0.00    -0.508 OA
ATOM     27  H   UNL A   1      33.542  17.115  25.727  1.00  0.00     0.293 HD
ENDBRANCH  25  26
ENDBRANCH  13  14
ENDBRANCH  10  13
ENDBRANCH   8   9
BRANCH   8  28
ATOM     28  C   UNL A   1      30.045  26.780  24.991  1.00  0.00     0.070 C 
BRANCH  28  29
ATOM     29  C   UNL A   1      30.372  26.976  23.498  1.00  0.00    -0.037 C 
ATOM     30  C   UNL A   1      31.642  27.137  23.109  1.00  0.00     0.001 A 
ATOM     31  C   UNL A   1      29.617  28.203  23.009  1.00  0.00     0.174 C 
ATOM     32  C   UNL A   1      32.504  26.413  22.214  1.00  0.00     0.010 A 
ATOM     33  C   UNL A   1      31.735  28.613  23.023  1.00  0.00     0.065 A 
ATOM     34  N   UNL A   1      30.628  29.285  22.997  1.00  0.00    -0.280 NA
ATOM     35  C   UNL A   1      33.660  27.009  21.861  1.00  0.00     0.001 A 
ATOM     36  C   UNL A   1      33.117  29.123  22.976  1.00  0.00     0.028 A 
ATOM     37  C   UNL A   1      34.031  28.303  22.426  1.00  0.00     0.002 A 
ENDBRANCH  28  29
ENDBRANCH   8  28
ENDBRANCH   6   8
ENDBRANCH   5   6
ENDBRANCH   4   5
ENDBRANCH   3   4
ENDBRANCH   2   3
ENDBRANCH   1   2
BRANCH   1  38
ATOM     38  C   UNL A   1      35.322  33.219  29.043  1.00  0.00     0.188 C 
BRANCH  38  39
ATOM     39  O   UNL A   1      34.328  33.424  30.009  1.00  0.00    -0.376 OA
BRANCH  39  40
ATOM     40  C   UNL A   1      34.408  32.771  31.264  1.00  0.00     0.202 C 
BRANCH  40  41
ATOM     41  C   UNL A   1      34.933  33.397  32.576  1.00  0.00     0.261 C 
BRANCH  41  42
ATOM     42  O   UNL A   1      36.343  33.594  32.729  1.00  0.00    -0.460 OA
BRANCH  42  43
ATOM     43  C   UNL A   1      37.010  32.642  33.432  1.00  0.00     0.338 C 
ATOM     44  O   UNL A   1      36.721  32.201  34.534  1.00  0.00    -0.246 OA
BRANCH  43  45
ATOM     45  C   UNL A   1      38.023  32.035  32.538  1.00  0.00     0.060 A 
ATOM     46  C   UNL A   1      37.999  32.296  31.170  1.00  0.00     0.016 A 
ATOM     47  C   UNL A   1      38.993  31.174  33.079  1.00  0.00     0.016 A 
ATOM     48  C   UNL A   1      38.968  31.718  30.346  1.00  0.00     0.010 A 
ATOM     49  C   UNL A   1      39.940  30.568  32.246  1.00  0.00     0.010 A 
ATOM     50  C   UNL A   1      39.952  30.863  30.875  1.00  0.00    -0.014 A 
BRANCH  50  51
ATOM     51  C   UNL A   1      41.078  30.426  30.010  1.00  0.00     0.031 A 
ATOM     52  C   UNL A   1      42.299  31.263  29.794  1.00  0.00     0.074 A 
ATOM     53  C   UNL A   1      41.019  29.196  29.472  1.00  0.00     0.049 A 
ATOM     54  N   UNL A   1      43.367  31.009  29.074  1.00  0.00    -0.248 NA
ATOM     55  C   UNL A   1      42.327  32.551  30.489  1.00  0.00     0.031 C 
ATOM     56  C   UNL A   1      39.915  28.255  29.653  1.00  0.00     0.029 A 
ATOM     57  N   UNL A   1      41.931  28.510  28.714  1.00  0.00    -0.354 N 
ATOM     58  C   UNL A   1      44.169  32.141  29.170  1.00  0.00     0.074 A 
ATOM     59  C   UNL A   1      43.494  33.033  30.087  1.00  0.00     0.031 C 
ATOM     60  C   UNL A   1      40.246  27.085  29.084  1.00  0.00     0.029 A 
ATOM     61  C   UNL A   1      41.562  27.212  28.463  1.00  0.00     0.049 A 
ATOM     62  H   UNL A   1      42.768  28.908  28.383  1.00  0.00     0.167 HD
ATOM     63  C   UNL A   1      45.329  32.422  28.520  1.00  0.00     0.037 A 
ATOM     64  C   UNL A   1      42.220  26.231  27.821  1.00  0.00     0.037 A 
ATOM     65  C   UNL A   1      46.059  31.467  27.719  1.00  0.00     0.049 A 
ATOM     66  C   UNL A   1      43.583  26.499  27.245  1.00  0.00     0.074 A 
ATOM     67  C   UNL A   1      47.283  31.620  27.087  1.00  0.00     0.029 A 
ATOM     68  N   UNL A   1      45.652  30.163  27.476  1.00  0.00    -0.354 N 
ATOM     69  N   UNL A   1      44.294  27.599  27.271  1.00  0.00    -0.248 NA
ATOM     70  C   UNL A   1      44.237  25.378  26.555  1.00  0.00     0.031 C 
ATOM     71  C   UNL A   1      47.609  30.415  26.451  1.00  0.00     0.029 A 
ATOM     72  C   UNL A   1      46.609  29.498  26.726  1.00  0.00     0.049 A 
ATOM     73  H   UNL A   1      44.807  29.769  27.792  1.00  0.00     0.167 HD
ATOM     74  C   UNL A   1      45.483  27.299  26.620  1.00  0.00     0.074 A 
ATOM     75  C   UNL A   1      45.410  25.904  26.237  1.00  0.00     0.031 C 
ATOM     76  C   UNL A   1      46.538  28.109  26.354  1.00  0.00     0.037 A 
BRANCH  63  77
ATOM     77  C   UNL A   1      45.861  33.833  28.589  1.00  0.00     0.057 A 
ATOM     78  C   UNL A   1      45.466  34.780  27.628  1.00  0.00     0.134 A 
ATOM     79  C   UNL A   1      46.772  34.264  29.560  1.00  0.00     0.134 A 
ATOM     80  F   UNL A   1      44.616  34.441  26.645  1.00  0.00    -0.206 F 
ATOM     81  C   UNL A   1      45.949  36.090  27.637  1.00  0.00     0.040 A 
ATOM     82  C   UNL A   1      47.225  35.586  29.609  1.00  0.00     0.040 A 
ATOM     83  F   UNL A   1      47.209  33.418  30.506  1.00  0.00    -0.206 F 
ATOM     84  C   UNL A   1      46.819  36.502  28.642  1.00  0.00     0.006 A 
ENDBRANCH  63  77
BRANCH  64  85
ATOM     85  C   UNL A   1      41.614  24.882  27.726  1.00  0.00     0.057 A 
ATOM     86  C   UNL A   1      40.593  24.602  26.810  1.00  0.00     0.134 A 
ATOM     87  C   UNL A   1      42.051  23.838  28.549  1.00  0.00     0.134 A 
ATOM     88  F   UNL A   1      40.120  25.567  26.006  1.00  0.00    -0.206 F 
ATOM     89  C   UNL A   1      40.028  23.331  26.715  1.00  0.00     0.040 A 
ATOM     90  C   UNL A   1      41.517  22.554  28.443  1.00  0.00     0.040 A 
ATOM     91  F   UNL A   1      43.035  24.044  29.437  1.00  0.00    -0.206 F 
ATOM     92  C   UNL A   1      40.499  22.300  27.526  1.00  0.00     0.006 A 
ENDBRANCH  64  85
BRANCH  76  93
ATOM     93  C   UNL A   1      47.716  27.499  25.645  1.00  0.00     0.057 A 
ATOM     94  C   UNL A   1      47.769  27.475  24.245  1.00  0.00     0.134 A 
ATOM     95  C   UNL A   1      48.785  26.920  26.341  1.00  0.00     0.134 A 
ATOM     96  F   UNL A   1      46.775  28.004  23.515  1.00  0.00    -0.206 F 
ATOM     97  C   UNL A   1      48.844  26.900  23.564  1.00  0.00     0.040 A 
ATOM     98  C   UNL A   1      49.879  26.368  25.671  1.00  0.00     0.040 A 
ATOM     99  F   UNL A   1      48.803  26.920  27.682  1.00  0.00    -0.206 F 
ATOM    100  C   UNL A   1      49.907  26.353  24.279  1.00  0.00     0.006 A 
ENDBRANCH  76  93
ENDBRANCH  50  51
ENDBRANCH  43  45
ENDBRANCH  42  43
ENDBRANCH  41  42
ENDBRANCH  40  41
ENDBRANCH  39  40
ENDBRANCH  38  39
ENDBRANCH   1  38
TORSDOF 23
ENDMDL
MODEL 3
REMARK VINA RESULT:     -11.4      1.664      6.329
REMARK SMILES C[C@H]1c2ccc(O)cc2OC(=O)[C@@H]1CC(=O)N[C@@H](CC1=c2ccccc2=NC1)C(=O)OCCOCCOCCOC(=O)c1ccc(-c2c3nc(c(-c4c(F)cccc4F)c4ccc([nH]4)c(-c4c(F)cccc4F)c4nc(c(-c5c(F)cccc5F)c5ccc2[nH]5)C=C4)C=C3)cc1
REMARK SMILES IDX 35 1 34 2 33 3 32 4 31 5 29 6 30 7 18 8 17 9 15 10 16 11
REMARK SMILES IDX 14 13 13 14 1 15 2 16 3 17 4 18 9 19 11 20 5 21 8 22 10 23
REMARK SMILES IDX 12 24 6 25 7 26 19 28 20 29 21 30 28 31 22 32 26 33 27 34
REMARK SMILES IDX 23 35 25 36 24 37 36 38 37 39 38 40 39 41 40 42 41 43 42 44
REMARK SMILES IDX 43 45 44 46 96 47 45 48 95 49 46 50 47 51 48 52 89 53 49 54
REMARK SMILES IDX 94 55 88 56 90 57 50 58 93 59 87 60 86 61 51 63 77 64 60 65
REMARK SMILES IDX 76 66 61 67 64 68 75 69 91 70 62 71 63 72 74 74 92 75 65 76
REMARK SMILES IDX 52 77 53 78 58 79 54 80 55 81 57 82 59 83 56 84 78 85 79 86
REMARK SMILES IDX 84 87 80 88 81 89 83 90 85 91 82 92 66 93 67 94 72 95 68 96
REMARK SMILES IDX 69 97 71 98 73 99 70 100
REMARK H PARENT 17 12 7 27 90 62 64 73
REMARK Flexibility Score: inf
ROOT
ATOM      1  C   UNL A   1      35.981  30.646  28.579  1.00  0.00     0.188 C 
ENDROOT
BRANCH   1   2
ATOM      2  O   UNL A   1      35.716  29.784  27.490  1.00  0.00    -0.376 OA
BRANCH   2   3
ATOM      3  C   UNL A   1      34.417  29.225  27.331  1.00  0.00     0.202 C 
BRANCH   3   4
ATOM      4  C   UNL A   1      34.027  28.474  26.049  1.00  0.00     0.261 C 
BRANCH   4   5
ATOM      5  O   UNL A   1      33.347  27.223  26.272  1.00  0.00    -0.462 OA
BRANCH   5   6
ATOM      6  C   UNL A   1      31.999  27.295  26.227  1.00  0.00     0.329 C 
ATOM      7  O   UNL A   1      31.357  28.327  26.418  1.00  0.00    -0.250 OA
BRANCH   6   8
ATOM      8  C   UNL A   1      31.271  25.971  25.957  1.00  0.00     0.196 C 
BRANCH   8   9
ATOM      9  N   UNL A   1      30.958  24.894  26.917  1.00  0.00    -0.342 N 
ATOM     10  C   UNL A   1      30.618  23.582  26.696  1.00  0.00     0.221 C 
ATOM     11  O   UNL A   1      30.074  22.952  27.604  1.00  0.00    -0.275 OA
ATOM     12  H   UNL A   1      30.998  25.158  27.865  1.00  0.00     0.164 HD
BRANCH  10  13
ATOM     13  C   UNL A   1      31.028  22.856  25.411  1.00  0.00     0.116 C 
BRANCH  13  14
ATOM     14  C   UNL A   1      32.496  23.009  24.956  1.00  0.00     0.116 C 
ATOM     15  C   UNL A   1      34.239  22.608  23.120  1.00  0.00     0.014 C 
ATOM     16  C   UNL A   1      32.834  22.260  23.640  1.00  0.00     0.034 C 
ATOM     17  C   UNL A   1      32.742  20.773  23.874  1.00  0.00    -0.001 A 
ATOM     18  C   UNL A   1      32.528  19.865  22.836  1.00  0.00     0.011 A 
ATOM     19  C   UNL A   1      32.895  20.277  25.170  1.00  0.00     0.138 A 
ATOM     20  C   UNL A   1      33.447  22.476  25.989  1.00  0.00     0.315 C 
ATOM     21  C   UNL A   1      32.418  18.502  23.120  1.00  0.00     0.047 A 
ATOM     22  C   UNL A   1      32.679  18.940  25.484  1.00  0.00     0.093 A 
ATOM     23  O   UNL A   1      33.370  21.106  26.200  1.00  0.00    -0.426 OA
ATOM     24  O   UNL A   1      34.214  23.185  26.627  1.00  0.00    -0.251 OA
ATOM     25  C   UNL A   1      32.446  18.058  24.442  1.00  0.00     0.119 A 
BRANCH  25  26
ATOM     26  O   UNL A   1      32.269  16.730  24.688  1.00  0.00    -0.508 OA
ATOM     27  H   UNL A   1      32.887  16.265  25.217  1.00  0.00     0.293 HD
ENDBRANCH  25  26
ENDBRANCH  13  14
ENDBRANCH  10  13
ENDBRANCH   8   9
BRANCH   8  28
ATOM     28  C   UNL A   1      30.017  26.366  25.153  1.00  0.00     0.070 C 
BRANCH  28  29
ATOM     29  C   UNL A   1      30.078  26.446  23.615  1.00  0.00    -0.037 C 
ATOM     30  C   UNL A   1      31.250  26.304  22.985  1.00  0.00     0.001 A 
ATOM     31  C   UNL A   1      29.527  27.800  23.193  1.00  0.00     0.174 C 
ATOM     32  C   UNL A   1      31.739  25.381  21.997  1.00  0.00     0.010 A 
ATOM     33  C   UNL A   1      31.643  27.718  22.783  1.00  0.00     0.065 A 
ATOM     34  N   UNL A   1      30.727  28.623  22.917  1.00  0.00    -0.280 NA
ATOM     35  C   UNL A   1      32.904  25.690  21.394  1.00  0.00     0.001 A 
ATOM     36  C   UNL A   1      33.066  27.899  22.443  1.00  0.00     0.028 A 
ATOM     37  C   UNL A   1      33.653  26.879  21.790  1.00  0.00     0.002 A 
ENDBRANCH  28  29
ENDBRANCH   8  28
ENDBRANCH   6   8
ENDBRANCH   5   6
ENDBRANCH   4   5
ENDBRANCH   3   4
ENDBRANCH   2   3
ENDBRANCH   1   2
BRANCH   1  38
ATOM     38  C   UNL A   1      35.360  32.050  28.610  1.00  0.00     0.188 C 
BRANCH  38  39
ATOM     39  O   UNL A   1      34.390  32.330  29.583  1.00  0.00    -0.376 OA
BRANCH  39  40
ATOM     40  C   UNL A   1      34.782  32.683  30.898  1.00  0.00     0.202 C 
BRANCH  40  41
ATOM     41  C   UNL A   1      35.360  31.717  31.957  1.00  0.00     0.261 C 
BRANCH  41  42
ATOM     42  O   UNL A   1      36.218  32.247  32.975  1.00  0.00    -0.460 OA
BRANCH  42  43
ATOM     43  C   UNL A   1      37.161  33.134  32.565  1.00  0.00     0.338 C 
ATOM     44  O   UNL A   1      37.257  34.309  32.887  1.00  0.00    -0.246 OA
BRANCH  43  45
ATOM     45  C   UNL A   1      38.215  32.384  31.846  1.00  0.00     0.060 A 
ATOM     46  C   UNL A   1      38.416  32.587  30.483  1.00  0.00     0.016 A 
ATOM     47  C   UNL A   1      38.994  31.446  32.546  1.00  0.00     0.016 A 
ATOM     48  C   UNL A   1      39.421  31.873  29.825  1.00  0.00     0.010 A 
ATOM     49  C   UNL A   1      39.976  30.707  31.878  1.00  0.00     0.010 A 
ATOM     50  C   UNL A   1      40.217  30.939  30.516  1.00  0.00    -0.014 A 
BRANCH  50  51
ATOM     51  C   UNL A   1      41.397  30.346  29.837  1.00  0.00     0.031 A 
ATOM     52  C   UNL A   1      41.353  29.010  29.166  1.00  0.00     0.074 A 
ATOM     53  C   UNL A   1      42.518  31.084  29.762  1.00  0.00     0.049 A 
ATOM     54  N   UNL A   1      42.300  28.367  28.524  1.00  0.00    -0.248 NA
ATOM     55  C   UNL A   1      40.068  28.309  29.212  1.00  0.00     0.031 C 
ATOM     56  C   UNL A   1      42.677  32.425  30.321  1.00  0.00     0.029 A 
ATOM     57  N   UNL A   1      43.711  30.831  29.138  1.00  0.00    -0.354 N 
ATOM     58  C   UNL A   1      41.748  27.147  28.149  1.00  0.00     0.074 A 
ATOM     59  C   UNL A   1      40.363  27.192  28.564  1.00  0.00     0.031 C 
ATOM     60  C   UNL A   1      43.873  32.909  29.951  1.00  0.00     0.029 A 
ATOM     61  C   UNL A   1      44.578  31.894  29.171  1.00  0.00     0.049 A 
ATOM     62  H   UNL A   1      43.926  29.971  28.709  1.00  0.00     0.167 HD
ATOM     63  C   UNL A   1      42.351  26.082  27.560  1.00  0.00     0.037 A 
ATOM     64  C   UNL A   1      45.795  32.041  28.618  1.00  0.00     0.037 A 
ATOM     65  C   UNL A   1      43.695  26.107  27.027  1.00  0.00     0.049 A 
ATOM     66  C   UNL A   1      46.393  30.916  27.821  1.00  0.00     0.074 A 
ATOM     67  C   UNL A   1      44.372  25.114  26.337  1.00  0.00     0.029 A 
ATOM     68  N   UNL A   1      44.549  27.197  27.086  1.00  0.00    -0.354 N 
ATOM     69  N   UNL A   1      45.893  29.736  27.545  1.00  0.00    -0.248 NA
ATOM     70  C   UNL A   1      47.727  31.150  27.251  1.00  0.00     0.031 C 
ATOM     71  C   UNL A   1      45.640  25.599  25.992  1.00  0.00     0.029 A 
ATOM     72  C   UNL A   1      45.734  26.910  26.427  1.00  0.00     0.049 A 
ATOM     73  H   UNL A   1      44.343  28.051  27.531  1.00  0.00     0.167 HD
ATOM     74  C   UNL A   1      46.841  29.097  26.756  1.00  0.00     0.074 A 
ATOM     75  C   UNL A   1      47.932  30.031  26.572  1.00  0.00     0.031 C 
ATOM     76  C   UNL A   1      46.814  27.844  26.238  1.00  0.00     0.037 A 
BRANCH  63  77
ATOM     77  C   UNL A   1      41.599  24.775  27.508  1.00  0.00     0.057 A 
ATOM     78  C   UNL A   1      40.565  24.595  26.573  1.00  0.00     0.134 A 
ATOM     79  C   UNL A   1      41.854  23.707  28.378  1.00  0.00     0.134 A 
ATOM     80  F   UNL A   1      40.239  25.580  25.719  1.00  0.00    -0.206 F 
ATOM     81  C   UNL A   1      39.827  23.412  26.503  1.00  0.00     0.040 A 
ATOM     82  C   UNL A   1      41.154  22.500  28.286  1.00  0.00     0.040 A 
ATOM     83  F   UNL A   1      42.816  23.803  29.309  1.00  0.00    -0.206 F 
ATOM     84  C   UNL A   1      40.133  22.352  27.350  1.00  0.00     0.006 A 
ENDBRANCH  63  77
BRANCH  64  85
ATOM     85  C   UNL A   1      46.516  33.328  28.763  1.00  0.00     0.057 A 
ATOM     86  C   UNL A   1      46.418  34.333  27.795  1.00  0.00     0.134 A 
ATOM     87  C   UNL A   1      47.315  33.581  29.884  1.00  0.00     0.134 A 
ATOM     88  F   UNL A   1      45.681  34.142  26.691  1.00  0.00    -0.206 F 
ATOM     89  C   UNL A   1      47.090  35.547  27.935  1.00  0.00     0.040 A 
ATOM     90  C   UNL A   1      47.967  34.802  30.052  1.00  0.00     0.040 A 
ATOM     91  F   UNL A   1      47.437  32.659  30.850  1.00  0.00    -0.206 F 
ATOM     92  C   UNL A   1      47.858  35.788  29.073  1.00  0.00     0.006 A 
ENDBRANCH  64  85
BRANCH  76  93
ATOM     93  C   UNL A   1      47.982  27.420  25.393  1.00  0.00     0.057 A 
ATOM     94  C   UNL A   1      47.917  27.502  23.995  1.00  0.00     0.134 A 
ATOM     95  C   UNL A   1      49.162  26.915  25.953  1.00  0.00     0.134 A 
ATOM     96  F   UNL A   1      46.814  27.969  23.390  1.00  0.00    -0.206 F 
ATOM     97  C   UNL A   1      48.983  27.100  23.188  1.00  0.00     0.040 A 
ATOM     98  C   UNL A   1      50.246  26.537  25.158  1.00  0.00     0.040 A 
ATOM     99  F   UNL A   1      49.296  26.820  27.285  1.00  0.00    -0.206 F 
ATOM    100  C   UNL A   1      50.155  26.624  23.771  1.00  0.00     0.006 A 
ENDBRANCH  76  93
ENDBRANCH  50  51
ENDBRANCH  43  45
ENDBRANCH  42  43
ENDBRANCH  41  42
ENDBRANCH  40  41
ENDBRANCH  39  40
ENDBRANCH  38  39
ENDBRANCH   1  38
TORSDOF 23
ENDMDL
