MODEL 1
REMARK VINA RESULT:     -11.1      0.000      0.000
REMARK SMILES O=C(OCCOCCOCCOC(=O)[C@@H]1CS[C@@H](C2CC2)N1C(=O)Cc1ccn[nH]1)c1ccc(-c2c3nc(c(-c4c(F)cccc4F)c4ccc([nH]4)c(-c4c(F)cccc4F)c4nc(c(-c5c(F)cccc5F)c5ccc2[nH]5)C=C4)C=C3)cc1
REMARK SMILES IDX 8 1 7 2 6 3 5 4 4 5 3 6 2 7 1 8 31 9 32 10 84 11 33 12 83 13
REMARK SMILES IDX 34 14 35 15 36 16 77 17 37 18 82 19 76 20 78 21 38 22 81 23
REMARK SMILES IDX 75 24 74 25 39 27 65 28 48 29 64 30 49 31 52 32 63 33 79 34
REMARK SMILES IDX 50 35 51 36 62 38 80 39 53 40 40 41 41 42 46 43 42 44 43 45
REMARK SMILES IDX 45 46 47 47 44 48 66 49 67 50 72 51 68 52 69 53 71 54 73 55
REMARK SMILES IDX 70 56 54 57 55 58 60 59 56 60 57 61 59 62 61 63 58 64 9 65
REMARK SMILES IDX 10 66 11 67 12 68 13 69 14 70 15 71 16 72 22 73 17 74 18 75
REMARK SMILES IDX 23 76 24 77 25 78 26 79 27 80 30 81 28 82 29 83 19 85 20 86
REMARK SMILES IDX 21 87
REMARK H PARENT 78 26 52 37 30 84
REMARK Flexibility Score: inf
ROOT
ATOM      1  C   UNL A   1      31.102  29.032  23.188  1.00  0.00     0.188 C 
ENDROOT
BRANCH   1   2
ATOM      2  C   UNL A   1      31.796  28.965  24.546  1.00  0.00     0.188 C 
BRANCH   2   3
ATOM      3  O   UNL A   1      31.406  30.047  25.404  1.00  0.00    -0.376 OA
BRANCH   3   4
ATOM      4  C   UNL A   1      31.884  29.950  26.748  1.00  0.00     0.202 C 
BRANCH   4   5
ATOM      5  C   UNL A   1      33.054  30.875  27.070  1.00  0.00     0.261 C 
BRANCH   5   6
ATOM      6  O   UNL A   1      34.152  30.155  27.624  1.00  0.00    -0.460 OA
BRANCH   6   7
ATOM      7  C   UNL A   1      35.072  30.698  28.450  1.00  0.00     0.338 C 
ATOM      8  O   UNL A   1      34.808  31.733  29.057  1.00  0.00    -0.246 OA
BRANCH   7   9
ATOM      9  C   UNL A   1      36.366  30.049  28.765  1.00  0.00     0.060 A 
ATOM     10  C   UNL A   1      36.952  29.272  30.301  1.00  0.00     0.016 A 
ATOM     11  C   UNL A   1      37.436  30.075  27.316  1.00  0.00     0.016 A 
ATOM     12  C   UNL A   1      38.694  28.592  30.363  1.00  0.00     0.010 A 
ATOM     13  C   UNL A   1      39.079  29.365  27.365  1.00  0.00     0.010 A 
ATOM     14  C   UNL A   1      39.776  28.693  28.884  1.00  0.00    -0.014 A 
BRANCH  14  15
ATOM     15  C   UNL A   1      41.208  28.272  28.809  1.00  0.00     0.031 A 
ATOM     16  C   UNL A   1      41.552  26.920  28.281  1.00  0.00     0.074 A 
ATOM     17  C   UNL A   1      42.228  28.945  29.380  1.00  0.00     0.049 A 
ATOM     18  N   UNL A   1      42.591  26.509  27.609  1.00  0.00    -0.248 NA
ATOM     19  C   UNL A   1      40.603  25.858  28.612  1.00  0.00     0.031 C 
ATOM     20  C   UNL A   1      42.116  30.021  30.351  1.00  0.00     0.029 A 
ATOM     21  N   UNL A   1      43.574  28.940  29.058  1.00  0.00    -0.354 N 
ATOM     22  C   UNL A   1      42.381  25.148  27.419  1.00  0.00     0.074 A 
ATOM     23  C   UNL A   1      41.074  24.827  27.940  1.00  0.00     0.031 C 
ATOM     24  C   UNL A   1      43.239  30.764  30.301  1.00  0.00     0.029 A 
ATOM     25  C   UNL A   1      44.156  30.176  29.333  1.00  0.00     0.049 A 
ATOM     26  H   UNL A   1      44.057  28.167  28.684  1.00  0.00     0.167 HD
ATOM     27  C   UNL A   1      43.263  24.193  27.044  1.00  0.00     0.037 A 
ATOM     28  C   UNL A   1      45.216  30.762  28.726  1.00  0.00     0.037 A 
ATOM     29  C   UNL A   1      44.666  24.459  26.934  1.00  0.00     0.049 A 
ATOM     30  C   UNL A   1      46.142  29.810  28.017  1.00  0.00     0.074 A 
ATOM     31  C   UNL A   1      45.712  23.567  26.813  1.00  0.00     0.029 A 
ATOM     32  N   UNL A   1      45.222  25.727  27.056  1.00  0.00    -0.354 N 
ATOM     33  N   UNL A   1      45.922  28.564  27.672  1.00  0.00    -0.248 NA
ATOM     34  C   UNL A   1      47.517  30.270  27.782  1.00  0.00     0.031 C 
ATOM     35  C   UNL A   1      46.903  24.287  26.953  1.00  0.00     0.029 A 
ATOM     36  C   UNL A   1      46.599  25.636  27.056  1.00  0.00     0.049 A 
ATOM     37  H   UNL A   1      44.710  26.564  27.131  1.00  0.00     0.167 HD
ATOM     38  C   UNL A   1      47.159  28.049  27.326  1.00  0.00     0.074 A 
ATOM     39  C   UNL A   1      48.096  29.155  27.354  1.00  0.00     0.031 C 
ATOM     40  C   UNL A   1      47.503  26.757  27.112  1.00  0.00     0.037 A 
BRANCH  27  41
ATOM     41  C   UNL A   1      42.735  22.787  27.040  1.00  0.00     0.057 A 
ATOM     42  C   UNL A   1      42.332  22.151  25.857  1.00  0.00     0.134 A 
ATOM     43  C   UNL A   1      42.452  22.137  28.251  1.00  0.00     0.134 A 
ATOM     44  F   UNL A   1      42.515  22.747  24.669  1.00  0.00    -0.206 F 
ATOM     45  C   UNL A   1      41.638  20.939  25.881  1.00  0.00     0.040 A 
ATOM     46  C   UNL A   1      41.779  20.915  28.285  1.00  0.00     0.040 A 
ATOM     47  F   UNL A   1      42.766  22.711  29.422  1.00  0.00    -0.206 F 
ATOM     48  C   UNL A   1      41.358  20.320  27.099  1.00  0.00     0.006 A 
ENDBRANCH  27  41
BRANCH  28  49
ATOM     49  C   UNL A   1      45.490  32.241  28.723  1.00  0.00     0.057 A 
ATOM     50  C   UNL A   1      44.972  33.061  27.699  1.00  0.00     0.134 A 
ATOM     51  C   UNL A   1      46.245  32.900  29.699  1.00  0.00     0.134 A 
ATOM     52  F   UNL A   1      44.266  32.523  26.692  1.00  0.00    -0.206 F 
ATOM     53  C   UNL A   1      45.180  34.447  27.658  1.00  0.00     0.040 A 
ATOM     54  C   UNL A   1      46.417  34.291  29.703  1.00  0.00     0.040 A 
ATOM     55  F   UNL A   1      46.859  32.206  30.668  1.00  0.00    -0.206 F 
ATOM     56  C   UNL A   1      45.888  35.071  28.679  1.00  0.00     0.006 A 
ENDBRANCH  28  49
BRANCH  40  57
ATOM     57  C   UNL A   1      48.957  26.457  26.963  1.00  0.00     0.057 A 
ATOM     58  C   UNL A   1      49.758  26.154  28.071  1.00  0.00     0.134 A 
ATOM     59  C   UNL A   1      49.529  26.358  25.691  1.00  0.00     0.134 A 
ATOM     60  F   UNL A   1      49.260  26.229  29.315  1.00  0.00    -0.206 F 
ATOM     61  C   UNL A   1      51.089  25.768  27.918  1.00  0.00     0.040 A 
ATOM     62  C   UNL A   1      50.850  25.953  25.524  1.00  0.00     0.040 A 
ATOM     63  F   UNL A   1      48.800  26.623  24.596  1.00  0.00    -0.206 F 
ATOM     64  C   UNL A   1      51.634  25.657  26.638  1.00  0.00     0.006 A 
ENDBRANCH  40  57
ENDBRANCH  14  15
ENDBRANCH   7   9
ENDBRANCH   6   7
ENDBRANCH   5   6
ENDBRANCH   4   5
ENDBRANCH   3   4
ENDBRANCH   2   3
ENDBRANCH   1   2
BRANCH   1  65
ATOM     65  O   UNL A   1      30.990  27.808  22.465  1.00  0.00    -0.376 OA
BRANCH  65  66
ATOM     66  C   UNL A   1      30.636  26.639  23.189  1.00  0.00     0.202 C 
BRANCH  66  67
ATOM     67  C   UNL A   1      31.683  25.523  23.319  1.00  0.00     0.261 C 
BRANCH  67  68
ATOM     68  O   UNL A   1      31.176  24.196  23.534  1.00  0.00    -0.462 OA
BRANCH  68  69
ATOM     69  C   UNL A   1      31.111  23.817  24.847  1.00  0.00     0.329 C 
ATOM     70  O   UNL A   1      30.537  24.458  25.723  1.00  0.00    -0.250 OA
BRANCH  69  71
ATOM     71  C   UNL A   1      31.955  22.550  25.157  1.00  0.00     0.206 C 
ATOM     72  C   UNL A   1      32.654  22.826  26.472  1.00  0.00     0.109 C 
ATOM     73  N   UNL A   1      32.994  22.146  24.134  1.00  0.00    -0.315 N 
ATOM     74  S   UNL A   1      33.837  24.061  25.941  1.00  0.00    -0.134 SA
ATOM     75  C   UNL A   1      34.154  23.141  24.195  1.00  0.00     0.147 C 
BRANCH  73  76
ATOM     76  C   UNL A   1      32.482  21.187  23.217  1.00  0.00     0.230 C 
ATOM     77  O   UNL A   1      32.031  21.666  22.145  1.00  0.00    -0.274 OA
BRANCH  76  78
ATOM     78  C   UNL A   1      32.180  19.411  23.253  1.00  0.00     0.155 C 
BRANCH  78  79
ATOM     79  C   UNL A   1      33.219  17.764  24.181  1.00  0.00     0.044 A 
ATOM     80  C   UNL A   1      34.581  17.393  24.628  1.00  0.00     0.045 A 
ATOM     81  N   UNL A   1      32.670  16.412  24.662  1.00  0.00    -0.282 N 
ATOM     82  C   UNL A   1      34.691  15.999  24.826  1.00  0.00     0.135 A 
ATOM     83  N   UNL A   1      33.521  15.409  24.809  1.00  0.00    -0.184 NA
ATOM     84  H   UNL A   1      31.712  16.295  24.855  1.00  0.00     0.190 HD
ENDBRANCH  78  79
ENDBRANCH  76  78
ENDBRANCH  73  76
BRANCH  75  85
ATOM     85  C   UNL A   1      35.587  22.824  24.618  1.00  0.00     0.022 C 
ATOM     86  C   UNL A   1      35.948  21.392  24.628  1.00  0.00     0.007 C 
ATOM     87  C   UNL A   1      36.833  22.350  23.891  1.00  0.00     0.007 C 
ENDBRANCH  75  85
ENDBRANCH  69  71
ENDBRANCH  68  69
ENDBRANCH  67  68
ENDBRANCH  66  67
ENDBRANCH  65  66
ENDBRANCH   1  65
TORSDOF 21
ENDMDL
MODEL 2
REMARK VINA RESULT:     -10.6      4.026      7.854
REMARK SMILES O=C(OCCOCCOCCOC(=O)[C@@H]1CS[C@@H](C2CC2)N1C(=O)Cc1ccn[nH]1)c1ccc(-c2c3nc(c(-c4c(F)cccc4F)c4ccc([nH]4)c(-c4c(F)cccc4F)c4nc(c(-c5c(F)cccc5F)c5ccc2[nH]5)C=C4)C=C3)cc1
REMARK SMILES IDX 8 1 7 2 6 3 5 4 4 5 3 6 2 7 1 8 31 9 32 10 84 11 33 12 83 13
REMARK SMILES IDX 34 14 35 15 36 16 77 17 37 18 82 19 76 20 78 21 38 22 81 23
REMARK SMILES IDX 75 24 74 25 39 27 65 28 48 29 64 30 49 31 52 32 63 33 79 34
REMARK SMILES IDX 50 35 51 36 62 38 80 39 53 40 40 41 41 42 46 43 42 44 43 45
REMARK SMILES IDX 45 46 47 47 44 48 66 49 67 50 72 51 68 52 69 53 71 54 73 55
REMARK SMILES IDX 70 56 54 57 55 58 60 59 56 60 57 61 59 62 61 63 58 64 9 65
REMARK SMILES IDX 10 66 11 67 12 68 13 69 14 70 15 71 16 72 22 73 17 74 18 75
REMARK SMILES IDX 23 76 24 77 25 78 26 79 27 80 30 81 28 82 29 83 19 85 20 86
REMARK SMILES IDX 21 87
REMARK H PARENT 78 26 52 37 30 84
REMARK Flexibility Score: inf
ROOT
ATOM      1  C   UNL A   1      30.524  25.405  23.437  1.00  0.00     0.188 C 
ENDROOT
BRANCH   1   2
ATOM      2  C   UNL A   1      30.022  26.642  24.179  1.00  0.00     0.188 C 
BRANCH   2   3
ATOM      3  O   UNL A   1      29.932  27.786  23.319  1.00  0.00    -0.376 OA
BRANCH   3   4
ATOM      4  C   UNL A   1      30.538  28.973  23.835  1.00  0.00     0.202 C 
BRANCH   4   5
ATOM      5  C   UNL A   1      31.879  28.747  24.528  1.00  0.00     0.261 C 
BRANCH   5   6
ATOM      6  O   UNL A   1      31.837  29.151  25.894  1.00  0.00    -0.460 OA
BRANCH   6   7
ATOM      7  C   UNL A   1      32.211  30.372  26.333  1.00  0.00     0.338 C 
ATOM      8  O   UNL A   1      31.493  31.344  26.108  1.00  0.00    -0.246 OA
BRANCH   7   9
ATOM      9  C   UNL A   1      33.400  30.602  27.186  1.00  0.00     0.060 A 
ATOM     10  C   UNL A   1      33.990  32.115  28.005  1.00  0.00     0.016 A 
ATOM     11  C   UNL A   1      34.314  29.064  27.393  1.00  0.00     0.016 A 
ATOM     12  C   UNL A   1      35.588  32.053  28.974  1.00  0.00     0.010 A 
ATOM     13  C   UNL A   1      35.810  29.000  28.376  1.00  0.00     0.010 A 
ATOM     14  C   UNL A   1      36.524  30.481  29.111  1.00  0.00    -0.014 A 
BRANCH  14  15
ATOM     15  C   UNL A   1      37.850  30.299  29.777  1.00  0.00     0.031 A 
ATOM     16  C   UNL A   1      38.010  30.670  31.212  1.00  0.00     0.074 A 
ATOM     17  C   UNL A   1      38.995  30.011  29.123  1.00  0.00     0.049 A 
ATOM     18  N   UNL A   1      38.763  30.154  32.144  1.00  0.00    -0.248 NA
ATOM     19  C   UNL A   1      37.247  31.839  31.646  1.00  0.00     0.031 C 
ATOM     20  C   UNL A   1      39.207  30.073  27.686  1.00  0.00     0.029 A 
ATOM     21  N   UNL A   1      40.149  29.412  29.594  1.00  0.00    -0.354 N 
ATOM     22  C   UNL A   1      38.518  30.930  33.272  1.00  0.00     0.074 A 
ATOM     23  C   UNL A   1      37.473  31.868  32.944  1.00  0.00     0.031 C 
ATOM     24  C   UNL A   1      40.235  29.262  27.369  1.00  0.00     0.029 A 
ATOM     25  C   UNL A   1      40.774  28.676  28.589  1.00  0.00     0.049 A 
ATOM     26  H   UNL A   1      40.485  29.494  30.516  1.00  0.00     0.167 HD
ATOM     27  C   UNL A   1      39.232  31.016  34.419  1.00  0.00     0.037 A 
ATOM     28  C   UNL A   1      41.554  27.575  28.711  1.00  0.00     0.037 A 
ATOM     29  C   UNL A   1      40.509  30.383  34.565  1.00  0.00     0.049 A 
ATOM     30  C   UNL A   1      42.195  27.404  30.063  1.00  0.00     0.074 A 
ATOM     31  C   UNL A   1      41.463  30.570  35.545  1.00  0.00     0.029 A 
ATOM     32  N   UNL A   1      41.056  29.524  33.621  1.00  0.00    -0.354 N 
ATOM     33  N   UNL A   1      41.887  27.996  31.192  1.00  0.00    -0.248 NA
ATOM     34  C   UNL A   1      43.400  26.567  30.128  1.00  0.00     0.031 C 
ATOM     35  C   UNL A   1      42.620  29.893  35.146  1.00  0.00     0.029 A 
ATOM     36  C   UNL A   1      42.352  29.203  33.974  1.00  0.00     0.049 A 
ATOM     37  H   UNL A   1      40.590  29.191  32.820  1.00  0.00     0.167 HD
ATOM     38  C   UNL A   1      42.937  27.729  32.052  1.00  0.00     0.074 A 
ATOM     39  C   UNL A   1      43.813  26.798  31.367  1.00  0.00     0.031 C 
ATOM     40  C   UNL A   1      43.205  28.292  33.254  1.00  0.00     0.037 A 
BRANCH  27  41
ATOM     41  C   UNL A   1      38.754  32.041  35.406  1.00  0.00     0.057 A 
ATOM     42  C   UNL A   1      39.123  33.390  35.308  1.00  0.00     0.134 A 
ATOM     43  C   UNL A   1      38.075  31.640  36.565  1.00  0.00     0.134 A 
ATOM     44  F   UNL A   1      39.829  33.827  34.254  1.00  0.00    -0.206 F 
ATOM     45  C   UNL A   1      38.865  34.294  36.342  1.00  0.00     0.040 A 
ATOM     46  C   UNL A   1      37.792  32.539  37.595  1.00  0.00     0.040 A 
ATOM     47  F   UNL A   1      37.734  30.356  36.746  1.00  0.00    -0.206 F 
ATOM     48  C   UNL A   1      38.200  33.866  37.491  1.00  0.00     0.006 A 
ENDBRANCH  27  41
BRANCH  28  49
ATOM     49  C   UNL A   1      41.791  26.568  27.620  1.00  0.00     0.057 A 
ATOM     50  C   UNL A   1      42.752  26.817  26.617  1.00  0.00     0.134 A 
ATOM     51  C   UNL A   1      41.112  25.350  27.515  1.00  0.00     0.134 A 
ATOM     52  F   UNL A   1      43.432  27.974  26.603  1.00  0.00    -0.206 F 
ATOM     53  C   UNL A   1      43.027  25.906  25.587  1.00  0.00     0.040 A 
ATOM     54  C   UNL A   1      41.414  24.404  26.524  1.00  0.00     0.040 A 
ATOM     55  F   UNL A   1      40.118  25.050  28.362  1.00  0.00    -0.206 F 
ATOM     56  C   UNL A   1      42.372  24.681  25.553  1.00  0.00     0.006 A 
ENDBRANCH  28  49
BRANCH  40  57
ATOM     57  C   UNL A   1      44.525  27.973  33.875  1.00  0.00     0.057 A 
ATOM     58  C   UNL A   1      44.681  26.884  34.740  1.00  0.00     0.134 A 
ATOM     59  C   UNL A   1      45.666  28.693  33.509  1.00  0.00     0.134 A 
ATOM     60  F   UNL A   1      43.620  26.156  35.121  1.00  0.00    -0.206 F 
ATOM     61  C   UNL A   1      45.935  26.525  35.231  1.00  0.00     0.040 A 
ATOM     62  C   UNL A   1      46.927  28.330  33.975  1.00  0.00     0.040 A 
ATOM     63  F   UNL A   1      45.572  29.735  32.670  1.00  0.00    -0.206 F 
ATOM     64  C   UNL A   1      47.064  27.244  34.838  1.00  0.00     0.006 A 
ENDBRANCH  40  57
ENDBRANCH  14  15
ENDBRANCH   7   9
ENDBRANCH   6   7
ENDBRANCH   5   6
ENDBRANCH   4   5
ENDBRANCH   3   4
ENDBRANCH   2   3
ENDBRANCH   1   2
BRANCH   1  65
ATOM     65  O   UNL A   1      30.884  24.280  24.236  1.00  0.00    -0.376 OA
BRANCH  65  66
ATOM     66  C   UNL A   1      30.882  24.440  25.647  1.00  0.00     0.202 C 
BRANCH  66  67
ATOM     67  C   UNL A   1      32.234  24.529  26.368  1.00  0.00     0.261 C 
BRANCH  67  68
ATOM     68  O   UNL A   1      33.399  24.246  25.576  1.00  0.00    -0.462 OA
BRANCH  68  69
ATOM     69  C   UNL A   1      34.014  23.060  25.871  1.00  0.00     0.329 C 
ATOM     70  O   UNL A   1      34.244  22.667  27.012  1.00  0.00    -0.250 OA
BRANCH  69  71
ATOM     71  C   UNL A   1      34.520  22.306  24.611  1.00  0.00     0.206 C 
ATOM     72  C   UNL A   1      33.307  22.114  23.724  1.00  0.00     0.109 C 
ATOM     73  N   UNL A   1      35.176  20.961  24.828  1.00  0.00    -0.315 N 
ATOM     74  S   UNL A   1      32.416  20.889  24.678  1.00  0.00    -0.134 SA
ATOM     75  C   UNL A   1      34.096  19.946  25.209  1.00  0.00     0.147 C 
BRANCH  73  76
ATOM     76  C   UNL A   1      36.589  21.076  24.932  1.00  0.00     0.230 C 
ATOM     77  O   UNL A   1      37.033  22.251  24.862  1.00  0.00    -0.274 OA
BRANCH  76  78
ATOM     78  C   UNL A   1      37.969  19.918  25.006  1.00  0.00     0.155 C 
BRANCH  78  79
ATOM     79  C   UNL A   1      39.883  19.977  25.997  1.00  0.00     0.044 A 
ATOM     80  C   UNL A   1      40.746  20.926  26.738  1.00  0.00     0.045 A 
ATOM     81  N   UNL A   1      40.920  18.858  26.182  1.00  0.00    -0.282 N 
ATOM     82  C   UNL A   1      42.074  20.455  26.815  1.00  0.00     0.135 A 
ATOM     83  N   UNL A   1      42.172  19.203  26.440  1.00  0.00    -0.184 NA
ATOM     84  H   UNL A   1      40.660  17.911  26.111  1.00  0.00     0.190 HD
ENDBRANCH  78  79
ENDBRANCH  76  78
ENDBRANCH  73  76
BRANCH  75  85
ATOM     85  C   UNL A   1      33.678  18.729  24.386  1.00  0.00     0.022 C 
ATOM     86  C   UNL A   1      34.731  17.718  24.160  1.00  0.00     0.007 C 
ATOM     87  C   UNL A   1      33.408  17.269  24.703  1.00  0.00     0.007 C 
ENDBRANCH  75  85
ENDBRANCH  69  71
ENDBRANCH  68  69
ENDBRANCH  67  68
ENDBRANCH  66  67
ENDBRANCH  65  66
ENDBRANCH   1  65
TORSDOF 21
ENDMDL
MODEL 3
REMARK VINA RESULT:     -10.0      3.280      8.473
REMARK SMILES O=C(OCCOCCOCCOC(=O)[C@@H]1CS[C@@H](C2CC2)N1C(=O)Cc1ccn[nH]1)c1ccc(-c2c3nc(c(-c4c(F)cccc4F)c4ccc([nH]4)c(-c4c(F)cccc4F)c4nc(c(-c5c(F)cccc5F)c5ccc2[nH]5)C=C4)C=C3)cc1
REMARK SMILES IDX 8 1 7 2 6 3 5 4 4 5 3 6 2 7 1 8 31 9 32 10 84 11 33 12 83 13
REMARK SMILES IDX 34 14 35 15 36 16 77 17 37 18 82 19 76 20 78 21 38 22 81 23
REMARK SMILES IDX 75 24 74 25 39 27 65 28 48 29 64 30 49 31 52 32 63 33 79 34
REMARK SMILES IDX 50 35 51 36 62 38 80 39 53 40 40 41 41 42 46 43 42 44 43 45
REMARK SMILES IDX 45 46 47 47 44 48 66 49 67 50 72 51 68 52 69 53 71 54 73 55
REMARK SMILES IDX 70 56 54 57 55 58 60 59 56 60 57 61 59 62 61 63 58 64 9 65
REMARK SMILES IDX 10 66 11 67 12 68 13 69 14 70 15 71 16 72 22 73 17 74 18 75
REMARK SMILES IDX 23 76 24 77 25 78 26 79 27 80 30 81 28 82 29 83 19 85 20 86
REMARK SMILES IDX 21 87
REMARK H PARENT 78 26 52 37 30 84
REMARK Flexibility Score: inf
ROOT
ATOM      1  C   UNL A   1      40.081  21.913  26.713  1.00  0.00     0.188 C 
ENDROOT
BRANCH   1   2
ATOM      2  C   UNL A   1      40.960  20.853  27.372  1.00  0.00     0.188 C 
BRANCH   2   3
ATOM      3  O   UNL A   1      42.084  20.501  26.554  1.00  0.00    -0.376 OA
BRANCH   3   4
ATOM      4  C   UNL A   1      41.939  19.276  25.831  1.00  0.00     0.202 C 
BRANCH   4   5
ATOM      5  C   UNL A   1      43.205  18.427  25.769  1.00  0.00     0.261 C 
BRANCH   5   6
ATOM      6  O   UNL A   1      43.821  18.497  24.485  1.00  0.00    -0.460 OA
BRANCH   6   7
ATOM      7  C   UNL A   1      44.854  19.312  24.186  1.00  0.00     0.338 C 
ATOM      8  O   UNL A   1      45.795  18.882  23.524  1.00  0.00    -0.246 OA
BRANCH   7   9
ATOM      9  C   UNL A   1      44.873  20.757  24.514  1.00  0.00     0.060 A 
ATOM     10  C   UNL A   1      44.321  22.194  23.545  1.00  0.00     0.016 A 
ATOM     11  C   UNL A   1      45.546  21.003  26.166  1.00  0.00     0.016 A 
ATOM     12  C   UNL A   1      44.551  23.907  24.260  1.00  0.00     0.010 A 
ATOM     13  C   UNL A   1      45.704  22.643  26.868  1.00  0.00     0.010 A 
ATOM     14  C   UNL A   1      45.299  24.121  25.921  1.00  0.00    -0.014 A 
BRANCH  14  15
ATOM     15  C   UNL A   1      45.621  25.422  26.583  1.00  0.00     0.031 A 
ATOM     16  C   UNL A   1      46.962  26.040  26.380  1.00  0.00     0.074 A 
ATOM     17  C   UNL A   1      44.857  25.999  27.533  1.00  0.00     0.049 A 
ATOM     18  N   UNL A   1      47.323  27.292  26.330  1.00  0.00    -0.248 NA
ATOM     19  C   UNL A   1      48.077  25.098  26.276  1.00  0.00     0.031 C 
ATOM     20  C   UNL A   1      43.757  25.378  28.253  1.00  0.00     0.029 A 
ATOM     21  N   UNL A   1      44.778  27.328  27.911  1.00  0.00    -0.354 N 
ATOM     22  C   UNL A   1      48.702  27.262  26.152  1.00  0.00     0.074 A 
ATOM     23  C   UNL A   1      49.095  25.884  25.988  1.00  0.00     0.031 C 
ATOM     24  C   UNL A   1      42.940  26.346  28.708  1.00  0.00     0.029 A 
ATOM     25  C   UNL A   1      43.496  27.646  28.353  1.00  0.00     0.049 A 
ATOM     26  H   UNL A   1      45.528  27.966  27.872  1.00  0.00     0.167 HD
ATOM     27  C   UNL A   1      49.605  28.255  26.319  1.00  0.00     0.037 A 
ATOM     28  C   UNL A   1      42.858  28.840  28.303  1.00  0.00     0.037 A 
ATOM     29  C   UNL A   1      49.244  29.518  26.891  1.00  0.00     0.049 A 
ATOM     30  C   UNL A   1      43.768  30.036  28.202  1.00  0.00     0.074 A 
ATOM     31  C   UNL A   1      50.065  30.526  27.356  1.00  0.00     0.029 A 
ATOM     32  N   UNL A   1      47.938  29.886  27.185  1.00  0.00    -0.354 N 
ATOM     33  N   UNL A   1      45.038  30.069  27.876  1.00  0.00    -0.248 NA
ATOM     34  C   UNL A   1      43.221  31.327  28.638  1.00  0.00     0.031 C 
ATOM     35  C   UNL A   1      49.258  31.462  28.012  1.00  0.00     0.029 A 
ATOM     36  C   UNL A   1      47.931  31.088  27.864  1.00  0.00     0.049 A 
ATOM     37  H   UNL A   1      47.136  29.368  26.945  1.00  0.00     0.167 HD
ATOM     38  C   UNL A   1      45.476  31.337  28.213  1.00  0.00     0.074 A 
ATOM     39  C   UNL A   1      44.307  32.090  28.622  1.00  0.00     0.031 C 
ATOM     40  C   UNL A   1      46.748  31.798  28.280  1.00  0.00     0.037 A 
BRANCH  27  41
ATOM     41  C   UNL A   1      51.044  27.859  26.151  1.00  0.00     0.057 A 
ATOM     42  C   UNL A   1      51.815  27.399  27.228  1.00  0.00     0.134 A 
ATOM     43  C   UNL A   1      51.710  28.120  24.945  1.00  0.00     0.134 A 
ATOM     44  F   UNL A   1      51.252  27.190  28.427  1.00  0.00    -0.206 F 
ATOM     45  C   UNL A   1      53.200  27.246  27.120  1.00  0.00     0.040 A 
ATOM     46  C   UNL A   1      53.090  27.950  24.820  1.00  0.00     0.040 A 
ATOM     47  F   UNL A   1      51.043  28.608  23.889  1.00  0.00    -0.206 F 
ATOM     48  C   UNL A   1      53.840  27.525  25.913  1.00  0.00     0.006 A 
ENDBRANCH  27  41
BRANCH  28  49
ATOM     49  C   UNL A   1      41.365  29.015  28.338  1.00  0.00     0.057 A 
ATOM     50  C   UNL A   1      40.700  29.227  29.564  1.00  0.00     0.134 A 
ATOM     51  C   UNL A   1      40.546  28.991  27.204  1.00  0.00     0.134 A 
ATOM     52  F   UNL A   1      41.388  29.229  30.716  1.00  0.00    -0.206 F 
ATOM     53  C   UNL A   1      39.313  29.416  29.652  1.00  0.00     0.040 A 
ATOM     54  C   UNL A   1      39.166  29.233  27.269  1.00  0.00     0.040 A 
ATOM     55  F   UNL A   1      41.061  28.710  25.999  1.00  0.00    -0.206 F 
ATOM     56  C   UNL A   1      38.543  29.443  28.495  1.00  0.00     0.006 A 
ENDBRANCH  28  49
BRANCH  40  57
ATOM     57  C   UNL A   1      46.949  33.149  28.880  1.00  0.00     0.057 A 
ATOM     58  C   UNL A   1      47.163  33.314  30.254  1.00  0.00     0.134 A 
ATOM     59  C   UNL A   1      47.046  34.277  28.059  1.00  0.00     0.134 A 
ATOM     60  F   UNL A   1      47.086  32.265  31.088  1.00  0.00    -0.206 F 
ATOM     61  C   UNL A   1      47.459  34.564  30.795  1.00  0.00     0.040 A 
ATOM     62  C   UNL A   1      47.363  35.526  28.585  1.00  0.00     0.040 A 
ATOM     63  F   UNL A   1      46.865  34.170  26.734  1.00  0.00    -0.206 F 
ATOM     64  C   UNL A   1      47.570  35.673  29.956  1.00  0.00     0.006 A 
ENDBRANCH  40  57
ENDBRANCH  14  15
ENDBRANCH   7   9
ENDBRANCH   6   7
ENDBRANCH   5   6
ENDBRANCH   4   5
ENDBRANCH   3   4
ENDBRANCH   2   3
ENDBRANCH   1   2
BRANCH   1  65
ATOM     65  O   UNL A   1      38.886  21.455  26.084  1.00  0.00    -0.376 OA
BRANCH  65  66
ATOM     66  C   UNL A   1      37.969  22.431  25.612  1.00  0.00     0.202 C 
BRANCH  66  67
ATOM     67  C   UNL A   1      36.470  22.183  25.831  1.00  0.00     0.261 C 
BRANCH  67  68
ATOM     68  O   UNL A   1      35.631  23.348  25.873  1.00  0.00    -0.462 OA
BRANCH  68  69
ATOM     69  C   UNL A   1      34.314  23.112  25.587  1.00  0.00     0.329 C 
ATOM     70  O   UNL A   1      33.615  22.293  26.178  1.00  0.00    -0.250 OA
BRANCH  69  71
ATOM     71  C   UNL A   1      33.812  23.892  24.341  1.00  0.00     0.206 C 
ATOM     72  C   UNL A   1      34.485  25.248  24.398  1.00  0.00     0.109 C 
ATOM     73  N   UNL A   1      32.320  24.099  24.210  1.00  0.00    -0.315 N 
ATOM     74  S   UNL A   1      33.611  25.968  25.786  1.00  0.00    -0.134 SA
ATOM     75  C   UNL A   1      31.877  25.134  25.246  1.00  0.00     0.147 C 
BRANCH  73  76
ATOM     76  C   UNL A   1      31.716  23.084  23.419  1.00  0.00     0.230 C 
ATOM     77  O   UNL A   1      30.535  23.324  23.058  1.00  0.00    -0.274 OA
BRANCH  76  78
ATOM     78  C   UNL A   1      32.177  21.422  22.894  1.00  0.00     0.155 C 
BRANCH  78  79
ATOM     79  C   UNL A   1      32.524  19.586  23.971  1.00  0.00     0.044 A 
ATOM     80  C   UNL A   1      32.713  18.141  23.712  1.00  0.00     0.045 A 
ATOM     81  N   UNL A   1      32.686  19.359  25.482  1.00  0.00    -0.282 N 
ATOM     82  C   UNL A   1      32.524  17.383  24.889  1.00  0.00     0.135 A 
ATOM     83  N   UNL A   1      32.474  18.141  25.956  1.00  0.00    -0.184 NA
ATOM     84  H   UNL A   1      32.940  20.098  26.081  1.00  0.00     0.190 HD
ENDBRANCH  78  79
ENDBRANCH  76  78
ENDBRANCH  73  76
BRANCH  75  85
ATOM     85  C   UNL A   1      31.302  26.516  24.944  1.00  0.00     0.022 C 
ATOM     86  C   UNL A   1      31.150  26.847  23.513  1.00  0.00     0.007 C 
ATOM     87  C   UNL A   1      29.971  27.026  24.421  1.00  0.00     0.007 C 
ENDBRANCH  75  85
ENDBRANCH  69  71
ENDBRANCH  68  69
ENDBRANCH  67  68
ENDBRANCH  66  67
ENDBRANCH  65  66
ENDBRANCH   1  65
TORSDOF 21
ENDMDL
