MODEL 1
REMARK VINA RESULT:     -10.5      0.000      0.000
REMARK SMILES Cc1cc(C(=O)Nc2cccc(C(=O)NCC(=O)OCCOCCOCCOC(=O)c3ccc(-c4c5nc(c(-c6c(F)cccc6F)c6ccc([nH]6)c(-c6c(F)cccc6F)c6nc(c(-c7c(F)cccc7F)c7ccc4[nH]7)C=C6)C=C5)cc3)c2)no1
REMARK SMILES IDX 23 1 22 2 21 3 20 4 19 5 17 6 18 7 16 8 15 9 13 10 14 11
REMARK SMILES IDX 12 13 8 14 9 15 85 16 10 17 11 18 7 19 5 20 6 21 4 23 1 24
REMARK SMILES IDX 2 25 3 26 87 27 86 28 24 29 25 30 26 31 27 32 28 33 29 34
REMARK SMILES IDX 30 35 31 36 32 37 84 38 33 39 83 40 34 41 35 42 36 43 77 44
REMARK SMILES IDX 37 45 82 46 76 47 78 48 38 49 81 50 75 51 74 52 39 54 65 55
REMARK SMILES IDX 48 56 64 57 49 58 52 59 63 60 79 61 50 62 51 63 62 65 80 66
REMARK SMILES IDX 53 67 40 68 41 69 46 70 42 71 43 72 45 73 47 74 44 75 66 76
REMARK SMILES IDX 67 77 72 78 68 79 69 80 71 81 73 82 70 83 54 84 55 85 60 86
REMARK SMILES IDX 56 87 57 88 59 89 61 90 58 91
REMARK H PARENT 15 12 7 22 78 53 52 64
REMARK Flexibility Score: inf
ROOT
ATOM      1  C   UNL A   1      41.616  20.210  27.503  1.00  0.00     0.188 C 
ENDROOT
BRANCH   1   2
ATOM      2  O   UNL A   1      40.366  20.867  27.648  1.00  0.00    -0.376 OA
BRANCH   2   3
ATOM      3  C   UNL A   1      40.166  22.146  27.050  1.00  0.00     0.202 C 
BRANCH   3   4
ATOM      4  C   UNL A   1      38.990  22.362  26.081  1.00  0.00     0.261 C 
BRANCH   4   5
ATOM      5  O   UNL A   1      38.610  21.184  25.340  1.00  0.00    -0.462 OA
BRANCH   5   6
ATOM      6  C   UNL A   1      37.278  20.933  25.251  1.00  0.00     0.325 C 
ATOM      7  O   UNL A   1      36.797  19.858  24.918  1.00  0.00    -0.250 OA
BRANCH   6   8
ATOM      8  C   UNL A   1      36.409  22.092  25.775  1.00  0.00     0.239 C 
BRANCH   8   9
ATOM      9  N   UNL A   1      35.334  21.841  26.736  1.00  0.00    -0.341 N 
ATOM     10  C   UNL A   1      33.970  21.838  26.630  1.00  0.00     0.251 C 
ATOM     11  O   UNL A   1      33.329  21.434  27.600  1.00  0.00    -0.269 OA
ATOM     12  H   UNL A   1      35.658  21.633  27.642  1.00  0.00     0.164 HD
BRANCH  10  13
ATOM     13  C   UNL A   1      33.244  22.219  25.389  1.00  0.00     0.041 A 
ATOM     14  C   UNL A   1      31.450  23.380  24.247  1.00  0.00     0.042 A 
ATOM     15  C   UNL A   1      32.044  23.135  23.017  1.00  0.00     0.026 A 
ATOM     16  C   UNL A   1      31.978  22.791  25.389  1.00  0.00     0.040 A 
ATOM     17  C   UNL A   1      33.269  22.464  22.973  1.00  0.00     0.003 A 
ATOM     18  C   UNL A   1      33.889  22.052  24.157  1.00  0.00     0.014 A 
BRANCH  14  19
ATOM     19  N   UNL A   1      30.347  24.237  24.344  1.00  0.00    -0.321 N 
ATOM     20  C   UNL A   1      30.284  25.517  24.894  1.00  0.00     0.277 C 
ATOM     21  O   UNL A   1      29.170  25.948  25.196  1.00  0.00    -0.267 OA
ATOM     22  H   UNL A   1      29.503  23.890  23.974  1.00  0.00     0.170 HD
BRANCH  20  23
ATOM     23  C   UNL A   1      31.506  26.351  25.000  1.00  0.00     0.171 A 
ATOM     24  C   UNL A   1      34.328  28.307  26.358  1.00  0.00     0.091 C 
ATOM     25  C   UNL A   1      33.287  27.506  25.683  1.00  0.00     0.134 A 
ATOM     26  C   UNL A   1      32.446  26.489  26.070  1.00  0.00     0.082 A 
ATOM     27  O   UNL A   1      32.977  27.865  24.410  1.00  0.00    -0.361 OA
ATOM     28  N   UNL A   1      31.885  27.140  23.976  1.00  0.00    -0.074 NA
ENDBRANCH  20  23
ENDBRANCH  14  19
ENDBRANCH  10  13
ENDBRANCH   8   9
ENDBRANCH   6   8
ENDBRANCH   5   6
ENDBRANCH   4   5
ENDBRANCH   3   4
ENDBRANCH   2   3
ENDBRANCH   1   2
BRANCH   1  29
ATOM     29  C   UNL A   1      42.004  19.643  26.132  1.00  0.00     0.188 C 
BRANCH  29  30
ATOM     30  O   UNL A   1      43.356  19.329  25.962  1.00  0.00    -0.376 OA
BRANCH  30  31
ATOM     31  C   UNL A   1      44.192  20.236  25.270  1.00  0.00     0.202 C 
BRANCH  31  32
ATOM     32  C   UNL A   1      43.751  21.670  24.907  1.00  0.00     0.261 C 
BRANCH  32  33
ATOM     33  O   UNL A   1      43.840  22.692  25.914  1.00  0.00    -0.460 OA
BRANCH  33  34
ATOM     34  C   UNL A   1      44.269  23.918  25.529  1.00  0.00     0.338 C 
ATOM     35  O   UNL A   1      44.928  24.186  24.534  1.00  0.00    -0.246 OA
BRANCH  34  36
ATOM     36  C   UNL A   1      43.576  24.926  26.368  1.00  0.00     0.060 A 
ATOM     37  C   UNL A   1      43.872  26.291  26.200  1.00  0.00     0.016 A 
ATOM     38  C   UNL A   1      42.620  24.528  27.302  1.00  0.00     0.016 A 
ATOM     39  C   UNL A   1      43.235  27.255  26.986  1.00  0.00     0.010 A 
ATOM     40  C   UNL A   1      42.009  25.490  28.111  1.00  0.00     0.010 A 
ATOM     41  C   UNL A   1      42.337  26.854  27.981  1.00  0.00    -0.014 A 
BRANCH  41  42
ATOM     42  C   UNL A   1      41.912  27.796  29.046  1.00  0.00     0.031 A 
ATOM     43  C   UNL A   1      42.655  27.754  30.355  1.00  0.00     0.074 A 
ATOM     44  C   UNL A   1      40.877  28.641  28.889  1.00  0.00     0.049 A 
ATOM     45  N   UNL A   1      42.377  28.335  31.493  1.00  0.00    -0.248 NA
ATOM     46  C   UNL A   1      43.874  26.928  30.379  1.00  0.00     0.031 C 
ATOM     47  C   UNL A   1      40.111  28.828  27.660  1.00  0.00     0.029 A 
ATOM     48  N   UNL A   1      40.277  29.484  29.794  1.00  0.00    -0.354 N 
ATOM     49  C   UNL A   1      43.370  27.926  32.374  1.00  0.00     0.074 A 
ATOM     50  C   UNL A   1      44.244  27.032  31.645  1.00  0.00     0.031 C 
ATOM     51  C   UNL A   1      39.121  29.709  27.896  1.00  0.00     0.029 A 
ATOM     52  C   UNL A   1      39.158  30.109  29.302  1.00  0.00     0.049 A 
ATOM     53  H   UNL A   1      40.618  29.624  30.707  1.00  0.00     0.167 HD
ATOM     54  C   UNL A   1      43.539  28.264  33.674  1.00  0.00     0.037 A 
ATOM     55  C   UNL A   1      38.247  30.883  29.928  1.00  0.00     0.037 A 
ATOM     56  C   UNL A   1      42.667  29.148  34.398  1.00  0.00     0.049 A 
ATOM     57  C   UNL A   1      38.405  31.175  31.400  1.00  0.00     0.074 A 
ATOM     58  C   UNL A   1      42.760  29.562  35.715  1.00  0.00     0.029 A 
ATOM     59  N   UNL A   1      41.536  29.749  33.868  1.00  0.00    -0.354 N 
ATOM     60  N   UNL A   1      39.349  30.793  32.227  1.00  0.00    -0.248 NA
ATOM     61  C   UNL A   1      37.366  32.008  32.027  1.00  0.00     0.031 C 
ATOM     62  C   UNL A   1      41.652  30.366  35.998  1.00  0.00     0.029 A 
ATOM     63  C   UNL A   1      40.906  30.510  34.839  1.00  0.00     0.049 A 
ATOM     64  H   UNL A   1      41.225  29.649  32.938  1.00  0.00     0.167 HD
ATOM     65  C   UNL A   1      39.041  31.370  33.455  1.00  0.00     0.074 A 
ATOM     66  C   UNL A   1      37.826  32.132  33.264  1.00  0.00     0.031 C 
ATOM     67  C   UNL A   1      39.707  31.281  34.633  1.00  0.00     0.037 A 
BRANCH  54  68
ATOM     68  C   UNL A   1      44.693  27.640  34.405  1.00  0.00     0.057 A 
ATOM     69  C   UNL A   1      44.600  26.376  35.003  1.00  0.00     0.134 A 
ATOM     70  C   UNL A   1      45.922  28.306  34.493  1.00  0.00     0.134 A 
ATOM     71  F   UNL A   1      43.445  25.691  34.972  1.00  0.00    -0.206 F 
ATOM     72  C   UNL A   1      45.679  25.809  35.684  1.00  0.00     0.040 A 
ATOM     73  C   UNL A   1      47.017  27.736  35.144  1.00  0.00     0.040 A 
ATOM     74  F   UNL A   1      46.081  29.518  33.941  1.00  0.00    -0.206 F 
ATOM     75  C   UNL A   1      46.895  26.487  35.748  1.00  0.00     0.006 A 
ENDBRANCH  54  68
BRANCH  55  76
ATOM     76  C   UNL A   1      37.081  31.421  29.179  1.00  0.00     0.057 A 
ATOM     77  C   UNL A   1      37.079  32.731  28.687  1.00  0.00     0.134 A 
ATOM     78  C   UNL A   1      35.927  30.654  28.971  1.00  0.00     0.134 A 
ATOM     79  F   UNL A   1      38.141  33.527  28.881  1.00  0.00    -0.206 F 
ATOM     80  C   UNL A   1      35.967  33.267  28.033  1.00  0.00     0.040 A 
ATOM     81  C   UNL A   1      34.819  31.167  28.294  1.00  0.00     0.040 A 
ATOM     82  F   UNL A   1      35.861  29.394  29.423  1.00  0.00    -0.206 F 
ATOM     83  C   UNL A   1      34.835  32.481  27.830  1.00  0.00     0.006 A 
ENDBRANCH  55  76
BRANCH  67  84
ATOM     84  C   UNL A   1      39.180  32.074  35.796  1.00  0.00     0.057 A 
ATOM     85  C   UNL A   1      39.515  33.419  35.998  1.00  0.00     0.134 A 
ATOM     86  C   UNL A   1      38.278  31.493  36.699  1.00  0.00     0.134 A 
ATOM     87  F   UNL A   1      40.380  34.036  35.177  1.00  0.00    -0.206 F 
ATOM     88  C   UNL A   1      38.991  34.149  37.066  1.00  0.00     0.040 A 
ATOM     89  C   UNL A   1      37.724  32.221  37.752  1.00  0.00     0.040 A 
ATOM     90  F   UNL A   1      37.904  30.212  36.558  1.00  0.00    -0.206 F 
ATOM     91  C   UNL A   1      38.086  33.552  37.943  1.00  0.00     0.006 A 
ENDBRANCH  67  84
ENDBRANCH  41  42
ENDBRANCH  34  36
ENDBRANCH  33  34
ENDBRANCH  32  33
ENDBRANCH  31  32
ENDBRANCH  30  31
ENDBRANCH  29  30
ENDBRANCH   1  29
TORSDOF 21
ENDMDL
MODEL 2
REMARK VINA RESULT:     -10.2      1.368      2.182
REMARK SMILES Cc1cc(C(=O)Nc2cccc(C(=O)NCC(=O)OCCOCCOCCOC(=O)c3ccc(-c4c5nc(c(-c6c(F)cccc6F)c6ccc([nH]6)c(-c6c(F)cccc6F)c6nc(c(-c7c(F)cccc7F)c7ccc4[nH]7)C=C6)C=C5)cc3)c2)no1
REMARK SMILES IDX 23 1 22 2 21 3 20 4 19 5 17 6 18 7 16 8 15 9 13 10 14 11
REMARK SMILES IDX 12 13 8 14 9 15 85 16 10 17 11 18 7 19 5 20 6 21 4 23 1 24
REMARK SMILES IDX 2 25 3 26 87 27 86 28 24 29 25 30 26 31 27 32 28 33 29 34
REMARK SMILES IDX 30 35 31 36 32 37 84 38 33 39 83 40 34 41 35 42 36 43 77 44
REMARK SMILES IDX 37 45 82 46 76 47 78 48 38 49 81 50 75 51 74 52 39 54 65 55
REMARK SMILES IDX 48 56 64 57 49 58 52 59 63 60 79 61 50 62 51 63 62 65 80 66
REMARK SMILES IDX 53 67 40 68 41 69 46 70 42 71 43 72 45 73 47 74 44 75 66 76
REMARK SMILES IDX 67 77 72 78 68 79 69 80 71 81 73 82 70 83 54 84 55 85 60 86
REMARK SMILES IDX 56 87 57 88 59 89 61 90 58 91
REMARK H PARENT 15 12 7 22 78 53 52 64
REMARK Flexibility Score: inf
ROOT
ATOM      1  C   UNL A   1      39.033  22.191  26.244  1.00  0.00     0.188 C 
ENDROOT
BRANCH   1   2
ATOM      2  O   UNL A   1      38.045  22.419  25.250  1.00  0.00    -0.376 OA
BRANCH   2   3
ATOM      3  C   UNL A   1      36.735  22.829  25.637  1.00  0.00     0.202 C 
BRANCH   3   4
ATOM      4  C   UNL A   1      35.570  21.826  25.574  1.00  0.00     0.261 C 
BRANCH   4   5
ATOM      5  O   UNL A   1      35.814  20.687  24.724  1.00  0.00    -0.462 OA
BRANCH   5   6
ATOM      6  C   UNL A   1      34.854  19.727  24.714  1.00  0.00     0.325 C 
ATOM      7  O   UNL A   1      35.073  18.527  24.817  1.00  0.00    -0.250 OA
BRANCH   6   8
ATOM      8  C   UNL A   1      33.425  20.302  24.727  1.00  0.00     0.239 C 
BRANCH   8   9
ATOM      9  N   UNL A   1      32.581  20.228  23.533  1.00  0.00    -0.341 N 
ATOM     10  C   UNL A   1      32.197  21.155  22.603  1.00  0.00     0.251 C 
ATOM     11  O   UNL A   1      31.594  20.744  21.611  1.00  0.00    -0.269 OA
ATOM     12  H   UNL A   1      32.217  19.329  23.365  1.00  0.00     0.164 HD
BRANCH  10  13
ATOM     13  C   UNL A   1      32.539  22.600  22.697  1.00  0.00     0.041 A 
ATOM     14  C   UNL A   1      32.019  24.867  23.374  1.00  0.00     0.042 A 
ATOM     15  C   UNL A   1      33.317  25.272  23.095  1.00  0.00     0.026 A 
ATOM     16  C   UNL A   1      31.616  23.584  23.030  1.00  0.00     0.040 A 
ATOM     17  C   UNL A   1      34.246  24.327  22.653  1.00  0.00     0.003 A 
ATOM     18  C   UNL A   1      33.870  22.987  22.503  1.00  0.00     0.014 A 
BRANCH  14  19
ATOM     19  N   UNL A   1      31.131  25.732  24.026  1.00  0.00    -0.321 N 
ATOM     20  C   UNL A   1      30.431  25.528  25.215  1.00  0.00     0.277 C 
ATOM     21  O   UNL A   1      29.452  26.248  25.425  1.00  0.00    -0.267 OA
ATOM     22  H   UNL A   1      30.981  26.600  23.586  1.00  0.00     0.170 HD
BRANCH  20  23
ATOM     23  C   UNL A   1      30.924  24.556  26.221  1.00  0.00     0.171 A 
ATOM     24  C   UNL A   1      33.081  22.223  28.102  1.00  0.00     0.091 C 
ATOM     25  C   UNL A   1      32.132  23.172  27.484  1.00  0.00     0.134 A 
ATOM     26  C   UNL A   1      32.256  24.256  26.647  1.00  0.00     0.082 A 
ATOM     27  O   UNL A   1      30.812  22.918  27.672  1.00  0.00    -0.361 OA
ATOM     28  N   UNL A   1      30.058  23.784  26.906  1.00  0.00    -0.074 NA
ENDBRANCH  20  23
ENDBRANCH  14  19
ENDBRANCH  10  13
ENDBRANCH   8   9
ENDBRANCH   6   8
ENDBRANCH   5   6
ENDBRANCH   4   5
ENDBRANCH   3   4
ENDBRANCH   2   3
ENDBRANCH   1   2
BRANCH   1  29
ATOM     29  C   UNL A   1      39.892  20.923  26.164  1.00  0.00     0.188 C 
BRANCH  29  30
ATOM     30  O   UNL A   1      40.825  20.752  27.191  1.00  0.00    -0.376 OA
BRANCH  30  31
ATOM     31  C   UNL A   1      42.204  20.764  26.880  1.00  0.00     0.202 C 
BRANCH  31  32
ATOM     32  C   UNL A   1      42.780  21.520  25.663  1.00  0.00     0.261 C 
BRANCH  32  33
ATOM     33  O   UNL A   1      42.378  22.882  25.447  1.00  0.00    -0.460 OA
BRANCH  33  34
ATOM     34  C   UNL A   1      43.347  23.828  25.426  1.00  0.00     0.338 C 
ATOM     35  O   UNL A   1      44.120  24.067  24.509  1.00  0.00    -0.246 OA
BRANCH  34  36
ATOM     36  C   UNL A   1      43.139  24.716  26.597  1.00  0.00     0.060 A 
ATOM     37  C   UNL A   1      42.248  24.326  27.613  1.00  0.00     0.016 A 
ATOM     38  C   UNL A   1      43.839  25.917  26.703  1.00  0.00     0.016 A 
ATOM     39  C   UNL A   1      42.033  25.152  28.720  1.00  0.00     0.010 A 
ATOM     40  C   UNL A   1      43.598  26.757  27.794  1.00  0.00     0.010 A 
ATOM     41  C   UNL A   1      42.671  26.396  28.790  1.00  0.00    -0.014 A 
BRANCH  41  42
ATOM     42  C   UNL A   1      42.214  27.431  29.752  1.00  0.00     0.031 A 
ATOM     43  C   UNL A   1      42.892  27.485  31.095  1.00  0.00     0.074 A 
ATOM     44  C   UNL A   1      41.207  28.276  29.474  1.00  0.00     0.049 A 
ATOM     45  N   UNL A   1      42.572  28.163  32.166  1.00  0.00    -0.248 NA
ATOM     46  C   UNL A   1      44.091  26.644  31.248  1.00  0.00     0.031 C 
ATOM     47  C   UNL A   1      40.505  28.373  28.197  1.00  0.00     0.029 A 
ATOM     48  N   UNL A   1      40.581  29.201  30.275  1.00  0.00    -0.354 N 
ATOM     49  C   UNL A   1      43.513  27.812  33.126  1.00  0.00     0.074 A 
ATOM     50  C   UNL A   1      44.402  26.847  32.518  1.00  0.00     0.031 C 
ATOM     51  C   UNL A   1      39.523  29.287  28.310  1.00  0.00     0.029 A 
ATOM     52  C   UNL A   1      39.500  29.802  29.679  1.00  0.00     0.049 A 
ATOM     53  H   UNL A   1      40.880  29.412  31.190  1.00  0.00     0.167 HD
ATOM     54  C   UNL A   1      43.625  28.254  34.401  1.00  0.00     0.037 A 
ATOM     55  C   UNL A   1      38.576  30.640  30.192  1.00  0.00     0.037 A 
ATOM     56  C   UNL A   1      42.737  29.210  35.005  1.00  0.00     0.049 A 
ATOM     57  C   UNL A   1      38.668  31.051  31.642  1.00  0.00     0.074 A 
ATOM     58  C   UNL A   1      42.776  29.730  36.287  1.00  0.00     0.029 A 
ATOM     59  N   UNL A   1      41.646  29.783  34.372  1.00  0.00    -0.354 N 
ATOM     60  N   UNL A   1      39.563  30.723  32.543  1.00  0.00    -0.248 NA
ATOM     61  C   UNL A   1      37.618  31.951  32.145  1.00  0.00     0.031 C 
ATOM     62  C   UNL A   1      41.672  30.573  36.448  1.00  0.00     0.029 A 
ATOM     63  C   UNL A   1      40.986  30.633  35.245  1.00  0.00     0.049 A 
ATOM     64  H   UNL A   1      41.379  29.612  33.439  1.00  0.00     0.167 HD
ATOM     65  C   UNL A   1      39.208  31.406  33.703  1.00  0.00     0.074 A 
ATOM     66  C   UNL A   1      38.019  32.169  33.390  1.00  0.00     0.031 C 
ATOM     67  C   UNL A   1      39.814  31.403  34.916  1.00  0.00     0.037 A 
BRANCH  54  68
ATOM     68  C   UNL A   1      44.729  27.674  35.238  1.00  0.00     0.057 A 
ATOM     69  C   UNL A   1      44.557  26.505  35.991  1.00  0.00     0.134 A 
ATOM     70  C   UNL A   1      45.989  28.284  35.273  1.00  0.00     0.134 A 
ATOM     71  F   UNL A   1      43.369  25.880  36.016  1.00  0.00    -0.206 F 
ATOM     72  C   UNL A   1      45.590  25.979  36.768  1.00  0.00     0.040 A 
ATOM     73  C   UNL A   1      47.039  27.750  36.021  1.00  0.00     0.040 A 
ATOM     74  F   UNL A   1      46.224  29.404  34.574  1.00  0.00    -0.206 F 
ATOM     75  C   UNL A   1      46.839  26.598  36.778  1.00  0.00     0.006 A 
ENDBRANCH  54  68
BRANCH  55  76
ATOM     76  C   UNL A   1      37.459  31.134  29.345  1.00  0.00     0.057 A 
ATOM     77  C   UNL A   1      37.458  32.437  28.835  1.00  0.00     0.134 A 
ATOM     78  C   UNL A   1      36.349  30.330  29.056  1.00  0.00     0.134 A 
ATOM     79  F   UNL A   1      38.477  33.267  29.102  1.00  0.00    -0.206 F 
ATOM     80  C   UNL A   1      36.388  32.931  28.086  1.00  0.00     0.040 A 
ATOM     81  C   UNL A   1      35.285  30.800  28.284  1.00  0.00     0.040 A 
ATOM     82  F   UNL A   1      36.283  29.074  29.520  1.00  0.00    -0.206 F 
ATOM     83  C   UNL A   1      35.299  32.108  27.804  1.00  0.00     0.006 A 
ENDBRANCH  55  76
BRANCH  67  84
ATOM     84  C   UNL A   1      39.248  32.300  35.982  1.00  0.00     0.057 A 
ATOM     85  C   UNL A   1      39.648  33.633  36.129  1.00  0.00     0.134 A 
ATOM     86  C   UNL A   1      38.245  31.830  36.841  1.00  0.00     0.134 A 
ATOM     87  F   UNL A   1      40.611  34.146  35.346  1.00  0.00    -0.206 F 
ATOM     88  C   UNL A   1      39.089  34.460  37.105  1.00  0.00     0.040 A 
ATOM     89  C   UNL A   1      37.656  32.656  37.800  1.00  0.00     0.040 A 
ATOM     90  F   UNL A   1      37.804  30.566  36.748  1.00  0.00    -0.206 F 
ATOM     91  C   UNL A   1      38.083  33.973  37.939  1.00  0.00     0.006 A 
ENDBRANCH  67  84
ENDBRANCH  41  42
ENDBRANCH  34  36
ENDBRANCH  33  34
ENDBRANCH  32  33
ENDBRANCH  31  32
ENDBRANCH  30  31
ENDBRANCH  29  30
ENDBRANCH   1  29
TORSDOF 21
ENDMDL
MODEL 3
REMARK VINA RESULT:     -10.1      1.311      2.244
REMARK SMILES Cc1cc(C(=O)Nc2cccc(C(=O)NCC(=O)OCCOCCOCCOC(=O)c3ccc(-c4c5nc(c(-c6c(F)cccc6F)c6ccc([nH]6)c(-c6c(F)cccc6F)c6nc(c(-c7c(F)cccc7F)c7ccc4[nH]7)C=C6)C=C5)cc3)c2)no1
REMARK SMILES IDX 23 1 22 2 21 3 20 4 19 5 17 6 18 7 16 8 15 9 13 10 14 11
REMARK SMILES IDX 12 13 8 14 9 15 85 16 10 17 11 18 7 19 5 20 6 21 4 23 1 24
REMARK SMILES IDX 2 25 3 26 87 27 86 28 24 29 25 30 26 31 27 32 28 33 29 34
REMARK SMILES IDX 30 35 31 36 32 37 84 38 33 39 83 40 34 41 35 42 36 43 77 44
REMARK SMILES IDX 37 45 82 46 76 47 78 48 38 49 81 50 75 51 74 52 39 54 65 55
REMARK SMILES IDX 48 56 64 57 49 58 52 59 63 60 79 61 50 62 51 63 62 65 80 66
REMARK SMILES IDX 53 67 40 68 41 69 46 70 42 71 43 72 45 73 47 74 44 75 66 76
REMARK SMILES IDX 67 77 72 78 68 79 69 80 71 81 73 82 70 83 54 84 55 85 60 86
REMARK SMILES IDX 56 87 57 88 59 89 61 90 58 91
REMARK H PARENT 15 12 7 22 78 53 52 64
REMARK Flexibility Score: inf
ROOT
ATOM      1  C   UNL A   1      39.491  22.366  26.817  1.00  0.00     0.188 C 
ENDROOT
BRANCH   1   2
ATOM      2  O   UNL A   1      38.492  22.676  25.857  1.00  0.00    -0.376 OA
BRANCH   2   3
ATOM      3  C   UNL A   1      37.682  23.837  26.030  1.00  0.00     0.202 C 
BRANCH   3   4
ATOM      4  C   UNL A   1      36.223  23.831  25.540  1.00  0.00     0.261 C 
BRANCH   4   5
ATOM      5  O   UNL A   1      35.573  22.547  25.631  1.00  0.00    -0.462 OA
BRANCH   5   6
ATOM      6  C   UNL A   1      34.619  22.422  26.590  1.00  0.00     0.325 C 
ATOM      7  O   UNL A   1      34.585  21.522  27.420  1.00  0.00    -0.250 OA
BRANCH   6   8
ATOM      8  C   UNL A   1      33.660  23.625  26.648  1.00  0.00     0.239 C 
BRANCH   8   9
ATOM      9  N   UNL A   1      32.216  23.435  26.498  1.00  0.00    -0.341 N 
ATOM     10  C   UNL A   1      31.367  23.544  25.431  1.00  0.00     0.251 C 
ATOM     11  O   UNL A   1      30.206  23.166  25.593  1.00  0.00    -0.269 OA
ATOM     12  H   UNL A   1      31.766  23.176  27.334  1.00  0.00     0.164 HD
BRANCH  10  13
ATOM     13  C   UNL A   1      31.796  24.016  24.087  1.00  0.00     0.041 A 
ATOM     14  C   UNL A   1      31.685  25.597  22.255  1.00  0.00     0.042 A 
ATOM     15  C   UNL A   1      32.807  25.029  21.667  1.00  0.00     0.026 A 
ATOM     16  C   UNL A   1      31.115  24.990  23.366  1.00  0.00     0.040 A 
ATOM     17  C   UNL A   1      33.454  23.974  22.314  1.00  0.00     0.003 A 
ATOM     18  C   UNL A   1      32.979  23.503  23.543  1.00  0.00     0.014 A 
BRANCH  14  19
ATOM     19  N   UNL A   1      31.148  26.790  21.753  1.00  0.00    -0.321 N 
ATOM     20  C   UNL A   1      30.872  27.975  22.435  1.00  0.00     0.277 C 
ATOM     21  O   UNL A   1      30.090  28.764  21.901  1.00  0.00    -0.267 OA
ATOM     22  H   UNL A   1      30.939  26.792  20.791  1.00  0.00     0.170 HD
BRANCH  20  23
ATOM     23  C   UNL A   1      31.584  28.303  23.694  1.00  0.00     0.171 A 
ATOM     24  C   UNL A   1      32.303  29.269  27.184  1.00  0.00     0.091 C 
ATOM     25  C   UNL A   1      32.159  28.811  25.787  1.00  0.00     0.134 A 
ATOM     26  C   UNL A   1      31.138  28.255  25.052  1.00  0.00     0.082 A 
ATOM     27  O   UNL A   1      33.210  29.047  24.961  1.00  0.00    -0.361 OA
ATOM     28  N   UNL A   1      32.865  28.717  23.665  1.00  0.00    -0.074 NA
ENDBRANCH  20  23
ENDBRANCH  14  19
ENDBRANCH  10  13
ENDBRANCH   8   9
ENDBRANCH   6   8
ENDBRANCH   5   6
ENDBRANCH   4   5
ENDBRANCH   3   4
ENDBRANCH   2   3
ENDBRANCH   1   2
BRANCH   1  29
ATOM     29  C   UNL A   1      40.416  21.168  26.569  1.00  0.00     0.188 C 
BRANCH  29  30
ATOM     30  O   UNL A   1      41.569  21.114  27.357  1.00  0.00    -0.376 OA
BRANCH  30  31
ATOM     31  C   UNL A   1      42.834  21.058  26.727  1.00  0.00     0.202 C 
BRANCH  31  32
ATOM     32  C   UNL A   1      43.148  21.807  25.414  1.00  0.00     0.261 C 
BRANCH  32  33
ATOM     33  O   UNL A   1      42.691  23.162  25.270  1.00  0.00    -0.460 OA
BRANCH  33  34
ATOM     34  C   UNL A   1      43.621  24.147  25.318  1.00  0.00     0.338 C 
ATOM     35  O   UNL A   1      44.408  24.457  24.435  1.00  0.00    -0.246 OA
BRANCH  34  36
ATOM     36  C   UNL A   1      43.345  24.973  26.519  1.00  0.00     0.060 A 
ATOM     37  C   UNL A   1      42.293  24.614  27.381  1.00  0.00     0.016 A 
ATOM     38  C   UNL A   1      44.135  26.085  26.805  1.00  0.00     0.016 A 
ATOM     39  C   UNL A   1      42.012  25.384  28.513  1.00  0.00     0.010 A 
ATOM     40  C   UNL A   1      43.833  26.873  27.920  1.00  0.00     0.010 A 
ATOM     41  C   UNL A   1      42.750  26.547  28.760  1.00  0.00    -0.014 A 
BRANCH  41  42
ATOM     42  C   UNL A   1      42.271  27.559  29.734  1.00  0.00     0.031 A 
ATOM     43  C   UNL A   1      42.938  27.604  31.082  1.00  0.00     0.074 A 
ATOM     44  C   UNL A   1      41.251  28.392  29.463  1.00  0.00     0.049 A 
ATOM     45  N   UNL A   1      42.599  28.259  32.162  1.00  0.00    -0.248 NA
ATOM     46  C   UNL A   1      44.150  26.780  31.231  1.00  0.00     0.031 C 
ATOM     47  C   UNL A   1      40.557  28.498  28.182  1.00  0.00     0.029 A 
ATOM     48  N   UNL A   1      40.605  29.295  30.273  1.00  0.00    -0.354 N 
ATOM     49  C   UNL A   1      43.539  27.909  33.123  1.00  0.00     0.074 A 
ATOM     50  C   UNL A   1      44.448  26.967  32.507  1.00  0.00     0.031 C 
ATOM     51  C   UNL A   1      39.560  29.394  28.302  1.00  0.00     0.029 A 
ATOM     52  C   UNL A   1      39.519  29.887  29.678  1.00  0.00     0.049 A 
ATOM     53  H   UNL A   1      40.894  29.496  31.193  1.00  0.00     0.167 HD
ATOM     54  C   UNL A   1      43.636  28.332  34.405  1.00  0.00     0.037 A 
ATOM     55  C   UNL A   1      38.578  30.702  30.198  1.00  0.00     0.037 A 
ATOM     56  C   UNL A   1      42.728  29.264  35.018  1.00  0.00     0.049 A 
ATOM     57  C   UNL A   1      38.653  31.092  31.655  1.00  0.00     0.074 A 
ATOM     58  C   UNL A   1      42.749  29.765  36.308  1.00  0.00     0.029 A 
ATOM     59  N   UNL A   1      41.632  29.830  34.386  1.00  0.00    -0.354 N 
ATOM     60  N   UNL A   1      39.547  30.764  32.557  1.00  0.00    -0.248 NA
ATOM     61  C   UNL A   1      37.585  31.967  32.164  1.00  0.00     0.031 C 
ATOM     62  C   UNL A   1      41.631  30.588  36.474  1.00  0.00     0.029 A 
ATOM     63  C   UNL A   1      40.952  30.654  35.267  1.00  0.00     0.049 A 
ATOM     64  H   UNL A   1      41.374  29.668  33.449  1.00  0.00     0.167 HD
ATOM     65  C   UNL A   1      39.172  31.423  33.725  1.00  0.00     0.074 A 
ATOM     66  C   UNL A   1      37.974  32.172  33.415  1.00  0.00     0.031 C 
ATOM     67  C   UNL A   1      39.770  31.411  34.942  1.00  0.00     0.037 A 
BRANCH  54  68
ATOM     68  C   UNL A   1      44.743  27.757  35.241  1.00  0.00     0.057 A 
ATOM     69  C   UNL A   1      46.020  28.334  35.284  1.00  0.00     0.134 A 
ATOM     70  C   UNL A   1      44.521  26.622  36.029  1.00  0.00     0.134 A 
ATOM     71  F   UNL A   1      46.305  29.413  34.539  1.00  0.00    -0.206 F 
ATOM     72  C   UNL A   1      47.042  27.786  36.062  1.00  0.00     0.040 A 
ATOM     73  C   UNL A   1      45.526  26.084  36.835  1.00  0.00     0.040 A 
ATOM     74  F   UNL A   1      43.322  26.020  36.037  1.00  0.00    -0.206 F 
ATOM     75  C   UNL A   1      46.792  26.662  36.847  1.00  0.00     0.006 A 
ENDBRANCH  54  68
BRANCH  55  76
ATOM     76  C   UNL A   1      37.458  31.191  29.351  1.00  0.00     0.057 A 
ATOM     77  C   UNL A   1      37.460  32.489  28.828  1.00  0.00     0.134 A 
ATOM     78  C   UNL A   1      36.345  30.388  29.074  1.00  0.00     0.134 A 
ATOM     79  F   UNL A   1      38.482  33.318  29.082  1.00  0.00    -0.206 F 
ATOM     80  C   UNL A   1      36.388  32.979  28.079  1.00  0.00     0.040 A 
ATOM     81  C   UNL A   1      35.279  30.854  28.302  1.00  0.00     0.040 A 
ATOM     82  F   UNL A   1      36.277  29.136  29.551  1.00  0.00    -0.206 F 
ATOM     83  C   UNL A   1      35.295  32.157  27.809  1.00  0.00     0.006 A 
ENDBRANCH  55  76
BRANCH  67  84
ATOM     84  C   UNL A   1      39.183  32.282  36.018  1.00  0.00     0.057 A 
ATOM     85  C   UNL A   1      38.247  31.801  36.942  1.00  0.00     0.134 A 
ATOM     86  C   UNL A   1      39.606  33.611  36.161  1.00  0.00     0.134 A 
ATOM     87  F   UNL A   1      37.792  30.541  36.857  1.00  0.00    -0.206 F 
ATOM     88  C   UNL A   1      37.736  32.616  37.954  1.00  0.00     0.040 A 
ATOM     89  C   UNL A   1      39.126  34.425  37.188  1.00  0.00     0.040 A 
ATOM     90  F   UNL A   1      40.510  34.133  35.319  1.00  0.00    -0.206 F 
ATOM     91  C   UNL A   1      38.182  33.930  38.084  1.00  0.00     0.006 A 
ENDBRANCH  67  84
ENDBRANCH  41  42
ENDBRANCH  34  36
ENDBRANCH  33  34
ENDBRANCH  32  33
ENDBRANCH  31  32
ENDBRANCH  30  31
ENDBRANCH  29  30
ENDBRANCH   1  29
TORSDOF 21
ENDMDL
