MODEL 1
REMARK VINA RESULT:     -10.9      0.000      0.000
REMARK SMILES O=C(OCCOCCOCCOC(=O)c1cc(NC(=S)NC(=O)c2ccccc2F)ccc1Cl)c1ccc(-c2c3nc(c(-c4c(F)cccc4F)c4ccc([nH]4)c(-c4c(F)cccc4F)c4nc(c(-c5c(F)cccc5F)c5ccc2[nH]5)C=C4)C=C3)cc1
REMARK SMILES IDX 8 1 7 2 6 3 5 4 4 5 3 6 2 7 1 8 35 9 36 10 88 11 37 12 87 13
REMARK SMILES IDX 38 14 39 15 40 16 81 17 41 18 86 19 80 20 82 21 42 22 85 23
REMARK SMILES IDX 79 24 78 25 43 27 69 28 52 29 68 30 53 31 56 32 67 33 83 34
REMARK SMILES IDX 54 35 55 36 66 38 84 39 57 40 44 41 45 42 50 43 46 44 47 45
REMARK SMILES IDX 49 46 51 47 48 48 70 49 71 50 76 51 72 52 73 53 75 54 77 55
REMARK SMILES IDX 74 56 58 57 59 58 64 59 60 60 61 61 63 62 65 63 62 64 9 65
REMARK SMILES IDX 10 66 11 67 12 68 13 69 14 70 15 71 16 72 33 73 17 74 32 75
REMARK SMILES IDX 34 76 31 77 18 78 19 80 20 81 21 82 22 83 23 85 24 86 25 87
REMARK SMILES IDX 29 88 26 89 28 90 30 91 27 92
REMARK H PARENT 82 26 56 37 18 79 21 84
REMARK Flexibility Score: inf
ROOT
ATOM      1  C   UNL A   1      40.424  20.704  26.697  1.00  0.00     0.188 C 
ENDROOT
BRANCH   1   2
ATOM      2  C   UNL A   1      40.991  19.380  26.186  1.00  0.00     0.188 C 
BRANCH   2   3
ATOM      3  O   UNL A   1      42.192  19.564  25.427  1.00  0.00    -0.376 OA
BRANCH   3   4
ATOM      4  C   UNL A   1      43.117  20.463  26.048  1.00  0.00     0.202 C 
BRANCH   4   5
ATOM      5  C   UNL A   1      43.833  21.405  25.069  1.00  0.00     0.261 C 
BRANCH   5   6
ATOM      6  O   UNL A   1      43.196  22.688  24.954  1.00  0.00    -0.460 OA
BRANCH   6   7
ATOM      7  C   UNL A   1      43.758  23.914  25.106  1.00  0.00     0.338 C 
ATOM      8  O   UNL A   1      44.692  24.233  24.371  1.00  0.00    -0.246 OA
BRANCH   7   9
ATOM      9  C   UNL A   1      43.276  24.927  26.094  1.00  0.00     0.060 A 
ATOM     10  C   UNL A   1      43.659  26.270  26.119  1.00  0.00     0.016 A 
ATOM     11  C   UNL A   1      42.298  24.515  27.011  1.00  0.00     0.016 A 
ATOM     12  C   UNL A   1      43.181  27.161  27.074  1.00  0.00     0.010 A 
ATOM     13  C   UNL A   1      41.742  25.427  27.918  1.00  0.00     0.010 A 
ATOM     14  C   UNL A   1      42.205  26.756  27.973  1.00  0.00    -0.014 A 
BRANCH  14  15
ATOM     15  C   UNL A   1      41.759  27.664  29.053  1.00  0.00     0.031 A 
ATOM     16  C   UNL A   1      42.431  27.526  30.380  1.00  0.00     0.074 A 
ATOM     17  C   UNL A   1      40.842  28.634  28.866  1.00  0.00     0.049 A 
ATOM     18  N   UNL A   1      42.127  28.080  31.520  1.00  0.00    -0.248 NA
ATOM     19  C   UNL A   1      43.646  26.691  30.413  1.00  0.00     0.031 C 
ATOM     20  C   UNL A   1      40.292  29.066  27.585  1.00  0.00     0.029 A 
ATOM     21  N   UNL A   1      40.159  29.401  29.780  1.00  0.00    -0.354 N 
ATOM     22  C   UNL A   1      43.147  27.713  32.382  1.00  0.00     0.074 A 
ATOM     23  C   UNL A   1      44.006  26.789  31.681  1.00  0.00     0.031 C 
ATOM     24  C   UNL A   1      39.256  29.896  27.800  1.00  0.00     0.029 A 
ATOM     25  C   UNL A   1      39.069  30.039  29.230  1.00  0.00     0.049 A 
ATOM     26  H   UNL A   1      40.421  29.487  30.725  1.00  0.00     0.167 HD
ATOM     27  C   UNL A   1      43.389  28.181  33.625  1.00  0.00     0.037 A 
ATOM     28  C   UNL A   1      38.007  30.616  29.822  1.00  0.00     0.037 A 
ATOM     29  C   UNL A   1      42.521  29.099  34.302  1.00  0.00     0.049 A 
ATOM     30  C   UNL A   1      38.085  30.850  31.298  1.00  0.00     0.074 A 
ATOM     31  C   UNL A   1      42.647  29.632  35.569  1.00  0.00     0.029 A 
ATOM     32  N   UNL A   1      41.350  29.611  33.759  1.00  0.00    -0.354 N 
ATOM     33  N   UNL A   1      39.037  30.491  32.124  1.00  0.00    -0.248 NA
ATOM     34  C   UNL A   1      37.009  31.635  31.913  1.00  0.00     0.031 C 
ATOM     35  C   UNL A   1      41.522  30.424  35.814  1.00  0.00     0.029 A 
ATOM     36  C   UNL A   1      40.721  30.427  34.680  1.00  0.00     0.049 A 
ATOM     37  H   UNL A   1      41.018  29.422  32.852  1.00  0.00     0.167 HD
ATOM     38  C   UNL A   1      38.735  31.095  33.333  1.00  0.00     0.074 A 
ATOM     39  C   UNL A   1      37.475  31.789  33.146  1.00  0.00     0.031 C 
ATOM     40  C   UNL A   1      39.472  31.117  34.469  1.00  0.00     0.037 A 
BRANCH  27  41
ATOM     41  C   UNL A   1      44.642  27.700  34.286  1.00  0.00     0.057 A 
ATOM     42  C   UNL A   1      44.640  26.534  35.056  1.00  0.00     0.134 A 
ATOM     43  C   UNL A   1      45.864  28.367  34.114  1.00  0.00     0.134 A 
ATOM     44  F   UNL A   1      43.507  25.842  35.243  1.00  0.00    -0.206 F 
ATOM     45  C   UNL A   1      45.814  26.045  35.633  1.00  0.00     0.040 A 
ATOM     46  C   UNL A   1      47.046  27.875  34.666  1.00  0.00     0.040 A 
ATOM     47  F   UNL A   1      45.935  29.473  33.356  1.00  0.00    -0.206 F 
ATOM     48  C   UNL A   1      47.022  26.711  35.431  1.00  0.00     0.006 A 
ENDBRANCH  27  41
BRANCH  28  49
ATOM     49  C   UNL A   1      36.818  31.007  29.025  1.00  0.00     0.057 A 
ATOM     50  C   UNL A   1      35.882  30.046  28.612  1.00  0.00     0.134 A 
ATOM     51  C   UNL A   1      36.580  32.332  28.653  1.00  0.00     0.134 A 
ATOM     52  F   UNL A   1      36.056  28.753  28.923  1.00  0.00    -0.206 F 
ATOM     53  C   UNL A   1      34.752  30.392  27.867  1.00  0.00     0.040 A 
ATOM     54  C   UNL A   1      35.453  32.693  27.909  1.00  0.00     0.040 A 
ATOM     55  F   UNL A   1      37.430  33.298  29.027  1.00  0.00    -0.206 F 
ATOM     56  C   UNL A   1      34.535  31.721  27.512  1.00  0.00     0.006 A 
ENDBRANCH  28  49
BRANCH  40  57
ATOM     57  C   UNL A   1      38.976  31.976  35.587  1.00  0.00     0.057 A 
ATOM     58  C   UNL A   1      39.322  33.333  35.631  1.00  0.00     0.134 A 
ATOM     59  C   UNL A   1      38.250  31.449  36.658  1.00  0.00     0.134 A 
ATOM     60  F   UNL A   1      40.022  33.891  34.632  1.00  0.00    -0.206 F 
ATOM     61  C   UNL A   1      38.988  34.131  36.722  1.00  0.00     0.040 A 
ATOM     62  C   UNL A   1      37.885  32.245  37.743  1.00  0.00     0.040 A 
ATOM     63  F   UNL A   1      37.875  30.160  36.658  1.00  0.00    -0.206 F 
ATOM     64  C   UNL A   1      38.267  33.585  37.783  1.00  0.00     0.006 A 
ENDBRANCH  40  57
ENDBRANCH  14  15
ENDBRANCH   7   9
ENDBRANCH   6   7
ENDBRANCH   5   6
ENDBRANCH   4   5
ENDBRANCH   3   4
ENDBRANCH   2   3
ENDBRANCH   1   2
BRANCH   1  65
ATOM     65  O   UNL A   1      39.132  21.068  26.223  1.00  0.00    -0.376 OA
BRANCH  65  66
ATOM     66  C   UNL A   1      38.841  22.458  26.138  1.00  0.00     0.202 C 
BRANCH  66  67
ATOM     67  C   UNL A   1      37.470  22.924  25.602  1.00  0.00     0.261 C 
BRANCH  67  68
ATOM     68  O   UNL A   1      36.268  22.208  25.991  1.00  0.00    -0.460 OA
BRANCH  68  69
ATOM     69  C   UNL A   1      35.887  21.281  25.067  1.00  0.00     0.339 C 
ATOM     70  O   UNL A   1      36.384  20.164  24.980  1.00  0.00    -0.246 OA
BRANCH  69  71
ATOM     71  C   UNL A   1      34.804  21.827  24.014  1.00  0.00     0.080 A 
ATOM     72  C   UNL A   1      34.035  23.477  23.203  1.00  0.00     0.043 A 
ATOM     73  C   UNL A   1      33.694  21.698  24.052  1.00  0.00     0.055 A 
ATOM     74  C   UNL A   1      33.122  24.516  22.725  1.00  0.00     0.041 A 
ATOM     75  C   UNL A   1      32.173  22.866  23.434  1.00  0.00     0.023 A 
ATOM     76  Cl  UNL A   1      33.627  19.721  24.960  1.00  0.00    -0.083 Cl
ATOM     77  C   UNL A   1      31.918  24.089  22.841  1.00  0.00     0.028 A 
BRANCH  74  78
ATOM     78  N   UNL A   1      33.564  25.793  22.369  1.00  0.00    -0.332 N 
ATOM     79  H   UNL A   1      33.794  25.904  21.418  1.00  0.00     0.169 HD
BRANCH  78  80
ATOM     80  C   UNL A   1      33.726  26.914  23.136  1.00  0.00     0.177 C 
ATOM     81  S   UNL A   1      34.077  28.345  22.336  1.00  0.00    -0.040 S 
BRANCH  80  82
ATOM     82  N   UNL A   1      33.573  26.973  24.529  1.00  0.00    -0.299 N 
ATOM     83  C   UNL A   1      32.752  27.423  25.613  1.00  0.00     0.260 C 
ATOM     84  H   UNL A   1      34.352  26.519  24.925  1.00  0.00     0.172 HD
ATOM     85  O   UNL A   1      33.217  27.496  26.745  1.00  0.00    -0.269 OA
BRANCH  83  86
ATOM     86  C   UNL A   1      31.316  27.799  25.414  1.00  0.00     0.075 A 
ATOM     87  C   UNL A   1      30.863  29.454  24.367  1.00  0.00     0.017 A 
ATOM     88  C   UNL A   1      29.937  26.325  25.144  1.00  0.00     0.135 A 
ATOM     89  C   UNL A   1      29.251  29.929  23.275  1.00  0.00     0.001 A 
ATOM     90  C   UNL A   1      28.432  26.719  23.901  1.00  0.00     0.040 A 
ATOM     91  F   UNL A   1      30.321  25.052  25.288  1.00  0.00    -0.206 F 
ATOM     92  C   UNL A   1      27.881  28.425  23.011  1.00  0.00     0.003 A 
ENDBRANCH  83  86
ENDBRANCH  80  82
ENDBRANCH  78  80
ENDBRANCH  74  78
ENDBRANCH  69  71
ENDBRANCH  68  69
ENDBRANCH  67  68
ENDBRANCH  66  67
ENDBRANCH  65  66
ENDBRANCH   1  65
TORSDOF 21
ENDMDL
MODEL 2
REMARK VINA RESULT:     -10.5      1.495      1.937
REMARK SMILES O=C(OCCOCCOCCOC(=O)c1cc(NC(=S)NC(=O)c2ccccc2F)ccc1Cl)c1ccc(-c2c3nc(c(-c4c(F)cccc4F)c4ccc([nH]4)c(-c4c(F)cccc4F)c4nc(c(-c5c(F)cccc5F)c5ccc2[nH]5)C=C4)C=C3)cc1
REMARK SMILES IDX 8 1 7 2 6 3 5 4 4 5 3 6 2 7 1 8 35 9 36 10 88 11 37 12 87 13
REMARK SMILES IDX 38 14 39 15 40 16 81 17 41 18 86 19 80 20 82 21 42 22 85 23
REMARK SMILES IDX 79 24 78 25 43 27 69 28 52 29 68 30 53 31 56 32 67 33 83 34
REMARK SMILES IDX 54 35 55 36 66 38 84 39 57 40 44 41 45 42 50 43 46 44 47 45
REMARK SMILES IDX 49 46 51 47 48 48 70 49 71 50 76 51 72 52 73 53 75 54 77 55
REMARK SMILES IDX 74 56 58 57 59 58 64 59 60 60 61 61 63 62 65 63 62 64 9 65
REMARK SMILES IDX 10 66 11 67 12 68 13 69 14 70 15 71 16 72 33 73 17 74 32 75
REMARK SMILES IDX 34 76 31 77 18 78 19 80 20 81 21 82 22 83 23 85 24 86 25 87
REMARK SMILES IDX 29 88 26 89 28 90 30 91 27 92
REMARK H PARENT 82 26 56 37 18 79 21 84
REMARK Flexibility Score: inf
ROOT
ATOM      1  C   UNL A   1      40.829  20.860  27.045  1.00  0.00     0.188 C 
ENDROOT
BRANCH   1   2
ATOM      2  C   UNL A   1      41.235  19.492  26.497  1.00  0.00     0.188 C 
BRANCH   2   3
ATOM      3  O   UNL A   1      42.098  19.601  25.359  1.00  0.00    -0.376 OA
BRANCH   3   4
ATOM      4  C   UNL A   1      43.484  19.675  25.709  1.00  0.00     0.202 C 
BRANCH   4   5
ATOM      5  C   UNL A   1      44.162  20.996  25.314  1.00  0.00     0.261 C 
BRANCH   5   6
ATOM      6  O   UNL A   1      43.755  22.105  26.134  1.00  0.00    -0.460 OA
BRANCH   6   7
ATOM      7  C   UNL A   1      43.657  23.411  25.779  1.00  0.00     0.338 C 
ATOM      8  O   UNL A   1      43.880  23.727  24.611  1.00  0.00    -0.246 OA
BRANCH   7   9
ATOM      9  C   UNL A   1      43.248  24.495  26.725  1.00  0.00     0.060 A 
ATOM     10  C   UNL A   1      43.819  25.768  26.781  1.00  0.00     0.016 A 
ATOM     11  C   UNL A   1      42.148  24.241  27.557  1.00  0.00     0.016 A 
ATOM     12  C   UNL A   1      43.399  26.731  27.694  1.00  0.00     0.010 A 
ATOM     13  C   UNL A   1      41.659  25.234  28.414  1.00  0.00     0.010 A 
ATOM     14  C   UNL A   1      42.305  26.482  28.508  1.00  0.00    -0.014 A 
BRANCH  14  15
ATOM     15  C   UNL A   1      41.909  27.459  29.547  1.00  0.00     0.031 A 
ATOM     16  C   UNL A   1      42.535  27.309  30.896  1.00  0.00     0.074 A 
ATOM     17  C   UNL A   1      41.080  28.494  29.307  1.00  0.00     0.049 A 
ATOM     18  N   UNL A   1      42.249  27.923  32.010  1.00  0.00    -0.248 NA
ATOM     19  C   UNL A   1      43.675  26.379  30.987  1.00  0.00     0.031 C 
ATOM     20  C   UNL A   1      40.599  28.927  27.998  1.00  0.00     0.029 A 
ATOM     21  N   UNL A   1      40.441  29.344  30.178  1.00  0.00    -0.354 N 
ATOM     22  C   UNL A   1      43.214  27.502  32.910  1.00  0.00     0.074 A 
ATOM     23  C   UNL A   1      44.011  26.489  32.261  1.00  0.00     0.031 C 
ATOM     24  C   UNL A   1      39.630  29.846  28.160  1.00  0.00     0.029 A 
ATOM     25  C   UNL A   1      39.420  30.049  29.580  1.00  0.00     0.049 A 
ATOM     26  H   UNL A   1      40.686  29.438  31.127  1.00  0.00     0.167 HD
ATOM     27  C   UNL A   1      43.463  27.989  34.144  1.00  0.00     0.037 A 
ATOM     28  C   UNL A   1      38.396  30.730  30.124  1.00  0.00     0.037 A 
ATOM     29  C   UNL A   1      42.658  28.996  34.769  1.00  0.00     0.049 A 
ATOM     30  C   UNL A   1      38.456  31.005  31.594  1.00  0.00     0.074 A 
ATOM     31  C   UNL A   1      42.797  29.558  36.023  1.00  0.00     0.029 A 
ATOM     32  N   UNL A   1      41.547  29.584  34.179  1.00  0.00    -0.354 N 
ATOM     33  N   UNL A   1      39.355  30.597  32.457  1.00  0.00    -0.248 NA
ATOM     34  C   UNL A   1      37.434  31.895  32.156  1.00  0.00     0.031 C 
ATOM     35  C   UNL A   1      41.734  30.447  36.213  1.00  0.00     0.029 A 
ATOM     36  C   UNL A   1      40.965  30.478  35.058  1.00  0.00     0.049 A 
ATOM     37  H   UNL A   1      41.223  29.394  33.270  1.00  0.00     0.167 HD
ATOM     38  C   UNL A   1      39.075  31.262  33.638  1.00  0.00     0.074 A 
ATOM     39  C   UNL A   1      37.880  32.050  33.396  1.00  0.00     0.031 C 
ATOM     40  C   UNL A   1      39.782  31.260  34.793  1.00  0.00     0.037 A 
BRANCH  27  41
ATOM     41  C   UNL A   1      44.656  27.429  34.853  1.00  0.00     0.057 A 
ATOM     42  C   UNL A   1      44.528  26.331  35.709  1.00  0.00     0.134 A 
ATOM     43  C   UNL A   1      45.942  27.948  34.646  1.00  0.00     0.134 A 
ATOM     44  F   UNL A   1      43.326  25.780  35.934  1.00  0.00    -0.206 F 
ATOM     45  C   UNL A   1      45.640  25.765  36.333  1.00  0.00     0.040 A 
ATOM     46  C   UNL A   1      47.064  27.375  35.246  1.00  0.00     0.040 A 
ATOM     47  F   UNL A   1      46.134  28.979  33.807  1.00  0.00    -0.206 F 
ATOM     48  C   UNL A   1      46.913  26.282  36.095  1.00  0.00     0.006 A 
ENDBRANCH  27  41
BRANCH  28  49
ATOM     49  C   UNL A   1      37.262  31.191  29.284  1.00  0.00     0.057 A 
ATOM     50  C   UNL A   1      36.210  30.322  28.959  1.00  0.00     0.134 A 
ATOM     51  C   UNL A   1      37.194  32.494  28.784  1.00  0.00     0.134 A 
ATOM     52  F   UNL A   1      36.218  29.054  29.395  1.00  0.00    -0.206 F 
ATOM     53  C   UNL A   1      35.130  30.736  28.175  1.00  0.00     0.040 A 
ATOM     54  C   UNL A   1      36.120  32.921  28.000  1.00  0.00     0.040 A 
ATOM     55  F   UNL A   1      38.163  33.375  29.070  1.00  0.00    -0.206 F 
ATOM     56  C   UNL A   1      35.083  32.041  27.692  1.00  0.00     0.006 A 
ENDBRANCH  28  49
BRANCH  40  57
ATOM     57  C   UNL A   1      39.332  32.193  35.870  1.00  0.00     0.057 A 
ATOM     58  C   UNL A   1      39.924  33.457  35.992  1.00  0.00     0.134 A 
ATOM     59  C   UNL A   1      38.397  31.810  36.835  1.00  0.00     0.134 A 
ATOM     60  F   UNL A   1      40.831  33.875  35.096  1.00  0.00    -0.206 F 
ATOM     61  C   UNL A   1      39.622  34.299  37.059  1.00  0.00     0.040 A 
ATOM     62  C   UNL A   1      38.066  32.656  37.893  1.00  0.00     0.040 A 
ATOM     63  F   UNL A   1      37.785  30.619  36.756  1.00  0.00    -0.206 F 
ATOM     64  C   UNL A   1      38.690  33.897  38.015  1.00  0.00     0.006 A 
ENDBRANCH  40  57
ENDBRANCH  14  15
ENDBRANCH   7   9
ENDBRANCH   6   7
ENDBRANCH   5   6
ENDBRANCH   4   5
ENDBRANCH   3   4
ENDBRANCH   2   3
ENDBRANCH   1   2
BRANCH   1  65
ATOM     65  O   UNL A   1      39.949  21.634  26.237  1.00  0.00    -0.376 OA
BRANCH  65  66
ATOM     66  C   UNL A   1      38.784  20.985  25.743  1.00  0.00     0.202 C 
BRANCH  66  67
ATOM     67  C   UNL A   1      37.692  21.808  25.025  1.00  0.00     0.261 C 
BRANCH  67  68
ATOM     68  O   UNL A   1      36.294  21.524  25.286  1.00  0.00    -0.460 OA
BRANCH  68  69
ATOM     69  C   UNL A   1      35.562  22.651  25.518  1.00  0.00     0.339 C 
ATOM     70  O   UNL A   1      36.059  23.752  25.728  1.00  0.00    -0.246 OA
BRANCH  69  71
ATOM     71  C   UNL A   1      33.981  22.386  25.613  1.00  0.00     0.080 A 
ATOM     72  C   UNL A   1      32.197  23.057  25.031  1.00  0.00     0.043 A 
ATOM     73  C   UNL A   1      33.344  22.397  26.532  1.00  0.00     0.055 A 
ATOM     74  C   UNL A   1      30.813  23.532  25.004  1.00  0.00     0.041 A 
ATOM     75  C   UNL A   1      31.420  22.910  26.839  1.00  0.00     0.023 A 
ATOM     76  Cl  UNL A   1      34.801  21.618  27.948  1.00  0.00    -0.083 Cl
ATOM     77  C   UNL A   1      30.307  23.392  26.174  1.00  0.00     0.028 A 
BRANCH  74  78
ATOM     78  N   UNL A   1      30.264  24.168  23.887  1.00  0.00    -0.332 N 
ATOM     79  H   UNL A   1      29.562  23.659  23.421  1.00  0.00     0.169 HD
BRANCH  78  80
ATOM     80  C   UNL A   1      30.549  25.389  23.341  1.00  0.00     0.177 C 
ATOM     81  S   UNL A   1      29.385  26.587  23.494  1.00  0.00    -0.040 S 
BRANCH  80  82
ATOM     82  N   UNL A   1      31.752  25.734  22.707  1.00  0.00    -0.299 N 
ATOM     83  C   UNL A   1      32.811  26.695  22.620  1.00  0.00     0.260 C 
ATOM     84  H   UNL A   1      31.948  25.026  22.053  1.00  0.00     0.172 HD
ATOM     85  O   UNL A   1      33.547  26.707  21.639  1.00  0.00    -0.269 OA
BRANCH  83  86
ATOM     86  C   UNL A   1      33.069  27.690  23.709  1.00  0.00     0.075 A 
ATOM     87  C   UNL A   1      31.910  29.327  23.847  1.00  0.00     0.017 A 
ATOM     88  C   UNL A   1      33.664  27.021  25.538  1.00  0.00     0.135 A 
ATOM     89  C   UNL A   1      31.403  30.460  25.420  1.00  0.00     0.001 A 
ATOM     90  C   UNL A   1      33.000  28.028  27.123  1.00  0.00     0.040 A 
ATOM     91  F   UNL A   1      33.946  25.722  25.687  1.00  0.00    -0.206 F 
ATOM     92  C   UNL A   1      32.008  29.760  27.251  1.00  0.00     0.003 A 
ENDBRANCH  83  86
ENDBRANCH  80  82
ENDBRANCH  78  80
ENDBRANCH  74  78
ENDBRANCH  69  71
ENDBRANCH  68  69
ENDBRANCH  67  68
ENDBRANCH  66  67
ENDBRANCH  65  66
ENDBRANCH   1  65
TORSDOF 21
ENDMDL
MODEL 3
REMARK VINA RESULT:     -10.3      3.096      9.041
REMARK SMILES O=C(OCCOCCOCCOC(=O)c1cc(NC(=S)NC(=O)c2ccccc2F)ccc1Cl)c1ccc(-c2c3nc(c(-c4c(F)cccc4F)c4ccc([nH]4)c(-c4c(F)cccc4F)c4nc(c(-c5c(F)cccc5F)c5ccc2[nH]5)C=C4)C=C3)cc1
REMARK SMILES IDX 8 1 7 2 6 3 5 4 4 5 3 6 2 7 1 8 35 9 36 10 88 11 37 12 87 13
REMARK SMILES IDX 38 14 39 15 40 16 81 17 41 18 86 19 80 20 82 21 42 22 85 23
REMARK SMILES IDX 79 24 78 25 43 27 69 28 52 29 68 30 53 31 56 32 67 33 83 34
REMARK SMILES IDX 54 35 55 36 66 38 84 39 57 40 44 41 45 42 50 43 46 44 47 45
REMARK SMILES IDX 49 46 51 47 48 48 70 49 71 50 76 51 72 52 73 53 75 54 77 55
REMARK SMILES IDX 74 56 58 57 59 58 64 59 60 60 61 61 63 62 65 63 62 64 9 65
REMARK SMILES IDX 10 66 11 67 12 68 13 69 14 70 15 71 16 72 33 73 17 74 32 75
REMARK SMILES IDX 34 76 31 77 18 78 19 80 20 81 21 82 22 83 23 85 24 86 25 87
REMARK SMILES IDX 29 88 26 89 28 90 30 91 27 92
REMARK H PARENT 82 26 56 37 18 79 21 84
REMARK Flexibility Score: inf
ROOT
ATOM      1  C   UNL A   1      32.983  28.760  26.028  1.00  0.00     0.188 C 
ENDROOT
BRANCH   1   2
ATOM      2  C   UNL A   1      32.781  29.935  26.985  1.00  0.00     0.188 C 
BRANCH   2   3
ATOM      3  O   UNL A   1      31.454  30.469  26.912  1.00  0.00    -0.376 OA
BRANCH   3   4
ATOM      4  C   UNL A   1      31.426  31.872  26.628  1.00  0.00     0.202 C 
BRANCH   4   5
ATOM      5  C   UNL A   1      32.642  32.645  27.159  1.00  0.00     0.261 C 
BRANCH   5   6
ATOM      6  O   UNL A   1      32.285  33.869  27.824  1.00  0.00    -0.460 OA
BRANCH   6   7
ATOM      7  C   UNL A   1      33.066  34.645  28.617  1.00  0.00     0.338 C 
ATOM      8  O   UNL A   1      32.705  35.795  28.861  1.00  0.00    -0.246 OA
BRANCH   7   9
ATOM      9  C   UNL A   1      34.331  34.165  29.254  1.00  0.00     0.060 A 
ATOM     10  C   UNL A   1      35.617  34.404  28.764  1.00  0.00     0.016 A 
ATOM     11  C   UNL A   1      34.219  33.499  30.483  1.00  0.00     0.016 A 
ATOM     12  C   UNL A   1      36.755  33.919  29.400  1.00  0.00     0.010 A 
ATOM     13  C   UNL A   1      35.363  33.088  31.177  1.00  0.00     0.010 A 
ATOM     14  C   UNL A   1      36.644  33.271  30.621  1.00  0.00    -0.014 A 
BRANCH  14  15
ATOM     15  C   UNL A   1      37.836  32.669  31.258  1.00  0.00     0.031 A 
ATOM     16  C   UNL A   1      38.364  31.406  30.658  1.00  0.00     0.074 A 
ATOM     17  C   UNL A   1      38.487  33.241  32.291  1.00  0.00     0.049 A 
ATOM     18  N   UNL A   1      39.284  30.600  31.109  1.00  0.00    -0.248 NA
ATOM     19  C   UNL A   1      37.817  31.031  29.342  1.00  0.00     0.031 C 
ATOM     20  C   UNL A   1      38.260  34.584  32.815  1.00  0.00     0.029 A 
ATOM     21  N   UNL A   1      39.446  32.729  33.132  1.00  0.00    -0.354 N 
ATOM     22  C   UNL A   1      39.469  29.666  30.104  1.00  0.00     0.074 A 
ATOM     23  C   UNL A   1      38.484  29.920  29.080  1.00  0.00     0.031 C 
ATOM     24  C   UNL A   1      38.933  34.733  33.970  1.00  0.00     0.029 A 
ATOM     25  C   UNL A   1      39.622  33.492  34.265  1.00  0.00     0.049 A 
ATOM     26  H   UNL A   1      39.954  31.906  32.944  1.00  0.00     0.167 HD
ATOM     27  C   UNL A   1      40.439  28.733  30.010  1.00  0.00     0.037 A 
ATOM     28  C   UNL A   1      40.219  33.193  35.433  1.00  0.00     0.037 A 
ATOM     29  C   UNL A   1      41.408  28.499  31.040  1.00  0.00     0.049 A 
ATOM     30  C   UNL A   1      41.050  31.949  35.482  1.00  0.00     0.074 A 
ATOM     31  C   UNL A   1      42.428  27.570  31.071  1.00  0.00     0.029 A 
ATOM     32  N   UNL A   1      41.461  29.203  32.235  1.00  0.00    -0.354 N 
ATOM     33  N   UNL A   1      41.217  31.051  34.543  1.00  0.00    -0.248 NA
ATOM     34  C   UNL A   1      41.841  31.716  36.695  1.00  0.00     0.031 C 
ATOM     35  C   UNL A   1      43.066  27.676  32.311  1.00  0.00     0.029 A 
ATOM     36  C   UNL A   1      42.476  28.705  33.031  1.00  0.00     0.049 A 
ATOM     37  H   UNL A   1      40.866  29.948  32.479  1.00  0.00     0.167 HD
ATOM     38  C   UNL A   1      42.211  30.204  35.002  1.00  0.00     0.074 A 
ATOM     39  C   UNL A   1      42.561  30.660  36.335  1.00  0.00     0.031 C 
ATOM     40  C   UNL A   1      42.814  29.182  34.350  1.00  0.00     0.037 A 
BRANCH  27  41
ATOM     41  C   UNL A   1      40.475  27.934  28.745  1.00  0.00     0.057 A 
ATOM     42  C   UNL A   1      41.236  28.359  27.653  1.00  0.00     0.134 A 
ATOM     43  C   UNL A   1      39.795  26.713  28.631  1.00  0.00     0.134 A 
ATOM     44  F   UNL A   1      41.923  29.510  27.707  1.00  0.00    -0.206 F 
ATOM     45  C   UNL A   1      41.322  27.595  26.488  1.00  0.00     0.040 A 
ATOM     46  C   UNL A   1      39.893  25.930  27.481  1.00  0.00     0.040 A 
ATOM     47  F   UNL A   1      39.077  26.234  29.659  1.00  0.00    -0.206 F 
ATOM     48  C   UNL A   1      40.656  26.373  26.403  1.00  0.00     0.006 A 
ENDBRANCH  27  41
BRANCH  28  49
ATOM     49  C   UNL A   1      40.056  34.078  36.614  1.00  0.00     0.057 A 
ATOM     50  C   UNL A   1      40.905  35.177  36.810  1.00  0.00     0.134 A 
ATOM     51  C   UNL A   1      39.065  33.856  37.572  1.00  0.00     0.134 A 
ATOM     52  F   UNL A   1      41.888  35.440  35.935  1.00  0.00    -0.206 F 
ATOM     53  C   UNL A   1      40.767  36.027  37.910  1.00  0.00     0.040 A 
ATOM     54  C   UNL A   1      38.914  34.699  38.677  1.00  0.00     0.040 A 
ATOM     55  F   UNL A   1      38.214  32.830  37.434  1.00  0.00    -0.206 F 
ATOM     56  C   UNL A   1      39.767  35.787  38.850  1.00  0.00     0.006 A 
ENDBRANCH  28  49
BRANCH  40  57
ATOM     57  C   UNL A   1      43.969  28.523  35.031  1.00  0.00     0.057 A 
ATOM     58  C   UNL A   1      43.744  27.464  35.921  1.00  0.00     0.134 A 
ATOM     59  C   UNL A   1      45.277  28.993  34.888  1.00  0.00     0.134 A 
ATOM     60  F   UNL A   1      42.508  26.976  36.100  1.00  0.00    -0.206 F 
ATOM     61  C   UNL A   1      44.781  26.914  36.670  1.00  0.00     0.040 A 
ATOM     62  C   UNL A   1      46.328  28.432  35.613  1.00  0.00     0.040 A 
ATOM     63  F   UNL A   1      45.553  29.993  34.036  1.00  0.00    -0.206 F 
ATOM     64  C   UNL A   1      46.078  27.401  36.517  1.00  0.00     0.006 A 
ENDBRANCH  40  57
ENDBRANCH  14  15
ENDBRANCH   7   9
ENDBRANCH   6   7
ENDBRANCH   5   6
ENDBRANCH   4   5
ENDBRANCH   3   4
ENDBRANCH   2   3
ENDBRANCH   1   2
BRANCH   1  65
ATOM     65  O   UNL A   1      34.034  28.887  25.077  1.00  0.00    -0.376 OA
BRANCH  65  66
ATOM     66  C   UNL A   1      33.762  28.458  23.749  1.00  0.00     0.202 C 
BRANCH  66  67
ATOM     67  C   UNL A   1      34.023  26.990  23.347  1.00  0.00     0.261 C 
BRANCH  67  68
ATOM     68  O   UNL A   1      33.292  26.411  22.235  1.00  0.00    -0.460 OA
BRANCH  68  69
ATOM     69  C   UNL A   1      32.024  26.042  22.575  1.00  0.00     0.339 C 
ATOM     70  O   UNL A   1      31.045  26.244  21.866  1.00  0.00    -0.246 OA
BRANCH  69  71
ATOM     71  C   UNL A   1      31.906  25.422  24.052  1.00  0.00     0.080 A 
ATOM     72  C   UNL A   1      31.916  23.722  25.091  1.00  0.00     0.043 A 
ATOM     73  C   UNL A   1      31.032  25.483  24.747  1.00  0.00     0.055 A 
ATOM     74  C   UNL A   1      31.575  22.626  25.999  1.00  0.00     0.041 A 
ATOM     75  C   UNL A   1      30.325  24.220  26.148  1.00  0.00     0.023 A 
ATOM     76  Cl  UNL A   1      30.310  27.459  24.189  1.00  0.00    -0.083 Cl
ATOM     77  C   UNL A   1      30.567  22.979  26.708  1.00  0.00     0.028 A 
BRANCH  74  78
ATOM     78  N   UNL A   1      32.195  21.375  25.925  1.00  0.00    -0.332 N 
ATOM     79  H   UNL A   1      32.025  20.782  26.692  1.00  0.00     0.169 HD
BRANCH  78  80
ATOM     80  C   UNL A   1      32.999  20.847  24.953  1.00  0.00     0.177 C 
ATOM     81  S   UNL A   1      32.767  19.232  24.562  1.00  0.00    -0.040 S 
BRANCH  80  82
ATOM     82  N   UNL A   1      33.965  21.556  24.225  1.00  0.00    -0.299 N 
ATOM     83  C   UNL A   1      35.291  22.097  24.231  1.00  0.00     0.260 C 
ATOM     84  H   UNL A   1      33.568  21.771  23.350  1.00  0.00     0.172 HD
ATOM     85  O   UNL A   1      35.609  22.948  23.408  1.00  0.00    -0.269 OA
BRANCH  83  86
ATOM     86  C   UNL A   1      36.327  21.642  25.213  1.00  0.00     0.075 A 
ATOM     87  C   UNL A   1      37.236  19.870  24.941  1.00  0.00     0.017 A 
ATOM     88  C   UNL A   1      37.576  23.021  26.041  1.00  0.00     0.135 A 
ATOM     89  C   UNL A   1      39.051  19.218  25.484  1.00  0.00     0.001 A 
ATOM     90  C   UNL A   1      39.445  22.437  26.402  1.00  0.00     0.040 A 
ATOM     91  F   UNL A   1      37.355  24.317  25.797  1.00  0.00    -0.206 F 
ATOM     92  C   UNL A   1      40.293  20.628  26.308  1.00  0.00     0.003 A 
ENDBRANCH  83  86
ENDBRANCH  80  82
ENDBRANCH  78  80
ENDBRANCH  74  78
ENDBRANCH  69  71
ENDBRANCH  68  69
ENDBRANCH  67  68
ENDBRANCH  66  67
ENDBRANCH  65  66
ENDBRANCH   1  65
TORSDOF 21
ENDMDL
