MODEL 1
REMARK VINA RESULT:     -10.6      0.000      0.000
REMARK SMILES O=C(Cc1cccn1-c1ccc2c(c1)OCCO2)OCCOCCOCCOC(=O)c1ccc(-c2c3nc(c(-c4c(F)cccc4F)c4ccc([nH]4)c(-c4c(F)cccc4F)c4nc(c(-c5c(F)cccc5F)c5ccc2[nH]5)C=C4)C=C3)cc1
REMARK SMILES IDX 23 1 22 2 21 3 20 4 19 5 2 6 1 7 3 8 4 9 5 10 8 11 6 12 7 13
REMARK SMILES IDX 9 14 10 15 14 16 11 17 13 18 12 19 15 20 18 21 16 22 17 23
REMARK SMILES IDX 24 24 25 25 26 26 27 27 28 28 29 29 30 30 31 31 32 32 84 33
REMARK SMILES IDX 33 34 83 35 34 36 35 37 36 38 77 39 37 40 82 41 76 42 78 43
REMARK SMILES IDX 38 44 81 45 75 46 74 47 39 49 65 50 48 51 64 52 49 53 52 54
REMARK SMILES IDX 63 55 79 56 50 57 51 58 62 60 80 61 53 62 40 63 41 64 46 65
REMARK SMILES IDX 42 66 43 67 45 68 47 69 44 70 66 71 67 72 72 73 68 74 69 75
REMARK SMILES IDX 71 76 73 77 70 78 54 79 55 80 60 81 56 82 57 83 59 84 61 85
REMARK SMILES IDX 58 86
REMARK H PARENT 78 48 52 59
REMARK Flexibility Score: inf
ROOT
ATOM      1  C   UNL A   1      31.712  28.149  27.549  1.00  0.00     0.188 C 
ENDROOT
BRANCH   1   2
ATOM      2  O   UNL A   1      31.172  26.901  27.141  1.00  0.00    -0.376 OA
BRANCH   2   3
ATOM      3  C   UNL A   1      31.986  26.106  26.290  1.00  0.00     0.202 C 
BRANCH   3   4
ATOM      4  C   UNL A   1      31.976  24.619  26.624  1.00  0.00     0.261 C 
BRANCH   4   5
ATOM      5  O   UNL A   1      33.257  23.957  26.541  1.00  0.00    -0.463 OA
BRANCH   5   6
ATOM      6  C   UNL A   1      33.563  22.649  26.438  1.00  0.00     0.311 C 
ATOM      7  O   UNL A   1      33.360  21.914  27.406  1.00  0.00    -0.252 OA
BRANCH   6   8
ATOM      8  C   UNL A   1      34.243  22.097  25.209  1.00  0.00     0.177 C 
BRANCH   8   9
ATOM      9  C   UNL A   1      33.527  20.992  24.496  1.00  0.00     0.034 A 
ATOM     10  C   UNL A   1      33.669  19.626  24.670  1.00  0.00     0.024 A 
ATOM     11  N   UNL A   1      32.568  21.193  23.514  1.00  0.00    -0.320 N 
ATOM     12  C   UNL A   1      32.839  18.985  23.726  1.00  0.00     0.020 A 
ATOM     13  C   UNL A   1      32.200  19.970  23.005  1.00  0.00     0.091 A 
BRANCH  11  14
ATOM     14  C   UNL A   1      32.135  22.446  23.039  1.00  0.00     0.049 A 
ATOM     15  C   UNL A   1      30.916  22.949  23.503  1.00  0.00     0.031 A 
ATOM     16  C   UNL A   1      33.054  23.263  22.375  1.00  0.00     0.077 A 
ATOM     17  C   UNL A   1      30.619  24.299  23.313  1.00  0.00     0.052 A 
ATOM     18  C   UNL A   1      32.791  24.628  22.292  1.00  0.00     0.163 A 
ATOM     19  C   UNL A   1      31.565  25.144  22.734  1.00  0.00     0.161 A 
ATOM     20  O   UNL A   1      33.816  25.428  21.849  1.00  0.00    -0.486 OA
ATOM     21  O   UNL A   1      31.250  26.478  22.694  1.00  0.00    -0.486 OA
ATOM     22  C   UNL A   1      33.654  26.753  22.375  1.00  0.00     0.271 C 
ATOM     23  C   UNL A   1      32.260  27.258  22.041  1.00  0.00     0.271 C 
ENDBRANCH  11  14
ENDBRANCH   8   9
ENDBRANCH   6   8
ENDBRANCH   5   6
ENDBRANCH   4   5
ENDBRANCH   3   4
ENDBRANCH   2   3
ENDBRANCH   1   2
BRANCH   1  24
ATOM     24  C   UNL A   1      33.014  28.586  26.838  1.00  0.00     0.188 C 
BRANCH  24  25
ATOM     25  O   UNL A   1      34.088  29.243  27.506  1.00  0.00    -0.376 OA
BRANCH  25  26
ATOM     26  C   UNL A   1      34.459  30.568  27.172  1.00  0.00     0.202 C 
BRANCH  26  27
ATOM     27  C   UNL A   1      33.654  31.622  27.935  1.00  0.00     0.261 C 
BRANCH  27  28
ATOM     28  O   UNL A   1      33.820  32.938  27.408  1.00  0.00    -0.460 OA
BRANCH  28  29
ATOM     29  C   UNL A   1      33.505  33.907  28.286  1.00  0.00     0.338 C 
ATOM     30  O   UNL A   1      32.527  34.660  28.271  1.00  0.00    -0.246 OA
BRANCH  29  31
ATOM     31  C   UNL A   1      34.535  34.036  29.309  1.00  0.00     0.060 A 
ATOM     32  C   UNL A   1      35.855  34.200  28.870  1.00  0.00     0.016 A 
ATOM     33  C   UNL A   1      34.219  33.690  30.625  1.00  0.00     0.016 A 
ATOM     34  C   UNL A   1      36.881  33.794  29.694  1.00  0.00     0.010 A 
ATOM     35  C   UNL A   1      35.243  33.249  31.435  1.00  0.00     0.010 A 
ATOM     36  C   UNL A   1      36.550  33.221  30.923  1.00  0.00    -0.014 A 
BRANCH  36  37
ATOM     37  C   UNL A   1      37.576  32.473  31.661  1.00  0.00     0.031 A 
ATOM     38  C   UNL A   1      37.876  31.119  31.052  1.00  0.00     0.074 A 
ATOM     39  C   UNL A   1      38.131  33.155  32.709  1.00  0.00     0.049 A 
ATOM     40  N   UNL A   1      38.649  30.175  31.485  1.00  0.00    -0.248 NA
ATOM     41  C   UNL A   1      37.221  30.750  29.767  1.00  0.00     0.031 C 
ATOM     42  C   UNL A   1      37.682  34.492  33.160  1.00  0.00     0.029 A 
ATOM     43  N   UNL A   1      39.161  32.901  33.590  1.00  0.00    -0.354 N 
ATOM     44  C   UNL A   1      38.775  29.249  30.436  1.00  0.00     0.074 A 
ATOM     45  C   UNL A   1      37.794  29.589  29.452  1.00  0.00     0.031 C 
ATOM     46  C   UNL A   1      38.372  34.893  34.243  1.00  0.00     0.029 A 
ATOM     47  C   UNL A   1      39.362  33.894  34.585  1.00  0.00     0.049 A 
ATOM     48  H   UNL A   1      39.717  32.090  33.533  1.00  0.00     0.167 HD
ATOM     49  C   UNL A   1      39.790  28.349  30.362  1.00  0.00     0.037 A 
ATOM     50  C   UNL A   1      40.261  33.920  35.615  1.00  0.00     0.037 A 
ATOM     51  C   UNL A   1      40.597  28.376  31.533  1.00  0.00     0.049 A 
ATOM     52  C   UNL A   1      41.219  32.841  35.326  1.00  0.00     0.074 A 
ATOM     53  C   UNL A   1      40.380  27.941  32.813  1.00  0.00     0.029 A 
ATOM     54  N   UNL A   1      41.686  29.213  31.529  1.00  0.00    -0.354 N 
ATOM     55  N   UNL A   1      42.087  32.877  34.358  1.00  0.00    -0.248 NA
ATOM     56  C   UNL A   1      41.175  31.605  36.111  1.00  0.00     0.031 C 
ATOM     57  C   UNL A   1      41.125  28.826  33.621  1.00  0.00     0.029 A 
ATOM     58  C   UNL A   1      41.841  29.707  32.804  1.00  0.00     0.049 A 
ATOM     59  H   UNL A   1      42.255  29.422  30.753  1.00  0.00     0.167 HD
ATOM     60  C   UNL A   1      42.427  31.554  34.207  1.00  0.00     0.074 A 
ATOM     61  C   UNL A   1      42.094  30.902  35.453  1.00  0.00     0.031 C 
ATOM     62  C   UNL A   1      42.452  31.010  32.962  1.00  0.00     0.037 A 
BRANCH  49  63
ATOM     63  C   UNL A   1      40.262  27.554  29.190  1.00  0.00     0.057 A 
ATOM     64  C   UNL A   1      41.046  28.194  28.211  1.00  0.00     0.134 A 
ATOM     65  C   UNL A   1      39.715  26.314  28.836  1.00  0.00     0.134 A 
ATOM     66  F   UNL A   1      41.627  29.379  28.462  1.00  0.00    -0.206 F 
ATOM     67  C   UNL A   1      41.203  27.675  26.925  1.00  0.00     0.040 A 
ATOM     68  C   UNL A   1      39.897  25.766  27.562  1.00  0.00     0.040 A 
ATOM     69  F   UNL A   1      38.915  25.641  29.676  1.00  0.00    -0.206 F 
ATOM     70  C   UNL A   1      40.613  26.463  26.592  1.00  0.00     0.006 A 
ENDBRANCH  49  63
BRANCH  50  71
ATOM     71  C   UNL A   1      40.494  34.723  36.875  1.00  0.00     0.057 A 
ATOM     72  C   UNL A   1      41.644  35.460  37.185  1.00  0.00     0.134 A 
ATOM     73  C   UNL A   1      39.439  34.895  37.813  1.00  0.00     0.134 A 
ATOM     74  F   UNL A   1      42.754  35.382  36.450  1.00  0.00    -0.206 F 
ATOM     75  C   UNL A   1      41.710  36.347  38.278  1.00  0.00     0.040 A 
ATOM     76  C   UNL A   1      39.474  35.807  38.874  1.00  0.00     0.040 A 
ATOM     77  F   UNL A   1      38.298  34.197  37.730  1.00  0.00    -0.206 F 
ATOM     78  C   UNL A   1      40.612  36.552  39.104  1.00  0.00     0.006 A 
ENDBRANCH  50  71
BRANCH  62  79
ATOM     79  C   UNL A   1      42.702  32.024  31.860  1.00  0.00     0.057 A 
ATOM     80  C   UNL A   1      43.955  32.642  31.740  1.00  0.00     0.134 A 
ATOM     81  C   UNL A   1      41.707  32.503  30.994  1.00  0.00     0.134 A 
ATOM     82  F   UNL A   1      44.979  32.245  32.510  1.00  0.00    -0.206 F 
ATOM     83  C   UNL A   1      44.190  33.687  30.835  1.00  0.00     0.040 A 
ATOM     84  C   UNL A   1      41.927  33.538  30.077  1.00  0.00     0.040 A 
ATOM     85  F   UNL A   1      40.483  31.980  31.002  1.00  0.00    -0.206 F 
ATOM     86  C   UNL A   1      43.173  34.144  30.002  1.00  0.00     0.006 A 
ENDBRANCH  62  79
ENDBRANCH  36  37
ENDBRANCH  29  31
ENDBRANCH  28  29
ENDBRANCH  27  28
ENDBRANCH  26  27
ENDBRANCH  25  26
ENDBRANCH  24  25
ENDBRANCH   1  24
TORSDOF 19
ENDMDL
MODEL 2
REMARK VINA RESULT:     -10.5      3.931      8.136
REMARK SMILES O=C(Cc1cccn1-c1ccc2c(c1)OCCO2)OCCOCCOCCOC(=O)c1ccc(-c2c3nc(c(-c4c(F)cccc4F)c4ccc([nH]4)c(-c4c(F)cccc4F)c4nc(c(-c5c(F)cccc5F)c5ccc2[nH]5)C=C4)C=C3)cc1
REMARK SMILES IDX 23 1 22 2 21 3 20 4 19 5 2 6 1 7 3 8 4 9 5 10 8 11 6 12 7 13
REMARK SMILES IDX 9 14 10 15 14 16 11 17 13 18 12 19 15 20 18 21 16 22 17 23
REMARK SMILES IDX 24 24 25 25 26 26 27 27 28 28 29 29 30 30 31 31 32 32 84 33
REMARK SMILES IDX 33 34 83 35 34 36 35 37 36 38 77 39 37 40 82 41 76 42 78 43
REMARK SMILES IDX 38 44 81 45 75 46 74 47 39 49 65 50 48 51 64 52 49 53 52 54
REMARK SMILES IDX 63 55 79 56 50 57 51 58 62 60 80 61 53 62 40 63 41 64 46 65
REMARK SMILES IDX 42 66 43 67 45 68 47 69 44 70 66 71 67 72 72 73 68 74 69 75
REMARK SMILES IDX 71 76 73 77 70 78 54 79 55 80 60 81 56 82 57 83 59 84 61 85
REMARK SMILES IDX 58 86
REMARK H PARENT 78 48 52 59
REMARK Flexibility Score: inf
ROOT
ATOM      1  C   UNL A   1      42.158  19.588  26.125  1.00  0.00     0.188 C 
ENDROOT
BRANCH   1   2
ATOM      2  O   UNL A   1      41.802  20.960  26.200  1.00  0.00    -0.376 OA
BRANCH   2   3
ATOM      3  C   UNL A   1      40.597  21.266  26.886  1.00  0.00     0.202 C 
BRANCH   3   4
ATOM      4  C   UNL A   1      39.760  22.357  26.229  1.00  0.00     0.261 C 
BRANCH   4   5
ATOM      5  O   UNL A   1      38.345  22.083  26.138  1.00  0.00    -0.463 OA
BRANCH   5   6
ATOM      6  C   UNL A   1      37.598  21.663  25.099  1.00  0.00     0.311 C 
ATOM      7  O   UNL A   1      37.837  20.560  24.604  1.00  0.00    -0.252 OA
BRANCH   6   8
ATOM      8  C   UNL A   1      36.559  22.557  24.468  1.00  0.00     0.177 C 
BRANCH   8   9
ATOM      9  C   UNL A   1      35.138  22.093  24.564  1.00  0.00     0.034 A 
ATOM     10  C   UNL A   1      34.668  20.806  24.762  1.00  0.00     0.024 A 
ATOM     11  N   UNL A   1      34.037  22.932  24.470  1.00  0.00    -0.320 N 
ATOM     12  C   UNL A   1      33.259  20.851  24.711  1.00  0.00     0.020 A 
ATOM     13  C   UNL A   1      32.898  22.164  24.496  1.00  0.00     0.091 A 
BRANCH  11  14
ATOM     14  C   UNL A   1      34.086  24.324  24.263  1.00  0.00     0.049 A 
ATOM     15  C   UNL A   1      33.763  24.822  22.998  1.00  0.00     0.031 A 
ATOM     16  C   UNL A   1      34.157  25.163  25.380  1.00  0.00     0.077 A 
ATOM     17  C   UNL A   1      33.489  26.182  22.850  1.00  0.00     0.052 A 
ATOM     18  C   UNL A   1      33.774  26.494  25.236  1.00  0.00     0.163 A 
ATOM     19  C   UNL A   1      33.467  27.012  23.970  1.00  0.00     0.161 A 
ATOM     20  O   UNL A   1      33.628  27.222  26.391  1.00  0.00    -0.486 OA
ATOM     21  O   UNL A   1      33.068  28.308  23.762  1.00  0.00    -0.486 OA
ATOM     22  C   UNL A   1      32.691  28.287  26.173  1.00  0.00     0.271 C 
ATOM     23  C   UNL A   1      33.122  29.094  24.959  1.00  0.00     0.271 C 
ENDBRANCH  11  14
ENDBRANCH   8   9
ENDBRANCH   6   8
ENDBRANCH   5   6
ENDBRANCH   4   5
ENDBRANCH   3   4
ENDBRANCH   2   3
ENDBRANCH   1   2
BRANCH   1  24
ATOM     24  C   UNL A   1      43.430  19.264  25.307  1.00  0.00     0.188 C 
BRANCH  24  25
ATOM     25  O   UNL A   1      44.010  20.169  24.371  1.00  0.00    -0.376 OA
BRANCH  25  26
ATOM     26  C   UNL A   1      45.120  20.974  24.722  1.00  0.00     0.202 C 
BRANCH  26  27
ATOM     27  C   UNL A   1      44.997  22.413  24.219  1.00  0.00     0.261 C 
BRANCH  27  28
ATOM     28  O   UNL A   1      44.421  23.293  25.185  1.00  0.00    -0.460 OA
BRANCH  28  29
ATOM     29  C   UNL A   1      44.802  24.573  25.031  1.00  0.00     0.338 C 
ATOM     30  O   UNL A   1      45.883  25.003  24.617  1.00  0.00    -0.246 OA
BRANCH  29  31
ATOM     31  C   UNL A   1      43.760  25.485  25.488  1.00  0.00     0.060 A 
ATOM     32  C   UNL A   1      44.128  26.819  25.705  1.00  0.00     0.016 A 
ATOM     33  C   UNL A   1      42.566  24.947  25.974  1.00  0.00     0.016 A 
ATOM     34  C   UNL A   1      43.405  27.567  26.607  1.00  0.00     0.010 A 
ATOM     35  C   UNL A   1      41.864  25.682  26.905  1.00  0.00     0.010 A 
ATOM     36  C   UNL A   1      42.349  26.947  27.277  1.00  0.00    -0.014 A 
BRANCH  36  37
ATOM     37  C   UNL A   1      41.788  27.588  28.473  1.00  0.00     0.031 A 
ATOM     38  C   UNL A   1      42.572  27.283  29.732  1.00  0.00     0.074 A 
ATOM     39  C   UNL A   1      40.716  28.403  28.231  1.00  0.00     0.049 A 
ATOM     40  N   UNL A   1      42.317  27.606  30.959  1.00  0.00    -0.248 NA
ATOM     41  C   UNL A   1      43.835  26.501  29.619  1.00  0.00     0.031 C 
ATOM     42  C   UNL A   1      40.078  28.562  26.903  1.00  0.00     0.029 A 
ATOM     43  N   UNL A   1      39.957  29.256  29.003  1.00  0.00    -0.354 N 
ATOM     44  C   UNL A   1      43.473  27.309  31.700  1.00  0.00     0.074 A 
ATOM     45  C   UNL A   1      44.328  26.532  30.855  1.00  0.00     0.031 C 
ATOM     46  C   UNL A   1      39.015  29.383  26.976  1.00  0.00     0.029 A 
ATOM     47  C   UNL A   1      38.873  29.877  28.328  1.00  0.00     0.049 A 
ATOM     48  H   UNL A   1      40.153  29.424  29.954  1.00  0.00     0.167 HD
ATOM     49  C   UNL A   1      43.734  27.855  32.916  1.00  0.00     0.037 A 
ATOM     50  C   UNL A   1      37.922  30.732  28.815  1.00  0.00     0.037 A 
ATOM     51  C   UNL A   1      42.637  28.631  33.384  1.00  0.00     0.049 A 
ATOM     52  C   UNL A   1      38.413  31.148  30.140  1.00  0.00     0.074 A 
ATOM     53  C   UNL A   1      41.403  28.285  33.867  1.00  0.00     0.029 A 
ATOM     54  N   UNL A   1      42.632  29.969  33.073  1.00  0.00    -0.354 N 
ATOM     55  N   UNL A   1      39.436  31.927  30.326  1.00  0.00    -0.248 NA
ATOM     56  C   UNL A   1      37.776  30.614  31.347  1.00  0.00     0.031 C 
ATOM     57  C   UNL A   1      40.560  29.351  33.485  1.00  0.00     0.029 A 
ATOM     58  C   UNL A   1      41.325  30.347  32.869  1.00  0.00     0.049 A 
ATOM     59  H   UNL A   1      43.421  30.553  33.008  1.00  0.00     0.167 HD
ATOM     60  C   UNL A   1      39.768  31.682  31.638  1.00  0.00     0.074 A 
ATOM     61  C   UNL A   1      38.583  31.141  32.264  1.00  0.00     0.031 C 
ATOM     62  C   UNL A   1      41.065  31.448  31.965  1.00  0.00     0.037 A 
BRANCH  49  63
ATOM     63  C   UNL A   1      45.024  27.925  33.663  1.00  0.00     0.057 A 
ATOM     64  C   UNL A   1      46.063  28.722  33.144  1.00  0.00     0.134 A 
ATOM     65  C   UNL A   1      45.383  27.007  34.658  1.00  0.00     0.134 A 
ATOM     66  F   UNL A   1      45.816  29.642  32.197  1.00  0.00    -0.206 F 
ATOM     67  C   UNL A   1      47.394  28.555  33.528  1.00  0.00     0.040 A 
ATOM     68  C   UNL A   1      46.709  26.857  35.079  1.00  0.00     0.040 A 
ATOM     69  F   UNL A   1      44.482  26.167  35.188  1.00  0.00    -0.206 F 
ATOM     70  C   UNL A   1      47.723  27.607  34.489  1.00  0.00     0.006 A 
ENDBRANCH  49  63
BRANCH  50  71
ATOM     71  C   UNL A   1      36.601  31.310  28.362  1.00  0.00     0.057 A 
ATOM     72  C   UNL A   1      35.437  30.586  28.075  1.00  0.00     0.134 A 
ATOM     73  C   UNL A   1      36.417  32.719  28.328  1.00  0.00     0.134 A 
ATOM     74  F   UNL A   1      35.431  29.254  28.007  1.00  0.00    -0.206 F 
ATOM     75  C   UNL A   1      34.189  31.203  27.858  1.00  0.00     0.040 A 
ATOM     76  C   UNL A   1      35.175  33.344  28.160  1.00  0.00     0.040 A 
ATOM     77  F   UNL A   1      37.439  33.570  28.484  1.00  0.00    -0.206 F 
ATOM     78  C   UNL A   1      34.046  32.583  27.937  1.00  0.00     0.006 A 
ENDBRANCH  50  71
BRANCH  62  79
ATOM     79  C   UNL A   1      42.059  32.068  30.998  1.00  0.00     0.057 A 
ATOM     80  C   UNL A   1      42.216  33.460  30.943  1.00  0.00     0.134 A 
ATOM     81  C   UNL A   1      42.771  31.342  30.031  1.00  0.00     0.134 A 
ATOM     82  F   UNL A   1      41.591  34.245  31.835  1.00  0.00    -0.206 F 
ATOM     83  C   UNL A   1      43.009  34.086  29.972  1.00  0.00     0.040 A 
ATOM     84  C   UNL A   1      43.576  31.950  29.060  1.00  0.00     0.040 A 
ATOM     85  F   UNL A   1      42.716  30.012  29.997  1.00  0.00    -0.206 F 
ATOM     86  C   UNL A   1      43.688  33.332  29.020  1.00  0.00     0.006 A 
ENDBRANCH  62  79
ENDBRANCH  36  37
ENDBRANCH  29  31
ENDBRANCH  28  29
ENDBRANCH  27  28
ENDBRANCH  26  27
ENDBRANCH  25  26
ENDBRANCH  24  25
ENDBRANCH   1  24
TORSDOF 19
ENDMDL
MODEL 3
REMARK VINA RESULT:     -10.5      5.730     10.601
REMARK SMILES O=C(Cc1cccn1-c1ccc2c(c1)OCCO2)OCCOCCOCCOC(=O)c1ccc(-c2c3nc(c(-c4c(F)cccc4F)c4ccc([nH]4)c(-c4c(F)cccc4F)c4nc(c(-c5c(F)cccc5F)c5ccc2[nH]5)C=C4)C=C3)cc1
REMARK SMILES IDX 23 1 22 2 21 3 20 4 19 5 2 6 1 7 3 8 4 9 5 10 8 11 6 12 7 13
REMARK SMILES IDX 9 14 10 15 14 16 11 17 13 18 12 19 15 20 18 21 16 22 17 23
REMARK SMILES IDX 24 24 25 25 26 26 27 27 28 28 29 29 30 30 31 31 32 32 84 33
REMARK SMILES IDX 33 34 83 35 34 36 35 37 36 38 77 39 37 40 82 41 76 42 78 43
REMARK SMILES IDX 38 44 81 45 75 46 74 47 39 49 65 50 48 51 64 52 49 53 52 54
REMARK SMILES IDX 63 55 79 56 50 57 51 58 62 60 80 61 53 62 40 63 41 64 46 65
REMARK SMILES IDX 42 66 43 67 45 68 47 69 44 70 66 71 67 72 72 73 68 74 69 75
REMARK SMILES IDX 71 76 73 77 70 78 54 79 55 80 60 81 56 82 57 83 59 84 61 85
REMARK SMILES IDX 58 86
REMARK H PARENT 78 48 52 59
REMARK Flexibility Score: inf
ROOT
ATOM      1  C   UNL A   1      40.810  20.908  27.330  1.00  0.00     0.188 C 
ENDROOT
BRANCH   1   2
ATOM      2  O   UNL A   1      40.677  22.114  26.592  1.00  0.00    -0.376 OA
BRANCH   2   3
ATOM      3  C   UNL A   1      39.365  22.647  26.480  1.00  0.00     0.202 C 
BRANCH   3   4
ATOM      4  C   UNL A   1      38.396  21.768  25.698  1.00  0.00     0.261 C 
BRANCH   4   5
ATOM      5  O   UNL A   1      37.068  22.311  25.526  1.00  0.00    -0.463 OA
BRANCH   5   6
ATOM      6  C   UNL A   1      35.954  21.755  25.013  1.00  0.00     0.311 C 
ATOM      7  O   UNL A   1      35.829  20.529  25.055  1.00  0.00    -0.252 OA
BRANCH   6   8
ATOM      8  C   UNL A   1      34.918  22.588  24.298  1.00  0.00     0.177 C 
BRANCH   8   9
ATOM      9  C   UNL A   1      33.729  23.004  25.107  1.00  0.00     0.034 A 
ATOM     10  C   UNL A   1      33.537  24.184  25.805  1.00  0.00     0.024 A 
ATOM     11  N   UNL A   1      32.590  22.228  25.273  1.00  0.00    -0.320 N 
ATOM     12  C   UNL A   1      32.296  24.092  26.469  1.00  0.00     0.020 A 
ATOM     13  C   UNL A   1      31.750  22.867  26.153  1.00  0.00     0.091 A 
BRANCH  11  14
ATOM     14  C   UNL A   1      32.387  20.947  24.723  1.00  0.00     0.049 A 
ATOM     15  C   UNL A   1      32.219  20.836  23.339  1.00  0.00     0.031 A 
ATOM     16  C   UNL A   1      32.658  19.829  25.517  1.00  0.00     0.077 A 
ATOM     17  C   UNL A   1      32.340  19.583  22.737  1.00  0.00     0.052 A 
ATOM     18  C   UNL A   1      32.885  18.608  24.887  1.00  0.00     0.163 A 
ATOM     19  C   UNL A   1      32.700  18.475  23.504  1.00  0.00     0.161 A 
ATOM     20  O   UNL A   1      33.379  17.593  25.670  1.00  0.00    -0.486 OA
ATOM     21  O   UNL A   1      32.921  17.306  22.822  1.00  0.00    -0.486 OA
ATOM     22  C   UNL A   1      34.114  16.670  24.853  1.00  0.00     0.271 C 
ATOM     23  C   UNL A   1      33.239  16.216  23.696  1.00  0.00     0.271 C 
ENDBRANCH  11  14
ENDBRANCH   8   9
ENDBRANCH   6   8
ENDBRANCH   5   6
ENDBRANCH   4   5
ENDBRANCH   3   4
ENDBRANCH   2   3
ENDBRANCH   1   2
BRANCH   1  24
ATOM     24  C   UNL A   1      41.340  19.689  26.540  1.00  0.00     0.188 C 
BRANCH  24  25
ATOM     25  O   UNL A   1      42.496  18.949  26.925  1.00  0.00    -0.376 OA
BRANCH  25  26
ATOM     26  C   UNL A   1      43.033  17.941  26.089  1.00  0.00     0.202 C 
BRANCH  26  27
ATOM     27  C   UNL A   1      44.505  18.176  25.743  1.00  0.00     0.261 C 
BRANCH  27  28
ATOM     28  O   UNL A   1      44.683  18.863  24.504  1.00  0.00    -0.460 OA
BRANCH  28  29
ATOM     29  C   UNL A   1      45.550  19.888  24.584  1.00  0.00     0.338 C 
ATOM     30  O   UNL A   1      46.783  19.849  24.529  1.00  0.00    -0.246 OA
BRANCH  29  31
ATOM     31  C   UNL A   1      44.850  21.145  24.818  1.00  0.00     0.060 A 
ATOM     32  C   UNL A   1      44.990  22.145  23.846  1.00  0.00     0.016 A 
ATOM     33  C   UNL A   1      44.348  21.405  26.095  1.00  0.00     0.016 A 
ATOM     34  C   UNL A   1      44.840  23.460  24.224  1.00  0.00     0.010 A 
ATOM     35  C   UNL A   1      44.234  22.722  26.483  1.00  0.00     0.010 A 
ATOM     36  C   UNL A   1      44.572  23.731  25.567  1.00  0.00    -0.014 A 
BRANCH  36  37
ATOM     37  C   UNL A   1      44.748  25.101  26.067  1.00  0.00     0.031 A 
ATOM     38  C   UNL A   1      43.443  25.860  26.186  1.00  0.00     0.074 A 
ATOM     39  C   UNL A   1      46.033  25.420  26.408  1.00  0.00     0.049 A 
ATOM     40  N   UNL A   1      43.238  27.098  26.505  1.00  0.00    -0.248 NA
ATOM     41  C   UNL A   1      42.168  25.142  25.912  1.00  0.00     0.031 C 
ATOM     42  C   UNL A   1      47.195  24.524  26.200  1.00  0.00     0.029 A 
ATOM     43  N   UNL A   1      46.635  26.514  26.993  1.00  0.00    -0.354 N 
ATOM     44  C   UNL A   1      41.856  27.232  26.719  1.00  0.00     0.074 A 
ATOM     45  C   UNL A   1      41.235  26.037  26.234  1.00  0.00     0.031 C 
ATOM     46  C   UNL A   1      48.338  25.121  26.580  1.00  0.00     0.029 A 
ATOM     47  C   UNL A   1      48.047  26.436  27.110  1.00  0.00     0.049 A 
ATOM     48  H   UNL A   1      46.122  27.294  27.307  1.00  0.00     0.167 HD
ATOM     49  C   UNL A   1      41.313  28.252  27.433  1.00  0.00     0.037 A 
ATOM     50  C   UNL A   1      48.931  27.358  27.600  1.00  0.00     0.037 A 
ATOM     51  C   UNL A   1      42.296  29.215  27.794  1.00  0.00     0.049 A 
ATOM     52  C   UNL A   1      48.104  28.365  28.286  1.00  0.00     0.074 A 
ATOM     53  C   UNL A   1      42.973  30.158  27.068  1.00  0.00     0.029 A 
ATOM     54  N   UNL A   1      42.926  29.050  29.004  1.00  0.00    -0.354 N 
ATOM     55  N   UNL A   1      47.467  28.149  29.399  1.00  0.00    -0.248 NA
ATOM     56  C   UNL A   1      47.907  29.679  27.671  1.00  0.00     0.031 C 
ATOM     57  C   UNL A   1      44.223  30.273  27.713  1.00  0.00     0.029 A 
ATOM     58  C   UNL A   1      44.228  29.469  28.858  1.00  0.00     0.049 A 
ATOM     59  H   UNL A   1      42.519  28.695  29.827  1.00  0.00     0.167 HD
ATOM     60  C   UNL A   1      46.534  29.158  29.414  1.00  0.00     0.074 A 
ATOM     61  C   UNL A   1      47.037  30.192  28.538  1.00  0.00     0.031 C 
ATOM     62  C   UNL A   1      45.239  28.865  29.700  1.00  0.00     0.037 A 
BRANCH  49  63
ATOM     63  C   UNL A   1      39.952  28.363  28.037  1.00  0.00     0.057 A 
ATOM     64  C   UNL A   1      39.010  29.216  27.429  1.00  0.00     0.134 A 
ATOM     65  C   UNL A   1      39.655  27.933  29.336  1.00  0.00     0.134 A 
ATOM     66  F   UNL A   1      39.199  29.668  26.179  1.00  0.00    -0.206 F 
ATOM     67  C   UNL A   1      37.884  29.685  28.107  1.00  0.00     0.040 A 
ATOM     68  C   UNL A   1      38.509  28.367  30.011  1.00  0.00     0.040 A 
ATOM     69  F   UNL A   1      40.504  27.156  30.024  1.00  0.00    -0.206 F 
ATOM     70  C   UNL A   1      37.638  29.273  29.410  1.00  0.00     0.006 A 
ENDBRANCH  49  63
BRANCH  50  71
ATOM     71  C   UNL A   1      50.427  27.577  27.612  1.00  0.00     0.057 A 
ATOM     72  C   UNL A   1      51.308  27.216  28.638  1.00  0.00     0.134 A 
ATOM     73  C   UNL A   1      51.080  28.072  26.450  1.00  0.00     0.134 A 
ATOM     74  F   UNL A   1      50.874  26.782  29.823  1.00  0.00    -0.206 F 
ATOM     75  C   UNL A   1      52.709  27.264  28.494  1.00  0.00     0.040 A 
ATOM     76  C   UNL A   1      52.469  28.081  26.275  1.00  0.00     0.040 A 
ATOM     77  F   UNL A   1      50.395  28.554  25.404  1.00  0.00    -0.206 F 
ATOM     78  C   UNL A   1      53.295  27.661  27.298  1.00  0.00     0.006 A 
ENDBRANCH  50  71
BRANCH  62  79
ATOM     79  C   UNL A   1      45.071  27.617  30.548  1.00  0.00     0.057 A 
ATOM     80  C   UNL A   1      45.492  27.608  31.886  1.00  0.00     0.134 A 
ATOM     81  C   UNL A   1      44.623  26.383  30.050  1.00  0.00     0.134 A 
ATOM     82  F   UNL A   1      45.922  28.741  32.463  1.00  0.00    -0.206 F 
ATOM     83  C   UNL A   1      45.493  26.443  32.664  1.00  0.00     0.040 A 
ATOM     84  C   UNL A   1      44.606  25.211  30.815  1.00  0.00     0.040 A 
ATOM     85  F   UNL A   1      44.180  26.271  28.800  1.00  0.00    -0.206 F 
ATOM     86  C   UNL A   1      45.055  25.235  32.128  1.00  0.00     0.006 A 
ENDBRANCH  62  79
ENDBRANCH  36  37
ENDBRANCH  29  31
ENDBRANCH  28  29
ENDBRANCH  27  28
ENDBRANCH  26  27
ENDBRANCH  25  26
ENDBRANCH  24  25
ENDBRANCH   1  24
TORSDOF 19
ENDMDL
