MODEL 1
REMARK VINA RESULT:     -10.1      0.000      0.000
REMARK SMILES Cc1occc1C(=O)NN1C(=O)/C(=C\c2ccc(O[C@H](C)C(=O)OCCOCCOCCOC(=O)c3ccc(-c4c5nc(c(-c6c(F)cccc6F)c6ccc([nH]6)c(-c6c(F)cccc6F)c6nc(c(-c7c(F)cccc7F)c7ccc4[nH]7)C=C6)C=C5)cc3)cc2)SC1=S
REMARK SMILES IDX 27 1 26 2 25 3 24 4 22 5 23 6 20 7 21 8 19 9 18 10 15 11
REMARK SMILES IDX 16 12 91 13 17 14 90 15 14 16 10 17 11 18 93 19 12 20 13 21
REMARK SMILES IDX 92 22 94 23 9 24 7 25 8 26 6 28 1 29 2 30 3 31 4 32 5 33
REMARK SMILES IDX 28 34 29 35 30 36 31 37 32 38 33 39 34 40 35 41 36 42 37 43
REMARK SMILES IDX 89 44 38 45 88 46 39 47 40 48 41 49 82 50 42 51 87 52 81 53
REMARK SMILES IDX 83 54 43 55 86 56 80 57 79 58 44 60 70 61 53 62 69 63 54 64
REMARK SMILES IDX 57 65 68 66 84 67 55 68 56 69 67 71 85 72 58 73 45 74 46 75
REMARK SMILES IDX 51 76 47 77 48 78 50 79 52 80 49 81 71 82 72 83 77 84 73 85
REMARK SMILES IDX 74 86 76 87 78 88 75 89 59 90 60 91 65 92 61 93 62 94 64 95
REMARK SMILES IDX 66 96 63 97
REMARK H PARENT 9 27 83 59 57 70
REMARK Flexibility Score: inf
ROOT
ATOM      1  O   UNL A   1      40.477  22.777  26.376  1.00  0.00    -0.376 OA
ENDROOT
BRANCH   1   2
ATOM      2  C   UNL A   1      39.079  22.622  26.175  1.00  0.00     0.202 C 
BRANCH   2   3
ATOM      3  C   UNL A   1      38.556  21.335  25.519  1.00  0.00     0.261 C 
BRANCH   3   4
ATOM      4  O   UNL A   1      37.457  21.472  24.593  1.00  0.00    -0.461 OA
BRANCH   4   5
ATOM      5  C   UNL A   1      36.234  21.116  25.073  1.00  0.00     0.347 C 
ATOM      6  O   UNL A   1      35.726  20.012  24.893  1.00  0.00    -0.248 OA
BRANCH   5   7
ATOM      7  C   UNL A   1      35.484  22.238  25.800  1.00  0.00     0.279 C 
ATOM      8  C   UNL A   1      35.355  23.650  25.217  1.00  0.00     0.066 C 
BRANCH   7   9
ATOM      9  O   UNL A   1      34.306  21.708  26.393  1.00  0.00    -0.479 OA
BRANCH   9  10
ATOM     10  C   UNL A   1      33.077  22.243  26.185  1.00  0.00     0.120 A 
ATOM     11  C   UNL A   1      30.850  23.876  25.736  1.00  0.00    -0.024 A 
ATOM     12  C   UNL A   1      31.052  22.729  24.966  1.00  0.00     0.012 A 
ATOM     13  C   UNL A   1      31.659  24.087  26.853  1.00  0.00     0.012 A 
ATOM     14  C   UNL A   1      32.148  21.897  25.211  1.00  0.00     0.047 A 
ATOM     15  C   UNL A   1      32.788  23.296  27.050  1.00  0.00     0.047 A 
BRANCH  11  16
ATOM     16  C   UNL A   1      29.853  24.851  25.281  1.00  0.00     0.029 C 
ATOM     17  N   UNL A   1      31.303  27.573  23.374  1.00  0.00    -0.198 N 
ATOM     18  C   UNL A   1      31.417  26.287  23.874  1.00  0.00     0.285 C 
ATOM     19  C   UNL A   1      30.036  28.046  23.116  1.00  0.00     0.168 C 
ATOM     20  O   UNL A   1      32.430  25.606  23.803  1.00  0.00    -0.266 OA
ATOM     21  C   UNL A   1      30.100  25.864  24.434  1.00  0.00     0.082 C 
ATOM     22  S   UNL A   1      28.868  26.940  23.854  1.00  0.00    -0.052 SA
ATOM     23  S   UNL A   1      29.597  29.403  22.257  1.00  0.00    -0.050 S 
BRANCH  17  24
ATOM     24  N   UNL A   1      32.467  28.165  22.909  1.00  0.00    -0.254 N 
ATOM     25  C   UNL A   1      33.503  28.685  23.652  1.00  0.00     0.273 C 
ATOM     26  O   UNL A   1      34.529  28.972  23.032  1.00  0.00    -0.267 OA
ATOM     27  H   UNL A   1      32.565  28.222  21.930  1.00  0.00     0.192 HD
BRANCH  25  28
ATOM     28  C   UNL A   1      33.403  29.005  25.074  1.00  0.00     0.082 A 
ATOM     29  C   UNL A   1      31.344  30.622  25.602  1.00  0.00     0.088 C 
ATOM     30  C   UNL A   1      32.544  29.795  25.829  1.00  0.00     0.113 A 
ATOM     31  O   UNL A   1      32.890  29.743  27.151  1.00  0.00    -0.469 OA
ATOM     32  C   UNL A   1      33.917  28.879  27.278  1.00  0.00     0.196 A 
ATOM     33  C   UNL A   1      34.258  28.381  26.050  1.00  0.00     0.056 A 
ENDBRANCH  25  28
ENDBRANCH  17  24
ENDBRANCH  11  16
ENDBRANCH   9  10
ENDBRANCH   7   9
ENDBRANCH   5   7
ENDBRANCH   4   5
ENDBRANCH   3   4
ENDBRANCH   2   3
ENDBRANCH   1   2
BRANCH   1  34
ATOM     34  C   UNL A   1      41.034  22.558  27.666  1.00  0.00     0.188 C 
BRANCH  34  35
ATOM     35  C   UNL A   1      41.122  21.129  28.231  1.00  0.00     0.188 C 
BRANCH  35  36
ATOM     36  O   UNL A   1      42.262  20.410  27.824  1.00  0.00    -0.376 OA
BRANCH  36  37
ATOM     37  C   UNL A   1      42.189  19.674  26.620  1.00  0.00     0.202 C 
BRANCH  37  38
ATOM     38  C   UNL A   1      42.925  20.224  25.387  1.00  0.00     0.261 C 
BRANCH  38  39
ATOM     39  O   UNL A   1      43.584  19.262  24.545  1.00  0.00    -0.460 OA
BRANCH  39  40
ATOM     40  C   UNL A   1      44.867  19.516  24.193  1.00  0.00     0.338 C 
ATOM     41  O   UNL A   1      45.600  18.807  23.536  1.00  0.00    -0.246 OA
BRANCH  40  42
ATOM     42  C   UNL A   1      45.154  20.931  24.547  1.00  0.00     0.060 A 
ATOM     43  C   UNL A   1      45.662  21.224  25.822  1.00  0.00     0.016 A 
ATOM     44  C   UNL A   1      44.945  21.955  23.624  1.00  0.00     0.016 A 
ATOM     45  C   UNL A   1      45.941  22.546  26.181  1.00  0.00     0.010 A 
ATOM     46  C   UNL A   1      45.200  23.280  23.994  1.00  0.00     0.010 A 
ATOM     47  C   UNL A   1      45.674  23.586  25.283  1.00  0.00    -0.014 A 
BRANCH  47  48
ATOM     48  C   UNL A   1      45.698  25.000  25.744  1.00  0.00     0.031 A 
ATOM     49  C   UNL A   1      47.017  25.724  25.754  1.00  0.00     0.074 A 
ATOM     50  C   UNL A   1      44.583  25.637  26.147  1.00  0.00     0.049 A 
ATOM     51  N   UNL A   1      47.310  26.918  26.199  1.00  0.00    -0.248 NA
ATOM     52  C   UNL A   1      48.163  24.993  25.188  1.00  0.00     0.031 C 
ATOM     53  C   UNL A   1      43.235  25.074  26.143  1.00  0.00     0.029 A 
ATOM     54  N   UNL A   1      44.419  26.903  26.656  1.00  0.00    -0.354 N 
ATOM     55  C   UNL A   1      48.672  27.079  25.979  1.00  0.00     0.074 A 
ATOM     56  C   UNL A   1      49.153  25.848  25.389  1.00  0.00     0.031 C 
ATOM     57  C   UNL A   1      42.382  25.986  26.646  1.00  0.00     0.029 A 
ATOM     58  C   UNL A   1      43.130  27.179  27.042  1.00  0.00     0.049 A 
ATOM     59  H   UNL A   1      45.157  27.551  26.736  1.00  0.00     0.167 HD
ATOM     60  C   UNL A   1      49.454  28.153  26.241  1.00  0.00     0.037 A 
ATOM     61  C   UNL A   1      42.619  28.258  27.669  1.00  0.00     0.037 A 
ATOM     62  C   UNL A   1      48.978  29.377  26.831  1.00  0.00     0.049 A 
ATOM     63  C   UNL A   1      43.525  29.409  28.031  1.00  0.00     0.074 A 
ATOM     64  C   UNL A   1      49.692  30.527  27.120  1.00  0.00     0.029 A 
ATOM     65  N   UNL A   1      47.673  29.605  27.234  1.00  0.00    -0.354 N 
ATOM     66  N   UNL A   1      44.808  29.560  27.801  1.00  0.00    -0.248 NA
ATOM     67  C   UNL A   1      42.911  30.541  28.741  1.00  0.00     0.031 C 
ATOM     68  C   UNL A   1      48.831  31.429  27.751  1.00  0.00     0.029 A 
ATOM     69  C   UNL A   1      47.566  30.866  27.797  1.00  0.00     0.049 A 
ATOM     70  H   UNL A   1      46.930  28.965  27.136  1.00  0.00     0.167 HD
ATOM     71  C   UNL A   1      45.143  30.814  28.304  1.00  0.00     0.074 A 
ATOM     72  C   UNL A   1      43.927  31.386  28.841  1.00  0.00     0.031 C 
ATOM     73  C   UNL A   1      46.349  31.434  28.319  1.00  0.00     0.037 A 
BRANCH  60  74
ATOM     74  C   UNL A   1      50.914  28.041  25.916  1.00  0.00     0.057 A 
ATOM     75  C   UNL A   1      51.865  27.680  26.878  1.00  0.00     0.134 A 
ATOM     76  C   UNL A   1      51.371  28.267  24.610  1.00  0.00     0.134 A 
ATOM     77  F   UNL A   1      51.498  27.466  28.151  1.00  0.00    -0.206 F 
ATOM     78  C   UNL A   1      53.221  27.570  26.561  1.00  0.00     0.040 A 
ATOM     79  C   UNL A   1      52.719  28.131  24.274  1.00  0.00     0.040 A 
ATOM     80  F   UNL A   1      50.514  28.613  23.638  1.00  0.00    -0.206 F 
ATOM     81  C   UNL A   1      53.649  27.790  25.254  1.00  0.00     0.006 A 
ENDBRANCH  60  74
BRANCH  61  82
ATOM     82  C   UNL A   1      41.177  28.304  28.028  1.00  0.00     0.057 A 
ATOM     83  C   UNL A   1      40.229  28.859  27.160  1.00  0.00     0.134 A 
ATOM     84  C   UNL A   1      40.717  27.836  29.266  1.00  0.00     0.134 A 
ATOM     85  F   UNL A   1      40.610  29.352  25.972  1.00  0.00    -0.206 F 
ATOM     86  C   UNL A   1      38.883  28.968  27.515  1.00  0.00     0.040 A 
ATOM     87  C   UNL A   1      39.369  27.910  29.622  1.00  0.00     0.040 A 
ATOM     88  F   UNL A   1      41.573  27.299  30.147  1.00  0.00    -0.206 F 
ATOM     89  C   UNL A   1      38.449  28.486  28.749  1.00  0.00     0.006 A 
ENDBRANCH  61  82
BRANCH  73  90
ATOM     90  C   UNL A   1      46.410  32.824  28.888  1.00  0.00     0.057 A 
ATOM     91  C   UNL A   1      46.174  33.962  28.106  1.00  0.00     0.134 A 
ATOM     92  C   UNL A   1      46.663  33.022  30.253  1.00  0.00     0.134 A 
ATOM     93  F   UNL A   1      45.934  33.846  26.791  1.00  0.00    -0.206 F 
ATOM     94  C   UNL A   1      46.214  35.247  28.653  1.00  0.00     0.040 A 
ATOM     95  C   UNL A   1      46.675  34.299  30.818  1.00  0.00     0.040 A 
ATOM     96  F   UNL A   1      46.886  31.978  31.064  1.00  0.00    -0.206 F 
ATOM     97  C   UNL A   1      46.457  35.417  30.015  1.00  0.00     0.006 A 
ENDBRANCH  73  90
ENDBRANCH  47  48
ENDBRANCH  40  42
ENDBRANCH  39  40
ENDBRANCH  38  39
ENDBRANCH  37  38
ENDBRANCH  36  37
ENDBRANCH  35  36
ENDBRANCH  34  35
ENDBRANCH   1  34
TORSDOF 22
ENDMDL
MODEL 2
REMARK VINA RESULT:      -9.9      3.742      7.792
REMARK SMILES Cc1occc1C(=O)NN1C(=O)/C(=C\c2ccc(O[C@H](C)C(=O)OCCOCCOCCOC(=O)c3ccc(-c4c5nc(c(-c6c(F)cccc6F)c6ccc([nH]6)c(-c6c(F)cccc6F)c6nc(c(-c7c(F)cccc7F)c7ccc4[nH]7)C=C6)C=C5)cc3)cc2)SC1=S
REMARK SMILES IDX 27 1 26 2 25 3 24 4 22 5 23 6 20 7 21 8 19 9 18 10 15 11
REMARK SMILES IDX 16 12 91 13 17 14 90 15 14 16 10 17 11 18 93 19 12 20 13 21
REMARK SMILES IDX 92 22 94 23 9 24 7 25 8 26 6 28 1 29 2 30 3 31 4 32 5 33
REMARK SMILES IDX 28 34 29 35 30 36 31 37 32 38 33 39 34 40 35 41 36 42 37 43
REMARK SMILES IDX 89 44 38 45 88 46 39 47 40 48 41 49 82 50 42 51 87 52 81 53
REMARK SMILES IDX 83 54 43 55 86 56 80 57 79 58 44 60 70 61 53 62 69 63 54 64
REMARK SMILES IDX 57 65 68 66 84 67 55 68 56 69 67 71 85 72 58 73 45 74 46 75
REMARK SMILES IDX 51 76 47 77 48 78 50 79 52 80 49 81 71 82 72 83 77 84 73 85
REMARK SMILES IDX 74 86 76 87 78 88 75 89 59 90 60 91 65 92 61 93 62 94 64 95
REMARK SMILES IDX 66 96 63 97
REMARK H PARENT 9 27 83 59 57 70
REMARK Flexibility Score: inf
ROOT
ATOM      1  O   UNL A   1      34.575  22.839  25.194  1.00  0.00    -0.376 OA
ENDROOT
BRANCH   1   2
ATOM      2  C   UNL A   1      33.738  22.629  24.066  1.00  0.00     0.202 C 
BRANCH   2   3
ATOM      3  C   UNL A   1      32.955  23.817  23.484  1.00  0.00     0.261 C 
BRANCH   3   4
ATOM      4  O   UNL A   1      31.990  24.452  24.350  1.00  0.00    -0.461 OA
BRANCH   4   5
ATOM      5  C   UNL A   1      30.923  25.019  23.725  1.00  0.00     0.347 C 
ATOM      6  O   UNL A   1      30.024  24.375  23.190  1.00  0.00    -0.248 OA
BRANCH   5   7
ATOM      7  C   UNL A   1      30.961  26.551  23.662  1.00  0.00     0.279 C 
ATOM      8  C   UNL A   1      30.212  27.347  22.588  1.00  0.00     0.066 C 
BRANCH   7   9
ATOM      9  O   UNL A   1      30.885  27.076  24.981  1.00  0.00    -0.479 OA
BRANCH   9  10
ATOM     10  C   UNL A   1      31.852  27.868  25.511  1.00  0.00     0.120 A 
ATOM     11  C   UNL A   1      34.032  28.979  26.866  1.00  0.00    -0.024 A 
ATOM     12  C   UNL A   1      33.837  29.238  25.508  1.00  0.00     0.012 A 
ATOM     13  C   UNL A   1      33.024  28.326  27.578  1.00  0.00     0.012 A 
ATOM     14  C   UNL A   1      32.731  28.708  24.839  1.00  0.00     0.047 A 
ATOM     15  C   UNL A   1      31.962  27.741  26.894  1.00  0.00     0.047 A 
BRANCH  11  16
ATOM     16  C   UNL A   1      35.327  29.327  27.461  1.00  0.00     0.029 C 
ATOM     17  N   UNL A   1      35.744  32.894  27.956  1.00  0.00    -0.198 N 
ATOM     18  C   UNL A   1      34.895  31.821  27.751  1.00  0.00     0.285 C 
ATOM     19  C   UNL A   1      36.938  32.650  28.598  1.00  0.00     0.168 C 
ATOM     20  O   UNL A   1      33.694  31.919  27.551  1.00  0.00    -0.266 OA
ATOM     21  C   UNL A   1      35.673  30.553  27.886  1.00  0.00     0.082 C 
ATOM     22  S   UNL A   1      37.184  30.899  28.665  1.00  0.00    -0.052 SA
ATOM     23  S   UNL A   1      38.009  33.752  29.237  1.00  0.00    -0.050 S 
BRANCH  17  24
ATOM     24  N   UNL A   1      35.208  34.158  27.761  1.00  0.00    -0.254 N 
ATOM     25  C   UNL A   1      34.699  35.012  28.713  1.00  0.00     0.273 C 
ATOM     26  O   UNL A   1      34.467  36.166  28.344  1.00  0.00    -0.267 OA
ATOM     27  H   UNL A   1      35.188  34.484  26.832  1.00  0.00     0.192 HD
BRANCH  25  28
ATOM     28  C   UNL A   1      34.327  34.597  30.064  1.00  0.00     0.082 A 
ATOM     29  C   UNL A   1      32.570  36.267  31.184  1.00  0.00     0.088 C 
ATOM     30  C   UNL A   1      33.488  35.122  31.040  1.00  0.00     0.113 A 
ATOM     31  O   UNL A   1      33.488  34.320  32.147  1.00  0.00    -0.469 OA
ATOM     32  C   UNL A   1      34.260  33.246  31.883  1.00  0.00     0.196 A 
ATOM     33  C   UNL A   1      34.778  33.349  30.621  1.00  0.00     0.056 A 
ENDBRANCH  25  28
ENDBRANCH  17  24
ENDBRANCH  11  16
ENDBRANCH   9  10
ENDBRANCH   7   9
ENDBRANCH   5   7
ENDBRANCH   4   5
ENDBRANCH   3   4
ENDBRANCH   2   3
ENDBRANCH   1   2
BRANCH   1  34
ATOM     34  C   UNL A   1      35.461  23.952  25.221  1.00  0.00     0.188 C 
BRANCH  34  35
ATOM     35  C   UNL A   1      36.981  23.721  25.166  1.00  0.00     0.188 C 
BRANCH  35  36
ATOM     36  O   UNL A   1      37.610  23.672  26.424  1.00  0.00    -0.376 OA
BRANCH  36  37
ATOM     37  C   UNL A   1      38.968  24.057  26.504  1.00  0.00     0.202 C 
BRANCH  37  38
ATOM     38  C   UNL A   1      39.964  23.077  27.146  1.00  0.00     0.261 C 
BRANCH  38  39
ATOM     39  O   UNL A   1      41.280  23.585  27.428  1.00  0.00    -0.460 OA
BRANCH  39  40
ATOM     40  C   UNL A   1      42.221  23.446  26.463  1.00  0.00     0.338 C 
ATOM     41  O   UNL A   1      42.243  22.619  25.576  1.00  0.00    -0.246 OA
BRANCH  40  42
ATOM     42  C   UNL A   1      43.105  24.639  26.528  1.00  0.00     0.060 A 
ATOM     43  C   UNL A   1      43.490  25.267  25.334  1.00  0.00     0.016 A 
ATOM     44  C   UNL A   1      43.533  25.145  27.756  1.00  0.00     0.016 A 
ATOM     45  C   UNL A   1      44.321  26.391  25.366  1.00  0.00     0.010 A 
ATOM     46  C   UNL A   1      44.386  26.255  27.784  1.00  0.00     0.010 A 
ATOM     47  C   UNL A   1      44.807  26.867  26.590  1.00  0.00    -0.014 A 
BRANCH  47  48
ATOM     48  C   UNL A   1      45.902  27.872  26.622  1.00  0.00     0.031 A 
ATOM     49  C   UNL A   1      45.531  29.328  26.710  1.00  0.00     0.074 A 
ATOM     50  C   UNL A   1      47.198  27.515  26.574  1.00  0.00     0.049 A 
ATOM     51  N   UNL A   1      46.294  30.389  26.657  1.00  0.00    -0.248 NA
ATOM     52  C   UNL A   1      44.098  29.624  26.877  1.00  0.00     0.031 C 
ATOM     53  C   UNL A   1      47.701  26.144  26.536  1.00  0.00     0.029 A 
ATOM     54  N   UNL A   1      48.332  28.292  26.533  1.00  0.00    -0.354 N 
ATOM     55  C   UNL A   1      45.437  31.476  26.770  1.00  0.00     0.074 A 
ATOM     56  C   UNL A   1      44.093  30.948  26.865  1.00  0.00     0.031 C 
ATOM     57  C   UNL A   1      49.044  26.176  26.458  1.00  0.00     0.029 A 
ATOM     58  C   UNL A   1      49.491  27.567  26.401  1.00  0.00     0.049 A 
ATOM     59  H   UNL A   1      48.314  29.274  26.593  1.00  0.00     0.167 HD
ATOM     60  C   UNL A   1      45.739  32.796  26.796  1.00  0.00     0.037 A 
ATOM     61  C   UNL A   1      50.763  27.980  26.223  1.00  0.00     0.037 A 
ATOM     62  C   UNL A   1      47.074  33.324  26.698  1.00  0.00     0.049 A 
ATOM     63  C   UNL A   1      51.066  29.457  26.167  1.00  0.00     0.074 A 
ATOM     64  C   UNL A   1      47.480  34.647  26.731  1.00  0.00     0.029 A 
ATOM     65  N   UNL A   1      48.217  32.559  26.535  1.00  0.00    -0.354 N 
ATOM     66  N   UNL A   1      50.252  30.478  26.295  1.00  0.00    -0.248 NA
ATOM     67  C   UNL A   1      52.468  29.839  25.941  1.00  0.00     0.031 C 
ATOM     68  C   UNL A   1      48.863  34.684  26.529  1.00  0.00     0.029 A 
ATOM     69  C   UNL A   1      49.327  33.382  26.435  1.00  0.00     0.049 A 
ATOM     70  H   UNL A   1      48.238  31.575  26.495  1.00  0.00     0.167 HD
ATOM     71  C   UNL A   1      51.046  31.616  26.202  1.00  0.00     0.074 A 
ATOM     72  C   UNL A   1      52.408  31.162  26.018  1.00  0.00     0.031 C 
ATOM     73  C   UNL A   1      50.680  32.921  26.264  1.00  0.00     0.037 A 
BRANCH  60  74
ATOM     74  C   UNL A   1      44.597  33.764  26.907  1.00  0.00     0.057 A 
ATOM     75  C   UNL A   1      44.179  34.284  28.138  1.00  0.00     0.134 A 
ATOM     76  C   UNL A   1      43.927  34.205  25.758  1.00  0.00     0.134 A 
ATOM     77  F   UNL A   1      44.767  33.890  29.278  1.00  0.00    -0.206 F 
ATOM     78  C   UNL A   1      43.120  35.191  28.226  1.00  0.00     0.040 A 
ATOM     79  C   UNL A   1      42.888  35.134  25.830  1.00  0.00     0.040 A 
ATOM     80  F   UNL A   1      44.278  33.751  24.546  1.00  0.00    -0.206 F 
ATOM     81  C   UNL A   1      42.477  35.623  27.069  1.00  0.00     0.006 A 
ENDBRANCH  60  74
BRANCH  61  82
ATOM     82  C   UNL A   1      51.858  26.987  26.057  1.00  0.00     0.057 A 
ATOM     83  C   UNL A   1      52.127  26.404  24.813  1.00  0.00     0.134 A 
ATOM     84  C   UNL A   1      52.631  26.564  27.145  1.00  0.00     0.134 A 
ATOM     85  F   UNL A   1      51.401  26.744  23.737  1.00  0.00    -0.206 F 
ATOM     86  C   UNL A   1      53.107  25.422  24.660  1.00  0.00     0.040 A 
ATOM     87  C   UNL A   1      53.635  25.605  27.002  1.00  0.00     0.040 A 
ATOM     88  F   UNL A   1      52.421  27.078  28.366  1.00  0.00    -0.206 F 
ATOM     89  C   UNL A   1      53.869  25.024  25.758  1.00  0.00     0.006 A 
ENDBRANCH  61  82
BRANCH  73  90
ATOM     90  C   UNL A   1      51.770  33.954  26.183  1.00  0.00     0.057 A 
ATOM     91  C   UNL A   1      52.410  34.455  27.323  1.00  0.00     0.134 A 
ATOM     92  C   UNL A   1      52.215  34.420  24.938  1.00  0.00     0.134 A 
ATOM     93  F   UNL A   1      52.027  34.059  28.547  1.00  0.00    -0.206 F 
ATOM     94  C   UNL A   1      53.434  35.400  27.232  1.00  0.00     0.040 A 
ATOM     95  C   UNL A   1      53.259  35.342  24.831  1.00  0.00     0.040 A 
ATOM     96  F   UNL A   1      51.657  33.975  23.803  1.00  0.00    -0.206 F 
ATOM     97  C   UNL A   1      53.867  35.839  25.982  1.00  0.00     0.006 A 
ENDBRANCH  73  90
ENDBRANCH  47  48
ENDBRANCH  40  42
ENDBRANCH  39  40
ENDBRANCH  38  39
ENDBRANCH  37  38
ENDBRANCH  36  37
ENDBRANCH  35  36
ENDBRANCH  34  35
ENDBRANCH   1  34
TORSDOF 22
ENDMDL
MODEL 3
REMARK VINA RESULT:      -9.8      3.741      5.950
REMARK SMILES Cc1occc1C(=O)NN1C(=O)/C(=C\c2ccc(O[C@H](C)C(=O)OCCOCCOCCOC(=O)c3ccc(-c4c5nc(c(-c6c(F)cccc6F)c6ccc([nH]6)c(-c6c(F)cccc6F)c6nc(c(-c7c(F)cccc7F)c7ccc4[nH]7)C=C6)C=C5)cc3)cc2)SC1=S
REMARK SMILES IDX 27 1 26 2 25 3 24 4 22 5 23 6 20 7 21 8 19 9 18 10 15 11
REMARK SMILES IDX 16 12 91 13 17 14 90 15 14 16 10 17 11 18 93 19 12 20 13 21
REMARK SMILES IDX 92 22 94 23 9 24 7 25 8 26 6 28 1 29 2 30 3 31 4 32 5 33
REMARK SMILES IDX 28 34 29 35 30 36 31 37 32 38 33 39 34 40 35 41 36 42 37 43
REMARK SMILES IDX 89 44 38 45 88 46 39 47 40 48 41 49 82 50 42 51 87 52 81 53
REMARK SMILES IDX 83 54 43 55 86 56 80 57 79 58 44 60 70 61 53 62 69 63 54 64
REMARK SMILES IDX 57 65 68 66 84 67 55 68 56 69 67 71 85 72 58 73 45 74 46 75
REMARK SMILES IDX 51 76 47 77 48 78 50 79 52 80 49 81 71 82 72 83 77 84 73 85
REMARK SMILES IDX 74 86 76 87 78 88 75 89 59 90 60 91 65 92 61 93 62 94 64 95
REMARK SMILES IDX 66 96 63 97
REMARK H PARENT 9 27 83 59 57 70
REMARK Flexibility Score: inf
ROOT
ATOM      1  O   UNL A   1      34.976  21.164  25.157  1.00  0.00    -0.376 OA
ENDROOT
BRANCH   1   2
ATOM      2  C   UNL A   1      33.787  21.933  25.261  1.00  0.00     0.202 C 
BRANCH   2   3
ATOM      3  C   UNL A   1      33.859  23.453  25.047  1.00  0.00     0.261 C 
BRANCH   3   4
ATOM      4  O   UNL A   1      33.425  24.289  26.142  1.00  0.00    -0.461 OA
BRANCH   4   5
ATOM      5  C   UNL A   1      32.083  24.498  26.227  1.00  0.00     0.347 C 
ATOM      6  O   UNL A   1      31.382  24.068  27.140  1.00  0.00    -0.248 OA
BRANCH   5   7
ATOM      7  C   UNL A   1      31.479  25.254  25.037  1.00  0.00     0.279 C 
ATOM      8  C   UNL A   1      30.448  24.617  24.099  1.00  0.00     0.066 C 
BRANCH   7   9
ATOM      9  O   UNL A   1      31.216  26.598  25.419  1.00  0.00    -0.479 OA
BRANCH   9  10
ATOM     10  C   UNL A   1      32.199  27.468  25.759  1.00  0.00     0.120 A 
ATOM     11  C   UNL A   1      34.333  28.864  26.910  1.00  0.00    -0.024 A 
ATOM     12  C   UNL A   1      34.304  28.626  25.535  1.00  0.00     0.012 A 
ATOM     13  C   UNL A   1      33.197  28.572  27.667  1.00  0.00     0.012 A 
ATOM     14  C   UNL A   1      33.223  27.956  24.956  1.00  0.00     0.047 A 
ATOM     15  C   UNL A   1      32.156  27.844  27.099  1.00  0.00     0.047 A 
BRANCH  11  16
ATOM     16  C   UNL A   1      35.590  29.327  27.509  1.00  0.00     0.029 C 
ATOM     17  N   UNL A   1      35.693  32.919  27.985  1.00  0.00    -0.198 N 
ATOM     18  C   UNL A   1      34.941  31.775  27.782  1.00  0.00     0.285 C 
ATOM     19  C   UNL A   1      36.900  32.783  28.633  1.00  0.00     0.168 C 
ATOM     20  O   UNL A   1      33.737  31.767  27.576  1.00  0.00    -0.266 OA
ATOM     21  C   UNL A   1      35.825  30.580  27.929  1.00  0.00     0.082 C 
ATOM     22  S   UNL A   1      37.297  31.060  28.712  1.00  0.00    -0.052 SA
ATOM     23  S   UNL A   1      37.868  33.977  29.272  1.00  0.00    -0.050 S 
BRANCH  17  24
ATOM     24  N   UNL A   1      35.049  34.131  27.781  1.00  0.00    -0.254 N 
ATOM     25  C   UNL A   1      34.536  34.982  28.733  1.00  0.00     0.273 C 
ATOM     26  O   UNL A   1      34.194  36.100  28.339  1.00  0.00    -0.267 OA
ATOM     27  H   UNL A   1      34.947  34.416  26.843  1.00  0.00     0.192 HD
BRANCH  25  28
ATOM     28  C   UNL A   1      34.282  34.595  30.119  1.00  0.00     0.082 A 
ATOM     29  C   UNL A   1      33.039  36.519  31.491  1.00  0.00     0.088 C 
ATOM     30  C   UNL A   1      33.698  35.231  31.207  1.00  0.00     0.113 A 
ATOM     31  O   UNL A   1      33.700  34.404  32.297  1.00  0.00    -0.469 OA
ATOM     32  C   UNL A   1      34.213  33.217  31.916  1.00  0.00     0.196 A 
ATOM     33  C   UNL A   1      34.564  33.266  30.595  1.00  0.00     0.056 A 
ENDBRANCH  25  28
ENDBRANCH  17  24
ENDBRANCH  11  16
ENDBRANCH   9  10
ENDBRANCH   7   9
ENDBRANCH   5   7
ENDBRANCH   4   5
ENDBRANCH   3   4
ENDBRANCH   2   3
ENDBRANCH   1   2
BRANCH   1  34
ATOM     34  C   UNL A   1      36.180  21.778  24.715  1.00  0.00     0.188 C 
BRANCH  34  35
ATOM     35  C   UNL A   1      37.376  21.900  25.677  1.00  0.00     0.188 C 
BRANCH  35  36
ATOM     36  O   UNL A   1      38.147  23.065  25.505  1.00  0.00    -0.376 OA
BRANCH  36  37
ATOM     37  C   UNL A   1      38.028  24.090  26.471  1.00  0.00     0.202 C 
BRANCH  37  38
ATOM     38  C   UNL A   1      39.317  24.654  27.093  1.00  0.00     0.261 C 
BRANCH  38  39
ATOM     39  O   UNL A   1      40.560  24.188  26.537  1.00  0.00    -0.460 OA
BRANCH  39  40
ATOM     40  C   UNL A   1      41.547  23.859  27.406  1.00  0.00     0.338 C 
ATOM     41  O   UNL A   1      41.613  22.863  28.095  1.00  0.00    -0.246 OA
BRANCH  40  42
ATOM     42  C   UNL A   1      42.663  24.817  27.194  1.00  0.00     0.060 A 
ATOM     43  C   UNL A   1      43.422  25.233  28.299  1.00  0.00     0.016 A 
ATOM     44  C   UNL A   1      42.972  25.283  25.917  1.00  0.00     0.016 A 
ATOM     45  C   UNL A   1      44.478  26.132  28.129  1.00  0.00     0.010 A 
ATOM     46  C   UNL A   1      44.014  26.204  25.752  1.00  0.00     0.010 A 
ATOM     47  C   UNL A   1      44.755  26.655  26.859  1.00  0.00    -0.014 A 
BRANCH  47  48
ATOM     48  C   UNL A   1      45.677  27.810  26.708  1.00  0.00     0.031 A 
ATOM     49  C   UNL A   1      47.148  27.533  26.555  1.00  0.00     0.074 A 
ATOM     50  C   UNL A   1      45.234  29.081  26.707  1.00  0.00     0.049 A 
ATOM     51  N   UNL A   1      48.155  28.367  26.504  1.00  0.00    -0.248 NA
ATOM     52  C   UNL A   1      47.534  26.116  26.449  1.00  0.00     0.031 C 
ATOM     53  C   UNL A   1      43.835  29.492  26.799  1.00  0.00     0.029 A 
ATOM     54  N   UNL A   1      45.931  30.264  26.641  1.00  0.00    -0.354 N 
ATOM     55  C   UNL A   1      49.291  27.579  26.374  1.00  0.00     0.074 A 
ATOM     56  C   UNL A   1      48.854  26.200  26.382  1.00  0.00     0.031 C 
ATOM     57  C   UNL A   1      43.777  30.837  26.803  1.00  0.00     0.029 A 
ATOM     58  C   UNL A   1      45.135  31.378  26.753  1.00  0.00     0.049 A 
ATOM     59  H   UNL A   1      46.907  30.308  26.524  1.00  0.00     0.167 HD
ATOM     60  C   UNL A   1      50.583  27.966  26.253  1.00  0.00     0.037 A 
ATOM     61  C   UNL A   1      45.467  32.683  26.837  1.00  0.00     0.037 A 
ATOM     62  C   UNL A   1      51.022  29.337  26.247  1.00  0.00     0.049 A 
ATOM     63  C   UNL A   1      46.920  33.086  26.788  1.00  0.00     0.074 A 
ATOM     64  C   UNL A   1      52.309  29.828  26.115  1.00  0.00     0.029 A 
ATOM     65  N   UNL A   1      50.188  30.434  26.393  1.00  0.00    -0.354 N 
ATOM     66  N   UNL A   1      47.986  32.336  26.645  1.00  0.00    -0.248 NA
ATOM     67  C   UNL A   1      47.215  34.522  26.915  1.00  0.00     0.031 C 
ATOM     68  C   UNL A   1      52.261  31.220  26.239  1.00  0.00     0.029 A 
ATOM     69  C   UNL A   1      50.936  31.600  26.384  1.00  0.00     0.049 A 
ATOM     70  H   UNL A   1      49.209  30.391  26.490  1.00  0.00     0.167 HD
ATOM     71  C   UNL A   1      49.070  33.209  26.627  1.00  0.00     0.074 A 
ATOM     72  C   UNL A   1      48.532  34.546  26.764  1.00  0.00     0.031 C 
ATOM     73  C   UNL A   1      50.392  32.928  26.508  1.00  0.00     0.037 A 
BRANCH  60  74
ATOM     74  C   UNL A   1      51.621  26.887  26.147  1.00  0.00     0.057 A 
ATOM     75  C   UNL A   1      51.934  26.272  24.929  1.00  0.00     0.134 A 
ATOM     76  C   UNL A   1      52.341  26.481  27.279  1.00  0.00     0.134 A 
ATOM     77  F   UNL A   1      51.270  26.602  23.810  1.00  0.00    -0.206 F 
ATOM     78  C   UNL A   1      52.908  25.275  24.843  1.00  0.00     0.040 A 
ATOM     79  C   UNL A   1      53.337  25.507  27.200  1.00  0.00     0.040 A 
ATOM     80  F   UNL A   1      52.095  27.031  28.477  1.00  0.00    -0.206 F 
ATOM     81  C   UNL A   1      53.617  24.895  25.980  1.00  0.00     0.006 A 
ENDBRANCH  60  74
BRANCH  61  82
ATOM     82  C   UNL A   1      44.411  33.717  27.002  1.00  0.00     0.057 A 
ATOM     83  C   UNL A   1      43.918  34.056  28.267  1.00  0.00     0.134 A 
ATOM     84  C   UNL A   1      43.837  34.357  25.896  1.00  0.00     0.134 A 
ATOM     85  F   UNL A   1      44.404  33.456  29.364  1.00  0.00    -0.206 F 
ATOM     86  C   UNL A   1      42.880  34.976  28.428  1.00  0.00     0.040 A 
ATOM     87  C   UNL A   1      42.820  35.302  26.043  1.00  0.00     0.040 A 
ATOM     88  F   UNL A   1      44.258  34.074  24.655  1.00  0.00    -0.206 F 
ATOM     89  C   UNL A   1      42.332  35.606  27.312  1.00  0.00     0.006 A 
ENDBRANCH  61  82
BRANCH  73  90
ATOM     90  C   UNL A   1      51.349  34.087  26.469  1.00  0.00     0.057 A 
ATOM     91  C   UNL A   1      51.585  34.820  25.300  1.00  0.00     0.134 A 
ATOM     92  C   UNL A   1      52.010  34.501  27.634  1.00  0.00     0.134 A 
ATOM     93  F   UNL A   1      50.993  34.473  24.147  1.00  0.00    -0.206 F 
ATOM     94  C   UNL A   1      52.462  35.908  25.283  1.00  0.00     0.040 A 
ATOM     95  C   UNL A   1      52.866  35.605  27.637  1.00  0.00     0.040 A 
ATOM     96  F   UNL A   1      51.822  33.853  28.793  1.00  0.00    -0.206 F 
ATOM     97  C   UNL A   1      53.099  36.307  26.457  1.00  0.00     0.006 A 
ENDBRANCH  73  90
ENDBRANCH  47  48
ENDBRANCH  40  42
ENDBRANCH  39  40
ENDBRANCH  38  39
ENDBRANCH  37  38
ENDBRANCH  36  37
ENDBRANCH  35  36
ENDBRANCH  34  35
ENDBRANCH   1  34
TORSDOF 22
ENDMDL
