MODEL 1
REMARK VINA RESULT:     -11.2      0.000      0.000
REMARK SMILES Cc1cc(C)c2c(c1)C=C(C(=O)OCCOCCOCCOC(=O)c1ccc(-c3c4nc(c(-c5c(F)cccc5F)c5ccc([nH]5)c(-c5c(F)cccc5F)c5nc(c(-c6c(F)cccc6F)c6ccc3[nH]6)C=C5)C=C4)cc1)[C@@H](C(F)(F)F)O2
REMARK SMILES IDX 18 1 17 2 16 3 15 4 14 5 13 6 11 7 12 8 10 9 1 10 2 11 3 12
REMARK SMILES IDX 8 13 4 14 7 15 5 16 6 17 9 18 84 19 79 20 80 21 81 22 82 23
REMARK SMILES IDX 83 24 19 25 20 26 21 27 22 28 23 29 24 30 25 31 26 32 78 33
REMARK SMILES IDX 27 34 77 35 28 36 29 37 30 38 71 39 31 40 76 41 70 42 72 43
REMARK SMILES IDX 32 44 75 45 69 46 68 47 33 49 59 50 42 51 58 52 43 53 46 54
REMARK SMILES IDX 57 55 73 56 44 57 45 58 56 60 74 61 47 62 34 63 35 64 40 65
REMARK SMILES IDX 36 66 37 67 39 68 41 69 38 70 60 71 61 72 66 73 62 74 63 75
REMARK SMILES IDX 65 76 67 77 64 78 48 79 49 80 54 81 50 82 51 83 53 84 55 85
REMARK SMILES IDX 52 86
REMARK H PARENT 72 48 46 59
REMARK Flexibility Score: inf
ROOT
ATOM      1  C   UNL A   1      42.725  19.750  26.187  1.00  0.00     0.188 C 
ENDROOT
BRANCH   1   2
ATOM      2  C   UNL A   1      41.620  20.647  26.785  1.00  0.00     0.188 C 
BRANCH   2   3
ATOM      3  O   UNL A   1      40.753  21.373  25.937  1.00  0.00    -0.376 OA
BRANCH   3   4
ATOM      4  C   UNL A   1      39.440  21.705  26.351  1.00  0.00     0.202 C 
BRANCH   4   5
ATOM      5  C   UNL A   1      38.214  21.613  25.427  1.00  0.00     0.261 C 
BRANCH   5   6
ATOM      6  O   UNL A   1      37.418  22.799  25.321  1.00  0.00    -0.460 OA
BRANCH   6   7
ATOM      7  C   UNL A   1      36.601  22.852  24.241  1.00  0.00     0.338 C 
ATOM      8  O   UNL A   1      36.848  22.450  23.117  1.00  0.00    -0.246 OA
BRANCH   7   9
ATOM      9  C   UNL A   1      35.268  23.339  24.654  1.00  0.00     0.087 C 
ATOM     10  C   UNL A   1      32.493  28.361  26.885  1.00  0.00     0.044 C 
ATOM     11  C   UNL A   1      32.590  26.944  26.402  1.00  0.00    -0.050 A 
ATOM     12  C   UNL A   1      31.544  26.039  26.626  1.00  0.00     0.010 A 
ATOM     13  C   UNL A   1      33.767  26.485  25.800  1.00  0.00     0.015 A 
ATOM     14  C   UNL A   1      31.651  24.699  26.225  1.00  0.00    -0.008 A 
ATOM     15  C   UNL A   1      33.898  25.143  25.421  1.00  0.00     0.018 A 
ATOM     16  C   UNL A   1      30.526  23.741  26.501  1.00  0.00     0.048 C 
ATOM     17  C   UNL A   1      32.830  24.260  25.603  1.00  0.00     0.130 A 
ATOM     18  C   UNL A   1      35.169  24.648  24.924  1.00  0.00     0.027 C 
ATOM     19  O   UNL A   1      32.868  22.952  25.208  1.00  0.00    -0.475 OA
ATOM     20  C   UNL A   1      34.118  22.375  24.746  1.00  0.00     0.316 C 
BRANCH  20  21
ATOM     21  C   UNL A   1      34.441  21.164  25.629  1.00  0.00     0.430 C 
ATOM     22  F   UNL A   1      35.098  21.534  26.754  1.00  0.00    -0.167 F 
ATOM     23  F   UNL A   1      33.318  20.523  26.030  1.00  0.00    -0.167 F 
ATOM     24  F   UNL A   1      35.214  20.260  24.985  1.00  0.00    -0.167 F 
ENDBRANCH  20  21
ENDBRANCH   7   9
ENDBRANCH   6   7
ENDBRANCH   5   6
ENDBRANCH   4   5
ENDBRANCH   3   4
ENDBRANCH   2   3
ENDBRANCH   1   2
BRANCH   1  25
ATOM     25  O   UNL A   1      43.417  20.196  25.048  1.00  0.00    -0.376 OA
BRANCH  25  26
ATOM     26  C   UNL A   1      44.656  20.873  25.186  1.00  0.00     0.202 C 
BRANCH  26  27
ATOM     27  C   UNL A   1      44.952  22.023  26.173  1.00  0.00     0.261 C 
BRANCH  27  28
ATOM     28  O   UNL A   1      44.903  23.364  25.677  1.00  0.00    -0.460 OA
BRANCH  28  29
ATOM     29  C   UNL A   1      43.723  23.742  25.120  1.00  0.00     0.338 C 
ATOM     30  O   UNL A   1      43.179  23.267  24.142  1.00  0.00    -0.246 OA
BRANCH  29  31
ATOM     31  C   UNL A   1      43.072  24.720  26.015  1.00  0.00     0.060 A 
ATOM     32  C   UNL A   1      43.562  26.034  26.050  1.00  0.00     0.016 A 
ATOM     33  C   UNL A   1      42.003  24.338  26.825  1.00  0.00     0.016 A 
ATOM     34  C   UNL A   1      42.987  26.972  26.905  1.00  0.00     0.010 A 
ATOM     35  C   UNL A   1      41.451  25.270  27.708  1.00  0.00     0.010 A 
ATOM     36  C   UNL A   1      41.957  26.582  27.770  1.00  0.00    -0.014 A 
BRANCH  36  37
ATOM     37  C   UNL A   1      41.561  27.475  28.884  1.00  0.00     0.031 A 
ATOM     38  C   UNL A   1      42.357  27.412  30.160  1.00  0.00     0.074 A 
ATOM     39  C   UNL A   1      40.542  28.343  28.768  1.00  0.00     0.049 A 
ATOM     40  N   UNL A   1      42.172  28.046  31.288  1.00  0.00    -0.248 NA
ATOM     41  C   UNL A   1      43.521  26.511  30.158  1.00  0.00     0.031 C 
ATOM     42  C   UNL A   1      39.734  28.544  27.568  1.00  0.00     0.029 A 
ATOM     43  N   UNL A   1      40.011  29.218  29.684  1.00  0.00    -0.354 N 
ATOM     44  C   UNL A   1      43.194  27.622  32.127  1.00  0.00     0.074 A 
ATOM     45  C   UNL A   1      43.974  26.651  31.394  1.00  0.00     0.031 C 
ATOM     46  C   UNL A   1      38.800  29.479  27.825  1.00  0.00     0.029 A 
ATOM     47  C   UNL A   1      38.925  29.915  29.216  1.00  0.00     0.049 A 
ATOM     48  H   UNL A   1      40.376  29.334  30.592  1.00  0.00     0.167 HD
ATOM     49  C   UNL A   1      43.465  28.016  33.393  1.00  0.00     0.037 A 
ATOM     50  C   UNL A   1      38.112  30.787  29.848  1.00  0.00     0.037 A 
ATOM     51  C   UNL A   1      42.684  28.976  34.125  1.00  0.00     0.049 A 
ATOM     52  C   UNL A   1      38.368  31.127  31.294  1.00  0.00     0.074 A 
ATOM     53  C   UNL A   1      42.879  29.438  35.414  1.00  0.00     0.029 A 
ATOM     54  N   UNL A   1      41.555  29.615  33.636  1.00  0.00    -0.354 N 
ATOM     55  N   UNL A   1      39.342  30.730  32.079  1.00  0.00    -0.248 NA
ATOM     56  C   UNL A   1      37.412  32.037  31.944  1.00  0.00     0.031 C 
ATOM     57  C   UNL A   1      41.837  30.315  35.725  1.00  0.00     0.029 A 
ATOM     58  C   UNL A   1      41.026  30.447  34.609  1.00  0.00     0.049 A 
ATOM     59  H   UNL A   1      41.184  29.496  32.731  1.00  0.00     0.167 HD
ATOM     60  C   UNL A   1      39.129  31.357  33.302  1.00  0.00     0.074 A 
ATOM     61  C   UNL A   1      37.944  32.176  33.151  1.00  0.00     0.031 C 
ATOM     62  C   UNL A   1      39.850  31.262  34.447  1.00  0.00     0.037 A 
BRANCH  49  63
ATOM     63  C   UNL A   1      44.650  27.397  34.073  1.00  0.00     0.057 A 
ATOM     64  C   UNL A   1      45.913  28.003  34.050  1.00  0.00     0.134 A 
ATOM     65  C   UNL A   1      44.514  26.212  34.807  1.00  0.00     0.134 A 
ATOM     66  F   UNL A   1      46.114  29.131  33.351  1.00  0.00    -0.206 F 
ATOM     67  C   UNL A   1      47.002  27.443  34.721  1.00  0.00     0.040 A 
ATOM     68  C   UNL A   1      45.588  25.658  35.505  1.00  0.00     0.040 A 
ATOM     69  F   UNL A   1      43.331  25.583  34.872  1.00  0.00    -0.206 F 
ATOM     70  C   UNL A   1      46.837  26.273  35.459  1.00  0.00     0.006 A 
ENDBRANCH  49  63
BRANCH  50  71
ATOM     71  C   UNL A   1      36.970  31.399  29.120  1.00  0.00     0.057 A 
ATOM     72  C   UNL A   1      37.029  32.722  28.666  1.00  0.00     0.134 A 
ATOM     73  C   UNL A   1      35.792  30.686  28.868  1.00  0.00     0.134 A 
ATOM     74  F   UNL A   1      38.119  33.467  28.902  1.00  0.00    -0.206 F 
ATOM     75  C   UNL A   1      35.957  33.315  27.996  1.00  0.00     0.040 A 
ATOM     76  C   UNL A   1      34.723  31.256  28.174  1.00  0.00     0.040 A 
ATOM     77  F   UNL A   1      35.667  29.415  29.281  1.00  0.00    -0.206 F 
ATOM     78  C   UNL A   1      34.803  32.579  27.741  1.00  0.00     0.006 A 
ENDBRANCH  50  71
BRANCH  62  79
ATOM     79  C   UNL A   1      39.402  32.074  35.630  1.00  0.00     0.057 A 
ATOM     80  C   UNL A   1      39.842  33.387  35.832  1.00  0.00     0.134 A 
ATOM     81  C   UNL A   1      38.455  31.566  36.529  1.00  0.00     0.134 A 
ATOM     82  F   UNL A   1      40.755  33.933  35.014  1.00  0.00    -0.206 F 
ATOM     83  C   UNL A   1      39.368  34.161  36.893  1.00  0.00     0.040 A 
ATOM     84  C   UNL A   1      37.950  32.340  37.574  1.00  0.00     0.040 A 
ATOM     85  F   UNL A   1      37.979  30.319  36.385  1.00  0.00    -0.206 F 
ATOM     86  C   UNL A   1      38.410  33.641  37.761  1.00  0.00     0.006 A 
ENDBRANCH  62  79
ENDBRANCH  36  37
ENDBRANCH  29  31
ENDBRANCH  28  29
ENDBRANCH  27  28
ENDBRANCH  26  27
ENDBRANCH  25  26
ENDBRANCH   1  25
TORSDOF 18
ENDMDL
MODEL 2
REMARK VINA RESULT:     -10.9      1.249      2.044
REMARK SMILES Cc1cc(C)c2c(c1)C=C(C(=O)OCCOCCOCCOC(=O)c1ccc(-c3c4nc(c(-c5c(F)cccc5F)c5ccc([nH]5)c(-c5c(F)cccc5F)c5nc(c(-c6c(F)cccc6F)c6ccc3[nH]6)C=C5)C=C4)cc1)[C@@H](C(F)(F)F)O2
REMARK SMILES IDX 18 1 17 2 16 3 15 4 14 5 13 6 11 7 12 8 10 9 1 10 2 11 3 12
REMARK SMILES IDX 8 13 4 14 7 15 5 16 6 17 9 18 84 19 79 20 80 21 81 22 82 23
REMARK SMILES IDX 83 24 19 25 20 26 21 27 22 28 23 29 24 30 25 31 26 32 78 33
REMARK SMILES IDX 27 34 77 35 28 36 29 37 30 38 71 39 31 40 76 41 70 42 72 43
REMARK SMILES IDX 32 44 75 45 69 46 68 47 33 49 59 50 42 51 58 52 43 53 46 54
REMARK SMILES IDX 57 55 73 56 44 57 45 58 56 60 74 61 47 62 34 63 35 64 40 65
REMARK SMILES IDX 36 66 37 67 39 68 41 69 38 70 60 71 61 72 66 73 62 74 63 75
REMARK SMILES IDX 65 76 67 77 64 78 48 79 49 80 54 81 50 82 51 83 53 84 55 85
REMARK SMILES IDX 52 86
REMARK H PARENT 72 48 46 59
REMARK Flexibility Score: inf
ROOT
ATOM      1  C   UNL A   1      40.445  21.474  26.997  1.00  0.00     0.188 C 
ENDROOT
BRANCH   1   2
ATOM      2  C   UNL A   1      39.219  21.891  26.156  1.00  0.00     0.188 C 
BRANCH   2   3
ATOM      3  O   UNL A   1      38.541  20.939  25.363  1.00  0.00    -0.376 OA
BRANCH   3   4
ATOM      4  C   UNL A   1      37.321  21.264  24.720  1.00  0.00     0.202 C 
BRANCH   4   5
ATOM      5  C   UNL A   1      35.942  21.055  25.366  1.00  0.00     0.261 C 
BRANCH   5   6
ATOM      6  O   UNL A   1      35.414  22.170  26.093  1.00  0.00    -0.460 OA
BRANCH   6   7
ATOM      7  C   UNL A   1      34.108  22.446  25.862  1.00  0.00     0.338 C 
ATOM      8  O   UNL A   1      33.150  21.756  26.169  1.00  0.00    -0.246 OA
BRANCH   7   9
ATOM      9  C   UNL A   1      33.981  23.809  25.307  1.00  0.00     0.087 C 
ATOM     10  C   UNL A   1      32.114  29.459  26.887  1.00  0.00     0.044 C 
ATOM     11  C   UNL A   1      32.657  28.393  25.980  1.00  0.00    -0.050 A 
ATOM     12  C   UNL A   1      32.742  28.606  24.598  1.00  0.00     0.010 A 
ATOM     13  C   UNL A   1      33.001  27.139  26.497  1.00  0.00     0.015 A 
ATOM     14  C   UNL A   1      33.197  27.595  23.740  1.00  0.00    -0.008 A 
ATOM     15  C   UNL A   1      33.430  26.112  25.647  1.00  0.00     0.018 A 
ATOM     16  C   UNL A   1      33.255  27.838  22.257  1.00  0.00     0.048 C 
ATOM     17  C   UNL A   1      33.560  26.349  24.276  1.00  0.00     0.130 A 
ATOM     18  C   UNL A   1      33.653  24.777  26.174  1.00  0.00     0.027 C 
ATOM     19  O   UNL A   1      34.024  25.410  23.397  1.00  0.00    -0.475 OA
ATOM     20  C   UNL A   1      34.222  24.043  23.843  1.00  0.00     0.316 C 
BRANCH  20  21
ATOM     21  C   UNL A   1      33.374  23.123  22.956  1.00  0.00     0.430 C 
ATOM     22  F   UNL A   1      33.496  23.450  21.647  1.00  0.00    -0.167 F 
ATOM     23  F   UNL A   1      33.754  21.828  23.068  1.00  0.00    -0.167 F 
ATOM     24  F   UNL A   1      32.060  23.187  23.271  1.00  0.00    -0.167 F 
ENDBRANCH  20  21
ENDBRANCH   7   9
ENDBRANCH   6   7
ENDBRANCH   5   6
ENDBRANCH   4   5
ENDBRANCH   3   4
ENDBRANCH   2   3
ENDBRANCH   1   2
BRANCH   1  25
ATOM     25  O   UNL A   1      41.155  20.317  26.633  1.00  0.00    -0.376 OA
BRANCH  25  26
ATOM     26  C   UNL A   1      42.353  20.423  25.881  1.00  0.00     0.202 C 
BRANCH  26  27
ATOM     27  C   UNL A   1      43.269  21.664  25.811  1.00  0.00     0.261 C 
BRANCH  27  28
ATOM     28  O   UNL A   1      42.793  22.811  25.101  1.00  0.00    -0.460 OA
BRANCH  28  29
ATOM     29  C   UNL A   1      43.585  23.913  25.168  1.00  0.00     0.338 C 
ATOM     30  O   UNL A   1      44.579  24.153  24.509  1.00  0.00    -0.246 OA
BRANCH  29  31
ATOM     31  C   UNL A   1      42.939  24.905  26.050  1.00  0.00     0.060 A 
ATOM     32  C   UNL A   1      43.525  26.172  26.185  1.00  0.00     0.016 A 
ATOM     33  C   UNL A   1      41.778  24.580  26.752  1.00  0.00     0.016 A 
ATOM     34  C   UNL A   1      42.953  27.120  27.032  1.00  0.00     0.010 A 
ATOM     35  C   UNL A   1      41.227  25.520  27.627  1.00  0.00     0.010 A 
ATOM     36  C   UNL A   1      41.826  26.782  27.790  1.00  0.00    -0.014 A 
BRANCH  36  37
ATOM     37  C   UNL A   1      41.407  27.661  28.908  1.00  0.00     0.031 A 
ATOM     38  C   UNL A   1      42.172  27.575  30.201  1.00  0.00     0.074 A 
ATOM     39  C   UNL A   1      40.395  28.535  28.780  1.00  0.00     0.049 A 
ATOM     40  N   UNL A   1      41.963  28.194  31.334  1.00  0.00    -0.248 NA
ATOM     41  C   UNL A   1      43.331  26.669  30.214  1.00  0.00     0.031 C 
ATOM     42  C   UNL A   1      39.617  28.758  27.564  1.00  0.00     0.029 A 
ATOM     43  N   UNL A   1      39.846  29.399  29.696  1.00  0.00    -0.354 N 
ATOM     44  C   UNL A   1      42.962  27.752  32.191  1.00  0.00     0.074 A 
ATOM     45  C   UNL A   1      43.755  26.788  31.463  1.00  0.00     0.031 C 
ATOM     46  C   UNL A   1      38.682  29.694  27.812  1.00  0.00     0.029 A 
ATOM     47  C   UNL A   1      38.775  30.108  29.212  1.00  0.00     0.049 A 
ATOM     48  H   UNL A   1      40.190  29.501  30.614  1.00  0.00     0.167 HD
ATOM     49  C   UNL A   1      43.204  28.127  33.469  1.00  0.00     0.037 A 
ATOM     50  C   UNL A   1      37.950  30.975  29.837  1.00  0.00     0.037 A 
ATOM     51  C   UNL A   1      42.410  29.080  34.196  1.00  0.00     0.049 A 
ATOM     52  C   UNL A   1      38.173  31.293  31.294  1.00  0.00     0.074 A 
ATOM     53  C   UNL A   1      42.576  29.522  35.496  1.00  0.00     0.029 A 
ATOM     54  N   UNL A   1      41.296  29.732  33.689  1.00  0.00    -0.354 N 
ATOM     55  N   UNL A   1      39.126  30.879  32.096  1.00  0.00    -0.248 NA
ATOM     56  C   UNL A   1      37.206  32.198  31.934  1.00  0.00     0.031 C 
ATOM     57  C   UNL A   1      41.531  30.399  35.795  1.00  0.00     0.029 A 
ATOM     58  C   UNL A   1      40.748  30.551  34.662  1.00  0.00     0.049 A 
ATOM     59  H   UNL A   1      40.947  29.627  32.774  1.00  0.00     0.167 HD
ATOM     60  C   UNL A   1      38.886  31.490  33.323  1.00  0.00     0.074 A 
ATOM     61  C   UNL A   1      37.709  32.317  33.155  1.00  0.00     0.031 C 
ATOM     62  C   UNL A   1      39.579  31.375  34.483  1.00  0.00     0.037 A 
BRANCH  49  63
ATOM     63  C   UNL A   1      44.369  27.492  34.168  1.00  0.00     0.057 A 
ATOM     64  C   UNL A   1      45.622  28.117  34.229  1.00  0.00     0.134 A 
ATOM     65  C   UNL A   1      44.223  26.270  34.836  1.00  0.00     0.134 A 
ATOM     66  F   UNL A   1      45.834  29.281  33.596  1.00  0.00    -0.206 F 
ATOM     67  C   UNL A   1      46.691  27.541  34.918  1.00  0.00     0.040 A 
ATOM     68  C   UNL A   1      45.275  25.698  35.552  1.00  0.00     0.040 A 
ATOM     69  F   UNL A   1      43.049  25.621  34.819  1.00  0.00    -0.206 F 
ATOM     70  C   UNL A   1      46.515  26.333  35.590  1.00  0.00     0.006 A 
ENDBRANCH  49  63
BRANCH  50  71
ATOM     71  C   UNL A   1      36.829  31.603  29.091  1.00  0.00     0.057 A 
ATOM     72  C   UNL A   1      36.893  32.942  28.685  1.00  0.00     0.134 A 
ATOM     73  C   UNL A   1      35.667  30.890  28.773  1.00  0.00     0.134 A 
ATOM     74  F   UNL A   1      37.967  33.687  28.984  1.00  0.00    -0.206 F 
ATOM     75  C   UNL A   1      35.840  33.550  27.998  1.00  0.00     0.040 A 
ATOM     76  C   UNL A   1      34.618  31.476  28.063  1.00  0.00     0.040 A 
ATOM     77  F   UNL A   1      35.539  29.606  29.138  1.00  0.00    -0.206 F 
ATOM     78  C   UNL A   1      34.701  32.813  27.678  1.00  0.00     0.006 A 
ENDBRANCH  50  71
BRANCH  62  79
ATOM     79  C   UNL A   1      39.106  32.171  35.667  1.00  0.00     0.057 A 
ATOM     80  C   UNL A   1      38.265  31.618  36.639  1.00  0.00     0.134 A 
ATOM     81  C   UNL A   1      39.567  33.477  35.880  1.00  0.00     0.134 A 
ATOM     82  F   UNL A   1      37.780  30.375  36.493  1.00  0.00    -0.206 F 
ATOM     83  C   UNL A   1      37.887  32.339  37.773  1.00  0.00     0.040 A 
ATOM     84  C   UNL A   1      39.221  34.197  37.024  1.00  0.00     0.040 A 
ATOM     85  F   UNL A   1      40.387  34.063  34.995  1.00  0.00    -0.206 F 
ATOM     86  C   UNL A   1      38.375  33.629  37.974  1.00  0.00     0.006 A 
ENDBRANCH  62  79
ENDBRANCH  36  37
ENDBRANCH  29  31
ENDBRANCH  28  29
ENDBRANCH  27  28
ENDBRANCH  26  27
ENDBRANCH  25  26
ENDBRANCH   1  25
TORSDOF 18
ENDMDL
MODEL 3
REMARK VINA RESULT:     -10.9      3.604      8.501
REMARK SMILES Cc1cc(C)c2c(c1)C=C(C(=O)OCCOCCOCCOC(=O)c1ccc(-c3c4nc(c(-c5c(F)cccc5F)c5ccc([nH]5)c(-c5c(F)cccc5F)c5nc(c(-c6c(F)cccc6F)c6ccc3[nH]6)C=C5)C=C4)cc1)[C@@H](C(F)(F)F)O2
REMARK SMILES IDX 18 1 17 2 16 3 15 4 14 5 13 6 11 7 12 8 10 9 1 10 2 11 3 12
REMARK SMILES IDX 8 13 4 14 7 15 5 16 6 17 9 18 84 19 79 20 80 21 81 22 82 23
REMARK SMILES IDX 83 24 19 25 20 26 21 27 22 28 23 29 24 30 25 31 26 32 78 33
REMARK SMILES IDX 27 34 77 35 28 36 29 37 30 38 71 39 31 40 76 41 70 42 72 43
REMARK SMILES IDX 32 44 75 45 69 46 68 47 33 49 59 50 42 51 58 52 43 53 46 54
REMARK SMILES IDX 57 55 73 56 44 57 45 58 56 60 74 61 47 62 34 63 35 64 40 65
REMARK SMILES IDX 36 66 37 67 39 68 41 69 38 70 60 71 61 72 66 73 62 74 63 75
REMARK SMILES IDX 65 76 67 77 64 78 48 79 49 80 54 81 50 82 51 83 53 84 55 85
REMARK SMILES IDX 52 86
REMARK H PARENT 72 48 46 59
REMARK Flexibility Score: inf
ROOT
ATOM      1  C   UNL A   1      31.905  30.036  26.942  1.00  0.00     0.188 C 
ENDROOT
BRANCH   1   2
ATOM      2  C   UNL A   1      33.394  29.771  27.250  1.00  0.00     0.188 C 
BRANCH   2   3
ATOM      3  O   UNL A   1      34.107  28.785  26.533  1.00  0.00    -0.376 OA
BRANCH   3   4
ATOM      4  C   UNL A   1      33.672  28.358  25.254  1.00  0.00     0.202 C 
BRANCH   4   5
ATOM      5  C   UNL A   1      33.997  26.973  24.670  1.00  0.00     0.261 C 
BRANCH   5   6
ATOM      6  O   UNL A   1      33.517  26.723  23.344  1.00  0.00    -0.460 OA
BRANCH   6   7
ATOM      7  C   UNL A   1      32.543  25.785  23.249  1.00  0.00     0.338 C 
ATOM      8  O   UNL A   1      32.677  24.578  23.356  1.00  0.00    -0.246 OA
BRANCH   7   9
ATOM      9  C   UNL A   1      31.227  26.449  23.147  1.00  0.00     0.087 C 
ATOM     10  C   UNL A   1      28.684  31.788  21.437  1.00  0.00     0.044 C 
ATOM     11  C   UNL A   1      28.709  30.388  21.976  1.00  0.00    -0.050 A 
ATOM     12  C   UNL A   1      27.596  29.856  22.638  1.00  0.00     0.010 A 
ATOM     13  C   UNL A   1      29.883  29.628  21.902  1.00  0.00     0.015 A 
ATOM     14  C   UNL A   1      27.633  28.568  23.192  1.00  0.00    -0.008 A 
ATOM     15  C   UNL A   1      29.942  28.352  22.475  1.00  0.00     0.018 A 
ATOM     16  C   UNL A   1      26.434  28.029  23.921  1.00  0.00     0.048 C 
ATOM     17  C   UNL A   1      28.810  27.810  23.090  1.00  0.00     0.130 A 
ATOM     18  C   UNL A   1      31.201  27.629  22.513  1.00  0.00     0.027 C 
ATOM     19  O   UNL A   1      28.781  26.551  23.622  1.00  0.00    -0.475 OA
ATOM     20  C   UNL A   1      30.012  25.789  23.737  1.00  0.00     0.316 C 
BRANCH  20  21
ATOM     21  C   UNL A   1      30.208  25.416  25.211  1.00  0.00     0.430 C 
ATOM     22  F   UNL A   1      31.155  26.189  25.794  1.00  0.00    -0.167 F 
ATOM     23  F   UNL A   1      29.072  25.591  25.928  1.00  0.00    -0.167 F 
ATOM     24  F   UNL A   1      30.585  24.126  25.361  1.00  0.00    -0.167 F 
ENDBRANCH  20  21
ENDBRANCH   7   9
ENDBRANCH   6   7
ENDBRANCH   5   6
ENDBRANCH   4   5
ENDBRANCH   3   4
ENDBRANCH   2   3
ENDBRANCH   1   2
BRANCH   1  25
ATOM     25  O   UNL A   1      31.560  31.174  26.191  1.00  0.00    -0.376 OA
BRANCH  25  26
ATOM     26  C   UNL A   1      31.350  32.418  26.838  1.00  0.00     0.202 C 
BRANCH  26  27
ATOM     27  C   UNL A   1      32.435  33.474  27.139  1.00  0.00     0.261 C 
BRANCH  27  28
ATOM     28  O   UNL A   1      32.368  34.172  28.385  1.00  0.00    -0.460 OA
BRANCH  28  29
ATOM     29  C   UNL A   1      33.465  34.905  28.708  1.00  0.00     0.338 C 
ATOM     30  O   UNL A   1      33.527  36.105  28.896  1.00  0.00    -0.246 OA
BRANCH  29  31
ATOM     31  C   UNL A   1      34.579  33.981  29.000  1.00  0.00     0.060 A 
ATOM     32  C   UNL A   1      34.296  32.757  29.624  1.00  0.00     0.016 A 
ATOM     33  C   UNL A   1      35.892  34.329  28.680  1.00  0.00     0.016 A 
ATOM     34  C   UNL A   1      35.329  31.877  29.938  1.00  0.00     0.010 A 
ATOM     35  C   UNL A   1      36.930  33.460  29.029  1.00  0.00     0.010 A 
ATOM     36  C   UNL A   1      36.656  32.244  29.681  1.00  0.00    -0.014 A 
BRANCH  36  37
ATOM     37  C   UNL A   1      37.761  31.465  30.289  1.00  0.00     0.031 A 
ATOM     38  C   UNL A   1      38.101  31.726  31.731  1.00  0.00     0.074 A 
ATOM     39  C   UNL A   1      38.431  30.529  29.596  1.00  0.00     0.049 A 
ATOM     40  N   UNL A   1      39.057  31.218  32.465  1.00  0.00    -0.248 NA
ATOM     41  C   UNL A   1      37.244  32.690  32.439  1.00  0.00     0.031 C 
ATOM     42  C   UNL A   1      38.158  30.140  28.215  1.00  0.00     0.029 A 
ATOM     43  N   UNL A   1      39.489  29.737  29.968  1.00  0.00    -0.354 N 
ATOM     44  C   UNL A   1      38.915  31.799  33.718  1.00  0.00     0.074 A 
ATOM     45  C   UNL A   1      37.807  32.724  33.637  1.00  0.00     0.031 C 
ATOM     46  C   UNL A   1      39.035  29.186  27.851  1.00  0.00     0.029 A 
ATOM     47  C   UNL A   1      39.951  28.925  28.961  1.00  0.00     0.049 A 
ATOM     48  H   UNL A   1      39.881  29.750  30.872  1.00  0.00     0.167 HD
ATOM     49  C   UNL A   1      39.637  31.573  34.840  1.00  0.00     0.037 A 
ATOM     50  C   UNL A   1      41.007  28.085  28.936  1.00  0.00     0.037 A 
ATOM     51  C   UNL A   1      40.745  30.660  34.918  1.00  0.00     0.049 A 
ATOM     52  C   UNL A   1      41.865  27.933  30.166  1.00  0.00     0.074 A 
ATOM     53  C   UNL A   1      41.540  30.365  36.010  1.00  0.00     0.029 A 
ATOM     54  N   UNL A   1      41.219  29.900  33.859  1.00  0.00    -0.354 N 
ATOM     55  N   UNL A   1      41.719  28.478  31.350  1.00  0.00    -0.248 NA
ATOM     56  C   UNL A   1      43.036  27.049  30.056  1.00  0.00     0.031 C 
ATOM     57  C   UNL A   1      42.530  29.469  35.600  1.00  0.00     0.029 A 
ATOM     58  C   UNL A   1      42.315  29.158  34.267  1.00  0.00     0.049 A 
ATOM     59  H   UNL A   1      40.834  29.890  32.952  1.00  0.00     0.167 HD
ATOM     60  C   UNL A   1      42.762  27.986  32.129  1.00  0.00     0.074 A 
ATOM     61  C   UNL A   1      43.522  27.085  31.289  1.00  0.00     0.031 C 
ATOM     62  C   UNL A   1      43.062  28.259  33.424  1.00  0.00     0.037 A 
BRANCH  49  63
ATOM     63  C   UNL A   1      39.260  32.339  36.073  1.00  0.00     0.057 A 
ATOM     64  C   UNL A   1      39.806  33.598  36.356  1.00  0.00     0.134 A 
ATOM     65  C   UNL A   1      38.298  31.837  36.959  1.00  0.00     0.134 A 
ATOM     66  F   UNL A   1      40.745  34.127  35.557  1.00  0.00    -0.206 F 
ATOM     67  C   UNL A   1      39.419  34.323  37.484  1.00  0.00     0.040 A 
ATOM     68  C   UNL A   1      37.882  32.565  38.074  1.00  0.00     0.040 A 
ATOM     69  F   UNL A   1      37.734  30.639  36.745  1.00  0.00    -0.206 F 
ATOM     70  C   UNL A   1      38.447  33.811  38.341  1.00  0.00     0.006 A 
ENDBRANCH  49  63
BRANCH  50  71
ATOM     71  C   UNL A   1      41.320  27.323  27.699  1.00  0.00     0.057 A 
ATOM     72  C   UNL A   1      40.847  26.018  27.516  1.00  0.00     0.134 A 
ATOM     73  C   UNL A   1      42.103  27.872  26.676  1.00  0.00     0.134 A 
ATOM     74  F   UNL A   1      40.115  25.426  28.471  1.00  0.00    -0.206 F 
ATOM     75  C   UNL A   1      41.147  25.285  26.366  1.00  0.00     0.040 A 
ATOM     76  C   UNL A   1      42.389  27.161  25.509  1.00  0.00     0.040 A 
ATOM     77  F   UNL A   1      42.593  29.115  26.791  1.00  0.00    -0.206 F 
ATOM     78  C   UNL A   1      41.914  25.860  25.355  1.00  0.00     0.006 A 
ENDBRANCH  50  71
BRANCH  62  79
ATOM     79  C   UNL A   1      44.249  27.565  34.032  1.00  0.00     0.057 A 
ATOM     80  C   UNL A   1      45.504  28.180  34.103  1.00  0.00     0.134 A 
ATOM     81  C   UNL A   1      44.112  26.305  34.629  1.00  0.00     0.134 A 
ATOM     82  F   UNL A   1      45.706  29.382  33.545  1.00  0.00    -0.206 F 
ATOM     83  C   UNL A   1      46.585  27.560  34.734  1.00  0.00     0.040 A 
ATOM     84  C   UNL A   1      45.176  25.689  35.289  1.00  0.00     0.040 A 
ATOM     85  F   UNL A   1      42.932  25.666  34.610  1.00  0.00    -0.206 F 
ATOM     86  C   UNL A   1      46.419  26.316  35.339  1.00  0.00     0.006 A 
ENDBRANCH  62  79
ENDBRANCH  36  37
ENDBRANCH  29  31
ENDBRANCH  28  29
ENDBRANCH  27  28
ENDBRANCH  26  27
ENDBRANCH  25  26
ENDBRANCH   1  25
TORSDOF 18
ENDMDL
