MODEL 1
REMARK VINA RESULT:     -10.4      0.000      0.000
REMARK SMILES Cc1ccc(C2=NN(C(=O)CCC(=O)OCCOCCOCCOC(=O)c3ccc(-c4c5nc(c(-c6c(F)cccc6F)c6ccc([nH]6)c(-c6c(F)cccc6F)c6nc(c(-c7c(F)cccc7F)c7ccc4[nH]7)C=C6)C=C5)cc3)[C@H](C[C@@H]3C=c4cccc(C)c4=NC3=O)C2)cc1
REMARK SMILES IDX 18 1 17 2 16 3 15 4 13 5 14 6 12 7 11 8 9 9 10 10 8 11 6 12
REMARK SMILES IDX 7 13 95 14 81 15 5 16 1 17 2 18 3 19 97 20 4 21 96 22 82 23
REMARK SMILES IDX 83 24 84 25 93 26 85 27 92 28 94 29 86 30 91 31 87 32 89 33
REMARK SMILES IDX 88 34 90 35 19 36 20 37 21 38 22 39 23 40 24 41 25 42 26 43
REMARK SMILES IDX 27 44 28 45 80 46 29 47 79 48 30 49 31 50 32 51 73 52 33 53
REMARK SMILES IDX 78 54 72 55 74 56 34 57 77 58 71 59 70 60 35 62 61 63 44 64
REMARK SMILES IDX 60 65 45 66 48 67 59 68 75 69 46 70 47 71 58 73 76 74 49 75
REMARK SMILES IDX 36 76 37 77 42 78 38 79 39 80 41 81 43 82 40 83 62 84 63 85
REMARK SMILES IDX 68 86 64 87 65 88 67 89 69 90 66 91 50 92 51 93 56 94 52 95
REMARK SMILES IDX 53 96 55 97 57 98 54 99
REMARK H PARENT 74 61 48 72
REMARK Flexibility Score: inf
ROOT
ATOM      1  O   UNL A   1      40.030  34.159  32.783  1.00  0.00    -0.376 OA
ENDROOT
BRANCH   1   2
ATOM      2  C   UNL A   1      40.509  34.223  31.424  1.00  0.00     0.202 C 
BRANCH   2   3
ATOM      3  C   UNL A   1      39.528  33.774  30.134  1.00  0.00     0.261 C 
BRANCH   3   4
ATOM      4  O   UNL A   1      38.347  34.573  29.475  1.00  0.00    -0.463 OA
BRANCH   4   5
ATOM      5  C   UNL A   1      37.106  34.087  29.730  1.00  0.00     0.306 C 
ATOM      6  O   UNL A   1      37.137  33.409  30.757  1.00  0.00    -0.252 OA
BRANCH   5   7
ATOM      7  C   UNL A   1      35.477  34.500  28.842  1.00  0.00     0.132 C 
BRANCH   7   8
ATOM      8  C   UNL A   1      34.127  33.862  28.925  1.00  0.00     0.114 C 
BRANCH   8   9
ATOM      9  C   UNL A   1      33.712  32.770  28.004  1.00  0.00     0.243 C 
ATOM     10  O   UNL A   1      32.672  33.009  27.370  1.00  0.00    -0.273 OA
BRANCH   9  11
ATOM     11  N   UNL A   1      34.315  31.522  27.960  1.00  0.00    -0.230 N 
ATOM     12  C   UNL A   1      34.075  29.633  26.967  1.00  0.00     0.070 C 
ATOM     13  N   UNL A   1      33.624  30.829  27.010  1.00  0.00    -0.174 NA
ATOM     14  C   UNL A   1      35.301  29.318  27.779  1.00  0.00     0.086 C 
ATOM     15  C   UNL A   1      35.155  30.443  28.809  1.00  0.00     0.118 C 
BRANCH  12  16
ATOM     16  C   UNL A   1      33.471  28.699  26.056  1.00  0.00    -0.002 A 
ATOM     17  C   UNL A   1      32.045  26.073  23.071  1.00  0.00     0.044 C 
ATOM     18  C   UNL A   1      32.454  27.020  24.153  1.00  0.00    -0.051 A 
ATOM     19  C   UNL A   1      32.993  28.257  23.773  1.00  0.00     0.004 A 
ATOM     20  C   UNL A   1      32.335  26.679  25.512  1.00  0.00     0.004 A 
ATOM     21  C   UNL A   1      33.487  29.112  24.732  1.00  0.00     0.010 A 
ATOM     22  C   UNL A   1      32.838  27.535  26.484  1.00  0.00     0.010 A 
ENDBRANCH  12  16
BRANCH  15  23
ATOM     23  C   UNL A   1      36.306  30.583  30.154  1.00  0.00     0.045 C 
BRANCH  23  24
ATOM     24  C   UNL A   1      38.097  30.101  30.545  1.00  0.00     0.106 C 
ATOM     25  C   UNL A   1      39.743  30.298  29.085  1.00  0.00    -0.003 C 
ATOM     26  C   UNL A   1      38.211  28.197  31.251  1.00  0.00     0.253 C 
ATOM     27  C   UNL A   1      40.454  29.127  28.534  1.00  0.00    -0.003 A 
ATOM     28  N   UNL A   1      39.276  27.115  30.361  1.00  0.00    -0.212 NA
ATOM     29  O   UNL A   1      37.758  27.862  32.339  1.00  0.00    -0.272 OA
ATOM     30  C   UNL A   1      40.835  29.255  27.141  1.00  0.00     0.010 A 
ATOM     31  C   UNL A   1      40.091  27.452  29.206  1.00  0.00     0.077 A 
ATOM     32  C   UNL A   1      40.864  28.185  26.349  1.00  0.00     0.001 A 
ATOM     33  C   UNL A   1      40.428  26.443  28.104  1.00  0.00    -0.025 A 
ATOM     34  C   UNL A   1      40.726  26.839  26.845  1.00  0.00     0.005 A 
ATOM     35  C   UNL A   1      40.207  24.990  28.369  1.00  0.00     0.047 C 
ENDBRANCH  23  24
ENDBRANCH  15  23
ENDBRANCH   9  11
ENDBRANCH   8   9
ENDBRANCH   7   8
ENDBRANCH   5   7
ENDBRANCH   4   5
ENDBRANCH   3   4
ENDBRANCH   2   3
ENDBRANCH   1   2
BRANCH   1  36
ATOM     36  C   UNL A   1      38.714  34.608  33.244  1.00  0.00     0.188 C 
BRANCH  36  37
ATOM     37  C   UNL A   1      37.981  34.331  34.622  1.00  0.00     0.188 C 
BRANCH  37  38
ATOM     38  O   UNL A   1      38.220  33.043  35.217  1.00  0.00    -0.376 OA
BRANCH  38  39
ATOM     39  C   UNL A   1      37.612  31.863  34.664  1.00  0.00     0.202 C 
BRANCH  39  40
ATOM     40  C   UNL A   1      38.185  30.552  35.364  1.00  0.00     0.261 C 
BRANCH  40  41
ATOM     41  O   UNL A   1      39.385  30.817  36.182  1.00  0.00    -0.460 OA
BRANCH  41  42
ATOM     42  C   UNL A   1      40.644  30.897  35.635  1.00  0.00     0.338 C 
ATOM     43  O   UNL A   1      41.342  31.876  35.807  1.00  0.00    -0.246 OA
BRANCH  42  44
ATOM     44  C   UNL A   1      40.861  29.495  34.649  1.00  0.00     0.060 A 
ATOM     45  C   UNL A   1      41.822  27.712  34.884  1.00  0.00     0.016 A 
ATOM     46  C   UNL A   1      40.800  30.092  33.128  1.00  0.00     0.016 A 
ATOM     47  C   UNL A   1      42.760  26.973  33.517  1.00  0.00     0.010 A 
ATOM     48  C   UNL A   1      41.874  29.235  32.004  1.00  0.00     0.010 A 
ATOM     49  C   UNL A   1      42.888  27.756  32.009  1.00  0.00    -0.014 A 
BRANCH  49  50
ATOM     50  C   UNL A   1      44.070  27.404  30.616  1.00  0.00     0.031 A 
ATOM     51  C   UNL A   1      44.534  25.888  29.643  1.00  0.00     0.074 A 
ATOM     52  C   UNL A   1      44.208  28.440  29.717  1.00  0.00     0.049 A 
ATOM     53  N   UNL A   1      45.658  25.593  28.973  1.00  0.00    -0.248 NA
ATOM     54  C   UNL A   1      43.732  24.591  29.266  1.00  0.00     0.031 C 
ATOM     55  C   UNL A   1      44.270  28.242  28.247  1.00  0.00     0.029 A 
ATOM     56  N   UNL A   1      44.012  29.832  29.795  1.00  0.00    -0.354 N 
ATOM     57  C   UNL A   1      45.393  24.277  28.370  1.00  0.00     0.074 A 
ATOM     58  C   UNL A   1      44.649  23.632  29.358  1.00  0.00     0.031 C 
ATOM     59  C   UNL A   1      44.294  29.419  27.601  1.00  0.00     0.029 A 
ATOM     60  C   UNL A   1      44.586  30.393  28.611  1.00  0.00     0.049 A 
ATOM     61  H   UNL A   1      43.566  30.322  30.523  1.00  0.00     0.167 HD
ATOM     62  C   UNL A   1      45.006  23.993  27.042  1.00  0.00     0.037 A 
ATOM     63  C   UNL A   1      45.775  31.075  28.638  1.00  0.00     0.037 A 
ATOM     64  C   UNL A   1      45.236  25.148  26.230  1.00  0.00     0.049 A 
ATOM     65  C   UNL A   1      46.896  30.359  27.883  1.00  0.00     0.074 A 
ATOM     66  C   UNL A   1      44.590  25.957  25.318  1.00  0.00     0.029 A 
ATOM     67  N   UNL A   1      46.406  25.772  26.534  1.00  0.00    -0.354 N 
ATOM     68  N   UNL A   1      46.781  29.116  27.482  1.00  0.00    -0.248 NA
ATOM     69  C   UNL A   1      48.170  30.919  27.430  1.00  0.00     0.031 C 
ATOM     70  C   UNL A   1      45.450  27.095  25.099  1.00  0.00     0.029 A 
ATOM     71  C   UNL A   1      46.606  26.910  25.843  1.00  0.00     0.049 A 
ATOM     72  H   UNL A   1      47.047  25.423  27.195  1.00  0.00     0.167 HD
ATOM     73  C   UNL A   1      47.848  28.731  26.728  1.00  0.00     0.074 A 
ATOM     74  C   UNL A   1      48.720  29.879  26.764  1.00  0.00     0.031 C 
ATOM     75  C   UNL A   1      47.895  27.513  26.114  1.00  0.00     0.037 A 
BRANCH  62  76
ATOM     76  C   UNL A   1      44.248  22.704  26.499  1.00  0.00     0.057 A 
ATOM     77  C   UNL A   1      44.984  21.719  25.806  1.00  0.00     0.134 A 
ATOM     78  C   UNL A   1      42.866  22.359  26.592  1.00  0.00     0.134 A 
ATOM     79  F   UNL A   1      46.277  21.910  25.514  1.00  0.00    -0.206 F 
ATOM     80  C   UNL A   1      44.437  20.487  25.366  1.00  0.00     0.040 A 
ATOM     81  C   UNL A   1      42.324  21.107  26.218  1.00  0.00     0.040 A 
ATOM     82  F   UNL A   1      41.917  23.226  26.966  1.00  0.00    -0.206 F 
ATOM     83  C   UNL A   1      43.115  20.155  25.612  1.00  0.00     0.006 A 
ENDBRANCH  62  76
BRANCH  63  84
ATOM     84  C   UNL A   1      45.780  32.030  29.788  1.00  0.00     0.057 A 
ATOM     85  C   UNL A   1      46.748  31.745  30.779  1.00  0.00     0.134 A 
ATOM     86  C   UNL A   1      45.537  33.386  29.531  1.00  0.00     0.134 A 
ATOM     87  F   UNL A   1      46.991  30.470  31.128  1.00  0.00    -0.206 F 
ATOM     88  C   UNL A   1      47.625  32.725  31.259  1.00  0.00     0.040 A 
ATOM     89  C   UNL A   1      46.393  34.379  30.033  1.00  0.00     0.040 A 
ATOM     90  F   UNL A   1      44.636  33.747  28.604  1.00  0.00    -0.206 F 
ATOM     91  C   UNL A   1      47.489  34.039  30.829  1.00  0.00     0.006 A 
ENDBRANCH  63  84
BRANCH  75  92
ATOM     92  C   UNL A   1      49.149  26.623  25.974  1.00  0.00     0.057 A 
ATOM     93  C   UNL A   1      50.004  26.650  24.869  1.00  0.00     0.134 A 
ATOM     94  C   UNL A   1      49.664  25.865  27.074  1.00  0.00     0.134 A 
ATOM     95  F   UNL A   1      49.740  27.390  23.788  1.00  0.00    -0.206 F 
ATOM     96  C   UNL A   1      51.221  25.947  24.832  1.00  0.00     0.040 A 
ATOM     97  C   UNL A   1      50.920  25.247  27.082  1.00  0.00     0.040 A 
ATOM     98  F   UNL A   1      48.997  25.717  28.228  1.00  0.00    -0.206 F 
ATOM     99  C   UNL A   1      51.692  25.257  25.940  1.00  0.00     0.006 A 
ENDBRANCH  75  92
ENDBRANCH  49  50
ENDBRANCH  42  44
ENDBRANCH  41  42
ENDBRANCH  40  41
ENDBRANCH  39  40
ENDBRANCH  38  39
ENDBRANCH  37  38
ENDBRANCH  36  37
ENDBRANCH   1  36
TORSDOF 23
ENDMDL
MODEL 2
REMARK VINA RESULT:      -9.7      1.911      4.937
REMARK SMILES Cc1ccc(C2=NN(C(=O)CCC(=O)OCCOCCOCCOC(=O)c3ccc(-c4c5nc(c(-c6c(F)cccc6F)c6ccc([nH]6)c(-c6c(F)cccc6F)c6nc(c(-c7c(F)cccc7F)c7ccc4[nH]7)C=C6)C=C5)cc3)[C@H](C[C@@H]3C=c4cccc(C)c4=NC3=O)C2)cc1
REMARK SMILES IDX 18 1 17 2 16 3 15 4 13 5 14 6 12 7 11 8 9 9 10 10 8 11 6 12
REMARK SMILES IDX 7 13 95 14 81 15 5 16 1 17 2 18 3 19 97 20 4 21 96 22 82 23
REMARK SMILES IDX 83 24 84 25 93 26 85 27 92 28 94 29 86 30 91 31 87 32 89 33
REMARK SMILES IDX 88 34 90 35 19 36 20 37 21 38 22 39 23 40 24 41 25 42 26 43
REMARK SMILES IDX 27 44 28 45 80 46 29 47 79 48 30 49 31 50 32 51 73 52 33 53
REMARK SMILES IDX 78 54 72 55 74 56 34 57 77 58 71 59 70 60 35 62 61 63 44 64
REMARK SMILES IDX 60 65 45 66 48 67 59 68 75 69 46 70 47 71 58 73 76 74 49 75
REMARK SMILES IDX 36 76 37 77 42 78 38 79 39 80 41 81 43 82 40 83 62 84 63 85
REMARK SMILES IDX 68 86 64 87 65 88 67 89 69 90 66 91 50 92 51 93 56 94 52 95
REMARK SMILES IDX 53 96 55 97 57 98 54 99
REMARK H PARENT 74 61 48 72
REMARK Flexibility Score: inf
ROOT
ATOM      1  O   UNL A   1      42.381  35.164  34.062  1.00  0.00    -0.376 OA
ENDROOT
BRANCH   1   2
ATOM      2  C   UNL A   1      41.911  34.048  33.279  1.00  0.00     0.202 C 
BRANCH   2   3
ATOM      3  C   UNL A   1      40.731  34.250  32.097  1.00  0.00     0.261 C 
BRANCH   3   4
ATOM      4  O   UNL A   1      39.759  33.177  31.489  1.00  0.00    -0.463 OA
BRANCH   4   5
ATOM      5  C   UNL A   1      38.966  33.620  30.481  1.00  0.00     0.306 C 
ATOM      6  O   UNL A   1      38.866  34.844  30.550  1.00  0.00    -0.252 OA
BRANCH   5   7
ATOM      7  C   UNL A   1      38.257  32.629  29.021  1.00  0.00     0.132 C 
BRANCH   7   8
ATOM      8  C   UNL A   1      37.636  31.270  28.970  1.00  0.00     0.114 C 
BRANCH   8   9
ATOM      9  C   UNL A   1      36.421  30.986  28.160  1.00  0.00     0.243 C 
ATOM     10  O   UNL A   1      36.574  30.092  27.312  1.00  0.00    -0.273 OA
BRANCH   9  11
ATOM     11  N   UNL A   1      35.262  31.745  28.209  1.00  0.00    -0.230 N 
ATOM     12  C   UNL A   1      34.385  33.300  29.403  1.00  0.00     0.070 C 
ATOM     13  N   UNL A   1      35.453  32.614  29.243  1.00  0.00    -0.174 NA
ATOM     14  C   UNL A   1      33.295  33.147  28.379  1.00  0.00     0.086 C 
ATOM     15  C   UNL A   1      33.688  31.755  27.873  1.00  0.00     0.118 C 
BRANCH  12  16
ATOM     16  C   UNL A   1      34.338  34.266  30.467  1.00  0.00    -0.002 A 
ATOM     17  C   UNL A   1      33.727  37.123  33.518  1.00  0.00     0.044 C 
ATOM     18  C   UNL A   1      34.031  36.157  32.418  1.00  0.00    -0.051 A 
ATOM     19  C   UNL A   1      33.270  36.239  31.243  1.00  0.00     0.004 A 
ATOM     20  C   UNL A   1      35.025  35.173  32.558  1.00  0.00     0.004 A 
ATOM     21  C   UNL A   1      33.438  35.299  30.251  1.00  0.00     0.010 A 
ATOM     22  C   UNL A   1      35.195  34.218  31.563  1.00  0.00     0.010 A 
ENDBRANCH  12  16
BRANCH  15  23
ATOM     23  C   UNL A   1      32.702  30.935  26.645  1.00  0.00     0.045 C 
BRANCH  23  24
ATOM     24  C   UNL A   1      32.936  29.683  25.241  1.00  0.00     0.106 C 
ATOM     25  C   UNL A   1      31.400  29.301  23.701  1.00  0.00    -0.003 C 
ATOM     26  C   UNL A   1      33.460  27.855  25.963  1.00  0.00     0.253 C 
ATOM     27  C   UNL A   1      30.703  28.004  23.585  1.00  0.00    -0.003 A 
ATOM     28  N   UNL A   1      32.412  26.521  25.495  1.00  0.00    -0.212 NA
ATOM     29  O   UNL A   1      34.540  27.635  26.499  1.00  0.00    -0.272 OA
ATOM     30  C   UNL A   1      29.306  28.102  23.209  1.00  0.00     0.010 A 
ATOM     31  C   UNL A   1      31.243  26.592  24.635  1.00  0.00     0.077 A 
ATOM     32  C   UNL A   1      28.422  27.218  23.667  1.00  0.00     0.001 A 
ATOM     33  C   UNL A   1      30.037  25.662  24.794  1.00  0.00    -0.025 A 
ATOM     34  C   UNL A   1      28.802  26.022  24.373  1.00  0.00     0.005 A 
ATOM     35  C   UNL A   1      30.184  24.431  25.625  1.00  0.00     0.047 C 
ENDBRANCH  23  24
ENDBRANCH  15  23
ENDBRANCH   9  11
ENDBRANCH   8   9
ENDBRANCH   7   8
ENDBRANCH   5   7
ENDBRANCH   4   5
ENDBRANCH   3   4
ENDBRANCH   2   3
ENDBRANCH   1   2
BRANCH   1  36
ATOM     36  C   UNL A   1      41.580  35.930  35.020  1.00  0.00     0.188 C 
BRANCH  36  37
ATOM     37  C   UNL A   1      41.381  35.703  36.576  1.00  0.00     0.188 C 
BRANCH  37  38
ATOM     38  O   UNL A   1      40.438  34.682  36.951  1.00  0.00    -0.376 OA
BRANCH  38  39
ATOM     39  C   UNL A   1      39.375  34.312  36.055  1.00  0.00     0.202 C 
BRANCH  39  40
ATOM     40  C   UNL A   1      39.117  32.741  36.105  1.00  0.00     0.261 C 
BRANCH  40  41
ATOM     41  O   UNL A   1      39.492  32.059  34.851  1.00  0.00    -0.460 OA
BRANCH  41  42
ATOM     42  C   UNL A   1      38.619  31.247  34.166  1.00  0.00     0.338 C 
ATOM     43  O   UNL A   1      37.460  31.569  33.998  1.00  0.00    -0.246 OA
BRANCH  42  44
ATOM     44  C   UNL A   1      39.463  29.783  33.804  1.00  0.00     0.060 A 
ATOM     45  C   UNL A   1      41.096  28.841  34.582  1.00  0.00     0.016 A 
ATOM     46  C   UNL A   1      39.206  29.587  32.201  1.00  0.00     0.016 A 
ATOM     47  C   UNL A   1      42.314  28.042  33.498  1.00  0.00     0.010 A 
ATOM     48  C   UNL A   1      40.589  28.854  31.363  1.00  0.00     0.010 A 
ATOM     49  C   UNL A   1      42.146  28.079  31.803  1.00  0.00    -0.014 A 
BRANCH  49  50
ATOM     50  C   UNL A   1      43.415  27.682  30.503  1.00  0.00     0.031 A 
ATOM     51  C   UNL A   1      43.931  26.137  29.604  1.00  0.00     0.074 A 
ATOM     52  C   UNL A   1      43.622  28.693  29.588  1.00  0.00     0.049 A 
ATOM     53  N   UNL A   1      45.095  25.816  29.019  1.00  0.00    -0.248 NA
ATOM     54  C   UNL A   1      43.145  24.836  29.207  1.00  0.00     0.031 C 
ATOM     55  C   UNL A   1      43.782  28.455  28.132  1.00  0.00     0.029 A 
ATOM     56  N   UNL A   1      43.434  30.087  29.616  1.00  0.00    -0.354 N 
ATOM     57  C   UNL A   1      44.860  24.486  28.435  1.00  0.00     0.074 A 
ATOM     58  C   UNL A   1      44.046  23.874  29.386  1.00  0.00     0.031 C 
ATOM     59  C   UNL A   1      43.859  29.613  27.458  1.00  0.00     0.029 A 
ATOM     60  C   UNL A   1      44.092  30.613  28.459  1.00  0.00     0.049 A 
ATOM     61  H   UNL A   1      42.944  30.600  30.299  1.00  0.00     0.167 HD
ATOM     62  C   UNL A   1      44.561  24.170  27.092  1.00  0.00     0.037 A 
ATOM     63  C   UNL A   1      45.281  31.287  28.548  1.00  0.00     0.037 A 
ATOM     64  C   UNL A   1      44.855  25.301  26.267  1.00  0.00     0.049 A 
ATOM     65  C   UNL A   1      46.445  30.543  27.890  1.00  0.00     0.074 A 
ATOM     66  C   UNL A   1      44.279  26.089  25.292  1.00  0.00     0.029 A 
ATOM     67  N   UNL A   1      46.007  25.925  26.632  1.00  0.00    -0.354 N 
ATOM     68  N   UNL A   1      46.346  29.290  27.516  1.00  0.00    -0.248 NA
ATOM     69  C   UNL A   1      47.751  31.082  27.510  1.00  0.00     0.031 C 
ATOM     70  C   UNL A   1      45.162  27.215  25.102  1.00  0.00     0.029 A 
ATOM     71  C   UNL A   1      46.263  27.043  25.927  1.00  0.00     0.049 A 
ATOM     72  H   UNL A   1      46.599  25.590  27.344  1.00  0.00     0.167 HD
ATOM     73  C   UNL A   1      47.459  28.878  26.846  1.00  0.00     0.074 A 
ATOM     74  C   UNL A   1      48.336  30.021  26.910  1.00  0.00     0.031 C 
ATOM     75  C   UNL A   1      47.537  27.644  26.268  1.00  0.00     0.037 A 
BRANCH  62  76
ATOM     76  C   UNL A   1      43.831  22.872  26.533  1.00  0.00     0.057 A 
ATOM     77  C   UNL A   1      44.609  21.836  25.972  1.00  0.00     0.134 A 
ATOM     78  C   UNL A   1      42.437  22.563  26.492  1.00  0.00     0.134 A 
ATOM     79  F   UNL A   1      45.931  21.983  25.814  1.00  0.00    -0.206 F 
ATOM     80  C   UNL A   1      44.079  20.596  25.536  1.00  0.00     0.040 A 
ATOM     81  C   UNL A   1      41.904  21.306  26.122  1.00  0.00     0.040 A 
ATOM     82  F   UNL A   1      41.478  23.469  26.717  1.00  0.00    -0.206 F 
ATOM     83  C   UNL A   1      42.729  20.306  25.653  1.00  0.00     0.006 A 
ENDBRANCH  62  76
BRANCH  63  84
ATOM     84  C   UNL A   1      45.218  32.272  29.671  1.00  0.00     0.057 A 
ATOM     85  C   UNL A   1      46.367  32.294  30.495  1.00  0.00     0.134 A 
ATOM     86  C   UNL A   1      44.595  33.507  29.440  1.00  0.00     0.134 A 
ATOM     87  F   UNL A   1      46.982  31.143  30.814  1.00  0.00    -0.206 F 
ATOM     88  C   UNL A   1      47.024  33.489  30.813  1.00  0.00     0.040 A 
ATOM     89  C   UNL A   1      45.233  34.709  29.784  1.00  0.00     0.040 A 
ATOM     90  F   UNL A   1      43.500  33.579  28.669  1.00  0.00    -0.206 F 
ATOM     91  C   UNL A   1      46.489  34.701  30.395  1.00  0.00     0.006 A 
ENDBRANCH  63  84
BRANCH  75  92
ATOM     92  C   UNL A   1      48.789  26.742  26.237  1.00  0.00     0.057 A 
ATOM     93  C   UNL A   1      49.769  26.803  25.242  1.00  0.00     0.134 A 
ATOM     94  C   UNL A   1      49.163  25.930  27.355  1.00  0.00     0.134 A 
ATOM     95  F   UNL A   1      49.640  27.593  24.172  1.00  0.00    -0.206 F 
ATOM     96  C   UNL A   1      50.974  26.084  25.317  1.00  0.00     0.040 A 
ATOM     97  C   UNL A   1      50.404  25.294  27.484  1.00  0.00     0.040 A 
ATOM     98  F   UNL A   1      48.364  25.743  28.416  1.00  0.00    -0.206 F 
ATOM     99  C   UNL A   1      51.305  25.341  26.440  1.00  0.00     0.006 A 
ENDBRANCH  75  92
ENDBRANCH  49  50
ENDBRANCH  42  44
ENDBRANCH  41  42
ENDBRANCH  40  41
ENDBRANCH  39  40
ENDBRANCH  38  39
ENDBRANCH  37  38
ENDBRANCH  36  37
ENDBRANCH   1  36
TORSDOF 23
ENDMDL
MODEL 3
REMARK VINA RESULT:      -9.7      9.364     13.176
REMARK SMILES Cc1ccc(C2=NN(C(=O)CCC(=O)OCCOCCOCCOC(=O)c3ccc(-c4c5nc(c(-c6c(F)cccc6F)c6ccc([nH]6)c(-c6c(F)cccc6F)c6nc(c(-c7c(F)cccc7F)c7ccc4[nH]7)C=C6)C=C5)cc3)[C@H](C[C@@H]3C=c4cccc(C)c4=NC3=O)C2)cc1
REMARK SMILES IDX 18 1 17 2 16 3 15 4 13 5 14 6 12 7 11 8 9 9 10 10 8 11 6 12
REMARK SMILES IDX 7 13 95 14 81 15 5 16 1 17 2 18 3 19 97 20 4 21 96 22 82 23
REMARK SMILES IDX 83 24 84 25 93 26 85 27 92 28 94 29 86 30 91 31 87 32 89 33
REMARK SMILES IDX 88 34 90 35 19 36 20 37 21 38 22 39 23 40 24 41 25 42 26 43
REMARK SMILES IDX 27 44 28 45 80 46 29 47 79 48 30 49 31 50 32 51 73 52 33 53
REMARK SMILES IDX 78 54 72 55 74 56 34 57 77 58 71 59 70 60 35 62 61 63 44 64
REMARK SMILES IDX 60 65 45 66 48 67 59 68 75 69 46 70 47 71 58 73 76 74 49 75
REMARK SMILES IDX 36 76 37 77 42 78 38 79 39 80 41 81 43 82 40 83 62 84 63 85
REMARK SMILES IDX 68 86 64 87 65 88 67 89 69 90 66 91 50 92 51 93 56 94 52 95
REMARK SMILES IDX 53 96 55 97 57 98 54 99
REMARK H PARENT 74 61 48 72
REMARK Flexibility Score: inf
ROOT
ATOM      1  O   UNL A   1      44.485  39.953  29.523  1.00  0.00    -0.376 OA
ENDROOT
BRANCH   1   2
ATOM      2  C   UNL A   1      43.750  39.846  28.287  1.00  0.00     0.202 C 
BRANCH   2   3
ATOM      3  C   UNL A   1      44.254  40.656  26.902  1.00  0.00     0.261 C 
BRANCH   3   4
ATOM      4  O   UNL A   1      43.555  41.848  26.155  1.00  0.00    -0.463 OA
BRANCH   4   5
ATOM      5  C   UNL A   1      44.105  42.184  24.961  1.00  0.00     0.306 C 
ATOM      6  O   UNL A   1      45.065  41.449  24.733  1.00  0.00    -0.252 OA
BRANCH   5   7
ATOM      7  C   UNL A   1      43.450  43.418  23.671  1.00  0.00     0.132 C 
BRANCH   7   8
ATOM      8  C   UNL A   1      42.667  43.200  22.417  1.00  0.00     0.114 C 
BRANCH   8   9
ATOM      9  C   UNL A   1      43.314  42.782  21.144  1.00  0.00     0.243 C 
ATOM     10  O   UNL A   1      43.160  41.581  20.867  1.00  0.00    -0.273 OA
BRANCH   9  11
ATOM     11  N   UNL A   1      44.156  43.593  20.399  1.00  0.00    -0.230 N 
ATOM     12  C   UNL A   1      44.031  45.153  18.929  1.00  0.00     0.070 C 
ATOM     13  N   UNL A   1      43.325  44.422  19.705  1.00  0.00    -0.174 NA
ATOM     14  C   UNL A   1      45.527  45.082  19.070  1.00  0.00     0.086 C 
ATOM     15  C   UNL A   1      45.603  43.688  19.701  1.00  0.00     0.118 C 
BRANCH  12  16
ATOM     16  C   UNL A   1      43.365  46.090  18.066  1.00  0.00    -0.002 A 
ATOM     17  C   UNL A   1      41.028  48.549  15.549  1.00  0.00     0.044 C 
ATOM     18  C   UNL A   1      41.935  47.705  16.385  1.00  0.00    -0.051 A 
ATOM     19  C   UNL A   1      41.818  46.312  16.279  1.00  0.00     0.004 A 
ATOM     20  C   UNL A   1      42.859  48.278  17.275  1.00  0.00     0.004 A 
ATOM     21  C   UNL A   1      42.552  45.497  17.111  1.00  0.00     0.010 A 
ATOM     22  C   UNL A   1      43.598  47.461  18.123  1.00  0.00     0.010 A 
ENDBRANCH  12  16
BRANCH  15  23
ATOM     23  C   UNL A   1      47.178  42.951  20.062  1.00  0.00     0.045 C 
BRANCH  23  24
ATOM     24  C   UNL A   1      48.692  43.300  21.149  1.00  0.00     0.106 C 
ATOM     25  C   UNL A   1      48.787  44.984  22.575  1.00  0.00    -0.003 C 
ATOM     26  C   UNL A   1      50.388  43.425  20.034  1.00  0.00     0.253 C 
ATOM     27  C   UNL A   1      49.723  46.112  22.403  1.00  0.00    -0.003 A 
ATOM     28  N   UNL A   1      51.301  44.920  20.199  1.00  0.00    -0.212 NA
ATOM     29  O   UNL A   1      50.877  42.461  19.456  1.00  0.00    -0.272 OA
ATOM     30  C   UNL A   1      49.192  47.402  22.800  1.00  0.00     0.010 A 
ATOM     31  C   UNL A   1      50.981  46.045  21.061  1.00  0.00     0.077 A 
ATOM     32  C   UNL A   1      49.565  48.510  22.163  1.00  0.00     0.001 A 
ATOM     33  C   UNL A   1      51.339  47.491  20.706  1.00  0.00    -0.025 A 
ATOM     34  C   UNL A   1      50.641  48.538  21.205  1.00  0.00     0.005 A 
ATOM     35  C   UNL A   1      52.332  47.740  19.620  1.00  0.00     0.047 C 
ENDBRANCH  23  24
ENDBRANCH  15  23
ENDBRANCH   9  11
ENDBRANCH   8   9
ENDBRANCH   7   8
ENDBRANCH   5   7
ENDBRANCH   4   5
ENDBRANCH   3   4
ENDBRANCH   2   3
ENDBRANCH   1   2
BRANCH   1  36
ATOM     36  C   UNL A   1      44.201  40.901  30.603  1.00  0.00     0.188 C 
BRANCH  36  37
ATOM     37  C   UNL A   1      43.640  40.630  32.060  1.00  0.00     0.188 C 
BRANCH  37  38
ATOM     38  O   UNL A   1      44.624  40.519  33.106  1.00  0.00    -0.376 OA
BRANCH  38  39
ATOM     39  C   UNL A   1      44.370  39.696  34.257  1.00  0.00     0.202 C 
BRANCH  39  40
ATOM     40  C   UNL A   1      43.302  38.564  33.917  1.00  0.00     0.261 C 
BRANCH  40  41
ATOM     41  O   UNL A   1      43.925  37.313  33.440  1.00  0.00    -0.460 OA
BRANCH  41  42
ATOM     42  C   UNL A   1      43.237  36.124  33.384  1.00  0.00     0.338 C 
ATOM     43  O   UNL A   1      42.585  35.729  34.329  1.00  0.00    -0.246 OA
BRANCH  42  44
ATOM     44  C   UNL A   1      43.631  35.380  31.874  1.00  0.00     0.060 A 
ATOM     45  C   UNL A   1      42.624  35.049  30.133  1.00  0.00     0.016 A 
ATOM     46  C   UNL A   1      44.754  34.265  32.287  1.00  0.00     0.016 A 
ATOM     47  C   UNL A   1      42.803  33.480  29.237  1.00  0.00     0.010 A 
ATOM     48  C   UNL A   1      44.659  32.790  31.304  1.00  0.00     0.010 A 
ATOM     49  C   UNL A   1      43.793  32.230  29.837  1.00  0.00    -0.014 A 
BRANCH  49  50
ATOM     50  C   UNL A   1      43.842  30.443  29.323  1.00  0.00     0.031 A 
ATOM     51  C   UNL A   1      45.190  29.252  28.850  1.00  0.00     0.074 A 
ATOM     52  C   UNL A   1      42.890  29.654  29.933  1.00  0.00     0.049 A 
ATOM     53  N   UNL A   1      45.150  28.144  28.094  1.00  0.00    -0.248 NA
ATOM     54  C   UNL A   1      46.704  29.156  29.260  1.00  0.00     0.031 C 
ATOM     55  C   UNL A   1      43.168  28.288  30.444  1.00  0.00     0.029 A 
ATOM     56  N   UNL A   1      41.639  29.914  30.521  1.00  0.00    -0.354 N 
ATOM     57  C   UNL A   1      46.522  27.614  28.142  1.00  0.00     0.074 A 
ATOM     58  C   UNL A   1      47.298  28.772  28.133  1.00  0.00     0.031 C 
ATOM     59  C   UNL A   1      42.102  27.787  31.088  1.00  0.00     0.029 A 
ATOM     60  C   UNL A   1      41.011  28.645  30.730  1.00  0.00     0.049 A 
ATOM     61  H   UNL A   1      41.268  30.798  30.746  1.00  0.00     0.167 HD
ATOM     62  C   UNL A   1      47.017  26.562  28.943  1.00  0.00     0.037 A 
ATOM     63  C   UNL A   1      39.977  28.213  29.943  1.00  0.00     0.037 A 
ATOM     64  C   UNL A   1      45.916  25.821  29.477  1.00  0.00     0.049 A 
ATOM     65  C   UNL A   1      40.340  26.998  29.086  1.00  0.00     0.074 A 
ATOM     66  C   UNL A   1      45.438  25.339  30.678  1.00  0.00     0.029 A 
ATOM     67  N   UNL A   1      44.921  25.641  28.568  1.00  0.00    -0.354 N 
ATOM     68  N   UNL A   1      41.578  26.592  28.946  1.00  0.00    -0.248 NA
ATOM     69  C   UNL A   1      39.428  26.088  28.392  1.00  0.00     0.031 C 
ATOM     70  C   UNL A   1      44.100  24.860  30.422  1.00  0.00     0.029 A 
ATOM     71  C   UNL A   1      43.836  25.022  29.069  1.00  0.00     0.049 A 
ATOM     72  H   UNL A   1      44.988  25.935  27.630  1.00  0.00     0.167 HD
ATOM     73  C   UNL A   1      41.646  25.426  28.244  1.00  0.00     0.074 A 
ATOM     74  C   UNL A   1      40.276  25.173  27.873  1.00  0.00     0.031 C 
ATOM     75  C   UNL A   1      42.824  24.759  28.067  1.00  0.00     0.037 A 
BRANCH  62  76
ATOM     76  C   UNL A   1      48.521  26.299  29.389  1.00  0.00     0.057 A 
ATOM     77  C   UNL A   1      49.307  25.391  28.647  1.00  0.00     0.134 A 
ATOM     78  C   UNL A   1      49.252  26.851  30.485  1.00  0.00     0.134 A 
ATOM     79  F   UNL A   1      48.770  24.681  27.646  1.00  0.00    -0.206 F 
ATOM     80  C   UNL A   1      50.683  25.154  28.889  1.00  0.00     0.040 A 
ATOM     81  C   UNL A   1      50.639  26.674  30.696  1.00  0.00     0.040 A 
ATOM     82  F   UNL A   1      48.674  27.529  31.484  1.00  0.00    -0.206 F 
ATOM     83  C   UNL A   1      51.368  25.831  29.885  1.00  0.00     0.006 A 
ENDBRANCH  62  76
BRANCH  63  84
ATOM     84  C   UNL A   1      38.988  29.319  29.759  1.00  0.00     0.057 A 
ATOM     85  C   UNL A   1      38.755  29.677  28.411  1.00  0.00     0.134 A 
ATOM     86  C   UNL A   1      37.880  29.373  30.617  1.00  0.00     0.134 A 
ATOM     87  F   UNL A   1      39.779  29.712  27.542  1.00  0.00    -0.206 F 
ATOM     88  C   UNL A   1      37.460  29.783  27.889  1.00  0.00     0.040 A 
ATOM     89  C   UNL A   1      36.581  29.510  30.104  1.00  0.00     0.040 A 
ATOM     90  F   UNL A   1      38.011  29.049  31.912  1.00  0.00    -0.206 F 
ATOM     91  C   UNL A   1      36.365  29.630  28.730  1.00  0.00     0.006 A 
ENDBRANCH  63  84
BRANCH  75  92
ATOM     92  C   UNL A   1      43.260  24.028  26.779  1.00  0.00     0.057 A 
ATOM     93  C   UNL A   1      43.862  24.662  25.689  1.00  0.00     0.134 A 
ATOM     94  C   UNL A   1      43.295  22.599  26.696  1.00  0.00     0.134 A 
ATOM     95  F   UNL A   1      44.016  25.989  25.639  1.00  0.00    -0.206 F 
ATOM     96  C   UNL A   1      44.391  23.955  24.595  1.00  0.00     0.040 A 
ATOM     97  C   UNL A   1      43.911  21.887  25.661  1.00  0.00     0.040 A 
ATOM     98  F   UNL A   1      42.772  21.804  27.642  1.00  0.00    -0.206 F 
ATOM     99  C   UNL A   1      44.433  22.569  24.582  1.00  0.00     0.006 A 
ENDBRANCH  75  92
ENDBRANCH  49  50
ENDBRANCH  42  44
ENDBRANCH  41  42
ENDBRANCH  40  41
ENDBRANCH  39  40
ENDBRANCH  38  39
ENDBRANCH  37  38
ENDBRANCH  36  37
ENDBRANCH   1  36
TORSDOF 23
ENDMDL
