MODEL 1
REMARK VINA RESULT:      -9.5      0.000      0.000
REMARK SMILES CCCCCCNC(=O)Oc1cccc(-c2ccc([C@@H](C)C(=O)OCCOCCOCCOC(=O)c3ccc(-c4c5nc(c(-c6c(F)cccc6F)c6ccc([nH]6)c(-c6c(F)cccc6F)c6nc(c(-c7c(F)cccc7F)c7ccc4[nH]7)C=C6)C=C5)cc3)cc2Cl)c1
REMARK SMILES IDX 25 1 24 2 22 3 23 4 20 5 21 6 19 7 16 8 17 9 91 10 18 11
REMARK SMILES IDX 90 12 92 13 15 14 11 15 12 16 93 17 13 18 14 19 10 20 8 21
REMARK SMILES IDX 7 22 9 24 6 25 5 26 4 27 3 28 2 29 1 30 26 31 27 32 28 33
REMARK SMILES IDX 29 34 30 35 31 36 32 37 33 38 34 39 35 40 36 41 37 42 89 43
REMARK SMILES IDX 38 44 88 45 39 46 40 47 41 48 82 49 42 50 87 51 81 52 83 53
REMARK SMILES IDX 43 54 86 55 80 56 79 57 44 59 70 60 53 61 69 62 54 63 57 64
REMARK SMILES IDX 68 65 84 66 55 67 56 68 67 70 85 71 58 72 45 73 46 74 51 75
REMARK SMILES IDX 47 76 48 77 50 78 52 79 49 80 71 81 72 82 77 83 73 84 74 85
REMARK SMILES IDX 76 86 78 87 75 88 59 89 60 90 65 91 61 92 62 93 64 94 66 95
REMARK SMILES IDX 63 96
REMARK H PARENT 7 23 83 58 57 69
REMARK Flexibility Score: inf
ROOT
ATOM      1  C   UNL A   1      37.532  31.695  30.840  1.00  0.00     0.261 C 
ENDROOT
BRANCH   1   2
ATOM      2  O   UNL A   1      36.278  31.542  31.546  1.00  0.00    -0.463 OA
BRANCH   2   3
ATOM      3  C   UNL A   1      35.190  32.120  30.975  1.00  0.00     0.313 C 
ATOM      4  O   UNL A   1      34.194  32.455  31.614  1.00  0.00    -0.252 OA
BRANCH   3   5
ATOM      5  C   UNL A   1      35.258  32.366  29.465  1.00  0.00     0.126 C 
ATOM      6  C   UNL A   1      34.521  33.663  29.142  1.00  0.00     0.025 C 
BRANCH   5   7
ATOM      7  C   UNL A   1      34.903  31.277  28.452  1.00  0.00    -0.033 A 
ATOM      8  C   UNL A   1      34.115  29.324  26.488  1.00  0.00     0.000 A 
ATOM      9  C   UNL A   1      35.320  29.213  27.215  1.00  0.00     0.010 A 
ATOM     10  C   UNL A   1      33.294  30.424  26.794  1.00  0.00     0.049 A 
ATOM     11  C   UNL A   1      35.703  30.161  28.187  1.00  0.00     0.005 A 
ATOM     12  C   UNL A   1      33.681  31.375  27.754  1.00  0.00     0.025 A 
ATOM     13  Cl  UNL A   1      31.753  30.667  26.038  1.00  0.00    -0.084 Cl
BRANCH   8  14
ATOM     14  C   UNL A   1      33.750  28.290  25.492  1.00  0.00    -0.013 A 
ATOM     15  C   UNL A   1      32.923  26.075  24.907  1.00  0.00     0.133 A 
ATOM     16  C   UNL A   1      33.184  26.301  23.558  1.00  0.00     0.047 A 
ATOM     17  C   UNL A   1      33.195  27.053  25.872  1.00  0.00     0.056 A 
ATOM     18  C   UNL A   1      33.707  27.528  23.163  1.00  0.00     0.004 A 
ATOM     19  C   UNL A   1      33.990  28.509  24.121  1.00  0.00     0.009 A 
BRANCH  15  20
ATOM     20  O   UNL A   1      32.528  24.773  25.266  1.00  0.00    -0.410 OA
BRANCH  20  21
ATOM     21  C   UNL A   1      31.440  24.622  26.110  1.00  0.00     0.412 C 
ATOM     22  N   UNL A   1      30.235  24.726  25.466  1.00  0.00    -0.321 N 
ATOM     23  H   UNL A   1      29.433  24.540  26.005  1.00  0.00     0.167 HD
ATOM     24  O   UNL A   1      31.490  24.446  27.324  1.00  0.00    -0.224 OA
BRANCH  22  25
ATOM     25  C   UNL A   1      30.010  25.080  24.077  1.00  0.00     0.119 C 
BRANCH  25  26
ATOM     26  C   UNL A   1      29.128  26.318  23.911  1.00  0.00     0.021 C 
BRANCH  26  27
ATOM     27  C   UNL A   1      29.878  27.655  23.862  1.00  0.00     0.002 C 
BRANCH  27  28
ATOM     28  C   UNL A   1      30.185  28.196  22.460  1.00  0.00    -0.000 C 
BRANCH  28  29
ATOM     29  C   UNL A   1      30.127  29.718  22.309  1.00  0.00    -0.003 C 
ATOM     30  C   UNL A   1      29.228  30.396  23.332  1.00  0.00     0.004 C 
ENDBRANCH  28  29
ENDBRANCH  27  28
ENDBRANCH  26  27
ENDBRANCH  25  26
ENDBRANCH  22  25
ENDBRANCH  20  21
ENDBRANCH  15  20
ENDBRANCH   8  14
ENDBRANCH   5   7
ENDBRANCH   3   5
ENDBRANCH   2   3
ENDBRANCH   1   2
BRANCH   1  31
ATOM     31  C   UNL A   1      38.681  30.796  31.324  1.00  0.00     0.202 C 
BRANCH  31  32
ATOM     32  O   UNL A   1      38.516  29.387  31.222  1.00  0.00    -0.376 OA
BRANCH  32  33
ATOM     33  C   UNL A   1      39.622  28.578  30.835  1.00  0.00     0.188 C 
BRANCH  33  34
ATOM     34  C   UNL A   1      39.500  27.677  29.598  1.00  0.00     0.188 C 
BRANCH  34  35
ATOM     35  O   UNL A   1      40.343  28.047  28.529  1.00  0.00    -0.376 OA
BRANCH  35  36
ATOM     36  C   UNL A   1      40.065  27.467  27.270  1.00  0.00     0.202 C 
BRANCH  36  37
ATOM     37  C   UNL A   1      39.796  25.957  27.303  1.00  0.00     0.261 C 
BRANCH  37  38
ATOM     38  O   UNL A   1      40.380  25.189  26.232  1.00  0.00    -0.460 OA
BRANCH  38  39
ATOM     39  C   UNL A   1      41.433  24.401  26.532  1.00  0.00     0.338 C 
ATOM     40  O   UNL A   1      41.451  23.178  26.592  1.00  0.00    -0.246 OA
BRANCH  39  41
ATOM     41  C   UNL A   1      42.642  25.247  26.563  1.00  0.00     0.060 A 
ATOM     42  C   UNL A   1      43.314  25.441  27.779  1.00  0.00     0.016 A 
ATOM     43  C   UNL A   1      43.123  25.834  25.392  1.00  0.00     0.016 A 
ATOM     44  C   UNL A   1      44.467  26.228  27.828  1.00  0.00     0.010 A 
ATOM     45  C   UNL A   1      44.260  26.643  25.446  1.00  0.00     0.010 A 
ATOM     46  C   UNL A   1      44.929  26.859  26.666  1.00  0.00    -0.014 A 
BRANCH  46  47
ATOM     47  C   UNL A   1      46.010  27.873  26.727  1.00  0.00     0.031 A 
ATOM     48  C   UNL A   1      45.629  29.325  26.792  1.00  0.00     0.074 A 
ATOM     49  C   UNL A   1      47.307  27.518  26.683  1.00  0.00     0.049 A 
ATOM     50  N   UNL A   1      46.384  30.388  26.699  1.00  0.00    -0.248 NA
ATOM     51  C   UNL A   1      44.198  29.613  26.979  1.00  0.00     0.031 C 
ATOM     52  C   UNL A   1      47.811  26.147  26.673  1.00  0.00     0.029 A 
ATOM     53  N   UNL A   1      48.439  28.296  26.617  1.00  0.00    -0.354 N 
ATOM     54  C   UNL A   1      45.520  31.471  26.796  1.00  0.00     0.074 A 
ATOM     55  C   UNL A   1      44.182  30.936  26.937  1.00  0.00     0.031 C 
ATOM     56  C   UNL A   1      49.153  26.179  26.581  1.00  0.00     0.029 A 
ATOM     57  C   UNL A   1      49.597  27.570  26.479  1.00  0.00     0.049 A 
ATOM     58  H   UNL A   1      48.420  29.279  26.661  1.00  0.00     0.167 HD
ATOM     59  C   UNL A   1      45.815  32.793  26.768  1.00  0.00     0.037 A 
ATOM     60  C   UNL A   1      50.860  27.981  26.258  1.00  0.00     0.037 A 
ATOM     61  C   UNL A   1      47.145  33.321  26.628  1.00  0.00     0.049 A 
ATOM     62  C   UNL A   1      51.151  29.456  26.128  1.00  0.00     0.074 A 
ATOM     63  C   UNL A   1      47.550  34.645  26.623  1.00  0.00     0.029 A 
ATOM     64  N   UNL A   1      48.286  32.554  26.453  1.00  0.00    -0.354 N 
ATOM     65  N   UNL A   1      50.335  30.475  26.247  1.00  0.00    -0.248 NA
ATOM     66  C   UNL A   1      52.538  29.836  25.821  1.00  0.00     0.031 C 
ATOM     67  C   UNL A   1      48.926  34.680  26.382  1.00  0.00     0.029 A 
ATOM     68  C   UNL A   1      49.389  33.376  26.298  1.00  0.00     0.049 A 
ATOM     69  H   UNL A   1      48.310  31.569  26.441  1.00  0.00     0.167 HD
ATOM     70  C   UNL A   1      51.112  31.613  26.059  1.00  0.00     0.074 A 
ATOM     71  C   UNL A   1      52.467  31.160  25.828  1.00  0.00     0.031 C 
ATOM     72  C   UNL A   1      50.736  32.915  26.076  1.00  0.00     0.037 A 
BRANCH  59  73
ATOM     73  C   UNL A   1      44.671  33.760  26.851  1.00  0.00     0.057 A 
ATOM     74  C   UNL A   1      44.276  34.347  28.059  1.00  0.00     0.134 A 
ATOM     75  C   UNL A   1      43.975  34.134  25.693  1.00  0.00     0.134 A 
ATOM     76  F   UNL A   1      44.892  34.020  29.206  1.00  0.00    -0.206 F 
ATOM     77  C   UNL A   1      43.216  35.253  28.119  1.00  0.00     0.040 A 
ATOM     78  C   UNL A   1      42.932  35.061  25.736  1.00  0.00     0.040 A 
ATOM     79  F   UNL A   1      44.303  33.614  24.501  1.00  0.00    -0.206 F 
ATOM     80  C   UNL A   1      42.546  35.617  26.953  1.00  0.00     0.006 A 
ENDBRANCH  59  73
BRANCH  60  81
ATOM     81  C   UNL A   1      51.956  26.988  26.110  1.00  0.00     0.057 A 
ATOM     82  C   UNL A   1      52.224  26.386  24.875  1.00  0.00     0.134 A 
ATOM     83  C   UNL A   1      52.736  26.588  27.203  1.00  0.00     0.134 A 
ATOM     84  F   UNL A   1      51.491  26.703  23.797  1.00  0.00    -0.206 F 
ATOM     85  C   UNL A   1      53.216  25.413  24.733  1.00  0.00     0.040 A 
ATOM     86  C   UNL A   1      53.750  25.637  27.070  1.00  0.00     0.040 A 
ATOM     87  F   UNL A   1      52.527  27.119  28.415  1.00  0.00    -0.206 F 
ATOM     88  C   UNL A   1      53.986  25.041  25.833  1.00  0.00     0.006 A 
ENDBRANCH  60  81
BRANCH  72  89
ATOM     89  C   UNL A   1      51.804  33.953  25.873  1.00  0.00     0.057 A 
ATOM     90  C   UNL A   1      52.225  34.341  24.596  1.00  0.00     0.134 A 
ATOM     91  C   UNL A   1      52.367  34.619  26.970  1.00  0.00     0.134 A 
ATOM     92  F   UNL A   1      51.734  33.735  23.505  1.00  0.00    -0.206 F 
ATOM     93  C   UNL A   1      53.177  35.346  24.416  1.00  0.00     0.040 A 
ATOM     94  C   UNL A   1      53.299  35.645  26.803  1.00  0.00     0.040 A 
ATOM     95  F   UNL A   1      52.001  34.303  28.222  1.00  0.00    -0.206 F 
ATOM     96  C   UNL A   1      53.710  36.008  25.522  1.00  0.00     0.006 A 
ENDBRANCH  72  89
ENDBRANCH  46  47
ENDBRANCH  39  41
ENDBRANCH  38  39
ENDBRANCH  37  38
ENDBRANCH  36  37
ENDBRANCH  35  36
ENDBRANCH  34  35
ENDBRANCH  33  34
ENDBRANCH  32  33
ENDBRANCH  31  32
ENDBRANCH   1  31
TORSDOF 26
ENDMDL
MODEL 2
REMARK VINA RESULT:      -8.9      1.183      2.055
REMARK SMILES CCCCCCNC(=O)Oc1cccc(-c2ccc([C@@H](C)C(=O)OCCOCCOCCOC(=O)c3ccc(-c4c5nc(c(-c6c(F)cccc6F)c6ccc([nH]6)c(-c6c(F)cccc6F)c6nc(c(-c7c(F)cccc7F)c7ccc4[nH]7)C=C6)C=C5)cc3)cc2Cl)c1
REMARK SMILES IDX 25 1 24 2 22 3 23 4 20 5 21 6 19 7 16 8 17 9 91 10 18 11
REMARK SMILES IDX 90 12 92 13 15 14 11 15 12 16 93 17 13 18 14 19 10 20 8 21
REMARK SMILES IDX 7 22 9 24 6 25 5 26 4 27 3 28 2 29 1 30 26 31 27 32 28 33
REMARK SMILES IDX 29 34 30 35 31 36 32 37 33 38 34 39 35 40 36 41 37 42 89 43
REMARK SMILES IDX 38 44 88 45 39 46 40 47 41 48 82 49 42 50 87 51 81 52 83 53
REMARK SMILES IDX 43 54 86 55 80 56 79 57 44 59 70 60 53 61 69 62 54 63 57 64
REMARK SMILES IDX 68 65 84 66 55 67 56 68 67 70 85 71 58 72 45 73 46 74 51 75
REMARK SMILES IDX 47 76 48 77 50 78 52 79 49 80 71 81 72 82 77 83 73 84 74 85
REMARK SMILES IDX 76 86 78 87 75 88 59 89 60 90 65 91 61 92 62 93 64 94 66 95
REMARK SMILES IDX 63 96
REMARK H PARENT 7 23 83 58 57 69
REMARK Flexibility Score: inf
ROOT
ATOM      1  C   UNL A   1      37.812  31.903  30.918  1.00  0.00     0.261 C 
ENDROOT
BRANCH   1   2
ATOM      2  O   UNL A   1      36.642  32.464  31.560  1.00  0.00    -0.463 OA
BRANCH   2   3
ATOM      3  C   UNL A   1      35.802  33.176  30.766  1.00  0.00     0.313 C 
ATOM      4  O   UNL A   1      34.960  33.956  31.206  1.00  0.00    -0.252 OA
BRANCH   3   5
ATOM      5  C   UNL A   1      35.958  32.980  29.254  1.00  0.00     0.126 C 
ATOM      6  C   UNL A   1      35.583  34.280  28.547  1.00  0.00     0.025 C 
BRANCH   5   7
ATOM      7  C   UNL A   1      35.352  31.778  28.529  1.00  0.00    -0.033 A 
ATOM      8  C   UNL A   1      34.100  29.614  27.101  1.00  0.00     0.000 A 
ATOM      9  C   UNL A   1      35.373  29.482  27.694  1.00  0.00     0.010 A 
ATOM     10  C   UNL A   1      33.451  30.850  27.269  1.00  0.00     0.049 A 
ATOM     11  C   UNL A   1      35.985  30.536  28.405  1.00  0.00     0.005 A 
ATOM     12  C   UNL A   1      34.065  31.904  27.968  1.00  0.00     0.025 A 
ATOM     13  Cl  UNL A   1      31.856  31.148  26.659  1.00  0.00    -0.084 Cl
BRANCH   8  14
ATOM     14  C   UNL A   1      33.493  28.470  26.381  1.00  0.00    -0.013 A 
ATOM     15  C   UNL A   1      31.940  26.597  26.255  1.00  0.00     0.133 A 
ATOM     16  C   UNL A   1      32.453  26.216  25.018  1.00  0.00     0.047 A 
ATOM     17  C   UNL A   1      32.444  27.712  26.937  1.00  0.00     0.056 A 
ATOM     18  C   UNL A   1      33.470  26.970  24.443  1.00  0.00     0.004 A 
ATOM     19  C   UNL A   1      33.987  28.082  25.120  1.00  0.00     0.009 A 
BRANCH  15  20
ATOM     20  O   UNL A   1      31.013  25.722  26.853  1.00  0.00    -0.410 OA
BRANCH  20  21
ATOM     21  C   UNL A   1      29.985  25.217  26.074  1.00  0.00     0.412 C 
ATOM     22  N   UNL A   1      29.907  23.849  26.099  1.00  0.00    -0.321 N 
ATOM     23  H   UNL A   1      29.140  23.447  25.632  1.00  0.00     0.167 HD
ATOM     24  O   UNL A   1      29.214  25.879  25.383  1.00  0.00    -0.224 OA
BRANCH  22  25
ATOM     25  C   UNL A   1      30.828  22.930  26.739  1.00  0.00     0.119 C 
BRANCH  25  26
ATOM     26  C   UNL A   1      31.493  21.969  25.753  1.00  0.00     0.021 C 
BRANCH  26  27
ATOM     27  C   UNL A   1      32.725  22.523  25.026  1.00  0.00     0.002 C 
BRANCH  27  28
ATOM     28  C   UNL A   1      33.099  21.820  23.716  1.00  0.00    -0.000 C 
BRANCH  28  29
ATOM     29  C   UNL A   1      32.151  20.705  23.267  1.00  0.00    -0.003 C 
ATOM     30  C   UNL A   1      32.576  19.322  23.736  1.00  0.00     0.004 C 
ENDBRANCH  28  29
ENDBRANCH  27  28
ENDBRANCH  26  27
ENDBRANCH  25  26
ENDBRANCH  22  25
ENDBRANCH  20  21
ENDBRANCH  15  20
ENDBRANCH   8  14
ENDBRANCH   5   7
ENDBRANCH   3   5
ENDBRANCH   2   3
ENDBRANCH   1   2
BRANCH   1  31
ATOM     31  C   UNL A   1      38.438  30.689  31.623  1.00  0.00     0.202 C 
BRANCH  31  32
ATOM     32  O   UNL A   1      38.041  29.392  31.197  1.00  0.00    -0.376 OA
BRANCH  32  33
ATOM     33  C   UNL A   1      39.033  28.445  30.815  1.00  0.00     0.188 C 
BRANCH  33  34
ATOM     34  C   UNL A   1      38.961  27.798  29.425  1.00  0.00     0.188 C 
BRANCH  34  35
ATOM     35  O   UNL A   1      40.032  28.140  28.572  1.00  0.00    -0.376 OA
BRANCH  35  36
ATOM     36  C   UNL A   1      40.053  27.524  27.299  1.00  0.00     0.202 C 
BRANCH  36  37
ATOM     37  C   UNL A   1      39.743  26.021  27.308  1.00  0.00     0.261 C 
BRANCH  37  38
ATOM     38  O   UNL A   1      40.303  25.257  26.222  1.00  0.00    -0.460 OA
BRANCH  38  39
ATOM     39  C   UNL A   1      41.353  24.457  26.498  1.00  0.00     0.338 C 
ATOM     40  O   UNL A   1      41.367  23.233  26.531  1.00  0.00    -0.246 OA
BRANCH  39  41
ATOM     41  C   UNL A   1      42.567  25.297  26.541  1.00  0.00     0.060 A 
ATOM     42  C   UNL A   1      43.227  25.490  27.764  1.00  0.00     0.016 A 
ATOM     43  C   UNL A   1      43.063  25.879  25.374  1.00  0.00     0.016 A 
ATOM     44  C   UNL A   1      44.383  26.272  27.824  1.00  0.00     0.010 A 
ATOM     45  C   UNL A   1      44.204  26.682  25.439  1.00  0.00     0.010 A 
ATOM     46  C   UNL A   1      44.861  26.898  26.666  1.00  0.00    -0.014 A 
BRANCH  46  47
ATOM     47  C   UNL A   1      45.946  27.906  26.736  1.00  0.00     0.031 A 
ATOM     48  C   UNL A   1      45.572  29.359  26.808  1.00  0.00     0.074 A 
ATOM     49  C   UNL A   1      47.242  27.545  26.696  1.00  0.00     0.049 A 
ATOM     50  N   UNL A   1      46.332  30.419  26.724  1.00  0.00    -0.248 NA
ATOM     51  C   UNL A   1      44.141  29.653  26.991  1.00  0.00     0.031 C 
ATOM     52  C   UNL A   1      47.739  26.172  26.680  1.00  0.00     0.029 A 
ATOM     53  N   UNL A   1      48.377  28.318  26.638  1.00  0.00    -0.354 N 
ATOM     54  C   UNL A   1      45.473  31.506  26.824  1.00  0.00     0.074 A 
ATOM     55  C   UNL A   1      44.132  30.977  26.956  1.00  0.00     0.031 C 
ATOM     56  C   UNL A   1      49.082  26.198  26.594  1.00  0.00     0.029 A 
ATOM     57  C   UNL A   1      49.532  27.587  26.501  1.00  0.00     0.049 A 
ATOM     58  H   UNL A   1      48.363  29.301  26.688  1.00  0.00     0.167 HD
ATOM     59  C   UNL A   1      45.774  32.826  26.804  1.00  0.00     0.037 A 
ATOM     60  C   UNL A   1      50.799  27.994  26.287  1.00  0.00     0.037 A 
ATOM     61  C   UNL A   1      47.107  33.349  26.672  1.00  0.00     0.049 A 
ATOM     62  C   UNL A   1      51.097  29.468  26.167  1.00  0.00     0.074 A 
ATOM     63  C   UNL A   1      47.518  34.671  26.677  1.00  0.00     0.029 A 
ATOM     64  N   UNL A   1      48.246  32.578  26.498  1.00  0.00    -0.354 N 
ATOM     65  N   UNL A   1      50.285  30.490  26.288  1.00  0.00    -0.248 NA
ATOM     66  C   UNL A   1      52.487  29.843  25.867  1.00  0.00     0.031 C 
ATOM     67  C   UNL A   1      48.895  34.701  26.441  1.00  0.00     0.029 A 
ATOM     68  C   UNL A   1      49.353  33.396  26.351  1.00  0.00     0.049 A 
ATOM     69  H   UNL A   1      48.264  31.593  26.480  1.00  0.00     0.167 HD
ATOM     70  C   UNL A   1      51.068  31.625  26.109  1.00  0.00     0.074 A 
ATOM     71  C   UNL A   1      52.422  31.167  25.882  1.00  0.00     0.031 C 
ATOM     72  C   UNL A   1      50.698  32.929  26.132  1.00  0.00     0.037 A 
BRANCH  59  73
ATOM     73  C   UNL A   1      44.634  33.798  26.887  1.00  0.00     0.057 A 
ATOM     74  C   UNL A   1      44.157  34.285  28.111  1.00  0.00     0.134 A 
ATOM     75  C   UNL A   1      44.027  34.280  25.720  1.00  0.00     0.134 A 
ATOM     76  F   UNL A   1      44.685  33.853  29.267  1.00  0.00    -0.206 F 
ATOM     77  C   UNL A   1      43.102  35.197  28.172  1.00  0.00     0.040 A 
ATOM     78  C   UNL A   1      42.990  35.214  25.767  1.00  0.00     0.040 A 
ATOM     79  F   UNL A   1      44.437  33.859  24.514  1.00  0.00    -0.206 F 
ATOM     80  C   UNL A   1      42.521  35.669  26.997  1.00  0.00     0.006 A 
ENDBRANCH  59  73
BRANCH  60  81
ATOM     81  C   UNL A   1      51.890  26.996  26.138  1.00  0.00     0.057 A 
ATOM     82  C   UNL A   1      52.158  26.398  24.901  1.00  0.00     0.134 A 
ATOM     83  C   UNL A   1      52.666  26.588  27.231  1.00  0.00     0.134 A 
ATOM     84  F   UNL A   1      51.430  26.723  23.823  1.00  0.00    -0.206 F 
ATOM     85  C   UNL A   1      53.146  25.421  24.758  1.00  0.00     0.040 A 
ATOM     86  C   UNL A   1      53.675  25.634  27.097  1.00  0.00     0.040 A 
ATOM     87  F   UNL A   1      52.456  27.116  28.445  1.00  0.00    -0.206 F 
ATOM     88  C   UNL A   1      53.913  25.041  25.858  1.00  0.00     0.006 A 
ENDBRANCH  60  81
BRANCH  72  89
ATOM     89  C   UNL A   1      51.772  33.963  25.939  1.00  0.00     0.057 A 
ATOM     90  C   UNL A   1      52.179  34.378  24.665  1.00  0.00     0.134 A 
ATOM     91  C   UNL A   1      52.355  34.599  27.044  1.00  0.00     0.134 A 
ATOM     92  F   UNL A   1      51.668  33.801  23.567  1.00  0.00    -0.206 F 
ATOM     93  C   UNL A   1      53.137  35.379  24.497  1.00  0.00     0.040 A 
ATOM     94  C   UNL A   1      53.293  35.621  26.888  1.00  0.00     0.040 A 
ATOM     95  F   UNL A   1      52.003  34.257  28.292  1.00  0.00    -0.206 F 
ATOM     96  C   UNL A   1      53.690  36.011  25.610  1.00  0.00     0.006 A 
ENDBRANCH  72  89
ENDBRANCH  46  47
ENDBRANCH  39  41
ENDBRANCH  38  39
ENDBRANCH  37  38
ENDBRANCH  36  37
ENDBRANCH  35  36
ENDBRANCH  34  35
ENDBRANCH  33  34
ENDBRANCH  32  33
ENDBRANCH  31  32
ENDBRANCH   1  31
TORSDOF 26
ENDMDL
MODEL 3
REMARK VINA RESULT:      -8.8      1.461      6.293
REMARK SMILES CCCCCCNC(=O)Oc1cccc(-c2ccc([C@@H](C)C(=O)OCCOCCOCCOC(=O)c3ccc(-c4c5nc(c(-c6c(F)cccc6F)c6ccc([nH]6)c(-c6c(F)cccc6F)c6nc(c(-c7c(F)cccc7F)c7ccc4[nH]7)C=C6)C=C5)cc3)cc2Cl)c1
REMARK SMILES IDX 25 1 24 2 22 3 23 4 20 5 21 6 19 7 16 8 17 9 91 10 18 11
REMARK SMILES IDX 90 12 92 13 15 14 11 15 12 16 93 17 13 18 14 19 10 20 8 21
REMARK SMILES IDX 7 22 9 24 6 25 5 26 4 27 3 28 2 29 1 30 26 31 27 32 28 33
REMARK SMILES IDX 29 34 30 35 31 36 32 37 33 38 34 39 35 40 36 41 37 42 89 43
REMARK SMILES IDX 38 44 88 45 39 46 40 47 41 48 82 49 42 50 87 51 81 52 83 53
REMARK SMILES IDX 43 54 86 55 80 56 79 57 44 59 70 60 53 61 69 62 54 63 57 64
REMARK SMILES IDX 68 65 84 66 55 67 56 68 67 70 85 71 58 72 45 73 46 74 51 75
REMARK SMILES IDX 47 76 48 77 50 78 52 79 49 80 71 81 72 82 77 83 73 84 74 85
REMARK SMILES IDX 76 86 78 87 75 88 59 89 60 90 65 91 61 92 62 93 64 94 66 95
REMARK SMILES IDX 63 96
REMARK H PARENT 7 23 83 58 57 69
REMARK Flexibility Score: inf
ROOT
ATOM      1  C   UNL A   1      38.476  31.065  29.792  1.00  0.00     0.261 C 
ENDROOT
BRANCH   1   2
ATOM      2  O   UNL A   1      37.293  30.885  30.607  1.00  0.00    -0.463 OA
BRANCH   2   3
ATOM      3  C   UNL A   1      36.197  31.598  30.244  1.00  0.00     0.313 C 
ATOM      4  O   UNL A   1      35.430  32.114  31.056  1.00  0.00    -0.252 OA
BRANCH   3   5
ATOM      5  C   UNL A   1      35.951  31.759  28.740  1.00  0.00     0.126 C 
ATOM      6  C   UNL A   1      35.698  33.234  28.437  1.00  0.00     0.025 C 
BRANCH   5   7
ATOM      7  C   UNL A   1      34.958  30.876  27.985  1.00  0.00    -0.033 A 
ATOM      8  C   UNL A   1      33.005  29.346  26.523  1.00  0.00     0.000 A 
ATOM      9  C   UNL A   1      34.229  28.787  26.949  1.00  0.00     0.010 A 
ATOM     10  C   UNL A   1      32.766  30.685  26.878  1.00  0.00     0.049 A 
ATOM     11  C   UNL A   1      35.183  29.530  27.676  1.00  0.00     0.005 A 
ATOM     12  C   UNL A   1      33.722  31.429  27.593  1.00  0.00     0.025 A 
ATOM     13  Cl  UNL A   1      31.284  31.496  26.489  1.00  0.00    -0.084 Cl
BRANCH   8  14
ATOM     14  C   UNL A   1      32.029  28.517  25.779  1.00  0.00    -0.013 A 
ATOM     15  C   UNL A   1      30.846  26.422  25.398  1.00  0.00     0.133 A 
ATOM     16  C   UNL A   1      30.248  26.932  24.249  1.00  0.00     0.047 A 
ATOM     17  C   UNL A   1      31.725  27.197  26.165  1.00  0.00     0.056 A 
ATOM     18  C   UNL A   1      30.517  28.243  23.870  1.00  0.00     0.004 A 
ATOM     19  C   UNL A   1      31.400  29.024  24.624  1.00  0.00     0.009 A 
BRANCH  15  20
ATOM     20  O   UNL A   1      30.650  25.052  25.658  1.00  0.00    -0.410 OA
BRANCH  20  21
ATOM     21  C   UNL A   1      30.981  24.139  24.670  1.00  0.00     0.412 C 
ATOM     22  N   UNL A   1      32.096  23.400  24.964  1.00  0.00    -0.321 N 
ATOM     23  H   UNL A   1      32.321  22.677  24.335  1.00  0.00     0.167 HD
ATOM     24  O   UNL A   1      30.390  23.988  23.603  1.00  0.00    -0.224 OA
BRANCH  22  25
ATOM     25  C   UNL A   1      32.981  23.563  26.103  1.00  0.00     0.119 C 
BRANCH  25  26
ATOM     26  C   UNL A   1      33.464  22.231  26.678  1.00  0.00     0.021 C 
BRANCH  26  27
ATOM     27  C   UNL A   1      33.232  21.007  25.782  1.00  0.00     0.002 C 
BRANCH  27  28
ATOM     28  C   UNL A   1      34.433  20.561  24.939  1.00  0.00    -0.000 C 
BRANCH  28  29
ATOM     29  C   UNL A   1      35.748  21.292  25.218  1.00  0.00    -0.003 C 
ATOM     30  C   UNL A   1      36.197  22.192  24.077  1.00  0.00     0.004 C 
ENDBRANCH  28  29
ENDBRANCH  27  28
ENDBRANCH  26  27
ENDBRANCH  25  26
ENDBRANCH  22  25
ENDBRANCH  20  21
ENDBRANCH  15  20
ENDBRANCH   8  14
ENDBRANCH   5   7
ENDBRANCH   3   5
ENDBRANCH   2   3
ENDBRANCH   1   2
BRANCH   1  31
ATOM     31  C   UNL A   1      39.792  30.567  30.412  1.00  0.00     0.202 C 
BRANCH  31  32
ATOM     32  O   UNL A   1      39.818  29.254  30.958  1.00  0.00    -0.376 OA
BRANCH  32  33
ATOM     33  C   UNL A   1      40.523  28.225  30.273  1.00  0.00     0.188 C 
BRANCH  33  34
ATOM     34  C   UNL A   1      39.757  27.281  29.335  1.00  0.00     0.188 C 
BRANCH  34  35
ATOM     35  O   UNL A   1      40.417  27.015  28.118  1.00  0.00    -0.376 OA
BRANCH  35  36
ATOM     36  C   UNL A   1      39.746  26.173  27.201  1.00  0.00     0.202 C 
BRANCH  36  37
ATOM     37  C   UNL A   1      39.929  24.671  27.455  1.00  0.00     0.261 C 
BRANCH  37  38
ATOM     38  O   UNL A   1      40.756  23.968  26.507  1.00  0.00    -0.460 OA
BRANCH  38  39
ATOM     39  C   UNL A   1      41.914  23.444  26.957  1.00  0.00     0.338 C 
ATOM     40  O   UNL A   1      42.127  22.283  27.285  1.00  0.00    -0.246 OA
BRANCH  39  41
ATOM     41  C   UNL A   1      42.972  24.459  26.784  1.00  0.00     0.060 A 
ATOM     42  C   UNL A   1      43.622  24.975  27.916  1.00  0.00     0.016 A 
ATOM     43  C   UNL A   1      43.334  24.889  25.507  1.00  0.00     0.016 A 
ATOM     44  C   UNL A   1      44.634  25.928  27.773  1.00  0.00     0.010 A 
ATOM     45  C   UNL A   1      44.328  25.862  25.367  1.00  0.00     0.010 A 
ATOM     46  C   UNL A   1      44.971  26.399  26.498  1.00  0.00    -0.014 A 
BRANCH  46  47
ATOM     47  C   UNL A   1      45.875  27.563  26.329  1.00  0.00     0.031 A 
ATOM     48  C   UNL A   1      47.342  27.308  26.127  1.00  0.00     0.074 A 
ATOM     49  C   UNL A   1      45.413  28.824  26.395  1.00  0.00     0.049 A 
ATOM     50  N   UNL A   1      48.339  28.154  26.110  1.00  0.00    -0.248 NA
ATOM     51  C   UNL A   1      47.736  25.904  25.926  1.00  0.00     0.031 C 
ATOM     52  C   UNL A   1      44.011  29.208  26.532  1.00  0.00     0.029 A 
ATOM     53  N   UNL A   1      46.091  30.020  26.375  1.00  0.00    -0.354 N 
ATOM     54  C   UNL A   1      49.480  27.385  25.917  1.00  0.00     0.074 A 
ATOM     55  C   UNL A   1      49.053  26.003  25.841  1.00  0.00     0.031 C 
ATOM     56  C   UNL A   1      43.933  30.549  26.608  1.00  0.00     0.029 A 
ATOM     57  C   UNL A   1      45.283  31.113  26.571  1.00  0.00     0.049 A 
ATOM     58  H   UNL A   1      47.064  30.086  26.236  1.00  0.00     0.167 HD
ATOM     59  C   UNL A   1      50.767  27.794  25.815  1.00  0.00     0.037 A 
ATOM     60  C   UNL A   1      45.601  32.412  26.741  1.00  0.00     0.037 A 
ATOM     61  C   UNL A   1      51.187  29.167  25.890  1.00  0.00     0.049 A 
ATOM     62  C   UNL A   1      47.050  32.831  26.724  1.00  0.00     0.074 A 
ATOM     63  C   UNL A   1      52.465  29.685  25.763  1.00  0.00     0.029 A 
ATOM     64  N   UNL A   1      50.343  30.240  26.128  1.00  0.00    -0.354 N 
ATOM     65  N   UNL A   1      48.121  32.104  26.515  1.00  0.00    -0.248 NA
ATOM     66  C   UNL A   1      47.334  34.251  26.981  1.00  0.00     0.031 C 
ATOM     67  C   UNL A   1      52.401  31.062  25.987  1.00  0.00     0.029 A 
ATOM     68  C   UNL A   1      51.076  31.413  26.193  1.00  0.00     0.049 A 
ATOM     69  H   UNL A   1      49.365  30.178  26.235  1.00  0.00     0.167 HD
ATOM     70  C   UNL A   1      49.199  32.980  26.585  1.00  0.00     0.074 A 
ATOM     71  C   UNL A   1      48.652  34.295  26.846  1.00  0.00     0.031 C 
ATOM     72  C   UNL A   1      50.522  32.718  26.445  1.00  0.00     0.037 A 
BRANCH  59  73
ATOM     73  C   UNL A   1      51.818  26.736  25.649  1.00  0.00     0.057 A 
ATOM     74  C   UNL A   1      52.257  26.311  24.389  1.00  0.00     0.134 A 
ATOM     75  C   UNL A   1      52.425  26.159  26.773  1.00  0.00     0.134 A 
ATOM     76  F   UNL A   1      51.707  26.813  23.273  1.00  0.00    -0.206 F 
ATOM     77  C   UNL A   1      53.244  25.333  24.251  1.00  0.00     0.040 A 
ATOM     78  C   UNL A   1      53.433  25.201  26.648  1.00  0.00     0.040 A 
ATOM     79  F   UNL A   1      52.056  26.523  28.010  1.00  0.00    -0.206 F 
ATOM     80  C   UNL A   1      53.839  24.781  25.384  1.00  0.00     0.006 A 
ENDBRANCH  59  73
BRANCH  60  81
ATOM     81  C   UNL A   1      44.534  33.420  26.974  1.00  0.00     0.057 A 
ATOM     82  C   UNL A   1      43.975  34.138  25.910  1.00  0.00     0.134 A 
ATOM     83  C   UNL A   1      44.073  33.717  28.263  1.00  0.00     0.134 A 
ATOM     84  F   UNL A   1      44.396  33.923  24.655  1.00  0.00    -0.206 F 
ATOM     85  C   UNL A   1      43.009  35.125  26.120  1.00  0.00     0.040 A 
ATOM     86  C   UNL A   1      43.089  34.680  28.485  1.00  0.00     0.040 A 
ATOM     87  F   UNL A   1      44.572  33.070  29.326  1.00  0.00    -0.206 F 
ATOM     88  C   UNL A   1      42.559  35.393  27.411  1.00  0.00     0.006 A 
ENDBRANCH  60  81
BRANCH  72  89
ATOM     89  C   UNL A   1      51.476  33.875  26.537  1.00  0.00     0.057 A 
ATOM     90  C   UNL A   1      52.093  34.231  27.743  1.00  0.00     0.134 A 
ATOM     91  C   UNL A   1      51.832  34.597  25.390  1.00  0.00     0.134 A 
ATOM     92  F   UNL A   1      51.787  33.588  28.879  1.00  0.00    -0.206 F 
ATOM     93  C   UNL A   1      53.021  35.272  27.807  1.00  0.00     0.040 A 
ATOM     94  C   UNL A   1      52.780  35.621  25.436  1.00  0.00     0.040 A 
ATOM     95  F   UNL A   1      51.286  34.301  24.201  1.00  0.00    -0.206 F 
ATOM     96  C   UNL A   1      53.374  35.964  26.649  1.00  0.00     0.006 A 
ENDBRANCH  72  89
ENDBRANCH  46  47
ENDBRANCH  39  41
ENDBRANCH  38  39
ENDBRANCH  37  38
ENDBRANCH  36  37
ENDBRANCH  35  36
ENDBRANCH  34  35
ENDBRANCH  33  34
ENDBRANCH  32  33
ENDBRANCH  31  32
ENDBRANCH   1  31
TORSDOF 26
ENDMDL
