MODEL 1
REMARK VINA RESULT:     -12.5      0.000      0.000
REMARK SMILES C[C@]1(C(=O)OCCOCCOCCOC(=O)c2ccc(-c3c4nc(c(-c5c(F)cccc5F)c5ccc([nH]5)c(-c5c(F)cccc5F)c5nc(c(-c6c(F)cccc6F)c6ccc3[nH]6)C=C5)C=C4)cc2)[NH2+]C2(C(=O)c3ccccc3C2=O)[C@@H]2C(=O)N(c3ccccc3)C(=O)[C@H]21
REMARK SMILES IDX 10 1 9 2 8 3 7 4 6 5 5 6 3 7 4 8 2 9 1 10 71 11 95 12 72 13
REMARK SMILES IDX 83 16 93 17 73 18 81 19 84 20 86 21 94 22 74 23 75 24 80 25
REMARK SMILES IDX 82 26 85 27 76 28 79 29 77 30 78 31 87 32 88 33 92 34 89 35
REMARK SMILES IDX 91 36 90 37 11 38 12 39 13 40 14 41 15 42 16 43 17 44 18 45
REMARK SMILES IDX 70 46 19 47 69 48 20 49 21 50 22 51 63 52 23 53 68 54 62 55
REMARK SMILES IDX 64 56 24 57 67 58 61 59 60 60 25 62 51 63 34 64 50 65 35 66
REMARK SMILES IDX 38 67 49 68 65 69 36 70 37 71 48 73 66 74 39 75 26 76 27 77
REMARK SMILES IDX 32 78 28 79 29 80 31 81 33 82 30 83 52 84 53 85 58 86 54 87
REMARK SMILES IDX 55 88 57 89 59 90 56 91 40 92 41 93 46 94 42 95 43 96 45 97
REMARK SMILES IDX 47 98 44 99
REMARK H PARENT 71 14 71 15 64 61 38 72
REMARK Flexibility Score: inf
ROOT
ATOM      1  C   UNL A   1      42.253  19.844  26.692  1.00  0.00     0.188 C 
ENDROOT
BRANCH   1   2
ATOM      2  C   UNL A   1      40.991  20.434  27.346  1.00  0.00     0.188 C 
BRANCH   2   3
ATOM      3  O   UNL A   1      40.407  21.547  26.716  1.00  0.00    -0.376 OA
BRANCH   3   4
ATOM      4  C   UNL A   1      39.380  21.361  25.754  1.00  0.00     0.202 C 
BRANCH   4   5
ATOM      5  C   UNL A   1      38.394  22.444  25.276  1.00  0.00     0.261 C 
BRANCH   5   6
ATOM      6  O   UNL A   1      37.350  22.036  24.387  1.00  0.00    -0.459 OA
BRANCH   6   7
ATOM      7  C   UNL A   1      36.483  22.998  23.968  1.00  0.00     0.368 C 
ATOM      8  O   UNL A   1      36.427  23.410  22.816  1.00  0.00    -0.245 OA
BRANCH   7   9
ATOM      9  C   UNL A   1      35.557  23.532  25.106  1.00  0.00     0.205 C 
ATOM     10  C   UNL A   1      36.428  23.790  26.336  1.00  0.00     0.093 C 
ATOM     11  N   UNL A   1      34.750  24.765  24.726  1.00  0.00    -0.313 N 
ATOM     12  C   UNL A   1      34.419  22.597  25.369  1.00  0.00     0.172 C 
ATOM     13  C   UNL A   1      33.412  24.305  24.167  1.00  0.00     0.237 C 
ATOM     14  H   UNL A   1      35.253  25.302  24.019  1.00  0.00     0.348 HD
ATOM     15  H   UNL A   1      34.605  25.357  25.544  1.00  0.00     0.348 HD
ATOM     16  C   UNL A   1      33.584  22.825  24.123  1.00  0.00     0.177 C 
ATOM     17  C   UNL A   1      34.515  21.118  25.416  1.00  0.00     0.244 C 
ATOM     18  C   UNL A   1      32.288  24.874  25.029  1.00  0.00     0.232 C 
ATOM     19  C   UNL A   1      33.154  24.945  22.800  1.00  0.00     0.232 C 
ATOM     20  C   UNL A   1      32.605  21.717  24.248  1.00  0.00     0.245 C 
ATOM     21  N   UNL A   1      33.346  20.673  24.800  1.00  0.00    -0.250 N 
ATOM     22  O   UNL A   1      35.401  20.503  25.968  1.00  0.00    -0.273 OA
ATOM     23  O   UNL A   1      32.094  24.650  26.212  1.00  0.00    -0.286 OA
ATOM     24  C   UNL A   1      31.547  25.856  24.238  1.00  0.00     0.036 A 
ATOM     25  C   UNL A   1      32.059  25.909  22.948  1.00  0.00     0.036 A 
ATOM     26  O   UNL A   1      33.689  24.690  21.736  1.00  0.00    -0.286 OA
ATOM     27  O   UNL A   1      31.467  21.746  23.813  1.00  0.00    -0.273 OA
ATOM     28  C   UNL A   1      30.504  26.671  24.643  1.00  0.00     0.013 A 
ATOM     29  C   UNL A   1      31.536  26.769  21.999  1.00  0.00     0.013 A 
ATOM     30  C   UNL A   1      29.964  27.547  23.697  1.00  0.00     0.001 A 
ATOM     31  C   UNL A   1      30.474  27.594  22.385  1.00  0.00     0.001 A 
BRANCH  21  32
ATOM     32  C   UNL A   1      33.084  19.303  24.628  1.00  0.00     0.052 A 
ATOM     33  C   UNL A   1      32.743  18.506  25.727  1.00  0.00     0.027 A 
ATOM     34  C   UNL A   1      33.331  18.699  23.390  1.00  0.00     0.027 A 
ATOM     35  C   UNL A   1      32.670  17.121  25.601  1.00  0.00     0.002 A 
ATOM     36  C   UNL A   1      33.303  17.308  23.279  1.00  0.00     0.002 A 
ATOM     37  C   UNL A   1      32.971  16.520  24.382  1.00  0.00     0.000 A 
ENDBRANCH  21  32
ENDBRANCH   7   9
ENDBRANCH   6   7
ENDBRANCH   5   6
ENDBRANCH   4   5
ENDBRANCH   3   4
ENDBRANCH   2   3
ENDBRANCH   1   2
BRANCH   1  38
ATOM     38  O   UNL A   1      42.719  20.273  25.432  1.00  0.00    -0.376 OA
BRANCH  38  39
ATOM     39  C   UNL A   1      44.070  20.684  25.319  1.00  0.00     0.202 C 
BRANCH  39  40
ATOM     40  C   UNL A   1      44.430  22.074  24.761  1.00  0.00     0.261 C 
BRANCH  40  41
ATOM     41  O   UNL A   1      43.677  23.185  25.279  1.00  0.00    -0.460 OA
BRANCH  41  42
ATOM     42  C   UNL A   1      44.340  24.370  25.359  1.00  0.00     0.338 C 
ATOM     43  O   UNL A   1      45.161  24.813  24.574  1.00  0.00    -0.246 OA
BRANCH  42  44
ATOM     44  C   UNL A   1      43.725  25.180  26.438  1.00  0.00     0.060 A 
ATOM     45  C   UNL A   1      42.651  24.684  27.171  1.00  0.00     0.016 A 
ATOM     46  C   UNL A   1      44.215  26.474  26.687  1.00  0.00     0.016 A 
ATOM     47  C   UNL A   1      42.075  25.481  28.166  1.00  0.00     0.010 A 
ATOM     48  C   UNL A   1      43.618  27.280  27.660  1.00  0.00     0.010 A 
ATOM     49  C   UNL A   1      42.556  26.778  28.423  1.00  0.00    -0.014 A 
BRANCH  49  50
ATOM     50  C   UNL A   1      42.043  27.532  29.594  1.00  0.00     0.031 A 
ATOM     51  C   UNL A   1      42.706  27.469  30.938  1.00  0.00     0.074 A 
ATOM     52  C   UNL A   1      40.954  28.303  29.419  1.00  0.00     0.049 A 
ATOM     53  N   UNL A   1      42.442  28.165  32.016  1.00  0.00    -0.248 NA
ATOM     54  C   UNL A   1      43.799  26.501  31.095  1.00  0.00     0.031 C 
ATOM     55  C   UNL A   1      40.202  28.418  28.168  1.00  0.00     0.029 A 
ATOM     56  N   UNL A   1      40.300  29.142  30.283  1.00  0.00    -0.354 N 
ATOM     57  C   UNL A   1      43.354  27.746  32.974  1.00  0.00     0.074 A 
ATOM     58  C   UNL A   1      44.142  26.692  32.363  1.00  0.00     0.031 C 
ATOM     59  C   UNL A   1      39.209  29.305  28.337  1.00  0.00     0.029 A 
ATOM     60  C   UNL A   1      39.238  29.798  29.709  1.00  0.00     0.049 A 
ATOM     61  H   UNL A   1      40.566  29.264  31.223  1.00  0.00     0.167 HD
ATOM     62  C   UNL A   1      43.529  28.211  34.236  1.00  0.00     0.037 A 
ATOM     63  C   UNL A   1      38.387  30.702  30.230  1.00  0.00     0.037 A 
ATOM     64  C   UNL A   1      42.718  29.234  34.852  1.00  0.00     0.049 A 
ATOM     65  C   UNL A   1      38.563  31.149  31.654  1.00  0.00     0.074 A 
ATOM     66  C   UNL A   1      42.837  29.787  36.117  1.00  0.00     0.029 A 
ATOM     67  N   UNL A   1      41.621  29.842  34.258  1.00  0.00    -0.354 N 
ATOM     68  N   UNL A   1      39.487  30.811  32.520  1.00  0.00    -0.248 NA
ATOM     69  C   UNL A   1      37.582  32.113  32.169  1.00  0.00     0.031 C 
ATOM     70  C   UNL A   1      41.780  30.684  36.309  1.00  0.00     0.029 A 
ATOM     71  C   UNL A   1      41.039  30.741  35.141  1.00  0.00     0.049 A 
ATOM     72  H   UNL A   1      41.303  29.664  33.343  1.00  0.00     0.167 HD
ATOM     73  C   UNL A   1      39.218  31.547  33.667  1.00  0.00     0.074 A 
ATOM     74  C   UNL A   1      38.055  32.358  33.381  1.00  0.00     0.031 C 
ATOM     75  C   UNL A   1      39.883  31.551  34.850  1.00  0.00     0.037 A 
BRANCH  62  76
ATOM     76  C   UNL A   1      44.643  27.609  35.047  1.00  0.00     0.057 A 
ATOM     77  C   UNL A   1      44.419  26.498  35.870  1.00  0.00     0.134 A 
ATOM     78  C   UNL A   1      45.932  28.160  35.047  1.00  0.00     0.134 A 
ATOM     79  F   UNL A   1      43.205  25.930  35.933  1.00  0.00    -0.206 F 
ATOM     80  C   UNL A   1      45.435  25.956  36.659  1.00  0.00     0.040 A 
ATOM     81  C   UNL A   1      46.963  27.609  35.810  1.00  0.00     0.040 A 
ATOM     82  F   UNL A   1      46.216  29.227  34.284  1.00  0.00    -0.206 F 
ATOM     83  C   UNL A   1      46.715  26.505  36.623  1.00  0.00     0.006 A 
ENDBRANCH  62  76
BRANCH  63  84
ATOM     84  C   UNL A   1      37.296  31.263  29.395  1.00  0.00     0.057 A 
ATOM     85  C   UNL A   1      36.115  30.548  29.165  1.00  0.00     0.134 A 
ATOM     86  C   UNL A   1      37.396  32.543  28.837  1.00  0.00     0.134 A 
ATOM     87  F   UNL A   1      35.962  29.312  29.664  1.00  0.00    -0.206 F 
ATOM     88  C   UNL A   1      35.070  31.086  28.414  1.00  0.00     0.040 A 
ATOM     89  C   UNL A   1      36.346  33.106  28.110  1.00  0.00     0.040 A 
ATOM     90  F   UNL A   1      38.496  33.282  29.035  1.00  0.00    -0.206 F 
ATOM     91  C   UNL A   1      35.179  32.374  27.895  1.00  0.00     0.006 A 
ENDBRANCH  63  84
BRANCH  75  92
ATOM     92  C   UNL A   1      39.393  32.500  35.909  1.00  0.00     0.057 A 
ATOM     93  C   UNL A   1      39.928  33.792  36.007  1.00  0.00     0.134 A 
ATOM     94  C   UNL A   1      38.413  32.138  36.842  1.00  0.00     0.134 A 
ATOM     95  F   UNL A   1      40.874  34.205  35.150  1.00  0.00    -0.206 F 
ATOM     96  C   UNL A   1      39.508  34.686  36.994  1.00  0.00     0.040 A 
ATOM     97  C   UNL A   1      37.961  33.034  37.813  1.00  0.00     0.040 A 
ATOM     98  F   UNL A   1      37.845  30.923  36.796  1.00  0.00    -0.206 F 
ATOM     99  C   UNL A   1      38.515  34.310  37.895  1.00  0.00     0.006 A 
ENDBRANCH  75  92
ENDBRANCH  49  50
ENDBRANCH  42  44
ENDBRANCH  41  42
ENDBRANCH  40  41
ENDBRANCH  39  40
ENDBRANCH  38  39
ENDBRANCH   1  38
TORSDOF 18
ENDMDL
MODEL 2
REMARK VINA RESULT:     -12.1      4.733     10.356
REMARK SMILES C[C@]1(C(=O)OCCOCCOCCOC(=O)c2ccc(-c3c4nc(c(-c5c(F)cccc5F)c5ccc([nH]5)c(-c5c(F)cccc5F)c5nc(c(-c6c(F)cccc6F)c6ccc3[nH]6)C=C5)C=C4)cc2)[NH2+]C2(C(=O)c3ccccc3C2=O)[C@@H]2C(=O)N(c3ccccc3)C(=O)[C@H]21
REMARK SMILES IDX 10 1 9 2 8 3 7 4 6 5 5 6 3 7 4 8 2 9 1 10 71 11 95 12 72 13
REMARK SMILES IDX 83 16 93 17 73 18 81 19 84 20 86 21 94 22 74 23 75 24 80 25
REMARK SMILES IDX 82 26 85 27 76 28 79 29 77 30 78 31 87 32 88 33 92 34 89 35
REMARK SMILES IDX 91 36 90 37 11 38 12 39 13 40 14 41 15 42 16 43 17 44 18 45
REMARK SMILES IDX 70 46 19 47 69 48 20 49 21 50 22 51 63 52 23 53 68 54 62 55
REMARK SMILES IDX 64 56 24 57 67 58 61 59 60 60 25 62 51 63 34 64 50 65 35 66
REMARK SMILES IDX 38 67 49 68 65 69 36 70 37 71 48 73 66 74 39 75 26 76 27 77
REMARK SMILES IDX 32 78 28 79 29 80 31 81 33 82 30 83 52 84 53 85 58 86 54 87
REMARK SMILES IDX 55 88 57 89 59 90 56 91 40 92 41 93 46 94 42 95 43 96 45 97
REMARK SMILES IDX 47 98 44 99
REMARK H PARENT 71 14 71 15 64 61 38 72
REMARK Flexibility Score: inf
ROOT
ATOM      1  C   UNL A   1      33.974  34.113  29.365  1.00  0.00     0.188 C 
ENDROOT
BRANCH   1   2
ATOM      2  C   UNL A   1      33.331  33.725  28.022  1.00  0.00     0.188 C 
BRANCH   2   3
ATOM      3  O   UNL A   1      33.341  32.361  27.681  1.00  0.00    -0.376 OA
BRANCH   3   4
ATOM      4  C   UNL A   1      32.220  31.783  27.029  1.00  0.00     0.202 C 
BRANCH   4   5
ATOM      5  C   UNL A   1      31.726  30.335  27.211  1.00  0.00     0.261 C 
BRANCH   5   6
ATOM      6  O   UNL A   1      32.705  29.339  27.518  1.00  0.00    -0.459 OA
BRANCH   6   7
ATOM      7  C   UNL A   1      32.426  28.061  27.145  1.00  0.00     0.368 C 
ATOM      8  O   UNL A   1      31.514  27.396  27.621  1.00  0.00    -0.245 OA
BRANCH   7   9
ATOM      9  C   UNL A   1      33.388  27.515  26.043  1.00  0.00     0.205 C 
ATOM     10  C   UNL A   1      34.665  28.355  26.079  1.00  0.00     0.093 C 
ATOM     11  N   UNL A   1      33.693  26.029  26.162  1.00  0.00    -0.313 N 
ATOM     12  C   UNL A   1      32.727  27.497  24.701  1.00  0.00     0.172 C 
ATOM     13  C   UNL A   1      32.675  25.265  25.329  1.00  0.00     0.237 C 
ATOM     14  H   UNL A   1      33.626  25.740  27.138  1.00  0.00     0.348 HD
ATOM     15  H   UNL A   1      34.637  25.836  25.828  1.00  0.00     0.348 HD
ATOM     16  C   UNL A   1      31.751  26.351  24.892  1.00  0.00     0.177 C 
ATOM     17  C   UNL A   1      31.852  28.565  24.158  1.00  0.00     0.244 C 
ATOM     18  C   UNL A   1      33.408  24.468  24.252  1.00  0.00     0.232 C 
ATOM     19  C   UNL A   1      32.005  24.174  26.168  1.00  0.00     0.232 C 
ATOM     20  C   UNL A   1      30.916  26.501  23.675  1.00  0.00     0.245 C 
ATOM     21  N   UNL A   1      30.842  27.880  23.485  1.00  0.00    -0.250 N 
ATOM     22  O   UNL A   1      32.082  29.751  24.244  1.00  0.00    -0.273 OA
ATOM     23  O   UNL A   1      34.097  24.921  23.354  1.00  0.00    -0.286 OA
ATOM     24  C   UNL A   1      33.266  23.043  24.552  1.00  0.00     0.036 A 
ATOM     25  C   UNL A   1      32.464  22.872  25.673  1.00  0.00     0.036 A 
ATOM     26  O   UNL A   1      31.183  24.306  27.057  1.00  0.00    -0.286 OA
ATOM     27  O   UNL A   1      30.345  25.585  23.109  1.00  0.00    -0.273 OA
ATOM     28  C   UNL A   1      33.834  21.968  23.891  1.00  0.00     0.013 A 
ATOM     29  C   UNL A   1      32.180  21.614  26.173  1.00  0.00     0.013 A 
ATOM     30  C   UNL A   1      33.558  20.689  24.382  1.00  0.00     0.001 A 
ATOM     31  C   UNL A   1      32.736  20.512  25.512  1.00  0.00     0.001 A 
BRANCH  21  32
ATOM     32  C   UNL A   1      29.790  28.564  22.851  1.00  0.00     0.052 A 
ATOM     33  C   UNL A   1      30.064  29.582  21.930  1.00  0.00     0.027 A 
ATOM     34  C   UNL A   1      28.471  28.348  23.266  1.00  0.00     0.027 A 
ATOM     35  C   UNL A   1      29.039  30.391  21.444  1.00  0.00     0.002 A 
ATOM     36  C   UNL A   1      27.454  29.189  22.812  1.00  0.00     0.002 A 
ATOM     37  C   UNL A   1      27.738  30.208  21.902  1.00  0.00     0.000 A 
ENDBRANCH  21  32
ENDBRANCH   7   9
ENDBRANCH   6   7
ENDBRANCH   5   6
ENDBRANCH   4   5
ENDBRANCH   3   4
ENDBRANCH   2   3
ENDBRANCH   1   2
BRANCH   1  38
ATOM     38  O   UNL A   1      34.489  33.152  30.260  1.00  0.00    -0.376 OA
BRANCH  38  39
ATOM     39  C   UNL A   1      35.766  33.379  30.829  1.00  0.00     0.202 C 
BRANCH  39  40
ATOM     40  C   UNL A   1      36.747  32.214  31.062  1.00  0.00     0.261 C 
BRANCH  40  41
ATOM     41  O   UNL A   1      36.190  30.889  31.001  1.00  0.00    -0.460 OA
BRANCH  41  42
ATOM     42  C   UNL A   1      36.257  30.269  29.792  1.00  0.00     0.338 C 
ATOM     43  O   UNL A   1      35.379  30.193  28.949  1.00  0.00    -0.246 OA
BRANCH  42  44
ATOM     44  C   UNL A   1      37.670  29.899  29.532  1.00  0.00     0.060 A 
ATOM     45  C   UNL A   1      38.500  29.496  30.575  1.00  0.00     0.016 A 
ATOM     46  C   UNL A   1      38.175  29.999  28.224  1.00  0.00     0.016 A 
ATOM     47  C   UNL A   1      39.834  29.177  30.304  1.00  0.00     0.010 A 
ATOM     48  C   UNL A   1      39.516  29.710  27.961  1.00  0.00     0.010 A 
ATOM     49  C   UNL A   1      40.351  29.275  28.998  1.00  0.00    -0.014 A 
BRANCH  49  50
ATOM     50  C   UNL A   1      41.715  28.767  28.710  1.00  0.00     0.031 A 
ATOM     51  C   UNL A   1      41.977  27.333  28.360  1.00  0.00     0.074 A 
ATOM     52  C   UNL A   1      42.736  29.644  28.755  1.00  0.00     0.049 A 
ATOM     53  N   UNL A   1      43.096  26.775  27.967  1.00  0.00    -0.248 NA
ATOM     54  C   UNL A   1      40.844  26.405  28.469  1.00  0.00     0.031 C 
ATOM     55  C   UNL A   1      42.610  31.056  29.118  1.00  0.00     0.029 A 
ATOM     56  N   UNL A   1      44.070  29.483  28.484  1.00  0.00    -0.354 N 
ATOM     57  C   UNL A   1      42.800  25.437  27.750  1.00  0.00     0.074 A 
ATOM     58  C   UNL A   1      41.407  25.256  28.111  1.00  0.00     0.031 C 
ATOM     59  C   UNL A   1      43.814  31.641  29.014  1.00  0.00     0.029 A 
ATOM     60  C   UNL A   1      44.795  30.643  28.604  1.00  0.00     0.049 A 
ATOM     61  H   UNL A   1      44.469  28.620  28.227  1.00  0.00     0.167 HD
ATOM     62  C   UNL A   1      43.610  24.458  27.275  1.00  0.00     0.037 A 
ATOM     63  C   UNL A   1      46.105  30.877  28.400  1.00  0.00     0.037 A 
ATOM     64  C   UNL A   1      45.006  24.635  26.952  1.00  0.00     0.049 A 
ATOM     65  C   UNL A   1      46.993  29.756  27.940  1.00  0.00     0.074 A 
ATOM     66  C   UNL A   1      45.899  23.707  26.441  1.00  0.00     0.029 A 
ATOM     67  N   UNL A   1      45.720  25.811  27.131  1.00  0.00    -0.354 N 
ATOM     68  N   UNL A   1      46.681  28.516  27.650  1.00  0.00    -0.248 NA
ATOM     69  C   UNL A   1      48.418  30.072  27.767  1.00  0.00     0.031 C 
ATOM     70  C   UNL A   1      47.163  24.303  26.367  1.00  0.00     0.029 A 
ATOM     71  C   UNL A   1      47.046  25.623  26.769  1.00  0.00     0.049 A 
ATOM     72  H   UNL A   1      45.341  26.656  27.464  1.00  0.00     0.167 HD
ATOM     73  C   UNL A   1      47.861  27.917  27.228  1.00  0.00     0.074 A 
ATOM     74  C   UNL A   1      48.891  28.931  27.287  1.00  0.00     0.031 C 
ATOM     75  C   UNL A   1      48.068  26.639  26.824  1.00  0.00     0.037 A 
BRANCH  62  76
ATOM     76  C   UNL A   1      43.007  23.095  27.080  1.00  0.00     0.057 A 
ATOM     77  C   UNL A   1      42.631  22.646  25.808  1.00  0.00     0.134 A 
ATOM     78  C   UNL A   1      42.754  22.242  28.164  1.00  0.00     0.134 A 
ATOM     79  F   UNL A   1      42.827  23.418  24.728  1.00  0.00    -0.206 F 
ATOM     80  C   UNL A   1      42.032  21.399  25.619  1.00  0.00     0.040 A 
ATOM     81  C   UNL A   1      42.181  20.981  27.984  1.00  0.00     0.040 A 
ATOM     82  F   UNL A   1      43.086  22.609  29.411  1.00  0.00    -0.206 F 
ATOM     83  C   UNL A   1      41.814  20.558  26.708  1.00  0.00     0.006 A 
ENDBRANCH  62  76
BRANCH  63  84
ATOM     84  C   UNL A   1      46.660  32.237  28.614  1.00  0.00     0.057 A 
ATOM     85  C   UNL A   1      46.712  33.173  27.574  1.00  0.00     0.134 A 
ATOM     86  C   UNL A   1      47.119  32.643  29.872  1.00  0.00     0.134 A 
ATOM     87  F   UNL A   1      46.297  32.843  26.342  1.00  0.00    -0.206 F 
ATOM     88  C   UNL A   1      47.195  34.465  27.779  1.00  0.00     0.040 A 
ATOM     89  C   UNL A   1      47.577  33.942  30.098  1.00  0.00     0.040 A 
ATOM     90  F   UNL A   1      47.080  31.796  30.911  1.00  0.00    -0.206 F 
ATOM     91  C   UNL A   1      47.618  34.856  29.047  1.00  0.00     0.006 A 
ENDBRANCH  63  84
BRANCH  75  92
ATOM     92  C   UNL A   1      49.455  26.279  26.366  1.00  0.00     0.057 A 
ATOM     93  C   UNL A   1      50.314  25.558  27.206  1.00  0.00     0.134 A 
ATOM     94  C   UNL A   1      49.949  26.656  25.111  1.00  0.00     0.134 A 
ATOM     95  F   UNL A   1      49.909  25.168  28.424  1.00  0.00    -0.206 F 
ATOM     96  C   UNL A   1      51.614  25.229  26.816  1.00  0.00     0.040 A 
ATOM     97  C   UNL A   1      51.236  26.305  24.696  1.00  0.00     0.040 A 
ATOM     98  F   UNL A   1      49.175  27.333  24.250  1.00  0.00    -0.206 F 
ATOM     99  C   UNL A   1      52.075  25.595  25.554  1.00  0.00     0.006 A 
ENDBRANCH  75  92
ENDBRANCH  49  50
ENDBRANCH  42  44
ENDBRANCH  41  42
ENDBRANCH  40  41
ENDBRANCH  39  40
ENDBRANCH  38  39
ENDBRANCH   1  38
TORSDOF 18
ENDMDL
MODEL 3
REMARK VINA RESULT:     -11.8      0.673      5.722
REMARK SMILES C[C@]1(C(=O)OCCOCCOCCOC(=O)c2ccc(-c3c4nc(c(-c5c(F)cccc5F)c5ccc([nH]5)c(-c5c(F)cccc5F)c5nc(c(-c6c(F)cccc6F)c6ccc3[nH]6)C=C5)C=C4)cc2)[NH2+]C2(C(=O)c3ccccc3C2=O)[C@@H]2C(=O)N(c3ccccc3)C(=O)[C@H]21
REMARK SMILES IDX 10 1 9 2 8 3 7 4 6 5 5 6 3 7 4 8 2 9 1 10 71 11 95 12 72 13
REMARK SMILES IDX 83 16 93 17 73 18 81 19 84 20 86 21 94 22 74 23 75 24 80 25
REMARK SMILES IDX 82 26 85 27 76 28 79 29 77 30 78 31 87 32 88 33 92 34 89 35
REMARK SMILES IDX 91 36 90 37 11 38 12 39 13 40 14 41 15 42 16 43 17 44 18 45
REMARK SMILES IDX 70 46 19 47 69 48 20 49 21 50 22 51 63 52 23 53 68 54 62 55
REMARK SMILES IDX 64 56 24 57 67 58 61 59 60 60 25 62 51 63 34 64 50 65 35 66
REMARK SMILES IDX 38 67 49 68 65 69 36 70 37 71 48 73 66 74 39 75 26 76 27 77
REMARK SMILES IDX 32 78 28 79 29 80 31 81 33 82 30 83 52 84 53 85 58 86 54 87
REMARK SMILES IDX 55 88 57 89 59 90 56 91 40 92 41 93 46 94 42 95 43 96 45 97
REMARK SMILES IDX 47 98 44 99
REMARK H PARENT 71 14 71 15 64 61 38 72
REMARK Flexibility Score: inf
ROOT
ATOM      1  C   UNL A   1      42.008  20.572  27.204  1.00  0.00     0.188 C 
ENDROOT
BRANCH   1   2
ATOM      2  C   UNL A   1      40.723  21.378  27.467  1.00  0.00     0.188 C 
BRANCH   2   3
ATOM      3  O   UNL A   1      40.053  21.893  26.345  1.00  0.00    -0.376 OA
BRANCH   3   4
ATOM      4  C   UNL A   1      38.966  21.179  25.775  1.00  0.00     0.202 C 
BRANCH   4   5
ATOM      5  C   UNL A   1      37.820  21.797  24.951  1.00  0.00     0.261 C 
BRANCH   5   6
ATOM      6  O   UNL A   1      36.645  22.203  25.660  1.00  0.00    -0.459 OA
BRANCH   6   7
ATOM      7  C   UNL A   1      35.909  23.207  25.112  1.00  0.00     0.368 C 
ATOM      8  O   UNL A   1      36.186  23.755  24.052  1.00  0.00    -0.245 OA
BRANCH   7   9
ATOM      9  C   UNL A   1      34.665  23.600  25.971  1.00  0.00     0.205 C 
ATOM     10  C   UNL A   1      35.123  23.734  27.424  1.00  0.00     0.093 C 
ATOM     11  N   UNL A   1      33.949  24.855  25.494  1.00  0.00    -0.313 N 
ATOM     12  C   UNL A   1      33.545  22.625  25.789  1.00  0.00     0.172 C 
ATOM     13  C   UNL A   1      32.858  24.439  24.518  1.00  0.00     0.237 C 
ATOM     14  H   UNL A   1      34.612  25.473  25.026  1.00  0.00     0.348 HD
ATOM     15  H   UNL A   1      33.542  25.351  26.286  1.00  0.00     0.348 HD
ATOM     16  C   UNL A   1      33.104  22.975  24.380  1.00  0.00     0.177 C 
ATOM     17  C   UNL A   1      33.691  21.151  25.713  1.00  0.00     0.244 C 
ATOM     18  C   UNL A   1      31.504  24.893  25.060  1.00  0.00     0.232 C 
ATOM     19  C   UNL A   1      32.984  25.220  23.208  1.00  0.00     0.232 C 
ATOM     20  C   UNL A   1      32.184  21.846  24.097  1.00  0.00     0.245 C 
ATOM     21  N   UNL A   1      32.777  20.759  24.737  1.00  0.00    -0.250 N 
ATOM     22  O   UNL A   1      34.404  20.492  26.440  1.00  0.00    -0.273 OA
ATOM     23  O   UNL A   1      30.982  24.538  26.103  1.00  0.00    -0.286 OA
ATOM     24  C   UNL A   1      30.984  25.945  24.187  1.00  0.00     0.036 A 
ATOM     25  C   UNL A   1      31.849  26.146  23.119  1.00  0.00     0.036 A 
ATOM     26  O   UNL A   1      33.819  25.092  22.331  1.00  0.00    -0.286 OA
ATOM     27  O   UNL A   1      31.224  21.905  23.348  1.00  0.00    -0.273 OA
ATOM     28  C   UNL A   1      29.831  26.694  24.343  1.00  0.00     0.013 A 
ATOM     29  C   UNL A   1      31.590  27.097  22.149  1.00  0.00     0.013 A 
ATOM     30  C   UNL A   1      29.553  27.661  23.371  1.00  0.00     0.001 A 
ATOM     31  C   UNL A   1      30.423  27.859  22.282  1.00  0.00     0.001 A 
BRANCH  21  32
ATOM     32  C   UNL A   1      32.642  19.412  24.358  1.00  0.00     0.052 A 
ATOM     33  C   UNL A   1      32.539  18.412  25.332  1.00  0.00     0.027 A 
ATOM     34  C   UNL A   1      32.783  19.051  23.014  1.00  0.00     0.027 A 
ATOM     35  C   UNL A   1      32.598  17.067  24.975  1.00  0.00     0.002 A 
ATOM     36  C   UNL A   1      32.888  17.703  22.664  1.00  0.00     0.002 A 
ATOM     37  C   UNL A   1      32.794  16.713  23.643  1.00  0.00     0.000 A 
ENDBRANCH  21  32
ENDBRANCH   7   9
ENDBRANCH   6   7
ENDBRANCH   5   6
ENDBRANCH   4   5
ENDBRANCH   3   4
ENDBRANCH   2   3
ENDBRANCH   1   2
BRANCH   1  38
ATOM     38  O   UNL A   1      42.472  20.299  25.901  1.00  0.00    -0.376 OA
BRANCH  38  39
ATOM     39  C   UNL A   1      43.796  20.674  25.566  1.00  0.00     0.202 C 
BRANCH  39  40
ATOM     40  C   UNL A   1      44.099  22.063  24.973  1.00  0.00     0.261 C 
BRANCH  40  41
ATOM     41  O   UNL A   1      43.408  23.175  25.569  1.00  0.00    -0.460 OA
BRANCH  41  42
ATOM     42  C   UNL A   1      44.032  24.382  25.480  1.00  0.00     0.338 C 
ATOM     43  O   UNL A   1      44.790  24.760  24.603  1.00  0.00    -0.246 OA
BRANCH  42  44
ATOM     44  C   UNL A   1      43.450  25.287  26.501  1.00  0.00     0.060 A 
ATOM     45  C   UNL A   1      42.505  24.816  27.409  1.00  0.00     0.016 A 
ATOM     46  C   UNL A   1      43.835  26.639  26.517  1.00  0.00     0.016 A 
ATOM     47  C   UNL A   1      41.955  25.699  28.344  1.00  0.00     0.010 A 
ATOM     48  C   UNL A   1      43.262  27.525  27.432  1.00  0.00     0.010 A 
ATOM     49  C   UNL A   1      42.333  27.055  28.369  1.00  0.00    -0.014 A 
BRANCH  49  50
ATOM     50  C   UNL A   1      41.867  27.925  29.476  1.00  0.00     0.031 A 
ATOM     51  C   UNL A   1      40.648  28.790  29.356  1.00  0.00     0.074 A 
ATOM     52  C   UNL A   1      42.569  27.912  30.626  1.00  0.00     0.049 A 
ATOM     53  N   UNL A   1      40.057  29.507  30.279  1.00  0.00    -0.248 NA
ATOM     54  C   UNL A   1      40.016  28.866  28.032  1.00  0.00     0.031 C 
ATOM     55  C   UNL A   1      43.791  27.138  30.851  1.00  0.00     0.029 A 
ATOM     56  N   UNL A   1      42.351  28.552  31.818  1.00  0.00    -0.354 N 
ATOM     57  C   UNL A   1      38.963  30.097  29.661  1.00  0.00     0.074 A 
ATOM     58  C   UNL A   1      39.008  29.697  28.267  1.00  0.00     0.031 C 
ATOM     59  C   UNL A   1      44.196  27.323  32.117  1.00  0.00     0.029 A 
ATOM     60  C   UNL A   1      43.281  28.244  32.781  1.00  0.00     0.049 A 
ATOM     61  H   UNL A   1      41.601  29.171  31.969  1.00  0.00     0.167 HD
ATOM     62  C   UNL A   1      38.002  30.881  30.211  1.00  0.00     0.037 A 
ATOM     63  C   UNL A   1      43.381  28.655  34.059  1.00  0.00     0.037 A 
ATOM     64  C   UNL A   1      37.982  31.307  31.590  1.00  0.00     0.049 A 
ATOM     65  C   UNL A   1      42.339  29.579  34.622  1.00  0.00     0.074 A 
ATOM     66  C   UNL A   1      37.036  32.080  32.243  1.00  0.00     0.029 A 
ATOM     67  N   UNL A   1      38.965  31.016  32.526  1.00  0.00    -0.354 N 
ATOM     68  N   UNL A   1      41.259  30.056  34.052  1.00  0.00    -0.248 NA
ATOM     69  C   UNL A   1      42.525  30.014  36.013  1.00  0.00     0.031 C 
ATOM     70  C   UNL A   1      37.475  32.306  33.552  1.00  0.00     0.029 A 
ATOM     71  C   UNL A   1      38.663  31.619  33.738  1.00  0.00     0.049 A 
ATOM     72  H   UNL A   1      39.761  30.461  32.354  1.00  0.00     0.167 HD
ATOM     73  C   UNL A   1      40.621  30.816  35.025  1.00  0.00     0.074 A 
ATOM     74  C   UNL A   1      41.427  30.725  36.223  1.00  0.00     0.031 C 
ATOM     75  C   UNL A   1      39.466  31.521  34.931  1.00  0.00     0.037 A 
BRANCH  62  76
ATOM     76  C   UNL A   1      36.887  31.341  29.314  1.00  0.00     0.057 A 
ATOM     77  C   UNL A   1      35.845  30.476  28.955  1.00  0.00     0.134 A 
ATOM     78  C   UNL A   1      36.870  32.631  28.765  1.00  0.00     0.134 A 
ATOM     79  F   UNL A   1      35.808  29.221  29.428  1.00  0.00    -0.206 F 
ATOM     80  C   UNL A   1      34.826  30.878  28.089  1.00  0.00     0.040 A 
ATOM     81  C   UNL A   1      35.841  33.054  27.921  1.00  0.00     0.040 A 
ATOM     82  F   UNL A   1      37.838  33.510  29.064  1.00  0.00    -0.206 F 
ATOM     83  C   UNL A   1      34.816  32.173  27.577  1.00  0.00     0.006 A 
ENDBRANCH  62  76
BRANCH  63  84
ATOM     84  C   UNL A   1      44.504  28.183  34.906  1.00  0.00     0.057 A 
ATOM     85  C   UNL A   1      45.726  28.865  34.941  1.00  0.00     0.134 A 
ATOM     86  C   UNL A   1      44.369  27.057  35.727  1.00  0.00     0.134 A 
ATOM     87  F   UNL A   1      45.923  29.945  34.170  1.00  0.00    -0.206 F 
ATOM     88  C   UNL A   1      46.771  28.449  35.765  1.00  0.00     0.040 A 
ATOM     89  C   UNL A   1      45.396  26.647  36.579  1.00  0.00     0.040 A 
ATOM     90  F   UNL A   1      43.217  26.371  35.748  1.00  0.00    -0.206 F 
ATOM     91  C   UNL A   1      46.603  27.344  36.597  1.00  0.00     0.006 A 
ENDBRANCH  63  84
BRANCH  75  92
ATOM     92  C   UNL A   1      38.980  32.212  36.175  1.00  0.00     0.057 A 
ATOM     93  C   UNL A   1      39.370  33.531  36.453  1.00  0.00     0.134 A 
ATOM     94  C   UNL A   1      38.148  31.579  37.106  1.00  0.00     0.134 A 
ATOM     95  F   UNL A   1      40.171  34.197  35.608  1.00  0.00    -0.206 F 
ATOM     96  C   UNL A   1      38.952  34.189  37.610  1.00  0.00     0.040 A 
ATOM     97  C   UNL A   1      37.696  32.239  38.252  1.00  0.00     0.040 A 
ATOM     98  F   UNL A   1      37.722  30.324  36.896  1.00  0.00    -0.206 F 
ATOM     99  C   UNL A   1      38.105  33.546  38.509  1.00  0.00     0.006 A 
ENDBRANCH  75  92
ENDBRANCH  49  50
ENDBRANCH  42  44
ENDBRANCH  41  42
ENDBRANCH  40  41
ENDBRANCH  39  40
ENDBRANCH  38  39
ENDBRANCH   1  38
TORSDOF 18
ENDMDL
