MODEL 1
REMARK VINA RESULT:      -9.8      0.000      0.000
REMARK SMILES CCc1cc(OCC(=O)OCCOCCOCCOC(=O)c2ccc(-c3c4nc(c(-c5c(F)cccc5F)c5ccc([nH]5)c(-c5c(F)cccc5F)c5nc(c(-c6c(F)cccc6F)c6ccc3[nH]6)C=C5)C=C4)cc2)nc(Nc2ccc(C)c(F)c2)n1
REMARK SMILES IDX 14 1 13 2 12 3 11 4 10 5 8 6 9 7 7 8 6 9 5 10 3 11 4 12
REMARK SMILES IDX 87 13 77 14 76 15 2 16 1 17 78 18 79 20 80 21 86 22 81 23
REMARK SMILES IDX 84 24 82 25 85 26 83 27 15 28 16 29 17 30 18 31 19 32 20 33
REMARK SMILES IDX 21 34 22 35 23 36 75 37 24 38 74 39 25 40 26 41 27 42 68 43
REMARK SMILES IDX 28 44 73 45 67 46 69 47 29 48 72 49 66 50 65 51 30 53 56 54
REMARK SMILES IDX 39 55 55 56 40 57 43 58 54 59 70 60 41 61 42 62 53 64 71 65
REMARK SMILES IDX 44 66 31 67 32 68 37 69 33 70 34 71 36 72 38 73 35 74 57 75
REMARK SMILES IDX 58 76 63 77 59 78 60 79 62 80 64 81 61 82 45 83 46 84 51 85
REMARK SMILES IDX 47 86 48 87 50 88 52 89 49 90
REMARK H PARENT 78 19 69 52 43 63
REMARK Flexibility Score: inf
ROOT
ATOM      1  C   UNL A   1      32.982  31.023  27.098  1.00  0.00     0.188 C 
ENDROOT
BRANCH   1   2
ATOM      2  O   UNL A   1      33.026  29.754  26.446  1.00  0.00    -0.376 OA
BRANCH   2   3
ATOM      3  C   UNL A   1      31.807  29.015  26.421  1.00  0.00     0.202 C 
BRANCH   3   4
ATOM      4  C   UNL A   1      31.998  27.492  26.441  1.00  0.00     0.261 C 
BRANCH   4   5
ATOM      5  O   UNL A   1      30.789  26.810  26.856  1.00  0.00    -0.461 OA
BRANCH   5   6
ATOM      6  C   UNL A   1      30.401  25.744  26.100  1.00  0.00     0.344 C 
ATOM      7  O   UNL A   1      30.493  24.573  26.456  1.00  0.00    -0.248 OA
BRANCH   6   8
ATOM      8  C   UNL A   1      29.698  26.147  24.791  1.00  0.00     0.353 C 
BRANCH   8   9
ATOM      9  O   UNL A   1      29.855  25.254  23.695  1.00  0.00    -0.466 OA
BRANCH   9  10
ATOM     10  C   UNL A   1      31.079  25.303  23.053  1.00  0.00     0.218 A 
ATOM     11  C   UNL A   1      32.946  26.506  22.277  1.00  0.00     0.050 A 
ATOM     12  C   UNL A   1      31.621  26.510  22.644  1.00  0.00     0.092 A 
ATOM     13  N   UNL A   1      33.632  25.373  22.280  1.00  0.00    -0.218 NA
ATOM     14  C   UNL A   1      33.078  24.253  22.755  1.00  0.00     0.230 A 
ATOM     15  N   UNL A   1      31.788  24.154  23.103  1.00  0.00    -0.177 NA
BRANCH  11  16
ATOM     16  C   UNL A   1      33.798  27.699  21.964  1.00  0.00     0.053 C 
ATOM     17  C   UNL A   1      33.732  28.789  23.042  1.00  0.00     0.011 C 
ENDBRANCH  11  16
BRANCH  14  18
ATOM     18  N   UNL A   1      33.993  23.212  22.971  1.00  0.00    -0.324 N 
ATOM     19  H   UNL A   1      33.814  22.314  22.613  1.00  0.00     0.170 HD
BRANCH  18  20
ATOM     20  C   UNL A   1      35.174  23.462  23.708  1.00  0.00     0.044 A 
ATOM     21  C   UNL A   1      35.208  24.412  24.734  1.00  0.00     0.026 A 
ATOM     22  C   UNL A   1      36.216  22.520  23.639  1.00  0.00     0.065 A 
ATOM     23  C   UNL A   1      36.239  24.393  25.689  1.00  0.00     0.008 A 
ATOM     24  C   UNL A   1      37.233  22.507  24.586  1.00  0.00     0.128 A 
ATOM     25  C   UNL A   1      37.254  23.426  25.632  1.00  0.00    -0.015 A 
ATOM     26  F   UNL A   1      38.164  21.544  24.516  1.00  0.00    -0.207 F 
ATOM     27  C   UNL A   1      38.298  23.344  26.704  1.00  0.00     0.047 C 
ENDBRANCH  18  20
ENDBRANCH  14  18
ENDBRANCH   9  10
ENDBRANCH   8   9
ENDBRANCH   6   8
ENDBRANCH   5   6
ENDBRANCH   4   5
ENDBRANCH   3   4
ENDBRANCH   2   3
ENDBRANCH   1   2
BRANCH   1  28
ATOM     28  C   UNL A   1      34.175  31.371  27.995  1.00  0.00     0.188 C 
BRANCH  28  29
ATOM     29  O   UNL A   1      34.019  32.710  28.472  1.00  0.00    -0.376 OA
BRANCH  29  30
ATOM     30  C   UNL A   1      34.823  33.004  29.611  1.00  0.00     0.202 C 
BRANCH  30  31
ATOM     31  C   UNL A   1      35.448  31.739  30.236  1.00  0.00     0.261 C 
BRANCH  31  32
ATOM     32  O   UNL A   1      36.236  31.853  31.448  1.00  0.00    -0.460 OA
BRANCH  32  33
ATOM     33  C   UNL A   1      36.938  30.764  31.797  1.00  0.00     0.338 C 
ATOM     34  O   UNL A   1      36.568  29.884  32.552  1.00  0.00    -0.246 OA
BRANCH  33  35
ATOM     35  C   UNL A   1      38.296  30.687  31.230  1.00  0.00     0.060 A 
ATOM     36  C   UNL A   1      38.413  30.871  29.850  1.00  0.00     0.016 A 
ATOM     37  C   UNL A   1      39.312  30.043  31.938  1.00  0.00     0.016 A 
ATOM     38  C   UNL A   1      39.457  30.264  29.154  1.00  0.00     0.010 A 
ATOM     39  C   UNL A   1      40.414  29.520  31.244  1.00  0.00     0.010 A 
ATOM     40  C   UNL A   1      40.479  29.592  29.842  1.00  0.00    -0.014 A 
BRANCH  40  41
ATOM     41  C   UNL A   1      41.677  29.103  29.109  1.00  0.00     0.031 A 
ATOM     42  C   UNL A   1      41.821  27.684  28.627  1.00  0.00     0.074 A 
ATOM     43  C   UNL A   1      42.689  29.975  28.932  1.00  0.00     0.049 A 
ATOM     44  N   UNL A   1      42.897  27.064  28.208  1.00  0.00    -0.248 NA
ATOM     45  C   UNL A   1      40.607  26.853  28.602  1.00  0.00     0.031 C 
ATOM     46  C   UNL A   1      42.655  31.392  29.310  1.00  0.00     0.029 A 
ATOM     47  N   UNL A   1      43.948  29.799  28.423  1.00  0.00    -0.354 N 
ATOM     48  C   UNL A   1      42.505  25.764  27.903  1.00  0.00     0.074 A 
ATOM     49  C   UNL A   1      41.082  25.689  28.169  1.00  0.00     0.031 C 
ATOM     50  C   UNL A   1      43.836  31.951  29.034  1.00  0.00     0.029 A 
ATOM     51  C   UNL A   1      44.738  30.911  28.565  1.00  0.00     0.049 A 
ATOM     52  H   UNL A   1      44.254  28.963  28.001  1.00  0.00     0.167 HD
ATOM     53  C   UNL A   1      43.273  24.736  27.459  1.00  0.00     0.037 A 
ATOM     54  C   UNL A   1      46.064  31.077  28.428  1.00  0.00     0.037 A 
ATOM     55  C   UNL A   1      44.688  24.839  27.182  1.00  0.00     0.049 A 
ATOM     56  C   UNL A   1      46.902  29.915  28.014  1.00  0.00     0.074 A 
ATOM     57  C   UNL A   1      45.550  23.863  26.706  1.00  0.00     0.029 A 
ATOM     58  N   UNL A   1      45.450  25.985  27.358  1.00  0.00    -0.354 N 
ATOM     59  N   UNL A   1      46.532  28.681  27.776  1.00  0.00    -0.248 NA
ATOM     60  C   UNL A   1      48.338  30.164  27.854  1.00  0.00     0.031 C 
ATOM     61  C   UNL A   1      46.839  24.406  26.637  1.00  0.00     0.029 A 
ATOM     62  C   UNL A   1      46.773  25.733  27.026  1.00  0.00     0.049 A 
ATOM     63  H   UNL A   1      45.103  26.850  27.674  1.00  0.00     0.167 HD
ATOM     64  C   UNL A   1      47.688  28.005  27.424  1.00  0.00     0.074 A 
ATOM     65  C   UNL A   1      48.768  28.972  27.469  1.00  0.00     0.031 C 
ATOM     66  C   UNL A   1      47.839  26.700  27.092  1.00  0.00     0.037 A 
BRANCH  53  67
ATOM     67  C   UNL A   1      42.631  23.387  27.276  1.00  0.00     0.057 A 
ATOM     68  C   UNL A   1      42.283  22.571  28.358  1.00  0.00     0.134 A 
ATOM     69  C   UNL A   1      42.258  22.949  25.996  1.00  0.00     0.134 A 
ATOM     70  F   UNL A   1      42.606  22.926  29.610  1.00  0.00    -0.206 F 
ATOM     71  C   UNL A   1      41.595  21.366  28.174  1.00  0.00     0.040 A 
ATOM     72  C   UNL A   1      41.554  21.759  25.802  1.00  0.00     0.040 A 
ATOM     73  F   UNL A   1      42.547  23.688  24.914  1.00  0.00    -0.206 F 
ATOM     74  C   UNL A   1      41.220  20.962  26.894  1.00  0.00     0.006 A 
ENDBRANCH  53  67
BRANCH  54  75
ATOM     75  C   UNL A   1      46.649  32.397  28.754  1.00  0.00     0.057 A 
ATOM     76  C   UNL A   1      46.750  33.396  27.785  1.00  0.00     0.134 A 
ATOM     77  C   UNL A   1      47.004  32.724  30.071  1.00  0.00     0.134 A 
ATOM     78  F   UNL A   1      46.429  33.134  26.510  1.00  0.00    -0.206 F 
ATOM     79  C   UNL A   1      47.174  34.684  28.113  1.00  0.00     0.040 A 
ATOM     80  C   UNL A   1      47.404  34.012  30.417  1.00  0.00     0.040 A 
ATOM     81  F   UNL A   1      46.902  31.808  31.047  1.00  0.00    -0.206 F 
ATOM     82  C   UNL A   1      47.489  34.997  29.436  1.00  0.00     0.006 A 
ENDBRANCH  54  75
BRANCH  66  83
ATOM     83  C   UNL A   1      49.225  26.266  26.729  1.00  0.00     0.057 A 
ATOM     84  C   UNL A   1      50.088  25.701  27.675  1.00  0.00     0.134 A 
ATOM     85  C   UNL A   1      49.709  26.443  25.427  1.00  0.00     0.134 A 
ATOM     86  F   UNL A   1      49.689  25.528  28.943  1.00  0.00    -0.206 F 
ATOM     87  C   UNL A   1      51.399  25.352  27.345  1.00  0.00     0.040 A 
ATOM     88  C   UNL A   1      51.010  26.079  25.081  1.00  0.00     0.040 A 
ATOM     89  F   UNL A   1      48.929  26.980  24.477  1.00  0.00    -0.206 F 
ATOM     90  C   UNL A   1      51.862  25.539  26.044  1.00  0.00     0.006 A 
ENDBRANCH  66  83
ENDBRANCH  40  41
ENDBRANCH  33  35
ENDBRANCH  32  33
ENDBRANCH  31  32
ENDBRANCH  30  31
ENDBRANCH  29  30
ENDBRANCH  28  29
ENDBRANCH   1  28
TORSDOF 22
ENDMDL
MODEL 2
REMARK VINA RESULT:      -9.6      5.155     10.033
REMARK SMILES CCc1cc(OCC(=O)OCCOCCOCCOC(=O)c2ccc(-c3c4nc(c(-c5c(F)cccc5F)c5ccc([nH]5)c(-c5c(F)cccc5F)c5nc(c(-c6c(F)cccc6F)c6ccc3[nH]6)C=C5)C=C4)cc2)nc(Nc2ccc(C)c(F)c2)n1
REMARK SMILES IDX 14 1 13 2 12 3 11 4 10 5 8 6 9 7 7 8 6 9 5 10 3 11 4 12
REMARK SMILES IDX 87 13 77 14 76 15 2 16 1 17 78 18 79 20 80 21 86 22 81 23
REMARK SMILES IDX 84 24 82 25 85 26 83 27 15 28 16 29 17 30 18 31 19 32 20 33
REMARK SMILES IDX 21 34 22 35 23 36 75 37 24 38 74 39 25 40 26 41 27 42 68 43
REMARK SMILES IDX 28 44 73 45 67 46 69 47 29 48 72 49 66 50 65 51 30 53 56 54
REMARK SMILES IDX 39 55 55 56 40 57 43 58 54 59 70 60 41 61 42 62 53 64 71 65
REMARK SMILES IDX 44 66 31 67 32 68 37 69 33 70 34 71 36 72 38 73 35 74 57 75
REMARK SMILES IDX 58 76 63 77 59 78 60 79 62 80 64 81 61 82 45 83 46 84 51 85
REMARK SMILES IDX 47 86 48 87 50 88 52 89 49 90
REMARK H PARENT 78 19 69 52 43 63
REMARK Flexibility Score: inf
ROOT
ATOM      1  C   UNL A   1      36.889  20.577  25.004  1.00  0.00     0.188 C 
ENDROOT
BRANCH   1   2
ATOM      2  O   UNL A   1      35.792  19.746  24.626  1.00  0.00    -0.376 OA
BRANCH   2   3
ATOM      3  C   UNL A   1      36.035  18.341  24.626  1.00  0.00     0.202 C 
BRANCH   3   4
ATOM      4  C   UNL A   1      34.770  17.487  24.457  1.00  0.00     0.261 C 
BRANCH   4   5
ATOM      5  O   UNL A   1      33.665  18.269  23.943  1.00  0.00    -0.461 OA
BRANCH   5   6
ATOM      6  C   UNL A   1      32.573  18.385  24.751  1.00  0.00     0.344 C 
ATOM      7  O   UNL A   1      31.784  17.474  24.983  1.00  0.00    -0.248 OA
BRANCH   6   8
ATOM      8  C   UNL A   1      32.485  19.745  25.467  1.00  0.00     0.353 C 
BRANCH   8   9
ATOM      9  O   UNL A   1      32.071  20.848  24.670  1.00  0.00    -0.466 OA
BRANCH   9  10
ATOM     10  C   UNL A   1      32.307  22.100  25.209  1.00  0.00     0.218 A 
ATOM     11  C   UNL A   1      33.680  23.989  25.493  1.00  0.00     0.050 A 
ATOM     12  C   UNL A   1      33.578  22.649  25.202  1.00  0.00     0.092 A 
ATOM     13  N   UNL A   1      32.598  24.684  25.809  1.00  0.00    -0.218 NA
ATOM     14  C   UNL A   1      31.389  24.118  25.728  1.00  0.00     0.230 A 
ATOM     15  N   UNL A   1      31.195  22.815  25.484  1.00  0.00    -0.177 NA
BRANCH  11  16
ATOM     16  C   UNL A   1      34.906  24.845  25.385  1.00  0.00     0.053 C 
ATOM     17  C   UNL A   1      36.206  24.076  25.658  1.00  0.00     0.011 C 
ENDBRANCH  11  16
BRANCH  14  18
ATOM     18  N   UNL A   1      30.327  25.031  25.802  1.00  0.00    -0.324 N 
ATOM     19  H   UNL A   1      29.654  24.950  26.514  1.00  0.00     0.170 HD
BRANCH  18  20
ATOM     20  C   UNL A   1      30.229  26.069  24.846  1.00  0.00     0.044 A 
ATOM     21  C   UNL A   1      29.107  26.198  24.021  1.00  0.00     0.026 A 
ATOM     22  C   UNL A   1      31.101  27.167  24.959  1.00  0.00     0.065 A 
ATOM     23  C   UNL A   1      28.846  27.411  23.359  1.00  0.00     0.008 A 
ATOM     24  C   UNL A   1      30.838  28.361  24.301  1.00  0.00     0.128 A 
ATOM     25  C   UNL A   1      29.703  28.510  23.508  1.00  0.00    -0.015 A 
ATOM     26  F   UNL A   1      31.664  29.400  24.499  1.00  0.00    -0.207 F 
ATOM     27  C   UNL A   1      29.374  29.832  22.881  1.00  0.00     0.047 C 
ENDBRANCH  18  20
ENDBRANCH  14  18
ENDBRANCH   9  10
ENDBRANCH   8   9
ENDBRANCH   6   8
ENDBRANCH   5   6
ENDBRANCH   4   5
ENDBRANCH   3   4
ENDBRANCH   2   3
ENDBRANCH   1   2
BRANCH   1  28
ATOM     28  C   UNL A   1      38.268  19.908  25.048  1.00  0.00     0.188 C 
BRANCH  28  29
ATOM     29  O   UNL A   1      39.188  20.790  25.696  1.00  0.00    -0.376 OA
BRANCH  29  30
ATOM     30  C   UNL A   1      40.410  20.160  26.070  1.00  0.00     0.202 C 
BRANCH  30  31
ATOM     31  C   UNL A   1      41.592  21.151  26.132  1.00  0.00     0.261 C 
BRANCH  31  32
ATOM     32  O   UNL A   1      41.377  22.545  25.798  1.00  0.00    -0.460 OA
BRANCH  32  33
ATOM     33  C   UNL A   1      42.477  23.309  25.730  1.00  0.00     0.338 C 
ATOM     34  O   UNL A   1      43.309  23.293  24.841  1.00  0.00    -0.246 OA
BRANCH  33  35
ATOM     35  C   UNL A   1      42.688  24.206  26.880  1.00  0.00     0.060 A 
ATOM     36  C   UNL A   1      41.875  24.000  27.998  1.00  0.00     0.016 A 
ATOM     37  C   UNL A   1      43.330  25.433  26.700  1.00  0.00     0.016 A 
ATOM     38  C   UNL A   1      41.565  25.067  28.839  1.00  0.00     0.010 A 
ATOM     39  C   UNL A   1      43.094  26.476  27.608  1.00  0.00     0.010 A 
ATOM     40  C   UNL A   1      42.181  26.316  28.664  1.00  0.00    -0.014 A 
BRANCH  40  41
ATOM     41  C   UNL A   1      41.981  27.394  29.670  1.00  0.00     0.031 A 
ATOM     42  C   UNL A   1      42.747  27.459  30.964  1.00  0.00     0.074 A 
ATOM     43  C   UNL A   1      41.024  28.306  29.412  1.00  0.00     0.049 A 
ATOM     44  N   UNL A   1      42.500  28.183  32.029  1.00  0.00    -0.248 NA
ATOM     45  C   UNL A   1      43.947  26.616  31.082  1.00  0.00     0.031 C 
ATOM     46  C   UNL A   1      40.243  28.380  28.173  1.00  0.00     0.029 A 
ATOM     47  N   UNL A   1      40.520  29.322  30.182  1.00  0.00    -0.354 N 
ATOM     48  C   UNL A   1      43.486  27.861  32.957  1.00  0.00     0.074 A 
ATOM     49  C   UNL A   1      44.349  26.886  32.321  1.00  0.00     0.031 C 
ATOM     50  C   UNL A   1      39.355  29.373  28.270  1.00  0.00     0.029 A 
ATOM     51  C   UNL A   1      39.431  29.929  29.611  1.00  0.00     0.049 A 
ATOM     52  H   UNL A   1      40.899  29.586  31.051  1.00  0.00     0.167 HD
ATOM     53  C   UNL A   1      43.636  28.330  34.222  1.00  0.00     0.037 A 
ATOM     54  C   UNL A   1      38.521  30.775  30.124  1.00  0.00     0.037 A 
ATOM     55  C   UNL A   1      42.773  29.317  34.831  1.00  0.00     0.049 A 
ATOM     56  C   UNL A   1      38.660  31.218  31.540  1.00  0.00     0.074 A 
ATOM     57  C   UNL A   1      42.855  29.876  36.097  1.00  0.00     0.029 A 
ATOM     58  N   UNL A   1      41.668  29.892  34.218  1.00  0.00    -0.354 N 
ATOM     59  N   UNL A   1      39.563  30.872  32.423  1.00  0.00    -0.248 NA
ATOM     60  C   UNL A   1      37.653  32.163  32.034  1.00  0.00     0.031 C 
ATOM     61  C   UNL A   1      41.776  30.753  36.264  1.00  0.00     0.029 A 
ATOM     62  C   UNL A   1      41.047  30.777  35.087  1.00  0.00     0.049 A 
ATOM     63  H   UNL A   1      41.369  29.699  33.300  1.00  0.00     0.167 HD
ATOM     64  C   UNL A   1      39.244  31.567  33.578  1.00  0.00     0.074 A 
ATOM     65  C   UNL A   1      38.070  32.363  33.275  1.00  0.00     0.031 C 
ATOM     66  C   UNL A   1      39.870  31.548  34.779  1.00  0.00     0.037 A 
BRANCH  53  67
ATOM     67  C   UNL A   1      44.744  27.766  35.071  1.00  0.00     0.057 A 
ATOM     68  C   UNL A   1      44.603  26.574  35.790  1.00  0.00     0.134 A 
ATOM     69  C   UNL A   1      46.008  28.375  35.079  1.00  0.00     0.134 A 
ATOM     70  F   UNL A   1      43.424  25.936  35.827  1.00  0.00    -0.206 F 
ATOM     71  C   UNL A   1      45.676  26.012  36.491  1.00  0.00     0.040 A 
ATOM     72  C   UNL A   1      47.091  27.813  35.759  1.00  0.00     0.040 A 
ATOM     73  F   UNL A   1      46.219  29.512  34.399  1.00  0.00    -0.206 F 
ATOM     74  C   UNL A   1      46.926  26.627  36.469  1.00  0.00     0.006 A 
ENDBRANCH  53  67
BRANCH  54  75
ATOM     75  C   UNL A   1      37.380  31.185  29.274  1.00  0.00     0.057 A 
ATOM     76  C   UNL A   1      36.287  30.338  29.084  1.00  0.00     0.134 A 
ATOM     77  C   UNL A   1      37.309  32.478  28.737  1.00  0.00     0.134 A 
ATOM     78  F   UNL A   1      36.307  29.090  29.572  1.00  0.00    -0.206 F 
ATOM     79  C   UNL A   1      35.151  30.766  28.396  1.00  0.00     0.040 A 
ATOM     80  C   UNL A   1      36.170  32.927  28.072  1.00  0.00     0.040 A 
ATOM     81  F   UNL A   1      38.321  33.341  28.911  1.00  0.00    -0.206 F 
ATOM     82  C   UNL A   1      35.086  32.069  27.901  1.00  0.00     0.006 A 
ENDBRANCH  54  75
BRANCH  66  83
ATOM     83  C   UNL A   1      39.299  32.439  35.837  1.00  0.00     0.057 A 
ATOM     84  C   UNL A   1      39.776  33.740  36.036  1.00  0.00     0.134 A 
ATOM     85  C   UNL A   1      38.282  31.981  36.683  1.00  0.00     0.134 A 
ATOM     86  F   UNL A   1      40.765  34.227  35.272  1.00  0.00    -0.206 F 
ATOM     87  C   UNL A   1      39.281  34.546  37.063  1.00  0.00     0.040 A 
ATOM     88  C   UNL A   1      37.765  32.784  37.698  1.00  0.00     0.040 A 
ATOM     89  F   UNL A   1      37.784  30.743  36.542  1.00  0.00    -0.206 F 
ATOM     90  C   UNL A   1      38.271  34.069  37.896  1.00  0.00     0.006 A 
ENDBRANCH  66  83
ENDBRANCH  40  41
ENDBRANCH  33  35
ENDBRANCH  32  33
ENDBRANCH  31  32
ENDBRANCH  30  31
ENDBRANCH  29  30
ENDBRANCH  28  29
ENDBRANCH   1  28
TORSDOF 22
ENDMDL
MODEL 3
REMARK VINA RESULT:      -9.6      4.502      9.687
REMARK SMILES CCc1cc(OCC(=O)OCCOCCOCCOC(=O)c2ccc(-c3c4nc(c(-c5c(F)cccc5F)c5ccc([nH]5)c(-c5c(F)cccc5F)c5nc(c(-c6c(F)cccc6F)c6ccc3[nH]6)C=C5)C=C4)cc2)nc(Nc2ccc(C)c(F)c2)n1
REMARK SMILES IDX 14 1 13 2 12 3 11 4 10 5 8 6 9 7 7 8 6 9 5 10 3 11 4 12
REMARK SMILES IDX 87 13 77 14 76 15 2 16 1 17 78 18 79 20 80 21 86 22 81 23
REMARK SMILES IDX 84 24 82 25 85 26 83 27 15 28 16 29 17 30 18 31 19 32 20 33
REMARK SMILES IDX 21 34 22 35 23 36 75 37 24 38 74 39 25 40 26 41 27 42 68 43
REMARK SMILES IDX 28 44 73 45 67 46 69 47 29 48 72 49 66 50 65 51 30 53 56 54
REMARK SMILES IDX 39 55 55 56 40 57 43 58 54 59 70 60 41 61 42 62 53 64 71 65
REMARK SMILES IDX 44 66 31 67 32 68 37 69 33 70 34 71 36 72 38 73 35 74 57 75
REMARK SMILES IDX 58 76 63 77 59 78 60 79 62 80 64 81 61 82 45 83 46 84 51 85
REMARK SMILES IDX 47 86 48 87 50 88 52 89 49 90
REMARK H PARENT 78 19 69 52 43 63
REMARK Flexibility Score: inf
ROOT
ATOM      1  C   UNL A   1      33.267  36.753  29.928  1.00  0.00     0.188 C 
ENDROOT
BRANCH   1   2
ATOM      2  O   UNL A   1      32.557  37.209  31.080  1.00  0.00    -0.376 OA
BRANCH   2   3
ATOM      3  C   UNL A   1      33.352  37.578  32.206  1.00  0.00     0.202 C 
BRANCH   3   4
ATOM      4  C   UNL A   1      33.716  36.405  33.126  1.00  0.00     0.261 C 
BRANCH   4   5
ATOM      5  O   UNL A   1      35.144  36.163  33.140  1.00  0.00    -0.461 OA
BRANCH   5   6
ATOM      6  C   UNL A   1      35.546  34.895  33.440  1.00  0.00     0.344 C 
ATOM      7  O   UNL A   1      34.821  34.040  33.939  1.00  0.00    -0.248 OA
BRANCH   6   8
ATOM      8  C   UNL A   1      36.976  34.580  32.967  1.00  0.00     0.353 C 
BRANCH   8   9
ATOM      9  O   UNL A   1      38.025  34.933  33.862  1.00  0.00    -0.466 OA
BRANCH   9  10
ATOM     10  C   UNL A   1      39.132  34.104  33.844  1.00  0.00     0.218 A 
ATOM     11  C   UNL A   1      40.097  31.967  33.653  1.00  0.00     0.050 A 
ATOM     12  C   UNL A   1      38.996  32.731  33.961  1.00  0.00     0.092 A 
ATOM     13  N   UNL A   1      41.235  32.550  33.309  1.00  0.00    -0.218 NA
ATOM     14  C   UNL A   1      41.286  33.876  33.141  1.00  0.00     0.230 A 
ATOM     15  N   UNL A   1      40.277  34.701  33.447  1.00  0.00    -0.177 NA
BRANCH  11  16
ATOM     16  C   UNL A   1      40.153  30.473  33.538  1.00  0.00     0.053 C 
ATOM     17  C   UNL A   1      38.882  29.779  34.044  1.00  0.00     0.011 C 
ENDBRANCH  11  16
BRANCH  14  18
ATOM     18  N   UNL A   1      42.451  34.324  32.501  1.00  0.00    -0.324 N 
ATOM     19  H   UNL A   1      43.328  34.201  32.929  1.00  0.00     0.170 HD
BRANCH  18  20
ATOM     20  C   UNL A   1      42.357  34.952  31.238  1.00  0.00     0.044 A 
ATOM     21  C   UNL A   1      43.489  35.452  30.585  1.00  0.00     0.026 A 
ATOM     22  C   UNL A   1      41.182  34.771  30.486  1.00  0.00     0.065 A 
ATOM     23  C   UNL A   1      43.453  35.724  29.206  1.00  0.00     0.008 A 
ATOM     24  C   UNL A   1      41.154  35.043  29.124  1.00  0.00     0.128 A 
ATOM     25  C   UNL A   1      42.287  35.506  28.460  1.00  0.00    -0.015 A 
ATOM     26  F   UNL A   1      40.029  34.787  28.440  1.00  0.00    -0.207 F 
ATOM     27  C   UNL A   1      42.277  35.703  26.974  1.00  0.00     0.047 C 
ENDBRANCH  18  20
ENDBRANCH  14  18
ENDBRANCH   9  10
ENDBRANCH   8   9
ENDBRANCH   6   8
ENDBRANCH   5   6
ENDBRANCH   4   5
ENDBRANCH   3   4
ENDBRANCH   2   3
ENDBRANCH   1   2
BRANCH   1  28
ATOM     28  C   UNL A   1      32.930  35.342  29.434  1.00  0.00     0.188 C 
BRANCH  28  29
ATOM     29  O   UNL A   1      33.703  34.396  30.177  1.00  0.00    -0.376 OA
BRANCH  29  30
ATOM     30  C   UNL A   1      34.426  33.484  29.356  1.00  0.00     0.202 C 
BRANCH  30  31
ATOM     31  C   UNL A   1      35.114  32.370  30.173  1.00  0.00     0.261 C 
BRANCH  31  32
ATOM     32  O   UNL A   1      35.794  31.291  29.483  1.00  0.00    -0.460 OA
BRANCH  32  33
ATOM     33  C   UNL A   1      36.290  30.317  30.261  1.00  0.00     0.338 C 
ATOM     34  O   UNL A   1      35.859  29.976  31.347  1.00  0.00    -0.246 OA
BRANCH  33  35
ATOM     35  C   UNL A   1      37.497  29.653  29.738  1.00  0.00     0.060 A 
ATOM     36  C   UNL A   1      38.255  28.914  30.651  1.00  0.00     0.016 A 
ATOM     37  C   UNL A   1      38.074  30.091  28.544  1.00  0.00     0.016 A 
ATOM     38  C   UNL A   1      39.626  28.762  30.454  1.00  0.00     0.010 A 
ATOM     39  C   UNL A   1      39.434  29.847  28.304  1.00  0.00     0.010 A 
ATOM     40  C   UNL A   1      40.233  29.214  29.271  1.00  0.00    -0.014 A 
BRANCH  40  41
ATOM     41  C   UNL A   1      41.658  28.890  28.992  1.00  0.00     0.031 A 
ATOM     42  C   UNL A   1      42.742  29.934  28.950  1.00  0.00     0.074 A 
ATOM     43  C   UNL A   1      41.953  27.606  28.712  1.00  0.00     0.049 A 
ATOM     44  N   UNL A   1      43.960  29.833  28.474  1.00  0.00    -0.248 NA
ATOM     45  C   UNL A   1      42.431  31.255  29.516  1.00  0.00     0.031 C 
ATOM     46  C   UNL A   1      41.001  26.492  28.766  1.00  0.00     0.029 A 
ATOM     47  N   UNL A   1      43.121  27.024  28.295  1.00  0.00    -0.354 N 
ATOM     48  C   UNL A   1      44.551  31.081  28.648  1.00  0.00     0.074 A 
ATOM     49  C   UNL A   1      43.560  31.921  29.292  1.00  0.00     0.031 C 
ATOM     50  C   UNL A   1      41.615  25.368  28.387  1.00  0.00     0.029 A 
ATOM     51  C   UNL A   1      42.964  25.703  27.960  1.00  0.00     0.049 A 
ATOM     52  H   UNL A   1      43.980  27.502  28.240  1.00  0.00     0.167 HD
ATOM     53  C   UNL A   1      45.798  31.479  28.288  1.00  0.00     0.037 A 
ATOM     54  C   UNL A   1      43.771  24.857  27.298  1.00  0.00     0.037 A 
ATOM     55  C   UNL A   1      46.777  30.618  27.663  1.00  0.00     0.049 A 
ATOM     56  C   UNL A   1      45.106  25.337  26.841  1.00  0.00     0.074 A 
ATOM     57  C   UNL A   1      48.075  30.918  27.281  1.00  0.00     0.029 A 
ATOM     58  N   UNL A   1      46.566  29.288  27.327  1.00  0.00    -0.354 N 
ATOM     59  N   UNL A   1      45.636  26.528  26.965  1.00  0.00    -0.248 NA
ATOM     60  C   UNL A   1      45.953  24.360  26.148  1.00  0.00     0.031 C 
ATOM     61  C   UNL A   1      48.631  29.786  26.674  1.00  0.00     0.029 A 
ATOM     62  C   UNL A   1      47.697  28.764  26.720  1.00  0.00     0.049 A 
ATOM     63  H   UNL A   1      45.733  28.790  27.494  1.00  0.00     0.167 HD
ATOM     64  C   UNL A   1      46.888  26.444  26.378  1.00  0.00     0.074 A 
ATOM     65  C   UNL A   1      47.039  25.080  25.908  1.00  0.00     0.031 C 
ATOM     66  C   UNL A   1      47.827  27.411  26.243  1.00  0.00     0.037 A 
BRANCH  53  67
ATOM     67  C   UNL A   1      46.185  32.916  28.509  1.00  0.00     0.057 A 
ATOM     68  C   UNL A   1      46.750  33.363  29.709  1.00  0.00     0.134 A 
ATOM     69  C   UNL A   1      46.088  33.844  27.461  1.00  0.00     0.134 A 
ATOM     70  F   UNL A   1      46.876  32.531  30.754  1.00  0.00    -0.206 F 
ATOM     71  C   UNL A   1      47.198  34.680  29.861  1.00  0.00     0.040 A 
ATOM     72  C   UNL A   1      46.550  35.155  27.595  1.00  0.00     0.040 A 
ATOM     73  F   UNL A   1      45.570  33.481  26.278  1.00  0.00    -0.206 F 
ATOM     74  C   UNL A   1      47.108  35.577  28.799  1.00  0.00     0.006 A 
ENDBRANCH  53  67
BRANCH  54  75
ATOM     75  C   UNL A   1      43.273  23.496  26.995  1.00  0.00     0.057 A 
ATOM     76  C   UNL A   1      43.167  22.531  27.998  1.00  0.00     0.134 A 
ATOM     77  C   UNL A   1      42.779  23.175  25.722  1.00  0.00     0.134 A 
ATOM     78  F   UNL A   1      43.629  22.786  29.230  1.00  0.00    -0.206 F 
ATOM     79  C   UNL A   1      42.575  21.292  27.751  1.00  0.00     0.040 A 
ATOM     80  C   UNL A   1      42.162  21.952  25.469  1.00  0.00     0.040 A 
ATOM     81  F   UNL A   1      42.833  24.074  24.728  1.00  0.00    -0.206 F 
ATOM     82  C   UNL A   1      42.058  21.007  26.487  1.00  0.00     0.006 A 
ENDBRANCH  54  75
BRANCH  66  83
ATOM     83  C   UNL A   1      49.106  27.004  25.580  1.00  0.00     0.057 A 
ATOM     84  C   UNL A   1      50.171  26.465  26.311  1.00  0.00     0.134 A 
ATOM     85  C   UNL A   1      49.283  27.180  24.202  1.00  0.00     0.134 A 
ATOM     86  F   UNL A   1      50.070  26.295  27.637  1.00  0.00    -0.206 F 
ATOM     87  C   UNL A   1      51.383  26.142  25.697  1.00  0.00     0.040 A 
ATOM     88  C   UNL A   1      50.481  26.840  23.575  1.00  0.00     0.040 A 
ATOM     89  F   UNL A   1      48.298  27.691  23.449  1.00  0.00    -0.206 F 
ATOM     90  C   UNL A   1      51.539  26.327  24.325  1.00  0.00     0.006 A 
ENDBRANCH  66  83
ENDBRANCH  40  41
ENDBRANCH  33  35
ENDBRANCH  32  33
ENDBRANCH  31  32
ENDBRANCH  30  31
ENDBRANCH  29  30
ENDBRANCH  28  29
ENDBRANCH   1  28
TORSDOF 22
ENDMDL
