MODEL 1
REMARK VINA RESULT:     -10.7      0.000      0.000
REMARK SMILES Cc1cc([N+](=O)[O-])ccc1-c1ccc(/C=C/C(=O)Nc2ccc(O)c(C(=O)OCCOCCOCCOC(=O)c3ccc(-c4c5nc(c(-c6c(F)cccc6F)c6ccc([nH]6)c(-c6c(F)cccc6F)c6nc(c(-c7c(F)cccc7F)c7ccc4[nH]7)C=C6)C=C5)cc3)c2)o1
REMARK SMILES IDX 31 1 30 2 29 3 28 4 26 5 27 6 25 7 20 8 21 9 94 10 22 11
REMARK SMILES IDX 23 12 19 13 17 14 18 15 16 17 15 18 14 19 11 20 12 21 95 22
REMARK SMILES IDX 13 23 10 24 1 25 2 26 3 27 4 28 9 29 8 30 5 31 6 32 7 33
REMARK SMILES IDX 24 34 32 36 33 37 34 38 35 39 36 40 37 41 38 42 39 43 40 44
REMARK SMILES IDX 41 45 93 46 42 47 92 48 43 49 44 50 45 51 86 52 46 53 91 54
REMARK SMILES IDX 85 55 87 56 47 57 90 58 84 59 83 60 48 62 74 63 57 64 73 65
REMARK SMILES IDX 58 66 61 67 72 68 88 69 59 70 60 71 71 73 89 74 62 75 49 76
REMARK SMILES IDX 50 77 55 78 51 79 52 80 54 81 56 82 53 83 75 84 76 85 81 86
REMARK SMILES IDX 77 87 78 88 80 89 82 90 79 91 63 92 64 93 69 94 65 95 66 96
REMARK SMILES IDX 68 97 70 98 67 99
REMARK H PARENT 19 16 24 35 87 61 61 72
REMARK Flexibility Score: inf
ROOT
ATOM      1  O   UNL A   1      30.221  31.607  24.402  1.00  0.00    -0.376 OA
ENDROOT
BRANCH   1   2
ATOM      2  C   UNL A   1      29.123  30.921  23.792  1.00  0.00     0.202 C 
BRANCH   2   3
ATOM      3  C   UNL A   1      29.436  29.452  23.377  1.00  0.00     0.261 C 
BRANCH   3   4
ATOM      4  O   UNL A   1      30.734  29.295  22.720  1.00  0.00    -0.460 OA
BRANCH   4   5
ATOM      5  C   UNL A   1      31.627  28.492  23.353  1.00  0.00     0.342 C 
ATOM      6  O   UNL A   1      32.727  28.846  23.756  1.00  0.00    -0.246 OA
BRANCH   5   7
ATOM      7  C   UNL A   1      31.236  27.051  23.425  1.00  0.00     0.103 A 
ATOM      8  C   UNL A   1      30.710  25.050  24.777  1.00  0.00     0.042 A 
ATOM      9  C   UNL A   1      30.889  24.251  23.655  1.00  0.00     0.030 A 
ATOM     10  C   UNL A   1      30.883  26.435  24.633  1.00  0.00     0.045 A 
ATOM     11  C   UNL A   1      31.224  24.841  22.429  1.00  0.00     0.049 A 
ATOM     12  C   UNL A   1      31.412  26.225  22.319  1.00  0.00     0.130 A 
BRANCH   8  13
ATOM     13  N   UNL A   1      30.320  24.547  26.040  1.00  0.00    -0.322 N 
ATOM     14  C   UNL A   1      30.546  23.315  26.617  1.00  0.00     0.248 C 
ATOM     15  O   UNL A   1      29.980  22.964  27.646  1.00  0.00    -0.270 OA
ATOM     16  H   UNL A   1      29.807  25.176  26.596  1.00  0.00     0.170 HD
BRANCH  14  17
ATOM     17  C   UNL A   1      31.681  22.547  26.073  1.00  0.00     0.075 C 
ATOM     18  C   UNL A   1      32.872  22.880  26.590  1.00  0.00     0.053 C 
BRANCH  18  19
ATOM     19  C   UNL A   1      34.042  22.658  25.829  1.00  0.00     0.127 A 
ATOM     20  C   UNL A   1      36.104  22.106  25.273  1.00  0.00     0.135 A 
ATOM     21  C   UNL A   1      35.543  22.646  24.140  1.00  0.00     0.051 A 
ATOM     22  O   UNL A   1      35.202  22.091  26.293  1.00  0.00    -0.457 OA
ATOM     23  C   UNL A   1      34.231  23.008  24.497  1.00  0.00     0.051 A 
BRANCH  20  24
ATOM     24  C   UNL A   1      37.433  21.610  25.570  1.00  0.00     0.021 A 
ATOM     25  C   UNL A   1      38.167  23.899  26.448  1.00  0.00     0.045 C 
ATOM     26  C   UNL A   1      38.433  22.460  26.089  1.00  0.00    -0.033 A 
ATOM     27  C   UNL A   1      39.742  21.968  26.232  1.00  0.00     0.089 A 
ATOM     28  C   UNL A   1      40.039  20.641  25.893  1.00  0.00     0.269 A 
ATOM     29  C   UNL A   1      37.740  20.275  25.261  1.00  0.00     0.019 A 
ATOM     30  C   UNL A   1      39.039  19.786  25.419  1.00  0.00     0.086 A 
BRANCH  28  31
ATOM     31  N   UNL A   1      41.417  20.151  26.020  1.00  0.00     0.062 N 
ATOM     32  O   UNL A   1      41.679  19.037  25.544  1.00  0.00    -0.258 OA
ATOM     33  O   UNL A   1      42.236  20.876  26.603  1.00  0.00    -0.258 OA
ENDBRANCH  28  31
ENDBRANCH  20  24
ENDBRANCH  18  19
ENDBRANCH  14  17
ENDBRANCH   8  13
BRANCH  12  34
ATOM     34  O   UNL A   1      31.784  26.699  21.093  1.00  0.00    -0.507 OA
ATOM     35  H   UNL A   1      32.650  27.034  20.965  1.00  0.00     0.293 HD
ENDBRANCH  12  34
ENDBRANCH   5   7
ENDBRANCH   4   5
ENDBRANCH   3   4
ENDBRANCH   2   3
ENDBRANCH   1   2
BRANCH   1  36
ATOM     36  C   UNL A   1      30.711  31.262  25.703  1.00  0.00     0.188 C 
BRANCH  36  37
ATOM     37  C   UNL A   1      31.458  32.268  26.592  1.00  0.00     0.188 C 
BRANCH  37  38
ATOM     38  O   UNL A   1      32.621  31.669  27.149  1.00  0.00    -0.376 OA
BRANCH  38  39
ATOM     39  C   UNL A   1      33.402  32.490  28.014  1.00  0.00     0.202 C 
BRANCH  39  40
ATOM     40  C   UNL A   1      34.904  32.378  27.701  1.00  0.00     0.261 C 
BRANCH  40  41
ATOM     41  O   UNL A   1      35.353  31.039  28.002  1.00  0.00    -0.460 OA
BRANCH  41  42
ATOM     42  C   UNL A   1      36.050  30.896  29.157  1.00  0.00     0.338 C 
ATOM     43  O   UNL A   1      35.990  31.662  30.121  1.00  0.00    -0.246 OA
BRANCH  42  44
ATOM     44  C   UNL A   1      37.087  29.835  29.011  1.00  0.00     0.060 A 
ATOM     45  C   UNL A   1      37.333  28.875  30.009  1.00  0.00     0.016 A 
ATOM     46  C   UNL A   1      38.015  29.975  27.999  1.00  0.00     0.016 A 
ATOM     47  C   UNL A   1      38.560  28.163  30.049  1.00  0.00     0.010 A 
ATOM     48  C   UNL A   1      39.251  29.380  28.154  1.00  0.00     0.010 A 
ATOM     49  C   UNL A   1      39.573  28.475  29.151  1.00  0.00    -0.014 A 
BRANCH  49  50
ATOM     50  C   UNL A   1      41.021  28.165  29.164  1.00  0.00     0.031 A 
ATOM     51  C   UNL A   1      41.601  26.911  28.597  1.00  0.00     0.074 A 
ATOM     52  C   UNL A   1      41.863  29.204  29.323  1.00  0.00     0.049 A 
ATOM     53  N   UNL A   1      42.438  26.848  27.606  1.00  0.00    -0.248 NA
ATOM     54  C   UNL A   1      41.233  25.605  29.147  1.00  0.00     0.031 C 
ATOM     55  C   UNL A   1      43.300  29.240  29.101  1.00  0.00     0.029 A 
ATOM     56  N   UNL A   1      41.592  30.374  30.031  1.00  0.00    -0.354 N 
ATOM     57  C   UNL A   1      42.792  25.524  27.421  1.00  0.00     0.074 A 
ATOM     58  C   UNL A   1      41.927  24.784  28.351  1.00  0.00     0.031 C 
ATOM     59  C   UNL A   1      43.827  30.104  29.983  1.00  0.00     0.029 A 
ATOM     60  C   UNL A   1      42.742  30.572  30.834  1.00  0.00     0.049 A 
ATOM     61  H   UNL A   1      40.785  30.935  29.984  1.00  0.00     0.167 HD
ATOM     62  C   UNL A   1      44.103  25.149  27.350  1.00  0.00     0.037 A 
ATOM     63  C   UNL A   1      42.603  30.330  32.172  1.00  0.00     0.037 A 
ATOM     64  C   UNL A   1      44.951  25.764  28.342  1.00  0.00     0.049 A 
ATOM     65  C   UNL A   1      43.247  29.025  32.617  1.00  0.00     0.074 A 
ATOM     66  C   UNL A   1      45.934  26.733  28.380  1.00  0.00     0.029 A 
ATOM     67  N   UNL A   1      44.713  25.415  29.651  1.00  0.00    -0.354 N 
ATOM     68  N   UNL A   1      44.023  28.291  31.863  1.00  0.00    -0.248 NA
ATOM     69  C   UNL A   1      43.011  28.397  33.921  1.00  0.00     0.031 C 
ATOM     70  C   UNL A   1      46.176  27.050  29.757  1.00  0.00     0.029 A 
ATOM     71  C   UNL A   1      45.363  26.243  30.533  1.00  0.00     0.049 A 
ATOM     72  H   UNL A   1      44.145  24.659  29.925  1.00  0.00     0.167 HD
ATOM     73  C   UNL A   1      44.325  27.125  32.512  1.00  0.00     0.074 A 
ATOM     74  C   UNL A   1      43.689  27.242  33.807  1.00  0.00     0.031 C 
ATOM     75  C   UNL A   1      45.030  26.112  31.938  1.00  0.00     0.037 A 
BRANCH  62  76
ATOM     76  C   UNL A   1      44.528  24.226  26.245  1.00  0.00     0.057 A 
ATOM     77  C   UNL A   1      43.673  23.895  25.179  1.00  0.00     0.134 A 
ATOM     78  C   UNL A   1      45.788  23.595  26.222  1.00  0.00     0.134 A 
ATOM     79  F   UNL A   1      42.460  24.451  25.062  1.00  0.00    -0.206 F 
ATOM     80  C   UNL A   1      44.031  22.970  24.187  1.00  0.00     0.040 A 
ATOM     81  C   UNL A   1      46.151  22.658  25.246  1.00  0.00     0.040 A 
ATOM     82  F   UNL A   1      46.726  23.885  27.135  1.00  0.00    -0.206 F 
ATOM     83  C   UNL A   1      45.268  22.338  24.226  1.00  0.00     0.006 A 
ENDBRANCH  62  76
BRANCH  63  84
ATOM     84  C   UNL A   1      41.338  30.952  32.681  1.00  0.00     0.057 A 
ATOM     85  C   UNL A   1      41.303  32.363  32.769  1.00  0.00     0.134 A 
ATOM     86  C   UNL A   1      40.105  30.300  32.711  1.00  0.00     0.134 A 
ATOM     87  F   UNL A   1      42.446  33.068  32.745  1.00  0.00    -0.206 F 
ATOM     88  C   UNL A   1      40.108  33.087  32.729  1.00  0.00     0.040 A 
ATOM     89  C   UNL A   1      38.897  31.017  32.715  1.00  0.00     0.040 A 
ATOM     90  F   UNL A   1      40.028  28.966  32.596  1.00  0.00    -0.206 F 
ATOM     91  C   UNL A   1      38.898  32.411  32.672  1.00  0.00     0.006 A 
ENDBRANCH  63  84
BRANCH  75  92
ATOM     92  C   UNL A   1      45.428  24.884  32.694  1.00  0.00     0.057 A 
ATOM     93  C   UNL A   1      44.571  23.780  32.762  1.00  0.00     0.134 A 
ATOM     94  C   UNL A   1      46.581  24.832  33.496  1.00  0.00     0.134 A 
ATOM     95  F   UNL A   1      43.443  23.747  32.037  1.00  0.00    -0.206 F 
ATOM     96  C   UNL A   1      44.835  22.690  33.596  1.00  0.00     0.040 A 
ATOM     97  C   UNL A   1      46.840  23.766  34.360  1.00  0.00     0.040 A 
ATOM     98  F   UNL A   1      47.498  25.813  33.461  1.00  0.00    -0.206 F 
ATOM     99  C   UNL A   1      45.961  22.691  34.413  1.00  0.00     0.006 A 
ENDBRANCH  75  92
ENDBRANCH  49  50
ENDBRANCH  42  44
ENDBRANCH  41  42
ENDBRANCH  40  41
ENDBRANCH  39  40
ENDBRANCH  38  39
ENDBRANCH  37  38
ENDBRANCH  36  37
ENDBRANCH   1  36
TORSDOF 23
ENDMDL
MODEL 2
REMARK VINA RESULT:     -10.7      2.549      5.063
REMARK SMILES Cc1cc([N+](=O)[O-])ccc1-c1ccc(/C=C/C(=O)Nc2ccc(O)c(C(=O)OCCOCCOCCOC(=O)c3ccc(-c4c5nc(c(-c6c(F)cccc6F)c6ccc([nH]6)c(-c6c(F)cccc6F)c6nc(c(-c7c(F)cccc7F)c7ccc4[nH]7)C=C6)C=C5)cc3)c2)o1
REMARK SMILES IDX 31 1 30 2 29 3 28 4 26 5 27 6 25 7 20 8 21 9 94 10 22 11
REMARK SMILES IDX 23 12 19 13 17 14 18 15 16 17 15 18 14 19 11 20 12 21 95 22
REMARK SMILES IDX 13 23 10 24 1 25 2 26 3 27 4 28 9 29 8 30 5 31 6 32 7 33
REMARK SMILES IDX 24 34 32 36 33 37 34 38 35 39 36 40 37 41 38 42 39 43 40 44
REMARK SMILES IDX 41 45 93 46 42 47 92 48 43 49 44 50 45 51 86 52 46 53 91 54
REMARK SMILES IDX 85 55 87 56 47 57 90 58 84 59 83 60 48 62 74 63 57 64 73 65
REMARK SMILES IDX 58 66 61 67 72 68 88 69 59 70 60 71 71 73 89 74 62 75 49 76
REMARK SMILES IDX 50 77 55 78 51 79 52 80 54 81 56 82 53 83 75 84 76 85 81 86
REMARK SMILES IDX 77 87 78 88 80 89 82 90 79 91 63 92 64 93 69 94 65 95 66 96
REMARK SMILES IDX 68 97 70 98 67 99
REMARK H PARENT 19 16 24 35 87 61 61 72
REMARK Flexibility Score: inf
ROOT
ATOM      1  O   UNL A   1      32.983  27.678  22.707  1.00  0.00    -0.376 OA
ENDROOT
BRANCH   1   2
ATOM      2  C   UNL A   1      32.006  26.873  22.040  1.00  0.00     0.202 C 
BRANCH   2   3
ATOM      3  C   UNL A   1      32.603  25.689  21.221  1.00  0.00     0.261 C 
BRANCH   3   4
ATOM      4  O   UNL A   1      33.608  24.920  21.956  1.00  0.00    -0.460 OA
BRANCH   4   5
ATOM      5  C   UNL A   1      33.142  23.864  22.669  1.00  0.00     0.342 C 
ATOM      6  O   UNL A   1      32.116  23.245  22.419  1.00  0.00    -0.246 OA
BRANCH   5   7
ATOM      7  C   UNL A   1      33.911  23.557  23.913  1.00  0.00     0.103 A 
ATOM      8  C   UNL A   1      35.099  21.921  25.335  1.00  0.00     0.042 A 
ATOM      9  C   UNL A   1      35.022  22.802  26.405  1.00  0.00     0.030 A 
ATOM     10  C   UNL A   1      34.546  22.322  24.110  1.00  0.00     0.045 A 
ATOM     11  C   UNL A   1      34.411  24.051  26.233  1.00  0.00     0.049 A 
ATOM     12  C   UNL A   1      33.847  24.417  25.004  1.00  0.00     0.130 A 
BRANCH   8  13
ATOM     13  N   UNL A   1      35.745  20.663  25.404  1.00  0.00    -0.322 N 
ATOM     14  C   UNL A   1      37.028  20.301  25.057  1.00  0.00     0.248 C 
ATOM     15  O   UNL A   1      37.381  19.128  24.999  1.00  0.00    -0.270 OA
ATOM     16  H   UNL A   1      35.189  19.932  25.757  1.00  0.00     0.170 HD
BRANCH  14  17
ATOM     17  C   UNL A   1      38.015  21.396  25.002  1.00  0.00     0.075 C 
ATOM     18  C   UNL A   1      39.143  21.158  25.686  1.00  0.00     0.053 C 
BRANCH  18  19
ATOM     19  C   UNL A   1      39.897  22.249  26.173  1.00  0.00     0.127 A 
ATOM     20  C   UNL A   1      41.513  23.729  26.425  1.00  0.00     0.135 A 
ATOM     21  C   UNL A   1      40.621  23.972  27.443  1.00  0.00     0.051 A 
ATOM     22  O   UNL A   1      41.078  22.703  25.642  1.00  0.00    -0.457 OA
ATOM     23  C   UNL A   1      39.595  23.022  27.288  1.00  0.00     0.051 A 
BRANCH  20  24
ATOM     24  C   UNL A   1      42.792  24.317  26.080  1.00  0.00     0.021 A 
ATOM     25  C   UNL A   1      41.827  26.682  26.235  1.00  0.00     0.045 C 
ATOM     26  C   UNL A   1      42.944  25.714  25.945  1.00  0.00    -0.033 A 
ATOM     27  C   UNL A   1      44.166  26.227  25.476  1.00  0.00     0.089 A 
ATOM     28  C   UNL A   1      45.228  25.361  25.178  1.00  0.00     0.269 A 
ATOM     29  C   UNL A   1      43.874  23.466  25.803  1.00  0.00     0.019 A 
ATOM     30  C   UNL A   1      45.091  23.980  25.351  1.00  0.00     0.086 A 
BRANCH  28  31
ATOM     31  N   UNL A   1      46.487  25.910  24.661  1.00  0.00     0.062 N 
ATOM     32  O   UNL A   1      47.484  25.174  24.671  1.00  0.00    -0.258 OA
ATOM     33  O   UNL A   1      46.482  27.080  24.252  1.00  0.00    -0.258 OA
ENDBRANCH  28  31
ENDBRANCH  20  24
ENDBRANCH  18  19
ENDBRANCH  14  17
ENDBRANCH   8  13
BRANCH  12  34
ATOM     34  O   UNL A   1      33.230  25.635  24.951  1.00  0.00    -0.507 OA
ATOM     35  H   UNL A   1      32.911  26.033  25.737  1.00  0.00     0.293 HD
ENDBRANCH  12  34
ENDBRANCH   5   7
ENDBRANCH   4   5
ENDBRANCH   3   4
ENDBRANCH   2   3
ENDBRANCH   1   2
BRANCH   1  36
ATOM     36  C   UNL A   1      32.621  28.742  23.595  1.00  0.00     0.188 C 
BRANCH  36  37
ATOM     37  C   UNL A   1      31.158  29.066  23.935  1.00  0.00     0.188 C 
BRANCH  37  38
ATOM     38  O   UNL A   1      31.093  30.021  24.986  1.00  0.00    -0.376 OA
BRANCH  38  39
ATOM     39  C   UNL A   1      31.751  29.670  26.200  1.00  0.00     0.202 C 
BRANCH  39  40
ATOM     40  C   UNL A   1      32.373  30.899  26.885  1.00  0.00     0.261 C 
BRANCH  40  41
ATOM     41  O   UNL A   1      33.532  30.487  27.641  1.00  0.00    -0.460 OA
BRANCH  41  42
ATOM     42  C   UNL A   1      34.338  31.488  28.077  1.00  0.00     0.338 C 
ATOM     43  O   UNL A   1      33.989  32.657  28.248  1.00  0.00    -0.246 OA
BRANCH  42  44
ATOM     44  C   UNL A   1      35.761  31.044  28.081  1.00  0.00     0.060 A 
ATOM     45  C   UNL A   1      36.134  29.700  28.257  1.00  0.00     0.016 A 
ATOM     46  C   UNL A   1      36.739  32.012  28.200  1.00  0.00     0.016 A 
ATOM     47  C   UNL A   1      37.447  29.355  28.674  1.00  0.00     0.010 A 
ATOM     48  C   UNL A   1      37.954  31.656  28.749  1.00  0.00     0.010 A 
ATOM     49  C   UNL A   1      38.354  30.355  29.003  1.00  0.00    -0.014 A 
BRANCH  49  50
ATOM     50  C   UNL A   1      39.623  30.310  29.766  1.00  0.00     0.031 A 
ATOM     51  C   UNL A   1      40.600  29.184  29.677  1.00  0.00     0.074 A 
ATOM     52  C   UNL A   1      40.092  31.482  30.233  1.00  0.00     0.049 A 
ATOM     53  N   UNL A   1      41.822  29.277  29.247  1.00  0.00    -0.248 NA
ATOM     54  C   UNL A   1      40.215  27.830  30.081  1.00  0.00     0.031 C 
ATOM     55  C   UNL A   1      41.417  31.778  30.758  1.00  0.00     0.029 A 
ATOM     56  N   UNL A   1      39.319  32.582  30.606  1.00  0.00    -0.354 N 
ATOM     57  C   UNL A   1      42.424  28.039  29.380  1.00  0.00     0.074 A 
ATOM     58  C   UNL A   1      41.336  27.151  29.814  1.00  0.00     0.031 C 
ATOM     59  C   UNL A   1      41.279  32.719  31.706  1.00  0.00     0.029 A 
ATOM     60  C   UNL A   1      39.855  32.979  31.855  1.00  0.00     0.049 A 
ATOM     61  H   UNL A   1      38.571  32.988  30.113  1.00  0.00     0.167 HD
ATOM     62  C   UNL A   1      43.630  27.907  30.007  1.00  0.00     0.037 A 
ATOM     63  C   UNL A   1      39.095  32.710  32.960  1.00  0.00     0.037 A 
ATOM     64  C   UNL A   1      43.748  28.660  31.233  1.00  0.00     0.049 A 
ATOM     65  C   UNL A   1      39.621  31.540  33.780  1.00  0.00     0.074 A 
ATOM     66  C   UNL A   1      44.409  29.790  31.673  1.00  0.00     0.029 A 
ATOM     67  N   UNL A   1      42.937  28.267  32.272  1.00  0.00    -0.354 N 
ATOM     68  N   UNL A   1      40.776  30.961  33.582  1.00  0.00    -0.248 NA
ATOM     69  C   UNL A   1      38.858  30.873  34.839  1.00  0.00     0.031 C 
ATOM     70  C   UNL A   1      43.864  30.138  32.952  1.00  0.00     0.029 A 
ATOM     71  C   UNL A   1      42.909  29.194  33.284  1.00  0.00     0.049 A 
ATOM     72  H   UNL A   1      42.435  27.420  32.289  1.00  0.00     0.167 HD
ATOM     73  C   UNL A   1      40.886  29.866  34.393  1.00  0.00     0.074 A 
ATOM     74  C   UNL A   1      39.672  29.859  35.180  1.00  0.00     0.031 C 
ATOM     75  C   UNL A   1      41.934  28.999  34.339  1.00  0.00     0.037 A 
BRANCH  62  76
ATOM     76  C   UNL A   1      44.696  27.081  29.348  1.00  0.00     0.057 A 
ATOM     77  C   UNL A   1      44.719  25.679  29.444  1.00  0.00     0.134 A 
ATOM     78  C   UNL A   1      45.767  27.651  28.631  1.00  0.00     0.134 A 
ATOM     79  F   UNL A   1      43.742  25.007  30.068  1.00  0.00    -0.206 F 
ATOM     80  C   UNL A   1      45.755  24.905  28.902  1.00  0.00     0.040 A 
ATOM     81  C   UNL A   1      46.816  26.891  28.099  1.00  0.00     0.040 A 
ATOM     82  F   UNL A   1      45.821  28.970  28.398  1.00  0.00    -0.206 F 
ATOM     83  C   UNL A   1      46.816  25.511  28.239  1.00  0.00     0.006 A 
ENDBRANCH  62  76
BRANCH  63  84
ATOM     84  C   UNL A   1      37.668  33.091  32.712  1.00  0.00     0.057 A 
ATOM     85  C   UNL A   1      36.770  32.049  32.382  1.00  0.00     0.134 A 
ATOM     86  C   UNL A   1      37.094  34.289  33.139  1.00  0.00     0.134 A 
ATOM     87  F   UNL A   1      37.240  30.862  31.964  1.00  0.00    -0.206 F 
ATOM     88  C   UNL A   1      35.395  32.144  32.615  1.00  0.00     0.040 A 
ATOM     89  C   UNL A   1      35.709  34.410  33.334  1.00  0.00     0.040 A 
ATOM     90  F   UNL A   1      37.861  35.325  33.509  1.00  0.00    -0.206 F 
ATOM     91  C   UNL A   1      34.864  33.321  33.121  1.00  0.00     0.006 A 
ENDBRANCH  63  84
BRANCH  75  92
ATOM     92  C   UNL A   1      42.082  27.859  35.297  1.00  0.00     0.057 A 
ATOM     93  C   UNL A   1      42.999  27.928  36.352  1.00  0.00     0.134 A 
ATOM     94  C   UNL A   1      41.446  26.621  35.100  1.00  0.00     0.134 A 
ATOM     95  F   UNL A   1      43.659  29.068  36.608  1.00  0.00    -0.206 F 
ATOM     96  C   UNL A   1      43.283  26.822  37.157  1.00  0.00     0.040 A 
ATOM     97  C   UNL A   1      41.746  25.498  35.876  1.00  0.00     0.040 A 
ATOM     98  F   UNL A   1      40.506  26.464  34.154  1.00  0.00    -0.206 F 
ATOM     99  C   UNL A   1      42.671  25.598  36.907  1.00  0.00     0.006 A 
ENDBRANCH  75  92
ENDBRANCH  49  50
ENDBRANCH  42  44
ENDBRANCH  41  42
ENDBRANCH  40  41
ENDBRANCH  39  40
ENDBRANCH  38  39
ENDBRANCH  37  38
ENDBRANCH  36  37
ENDBRANCH   1  36
TORSDOF 23
ENDMDL
MODEL 3
REMARK VINA RESULT:     -10.6      1.909      2.858
REMARK SMILES Cc1cc([N+](=O)[O-])ccc1-c1ccc(/C=C/C(=O)Nc2ccc(O)c(C(=O)OCCOCCOCCOC(=O)c3ccc(-c4c5nc(c(-c6c(F)cccc6F)c6ccc([nH]6)c(-c6c(F)cccc6F)c6nc(c(-c7c(F)cccc7F)c7ccc4[nH]7)C=C6)C=C5)cc3)c2)o1
REMARK SMILES IDX 31 1 30 2 29 3 28 4 26 5 27 6 25 7 20 8 21 9 94 10 22 11
REMARK SMILES IDX 23 12 19 13 17 14 18 15 16 17 15 18 14 19 11 20 12 21 95 22
REMARK SMILES IDX 13 23 10 24 1 25 2 26 3 27 4 28 9 29 8 30 5 31 6 32 7 33
REMARK SMILES IDX 24 34 32 36 33 37 34 38 35 39 36 40 37 41 38 42 39 43 40 44
REMARK SMILES IDX 41 45 93 46 42 47 92 48 43 49 44 50 45 51 86 52 46 53 91 54
REMARK SMILES IDX 85 55 87 56 47 57 90 58 84 59 83 60 48 62 74 63 57 64 73 65
REMARK SMILES IDX 58 66 61 67 72 68 88 69 59 70 60 71 71 73 89 74 62 75 49 76
REMARK SMILES IDX 50 77 55 78 51 79 52 80 54 81 56 82 53 83 75 84 76 85 81 86
REMARK SMILES IDX 77 87 78 88 80 89 82 90 79 91 63 92 64 93 69 94 65 95 66 96
REMARK SMILES IDX 68 97 70 98 67 99
REMARK H PARENT 19 16 24 35 87 61 61 72
REMARK Flexibility Score: inf
ROOT
ATOM      1  O   UNL A   1      30.562  31.993  24.875  1.00  0.00    -0.376 OA
ENDROOT
BRANCH   1   2
ATOM      2  C   UNL A   1      29.354  31.508  24.281  1.00  0.00     0.202 C 
BRANCH   2   3
ATOM      3  C   UNL A   1      29.470  30.078  23.671  1.00  0.00     0.261 C 
BRANCH   3   4
ATOM      4  O   UNL A   1      30.817  29.752  23.202  1.00  0.00    -0.460 OA
BRANCH   4   5
ATOM      5  C   UNL A   1      31.556  28.961  24.021  1.00  0.00     0.342 C 
ATOM      6  O   UNL A   1      32.546  29.325  24.644  1.00  0.00    -0.246 OA
BRANCH   5   7
ATOM      7  C   UNL A   1      31.161  27.520  24.028  1.00  0.00     0.103 A 
ATOM      8  C   UNL A   1      31.140  25.321  25.157  1.00  0.00     0.042 A 
ATOM      9  C   UNL A   1      30.807  24.712  23.954  1.00  0.00     0.030 A 
ATOM     10  C   UNL A   1      31.304  26.714  25.166  1.00  0.00     0.045 A 
ATOM     11  C   UNL A   1      30.638  25.494  22.804  1.00  0.00     0.049 A 
ATOM     12  C   UNL A   1      30.830  26.881  22.837  1.00  0.00     0.130 A 
BRANCH   8  13
ATOM     13  N   UNL A   1      31.277  24.617  26.377  1.00  0.00    -0.322 N 
ATOM     14  C   UNL A   1      32.215  23.686  26.767  1.00  0.00     0.248 C 
ATOM     15  O   UNL A   1      32.089  23.025  27.792  1.00  0.00    -0.270 OA
ATOM     16  H   UNL A   1      30.595  24.828  27.054  1.00  0.00     0.170 HD
BRANCH  14  17
ATOM     17  C   UNL A   1      33.488  23.703  26.024  1.00  0.00     0.075 C 
ATOM     18  C   UNL A   1      34.295  22.665  26.287  1.00  0.00     0.053 C 
BRANCH  18  19
ATOM     19  C   UNL A   1      35.689  22.813  26.105  1.00  0.00     0.127 A 
ATOM     20  C   UNL A   1      37.845  22.360  26.003  1.00  0.00     0.135 A 
ATOM     21  C   UNL A   1      37.736  23.713  25.785  1.00  0.00     0.051 A 
ATOM     22  O   UNL A   1      36.615  21.803  26.180  1.00  0.00    -0.457 OA
ATOM     23  C   UNL A   1      36.362  24.004  25.860  1.00  0.00     0.051 A 
BRANCH  20  24
ATOM     24  C   UNL A   1      38.985  21.471  26.112  1.00  0.00     0.021 A 
ATOM     25  C   UNL A   1      40.272  23.181  27.517  1.00  0.00     0.045 C 
ATOM     26  C   UNL A   1      40.158  21.865  26.792  1.00  0.00    -0.033 A 
ATOM     27  C   UNL A   1      41.285  21.025  26.755  1.00  0.00     0.089 A 
ATOM     28  C   UNL A   1      41.230  19.799  26.077  1.00  0.00     0.269 A 
ATOM     29  C   UNL A   1      38.938  20.228  25.462  1.00  0.00     0.019 A 
ATOM     30  C   UNL A   1      40.055  19.390  25.440  1.00  0.00     0.086 A 
BRANCH  28  31
ATOM     31  N   UNL A   1      42.424  18.947  26.023  1.00  0.00     0.062 N 
ATOM     32  O   UNL A   1      42.256  17.729  25.860  1.00  0.00    -0.258 OA
ATOM     33  O   UNL A   1      43.529  19.493  26.150  1.00  0.00    -0.258 OA
ENDBRANCH  28  31
ENDBRANCH  20  24
ENDBRANCH  18  19
ENDBRANCH  14  17
ENDBRANCH   8  13
BRANCH  12  34
ATOM     34  O   UNL A   1      30.691  27.549  21.654  1.00  0.00    -0.507 OA
ATOM     35  H   UNL A   1      29.952  28.110  21.517  1.00  0.00     0.293 HD
ENDBRANCH  12  34
ENDBRANCH   5   7
ENDBRANCH   4   5
ENDBRANCH   3   4
ENDBRANCH   2   3
ENDBRANCH   1   2
BRANCH   1  36
ATOM     36  C   UNL A   1      30.791  31.950  26.288  1.00  0.00     0.188 C 
BRANCH  36  37
ATOM     37  C   UNL A   1      32.182  32.169  26.902  1.00  0.00     0.188 C 
BRANCH  37  38
ATOM     38  O   UNL A   1      32.269  33.462  27.488  1.00  0.00    -0.376 OA
BRANCH  38  39
ATOM     39  C   UNL A   1      33.556  33.859  27.954  1.00  0.00     0.202 C 
BRANCH  39  40
ATOM     40  C   UNL A   1      33.466  34.614  29.292  1.00  0.00     0.261 C 
BRANCH  40  41
ATOM     41  O   UNL A   1      34.661  34.360  30.062  1.00  0.00    -0.460 OA
BRANCH  41  42
ATOM     42  C   UNL A   1      34.509  33.540  31.133  1.00  0.00     0.338 C 
ATOM     43  O   UNL A   1      33.862  33.809  32.146  1.00  0.00    -0.246 OA
BRANCH  42  44
ATOM     44  C   UNL A   1      35.435  32.376  31.031  1.00  0.00     0.060 A 
ATOM     45  C   UNL A   1      35.670  31.500  32.105  1.00  0.00     0.016 A 
ATOM     46  C   UNL A   1      36.293  32.327  29.951  1.00  0.00     0.016 A 
ATOM     47  C   UNL A   1      36.829  30.681  32.140  1.00  0.00     0.010 A 
ATOM     48  C   UNL A   1      37.480  31.636  30.085  1.00  0.00     0.010 A 
ATOM     49  C   UNL A   1      37.795  30.807  31.149  1.00  0.00    -0.014 A 
BRANCH  49  50
ATOM     50  C   UNL A   1      39.208  30.363  31.099  1.00  0.00     0.031 A 
ATOM     51  C   UNL A   1      39.661  29.134  30.383  1.00  0.00     0.074 A 
ATOM     52  C   UNL A   1      40.145  31.293  31.358  1.00  0.00     0.049 A 
ATOM     53  N   UNL A   1      40.481  29.107  29.375  1.00  0.00    -0.248 NA
ATOM     54  C   UNL A   1      39.176  27.813  30.788  1.00  0.00     0.031 C 
ATOM     55  C   UNL A   1      41.578  31.221  31.115  1.00  0.00     0.029 A 
ATOM     56  N   UNL A   1      39.993  32.396  32.200  1.00  0.00    -0.354 N 
ATOM     57  C   UNL A   1      40.705  27.785  29.035  1.00  0.00     0.074 A 
ATOM     58  C   UNL A   1      39.782  27.028  29.892  1.00  0.00     0.031 C 
ATOM     59  C   UNL A   1      42.192  31.925  32.079  1.00  0.00     0.029 A 
ATOM     60  C   UNL A   1      41.163  32.392  32.998  1.00  0.00     0.049 A 
ATOM     61  H   UNL A   1      39.243  33.031  32.232  1.00  0.00     0.167 HD
ATOM     62  C   UNL A   1      41.974  27.300  28.897  1.00  0.00     0.037 A 
ATOM     63  C   UNL A   1      41.012  32.012  34.303  1.00  0.00     0.037 A 
ATOM     64  C   UNL A   1      42.885  27.716  29.936  1.00  0.00     0.049 A 
ATOM     65  C   UNL A   1      41.534  30.610  34.585  1.00  0.00     0.074 A 
ATOM     66  C   UNL A   1      43.956  28.578  30.065  1.00  0.00     0.029 A 
ATOM     67  N   UNL A   1      42.626  27.243  31.201  1.00  0.00    -0.354 N 
ATOM     68  N   UNL A   1      42.230  29.898  33.738  1.00  0.00    -0.248 NA
ATOM     69  C   UNL A   1      41.249  29.862  35.813  1.00  0.00     0.031 C 
ATOM     70  C   UNL A   1      44.238  28.711  31.464  1.00  0.00     0.029 A 
ATOM     71  C   UNL A   1      43.358  27.900  32.159  1.00  0.00     0.049 A 
ATOM     72  H   UNL A   1      41.990  26.517  31.398  1.00  0.00     0.167 HD
ATOM     73  C   UNL A   1      42.425  28.643  34.244  1.00  0.00     0.074 A 
ATOM     74  C   UNL A   1      41.813  28.669  35.556  1.00  0.00     0.031 C 
ATOM     75  C   UNL A   1      43.026  27.641  33.546  1.00  0.00     0.037 A 
BRANCH  62  76
ATOM     76  C   UNL A   1      42.301  26.474  27.686  1.00  0.00     0.057 A 
ATOM     77  C   UNL A   1      41.533  26.539  26.511  1.00  0.00     0.134 A 
ATOM     78  C   UNL A   1      43.364  25.549  27.659  1.00  0.00     0.134 A 
ATOM     79  F   UNL A   1      40.514  27.400  26.390  1.00  0.00    -0.206 F 
ATOM     80  C   UNL A   1      41.780  25.712  25.405  1.00  0.00     0.040 A 
ATOM     81  C   UNL A   1      43.612  24.708  26.568  1.00  0.00     0.040 A 
ATOM     82  F   UNL A   1      44.221  25.448  28.686  1.00  0.00    -0.206 F 
ATOM     83  C   UNL A   1      42.813  24.782  25.436  1.00  0.00     0.006 A 
ENDBRANCH  62  76
BRANCH  63  84
ATOM     84  C   UNL A   1      39.816  32.687  34.903  1.00  0.00     0.057 A 
ATOM     85  C   UNL A   1      39.874  34.093  35.046  1.00  0.00     0.134 A 
ATOM     86  C   UNL A   1      38.548  32.109  34.974  1.00  0.00     0.134 A 
ATOM     87  F   UNL A   1      41.056  34.728  34.988  1.00  0.00    -0.206 F 
ATOM     88  C   UNL A   1      38.726  34.888  35.098  1.00  0.00     0.040 A 
ATOM     89  C   UNL A   1      37.389  32.897  35.071  1.00  0.00     0.040 A 
ATOM     90  F   UNL A   1      38.384  30.788  34.813  1.00  0.00    -0.206 F 
ATOM     91  C   UNL A   1      37.475  34.288  35.082  1.00  0.00     0.006 A 
ENDBRANCH  63  84
BRANCH  75  92
ATOM     92  C   UNL A   1      43.312  26.303  34.150  1.00  0.00     0.057 A 
ATOM     93  C   UNL A   1      44.599  25.755  34.093  1.00  0.00     0.134 A 
ATOM     94  C   UNL A   1      42.298  25.467  34.648  1.00  0.00     0.134 A 
ATOM     95  F   UNL A   1      45.627  26.478  33.623  1.00  0.00    -0.206 F 
ATOM     96  C   UNL A   1      44.861  24.442  34.493  1.00  0.00     0.040 A 
ATOM     97  C   UNL A   1      42.539  24.142  35.019  1.00  0.00     0.040 A 
ATOM     98  F   UNL A   1      41.040  25.913  34.800  1.00  0.00    -0.206 F 
ATOM     99  C   UNL A   1      43.826  23.625  34.937  1.00  0.00     0.006 A 
ENDBRANCH  75  92
ENDBRANCH  49  50
ENDBRANCH  42  44
ENDBRANCH  41  42
ENDBRANCH  40  41
ENDBRANCH  39  40
ENDBRANCH  38  39
ENDBRANCH  37  38
ENDBRANCH  36  37
ENDBRANCH   1  36
TORSDOF 23
ENDMDL
