MODEL 1
REMARK VINA RESULT:     -11.5      0.000      0.000
REMARK SMILES Cc1cc2nc(S/C(=C\c3ccc(O)cc3)C(=O)OCCOCCOCCOC(=O)c3ccc(-c4c5nc(c(-c6c(F)cccc6F)c6ccc([nH]6)c(-c6c(F)cccc6F)c6nc(c(-c7c(F)cccc7F)c7ccc4[nH]7)C=C6)C=C5)cc3)[nH]c2cc1C
REMARK SMILES IDX 23 1 22 2 21 3 20 4 19 5 17 6 18 7 8 8 9 9 7 10 6 11 1 12
REMARK SMILES IDX 2 13 3 14 88 15 4 16 87 17 89 18 5 19 86 20 85 21 10 23
REMARK SMILES IDX 11 24 16 25 12 26 15 27 13 28 14 29 24 31 25 32 26 33 27 34
REMARK SMILES IDX 28 35 29 36 30 37 31 38 32 39 84 40 33 41 83 42 34 43 35 44
REMARK SMILES IDX 36 45 77 46 37 47 82 48 76 49 78 50 38 51 81 52 75 53 74 54
REMARK SMILES IDX 39 56 65 57 48 58 64 59 49 60 52 61 63 62 79 63 50 64 51 65
REMARK SMILES IDX 62 67 80 68 53 69 40 70 41 71 46 72 42 73 43 74 45 75 47 76
REMARK SMILES IDX 44 77 66 78 67 79 72 80 68 81 69 82 71 83 73 84 70 85 54 86
REMARK SMILES IDX 55 87 60 88 56 89 57 90 59 91 61 92 58 93
REMARK H PARENT 85 22 14 30 78 55 52 66
REMARK Flexibility Score: inf
ROOT
ATOM      1  C   UNL A   1      39.668  21.381  26.096  1.00  0.00     0.188 C 
ENDROOT
BRANCH   1   2
ATOM      2  O   UNL A   1      39.488  22.655  26.704  1.00  0.00    -0.376 OA
BRANCH   2   3
ATOM      3  C   UNL A   1      38.383  23.465  26.327  1.00  0.00     0.202 C 
BRANCH   3   4
ATOM      4  C   UNL A   1      37.247  22.856  25.489  1.00  0.00     0.261 C 
BRANCH   4   5
ATOM      5  O   UNL A   1      36.220  23.790  25.115  1.00  0.00    -0.459 OA
BRANCH   5   6
ATOM      6  C   UNL A   1      34.998  23.627  25.697  1.00  0.00     0.345 C 
ATOM      7  O   UNL A   1      34.732  22.801  26.557  1.00  0.00    -0.246 OA
BRANCH   6   8
ATOM      8  C   UNL A   1      34.024  24.681  25.211  1.00  0.00     0.101 C 
ATOM      9  C   UNL A   1      34.149  25.906  25.764  1.00  0.00     0.031 C 
BRANCH   8  10
ATOM     10  S   UNL A   1      32.875  24.019  24.089  1.00  0.00    -0.044 SA
BRANCH  10  11
ATOM     11  C   UNL A   1      31.744  25.236  23.648  1.00  0.00     0.171 A 
ATOM     12  C   UNL A   1      27.081  28.873  23.287  1.00  0.00     0.044 C 
ATOM     13  C   UNL A   1      28.469  28.304  23.141  1.00  0.00    -0.046 A 
ATOM     14  C   UNL A   1      28.734  27.055  23.745  1.00  0.00     0.034 A 
ATOM     15  C   UNL A   1      29.471  28.940  22.375  1.00  0.00    -0.046 A 
ATOM     16  C   UNL A   1      29.987  26.450  23.563  1.00  0.00     0.090 A 
ATOM     17  C   UNL A   1      30.676  28.271  22.082  1.00  0.00     0.032 A 
ATOM     18  C   UNL A   1      29.304  30.344  21.856  1.00  0.00     0.044 C 
ATOM     19  N   UNL A   1      30.525  25.324  24.138  1.00  0.00    -0.222 NA
ATOM     20  C   UNL A   1      30.895  27.038  22.694  1.00  0.00     0.066 A 
ATOM     21  N   UNL A   1      31.954  26.163  22.671  1.00  0.00    -0.333 N 
ATOM     22  H   UNL A   1      32.724  26.199  22.059  1.00  0.00     0.169 HD
ENDBRANCH  10  11
ENDBRANCH   8  10
BRANCH   9  23
ATOM     23  C   UNL A   1      33.403  27.148  25.548  1.00  0.00    -0.024 A 
ATOM     24  C   UNL A   1      33.754  28.101  24.586  1.00  0.00     0.012 A 
ATOM     25  C   UNL A   1      32.296  27.384  26.380  1.00  0.00     0.012 A 
ATOM     26  C   UNL A   1      33.079  29.326  24.538  1.00  0.00     0.047 A 
ATOM     27  C   UNL A   1      31.614  28.597  26.321  1.00  0.00     0.047 A 
ATOM     28  C   UNL A   1      32.036  29.571  25.427  1.00  0.00     0.115 A 
BRANCH  28  29
ATOM     29  O   UNL A   1      31.436  30.793  25.490  1.00  0.00    -0.508 OA
ATOM     30  H   UNL A   1      31.191  31.153  26.320  1.00  0.00     0.293 HD
ENDBRANCH  28  29
ENDBRANCH   9  23
ENDBRANCH   6   8
ENDBRANCH   5   6
ENDBRANCH   4   5
ENDBRANCH   3   4
ENDBRANCH   2   3
ENDBRANCH   1   2
BRANCH   1  31
ATOM     31  C   UNL A   1      40.842  20.478  26.537  1.00  0.00     0.188 C 
BRANCH  31  32
ATOM     32  O   UNL A   1      41.716  20.120  25.496  1.00  0.00    -0.376 OA
BRANCH  32  33
ATOM     33  C   UNL A   1      43.113  20.256  25.685  1.00  0.00     0.202 C 
BRANCH  33  34
ATOM     34  C   UNL A   1      43.872  21.600  25.633  1.00  0.00     0.261 C 
BRANCH  34  35
ATOM     35  O   UNL A   1      43.137  22.790  25.324  1.00  0.00    -0.460 OA
BRANCH  35  36
ATOM     36  C   UNL A   1      43.830  23.950  25.278  1.00  0.00     0.338 C 
ATOM     37  O   UNL A   1      44.730  24.245  24.506  1.00  0.00    -0.246 OA
BRANCH  36  38
ATOM     38  C   UNL A   1      43.197  24.902  26.213  1.00  0.00     0.060 A 
ATOM     39  C   UNL A   1      43.645  26.229  26.243  1.00  0.00     0.016 A 
ATOM     40  C   UNL A   1      42.164  24.484  27.054  1.00  0.00     0.016 A 
ATOM     41  C   UNL A   1      43.069  27.143  27.127  1.00  0.00     0.010 A 
ATOM     42  C   UNL A   1      41.605  25.395  27.957  1.00  0.00     0.010 A 
ATOM     43  C   UNL A   1      42.070  26.722  28.015  1.00  0.00    -0.014 A 
BRANCH  43  44
ATOM     44  C   UNL A   1      41.628  27.615  29.115  1.00  0.00     0.031 A 
ATOM     45  C   UNL A   1      42.362  27.559  30.426  1.00  0.00     0.074 A 
ATOM     46  C   UNL A   1      40.595  28.463  28.958  1.00  0.00     0.049 A 
ATOM     47  N   UNL A   1      42.115  28.187  31.548  1.00  0.00    -0.248 NA
ATOM     48  C   UNL A   1      43.534  26.670  30.479  1.00  0.00     0.031 C 
ATOM     49  C   UNL A   1      39.830  28.646  27.727  1.00  0.00     0.029 A 
ATOM     50  N   UNL A   1      40.007  29.323  29.854  1.00  0.00    -0.354 N 
ATOM     51  C   UNL A   1      43.093  27.763  32.439  1.00  0.00     0.074 A 
ATOM     52  C   UNL A   1      43.917  26.802  31.740  1.00  0.00     0.031 C 
ATOM     53  C   UNL A   1      38.861  29.553  27.950  1.00  0.00     0.029 A 
ATOM     54  C   UNL A   1      38.918  29.985  29.345  1.00  0.00     0.049 A 
ATOM     55  H   UNL A   1      40.337  29.452  30.773  1.00  0.00     0.167 HD
ATOM     56  C   UNL A   1      43.292  28.147  33.722  1.00  0.00     0.037 A 
ATOM     57  C   UNL A   1      38.050  30.824  29.946  1.00  0.00     0.037 A 
ATOM     58  C   UNL A   1      42.468  29.100  34.419  1.00  0.00     0.049 A 
ATOM     59  C   UNL A   1      38.241  31.169  31.402  1.00  0.00     0.074 A 
ATOM     60  C   UNL A   1      42.600  29.568  35.715  1.00  0.00     0.029 A 
ATOM     61  N   UNL A   1      41.352  29.723  33.881  1.00  0.00    -0.354 N 
ATOM     62  N   UNL A   1      39.182  30.787  32.230  1.00  0.00    -0.248 NA
ATOM     63  C   UNL A   1      37.245  32.067  32.006  1.00  0.00     0.031 C 
ATOM     64  C   UNL A   1      41.528  30.427  35.981  1.00  0.00     0.029 A 
ATOM     65  C   UNL A   1      40.765  30.544  34.830  1.00  0.00     0.049 A 
ATOM     66  H   UNL A   1      41.024  29.599  32.961  1.00  0.00     0.167 HD
ATOM     67  C   UNL A   1      38.911  31.419  33.438  1.00  0.00     0.074 A 
ATOM     68  C   UNL A   1      37.724  32.222  33.232  1.00  0.00     0.031 C 
ATOM     69  C   UNL A   1      39.586  31.343  34.612  1.00  0.00     0.037 A 
BRANCH  56  70
ATOM     70  C   UNL A   1      44.428  27.508  34.467  1.00  0.00     0.057 A 
ATOM     71  C   UNL A   1      45.694  28.104  34.546  1.00  0.00     0.134 A 
ATOM     72  C   UNL A   1      44.245  26.291  35.137  1.00  0.00     0.134 A 
ATOM     73  F   UNL A   1      45.942  29.261  33.916  1.00  0.00    -0.206 F 
ATOM     74  C   UNL A   1      46.743  27.499  35.243  1.00  0.00     0.040 A 
ATOM     75  C   UNL A   1      45.277  25.693  35.860  1.00  0.00     0.040 A 
ATOM     76  F   UNL A   1      43.057  25.669  35.106  1.00  0.00    -0.206 F 
ATOM     77  C   UNL A   1      46.533  26.294  35.908  1.00  0.00     0.006 A 
ENDBRANCH  56  70
BRANCH  57  78
ATOM     78  C   UNL A   1      36.904  31.385  29.185  1.00  0.00     0.057 A 
ATOM     79  C   UNL A   1      35.793  30.601  28.859  1.00  0.00     0.134 A 
ATOM     80  C   UNL A   1      36.909  32.712  28.735  1.00  0.00     0.134 A 
ATOM     81  F   UNL A   1      35.742  29.314  29.233  1.00  0.00    -0.206 F 
ATOM     82  C   UNL A   1      34.737  31.106  28.096  1.00  0.00     0.040 A 
ATOM     83  C   UNL A   1      35.848  33.239  27.997  1.00  0.00     0.040 A 
ATOM     84  F   UNL A   1      37.946  33.517  29.009  1.00  0.00    -0.206 F 
ATOM     85  C   UNL A   1      34.761  32.432  27.668  1.00  0.00     0.006 A 
ENDBRANCH  57  78
BRANCH  69  86
ATOM     86  C   UNL A   1      39.081  32.177  35.757  1.00  0.00     0.057 A 
ATOM     87  C   UNL A   1      38.220  31.658  36.733  1.00  0.00     0.134 A 
ATOM     88  C   UNL A   1      39.498  33.507  35.909  1.00  0.00     0.134 A 
ATOM     89  F   UNL A   1      37.774  30.396  36.644  1.00  0.00    -0.206 F 
ATOM     90  C   UNL A   1      37.773  32.438  37.801  1.00  0.00     0.040 A 
ATOM     91  C   UNL A   1      39.083  34.286  36.989  1.00  0.00     0.040 A 
ATOM     92  F   UNL A   1      40.333  34.064  35.018  1.00  0.00    -0.206 F 
ATOM     93  C   UNL A   1      38.211  33.754  37.935  1.00  0.00     0.006 A 
ENDBRANCH  69  86
ENDBRANCH  43  44
ENDBRANCH  36  38
ENDBRANCH  35  36
ENDBRANCH  34  35
ENDBRANCH  33  34
ENDBRANCH  32  33
ENDBRANCH  31  32
ENDBRANCH   1  31
TORSDOF 21
ENDMDL
MODEL 2
REMARK VINA RESULT:     -11.5      2.186      4.110
REMARK SMILES Cc1cc2nc(S/C(=C\c3ccc(O)cc3)C(=O)OCCOCCOCCOC(=O)c3ccc(-c4c5nc(c(-c6c(F)cccc6F)c6ccc([nH]6)c(-c6c(F)cccc6F)c6nc(c(-c7c(F)cccc7F)c7ccc4[nH]7)C=C6)C=C5)cc3)[nH]c2cc1C
REMARK SMILES IDX 23 1 22 2 21 3 20 4 19 5 17 6 18 7 8 8 9 9 7 10 6 11 1 12
REMARK SMILES IDX 2 13 3 14 88 15 4 16 87 17 89 18 5 19 86 20 85 21 10 23
REMARK SMILES IDX 11 24 16 25 12 26 15 27 13 28 14 29 24 31 25 32 26 33 27 34
REMARK SMILES IDX 28 35 29 36 30 37 31 38 32 39 84 40 33 41 83 42 34 43 35 44
REMARK SMILES IDX 36 45 77 46 37 47 82 48 76 49 78 50 38 51 81 52 75 53 74 54
REMARK SMILES IDX 39 56 65 57 48 58 64 59 49 60 52 61 63 62 79 63 50 64 51 65
REMARK SMILES IDX 62 67 80 68 53 69 40 70 41 71 46 72 42 73 43 74 45 75 47 76
REMARK SMILES IDX 44 77 66 78 67 79 72 80 68 81 69 82 71 83 73 84 70 85 54 86
REMARK SMILES IDX 55 87 60 88 56 89 57 90 59 91 61 92 58 93
REMARK H PARENT 85 22 14 30 78 55 52 66
REMARK Flexibility Score: inf
ROOT
ATOM      1  C   UNL A   1      39.716  21.304  25.982  1.00  0.00     0.188 C 
ENDROOT
BRANCH   1   2
ATOM      2  O   UNL A   1      38.315  21.481  25.810  1.00  0.00    -0.376 OA
BRANCH   2   3
ATOM      3  C   UNL A   1      37.820  22.695  25.260  1.00  0.00     0.202 C 
BRANCH   3   4
ATOM      4  C   UNL A   1      36.610  23.385  25.910  1.00  0.00     0.261 C 
BRANCH   4   5
ATOM      5  O   UNL A   1      35.428  22.569  25.977  1.00  0.00    -0.459 OA
BRANCH   5   6
ATOM      6  C   UNL A   1      34.774  22.336  24.804  1.00  0.00     0.345 C 
ATOM      7  O   UNL A   1      34.957  22.947  23.762  1.00  0.00    -0.246 OA
BRANCH   6   8
ATOM      8  C   UNL A   1      33.852  21.139  24.929  1.00  0.00     0.101 C 
ATOM      9  C   UNL A   1      34.420  19.930  24.736  1.00  0.00     0.031 C 
BRANCH   8  10
ATOM     10  S   UNL A   1      32.208  21.626  25.205  1.00  0.00    -0.044 SA
BRANCH  10  11
ATOM     11  C   UNL A   1      32.125  23.342  25.265  1.00  0.00     0.171 A 
ATOM     12  C   UNL A   1      31.791  29.013  26.946  1.00  0.00     0.044 C 
ATOM     13  C   UNL A   1      32.059  27.773  26.132  1.00  0.00    -0.046 A 
ATOM     14  C   UNL A   1      31.777  26.524  26.726  1.00  0.00     0.034 A 
ATOM     15  C   UNL A   1      32.511  27.829  24.795  1.00  0.00    -0.046 A 
ATOM     16  C   UNL A   1      31.932  25.349  25.974  1.00  0.00     0.090 A 
ATOM     17  C   UNL A   1      32.537  26.665  24.003  1.00  0.00     0.032 A 
ATOM     18  C   UNL A   1      32.992  29.114  24.172  1.00  0.00     0.044 C 
ATOM     19  N   UNL A   1      31.848  24.030  26.352  1.00  0.00    -0.222 NA
ATOM     20  C   UNL A   1      32.246  25.453  24.627  1.00  0.00     0.066 A 
ATOM     21  N   UNL A   1      32.229  24.156  24.175  1.00  0.00    -0.333 N 
ATOM     22  H   UNL A   1      32.282  23.866  23.237  1.00  0.00     0.169 HD
ENDBRANCH  10  11
ENDBRANCH   8  10
BRANCH   9  23
ATOM     23  C   UNL A   1      33.857  18.578  24.775  1.00  0.00    -0.024 A 
ATOM     24  C   UNL A   1      32.774  18.217  25.582  1.00  0.00     0.012 A 
ATOM     25  C   UNL A   1      34.471  17.605  23.970  1.00  0.00     0.012 A 
ATOM     26  C   UNL A   1      32.386  16.876  25.673  1.00  0.00     0.047 A 
ATOM     27  C   UNL A   1      34.075  16.271  24.048  1.00  0.00     0.047 A 
ATOM     28  C   UNL A   1      33.062  15.914  24.927  1.00  0.00     0.115 A 
BRANCH  28  29
ATOM     29  O   UNL A   1      32.793  14.586  25.078  1.00  0.00    -0.508 OA
ATOM     30  H   UNL A   1      32.899  14.179  25.915  1.00  0.00     0.293 HD
ENDBRANCH  28  29
ENDBRANCH   9  23
ENDBRANCH   6   8
ENDBRANCH   5   6
ENDBRANCH   4   5
ENDBRANCH   3   4
ENDBRANCH   2   3
ENDBRANCH   1   2
BRANCH   1  31
ATOM     31  C   UNL A   1      40.295  19.884  26.162  1.00  0.00     0.188 C 
BRANCH  31  32
ATOM     32  O   UNL A   1      41.528  19.678  25.517  1.00  0.00    -0.376 OA
BRANCH  32  33
ATOM     33  C   UNL A   1      42.703  20.241  26.070  1.00  0.00     0.202 C 
BRANCH  33  34
ATOM     34  C   UNL A   1      43.541  21.347  25.391  1.00  0.00     0.261 C 
BRANCH  34  35
ATOM     35  O   UNL A   1      42.899  22.581  25.050  1.00  0.00    -0.460 OA
BRANCH  35  36
ATOM     36  C   UNL A   1      43.667  23.693  25.034  1.00  0.00     0.338 C 
ATOM     37  O   UNL A   1      44.598  23.939  24.281  1.00  0.00    -0.246 OA
BRANCH  36  38
ATOM     38  C   UNL A   1      43.082  24.670  25.973  1.00  0.00     0.060 A 
ATOM     39  C   UNL A   1      43.611  25.967  26.027  1.00  0.00     0.016 A 
ATOM     40  C   UNL A   1      42.015  24.307  26.797  1.00  0.00     0.016 A 
ATOM     41  C   UNL A   1      43.081  26.904  26.915  1.00  0.00     0.010 A 
ATOM     42  C   UNL A   1      41.502  25.240  27.705  1.00  0.00     0.010 A 
ATOM     43  C   UNL A   1      42.047  26.535  27.786  1.00  0.00    -0.014 A 
BRANCH  43  44
ATOM     44  C   UNL A   1      41.647  27.439  28.892  1.00  0.00     0.031 A 
ATOM     45  C   UNL A   1      42.414  27.380  30.184  1.00  0.00     0.074 A 
ATOM     46  C   UNL A   1      40.622  28.301  28.758  1.00  0.00     0.049 A 
ATOM     47  N   UNL A   1      42.205  28.017  31.308  1.00  0.00    -0.248 NA
ATOM     48  C   UNL A   1      43.574  26.475  30.210  1.00  0.00     0.031 C 
ATOM     49  C   UNL A   1      39.828  28.489  27.546  1.00  0.00     0.029 A 
ATOM     50  N   UNL A   1      40.071  29.174  29.663  1.00  0.00    -0.354 N 
ATOM     51  C   UNL A   1      43.201  27.584  32.175  1.00  0.00     0.074 A 
ATOM     52  C   UNL A   1      43.992  26.607  31.460  1.00  0.00     0.031 C 
ATOM     53  C   UNL A   1      38.878  29.411  27.789  1.00  0.00     0.029 A 
ATOM     54  C   UNL A   1      38.978  29.850  29.180  1.00  0.00     0.049 A 
ATOM     55  H   UNL A   1      40.426  29.303  30.573  1.00  0.00     0.167 HD
ATOM     56  C   UNL A   1      43.439  27.972  33.451  1.00  0.00     0.037 A 
ATOM     57  C   UNL A   1      38.138  30.704  29.799  1.00  0.00     0.037 A 
ATOM     58  C   UNL A   1      42.648  28.940  34.164  1.00  0.00     0.049 A 
ATOM     59  C   UNL A   1      38.372  31.054  31.248  1.00  0.00     0.074 A 
ATOM     60  C   UNL A   1      42.820  29.412  35.453  1.00  0.00     0.029 A 
ATOM     61  N   UNL A   1      41.527  29.576  33.652  1.00  0.00    -0.354 N 
ATOM     62  N   UNL A   1      39.330  30.662  32.053  1.00  0.00    -0.248 NA
ATOM     63  C   UNL A   1      37.406  31.969  31.873  1.00  0.00     0.031 C 
ATOM     64  C   UNL A   1      41.768  30.288  35.742  1.00  0.00     0.029 A 
ATOM     65  C   UNL A   1      40.977  30.410  34.612  1.00  0.00     0.049 A 
ATOM     66  H   UNL A   1      41.173  29.452  32.741  1.00  0.00     0.167 HD
ATOM     67  C   UNL A   1      39.100  31.305  33.264  1.00  0.00     0.074 A 
ATOM     68  C   UNL A   1      37.919  32.124  33.084  1.00  0.00     0.031 C 
ATOM     69  C   UNL A   1      39.804  31.225  34.420  1.00  0.00     0.037 A 
BRANCH  56  70
ATOM     70  C   UNL A   1      44.585  27.319  34.169  1.00  0.00     0.057 A 
ATOM     71  C   UNL A   1      44.426  26.133  34.899  1.00  0.00     0.134 A 
ATOM     72  C   UNL A   1      45.871  27.870  34.106  1.00  0.00     0.134 A 
ATOM     73  F   UNL A   1      43.219  25.560  35.011  1.00  0.00    -0.206 F 
ATOM     74  C   UNL A   1      45.500  25.535  35.562  1.00  0.00     0.040 A 
ATOM     75  C   UNL A   1      46.957  27.265  34.740  1.00  0.00     0.040 A 
ATOM     76  F   UNL A   1      46.095  29.002  33.420  1.00  0.00    -0.206 F 
ATOM     77  C   UNL A   1      46.771  26.097  35.477  1.00  0.00     0.006 A 
ENDBRANCH  56  70
BRANCH  57  78
ATOM     78  C   UNL A   1      36.980  31.278  29.066  1.00  0.00     0.057 A 
ATOM     79  C   UNL A   1      36.995  32.598  28.603  1.00  0.00     0.134 A 
ATOM     80  C   UNL A   1      35.817  30.530  28.841  1.00  0.00     0.134 A 
ATOM     81  F   UNL A   1      38.067  33.375  28.814  1.00  0.00    -0.206 F 
ATOM     82  C   UNL A   1      35.890  33.162  27.961  1.00  0.00     0.040 A 
ATOM     83  C   UNL A   1      34.716  31.072  28.176  1.00  0.00     0.040 A 
ATOM     84  F   UNL A   1      35.735  29.261  29.264  1.00  0.00    -0.206 F 
ATOM     85  C   UNL A   1      34.748  32.394  27.741  1.00  0.00     0.006 A 
ENDBRANCH  57  78
BRANCH  69  86
ATOM     86  C   UNL A   1      39.342  32.072  35.574  1.00  0.00     0.057 A 
ATOM     87  C   UNL A   1      39.774  33.393  35.747  1.00  0.00     0.134 A 
ATOM     88  C   UNL A   1      38.417  31.572  36.500  1.00  0.00     0.134 A 
ATOM     89  F   UNL A   1      40.667  33.933  34.903  1.00  0.00    -0.206 F 
ATOM     90  C   UNL A   1      39.323  34.176  36.812  1.00  0.00     0.040 A 
ATOM     91  C   UNL A   1      37.935  32.354  37.550  1.00  0.00     0.040 A 
ATOM     92  F   UNL A   1      37.951  30.318  36.387  1.00  0.00    -0.206 F 
ATOM     93  C   UNL A   1      38.395  33.658  37.712  1.00  0.00     0.006 A 
ENDBRANCH  69  86
ENDBRANCH  43  44
ENDBRANCH  36  38
ENDBRANCH  35  36
ENDBRANCH  34  35
ENDBRANCH  33  34
ENDBRANCH  32  33
ENDBRANCH  31  32
ENDBRANCH   1  31
TORSDOF 21
ENDMDL
MODEL 3
REMARK VINA RESULT:     -11.1      2.600      8.502
REMARK SMILES Cc1cc2nc(S/C(=C\c3ccc(O)cc3)C(=O)OCCOCCOCCOC(=O)c3ccc(-c4c5nc(c(-c6c(F)cccc6F)c6ccc([nH]6)c(-c6c(F)cccc6F)c6nc(c(-c7c(F)cccc7F)c7ccc4[nH]7)C=C6)C=C5)cc3)[nH]c2cc1C
REMARK SMILES IDX 23 1 22 2 21 3 20 4 19 5 17 6 18 7 8 8 9 9 7 10 6 11 1 12
REMARK SMILES IDX 2 13 3 14 88 15 4 16 87 17 89 18 5 19 86 20 85 21 10 23
REMARK SMILES IDX 11 24 16 25 12 26 15 27 13 28 14 29 24 31 25 32 26 33 27 34
REMARK SMILES IDX 28 35 29 36 30 37 31 38 32 39 84 40 33 41 83 42 34 43 35 44
REMARK SMILES IDX 36 45 77 46 37 47 82 48 76 49 78 50 38 51 81 52 75 53 74 54
REMARK SMILES IDX 39 56 65 57 48 58 64 59 49 60 52 61 63 62 79 63 50 64 51 65
REMARK SMILES IDX 62 67 80 68 53 69 40 70 41 71 46 72 42 73 43 74 45 75 47 76
REMARK SMILES IDX 44 77 66 78 67 79 72 80 68 81 69 82 71 83 73 84 70 85 54 86
REMARK SMILES IDX 55 87 60 88 56 89 57 90 59 91 61 92 58 93
REMARK H PARENT 85 22 14 30 78 55 52 66
REMARK Flexibility Score: inf
ROOT
ATOM      1  C   UNL A   1      32.597  28.651  25.549  1.00  0.00     0.188 C 
ENDROOT
BRANCH   1   2
ATOM      2  O   UNL A   1      32.312  28.487  24.165  1.00  0.00    -0.376 OA
BRANCH   2   3
ATOM      3  C   UNL A   1      31.326  29.304  23.548  1.00  0.00     0.202 C 
BRANCH   3   4
ATOM      4  C   UNL A   1      29.911  28.746  23.323  1.00  0.00     0.261 C 
BRANCH   4   5
ATOM      5  O   UNL A   1      29.878  27.384  22.861  1.00  0.00    -0.459 OA
BRANCH   5   6
ATOM      6  C   UNL A   1      29.473  26.441  23.758  1.00  0.00     0.345 C 
ATOM      7  O   UNL A   1      28.355  26.366  24.245  1.00  0.00    -0.246 OA
BRANCH   6   8
ATOM      8  C   UNL A   1      30.567  25.419  23.997  1.00  0.00     0.101 C 
ATOM      9  C   UNL A   1      30.483  24.719  25.147  1.00  0.00     0.031 C 
BRANCH   8  10
ATOM     10  S   UNL A   1      31.764  25.460  22.739  1.00  0.00    -0.044 SA
BRANCH  10  11
ATOM     11  C   UNL A   1      33.224  24.763  23.320  1.00  0.00     0.171 A 
ATOM     12  C   UNL A   1      38.153  23.455  26.334  1.00  0.00     0.044 C 
ATOM     13  C   UNL A   1      36.944  23.333  25.444  1.00  0.00    -0.046 A 
ATOM     14  C   UNL A   1      36.106  24.462  25.316  1.00  0.00     0.034 A 
ATOM     15  C   UNL A   1      36.669  22.167  24.696  1.00  0.00    -0.046 A 
ATOM     16  C   UNL A   1      35.016  24.420  24.433  1.00  0.00     0.090 A 
ATOM     17  C   UNL A   1      35.660  22.172  23.713  1.00  0.00     0.032 A 
ATOM     18  C   UNL A   1      37.422  20.882  24.923  1.00  0.00     0.044 C 
ATOM     19  N   UNL A   1      33.998  25.320  24.227  1.00  0.00    -0.222 NA
ATOM     20  C   UNL A   1      34.859  23.309  23.616  1.00  0.00     0.066 A 
ATOM     21  N   UNL A   1      33.781  23.622  22.824  1.00  0.00    -0.333 N 
ATOM     22  H   UNL A   1      33.468  23.115  22.041  1.00  0.00     0.169 HD
ENDBRANCH  10  11
ENDBRANCH   8  10
BRANCH   9  23
ATOM     23  C   UNL A   1      31.340  23.670  25.708  1.00  0.00    -0.024 A 
ATOM     24  C   UNL A   1      32.180  23.869  26.808  1.00  0.00     0.012 A 
ATOM     25  C   UNL A   1      31.318  22.418  25.075  1.00  0.00     0.012 A 
ATOM     26  C   UNL A   1      33.073  22.863  27.195  1.00  0.00     0.047 A 
ATOM     27  C   UNL A   1      32.197  21.411  25.470  1.00  0.00     0.047 A 
ATOM     28  C   UNL A   1      33.092  21.657  26.501  1.00  0.00     0.115 A 
BRANCH  28  29
ATOM     29  O   UNL A   1      34.027  20.702  26.771  1.00  0.00    -0.508 OA
ATOM     30  H   UNL A   1      34.871  20.745  26.367  1.00  0.00     0.293 HD
ENDBRANCH  28  29
ENDBRANCH   9  23
ENDBRANCH   6   8
ENDBRANCH   5   6
ENDBRANCH   4   5
ENDBRANCH   3   4
ENDBRANCH   2   3
ENDBRANCH   1   2
BRANCH   1  31
ATOM     31  C   UNL A   1      31.707  29.572  26.413  1.00  0.00     0.188 C 
BRANCH  31  32
ATOM     32  O   UNL A   1      32.276  30.826  26.694  1.00  0.00    -0.376 OA
BRANCH  32  33
ATOM     33  C   UNL A   1      31.470  31.988  26.612  1.00  0.00     0.202 C 
BRANCH  33  34
ATOM     34  C   UNL A   1      31.982  33.423  26.867  1.00  0.00     0.261 C 
BRANCH  34  35
ATOM     35  O   UNL A   1      32.295  33.808  28.210  1.00  0.00    -0.460 OA
BRANCH  35  36
ATOM     36  C   UNL A   1      33.381  34.593  28.390  1.00  0.00     0.338 C 
ATOM     37  O   UNL A   1      33.421  35.815  28.386  1.00  0.00    -0.246 OA
BRANCH  36  38
ATOM     38  C   UNL A   1      34.514  33.730  28.779  1.00  0.00     0.060 A 
ATOM     39  C   UNL A   1      34.257  32.432  29.240  1.00  0.00     0.016 A 
ATOM     40  C   UNL A   1      35.825  34.202  28.687  1.00  0.00     0.016 A 
ATOM     41  C   UNL A   1      35.312  31.603  29.625  1.00  0.00     0.010 A 
ATOM     42  C   UNL A   1      36.879  33.378  29.097  1.00  0.00     0.010 A 
ATOM     43  C   UNL A   1      36.628  32.085  29.590  1.00  0.00    -0.014 A 
BRANCH  43  44
ATOM     44  C   UNL A   1      37.722  31.307  30.221  1.00  0.00     0.031 A 
ATOM     45  C   UNL A   1      38.041  31.558  31.669  1.00  0.00     0.074 A 
ATOM     46  C   UNL A   1      38.423  30.391  29.527  1.00  0.00     0.049 A 
ATOM     47  N   UNL A   1      38.994  31.055  32.412  1.00  0.00    -0.248 NA
ATOM     48  C   UNL A   1      37.166  32.509  32.373  1.00  0.00     0.031 C 
ATOM     49  C   UNL A   1      38.185  30.021  28.134  1.00  0.00     0.029 A 
ATOM     50  N   UNL A   1      39.488  29.612  29.908  1.00  0.00    -0.354 N 
ATOM     51  C   UNL A   1      38.838  31.635  33.666  1.00  0.00     0.074 A 
ATOM     52  C   UNL A   1      37.721  32.550  33.574  1.00  0.00     0.031 C 
ATOM     53  C   UNL A   1      39.091  29.095  27.771  1.00  0.00     0.029 A 
ATOM     54  C   UNL A   1      39.991  28.835  28.893  1.00  0.00     0.049 A 
ATOM     55  H   UNL A   1      39.857  29.612  30.821  1.00  0.00     0.167 HD
ATOM     56  C   UNL A   1      39.555  31.417  34.794  1.00  0.00     0.037 A 
ATOM     57  C   UNL A   1      41.071  28.028  28.868  1.00  0.00     0.037 A 
ATOM     58  C   UNL A   1      40.670  30.510  34.882  1.00  0.00     0.049 A 
ATOM     59  C   UNL A   1      41.907  27.869  30.113  1.00  0.00     0.074 A 
ATOM     60  C   UNL A   1      41.449  30.208  35.986  1.00  0.00     0.029 A 
ATOM     61  N   UNL A   1      41.171  29.769  33.824  1.00  0.00    -0.354 N 
ATOM     62  N   UNL A   1      41.738  28.399  31.300  1.00  0.00    -0.248 NA
ATOM     63  C   UNL A   1      43.086  26.997  30.012  1.00  0.00     0.031 C 
ATOM     64  C   UNL A   1      42.459  29.330  35.580  1.00  0.00     0.029 A 
ATOM     65  C   UNL A   1      42.270  29.035  34.239  1.00  0.00     0.049 A 
ATOM     66  H   UNL A   1      40.801  29.763  32.911  1.00  0.00     0.167 HD
ATOM     67  C   UNL A   1      42.766  27.900  32.093  1.00  0.00     0.074 A 
ATOM     68  C   UNL A   1      43.547  27.015  31.254  1.00  0.00     0.031 C 
ATOM     69  C   UNL A   1      43.037  28.152  33.397  1.00  0.00     0.037 A 
BRANCH  56  70
ATOM     70  C   UNL A   1      39.176  32.202  36.016  1.00  0.00     0.057 A 
ATOM     71  C   UNL A   1      39.663  33.496  36.250  1.00  0.00     0.134 A 
ATOM     72  C   UNL A   1      38.288  31.668  36.959  1.00  0.00     0.134 A 
ATOM     73  F   UNL A   1      40.528  34.062  35.394  1.00  0.00    -0.206 F 
ATOM     74  C   UNL A   1      39.302  34.217  37.390  1.00  0.00     0.040 A 
ATOM     75  C   UNL A   1      37.897  32.391  38.086  1.00  0.00     0.040 A 
ATOM     76  F   UNL A   1      37.779  30.438  36.794  1.00  0.00    -0.206 F 
ATOM     77  C   UNL A   1      38.411  33.667  38.308  1.00  0.00     0.006 A 
ENDBRANCH  56  70
BRANCH  57  78
ATOM     78  C   UNL A   1      41.444  27.318  27.617  1.00  0.00     0.057 A 
ATOM     79  C   UNL A   1      41.047  25.997  27.384  1.00  0.00     0.134 A 
ATOM     80  C   UNL A   1      42.237  27.933  26.639  1.00  0.00     0.134 A 
ATOM     81  F   UNL A   1      40.313  25.343  28.296  1.00  0.00    -0.206 F 
ATOM     82  C   UNL A   1      41.440  25.305  26.237  1.00  0.00     0.040 A 
ATOM     83  C   UNL A   1      42.613  27.263  25.474  1.00  0.00     0.040 A 
ATOM     84  F   UNL A   1      42.656  29.196  26.803  1.00  0.00    -0.206 F 
ATOM     85  C   UNL A   1      42.221  25.942  25.274  1.00  0.00     0.006 A 
ENDBRANCH  57  78
BRANCH  69  86
ATOM     86  C   UNL A   1      44.206  27.434  34.013  1.00  0.00     0.057 A 
ATOM     87  C   UNL A   1      45.490  27.994  34.047  1.00  0.00     0.134 A 
ATOM     88  C   UNL A   1      44.034  26.182  34.620  1.00  0.00     0.134 A 
ATOM     89  F   UNL A   1      45.728  29.185  33.476  1.00  0.00    -0.206 F 
ATOM     90  C   UNL A   1      46.564  27.324  34.638  1.00  0.00     0.040 A 
ATOM     91  C   UNL A   1      45.092  25.518  35.241  1.00  0.00     0.040 A 
ATOM     92  F   UNL A   1      42.829  25.593  34.636  1.00  0.00    -0.206 F 
ATOM     93  C   UNL A   1      46.364  26.086  35.245  1.00  0.00     0.006 A 
ENDBRANCH  69  86
ENDBRANCH  43  44
ENDBRANCH  36  38
ENDBRANCH  35  36
ENDBRANCH  34  35
ENDBRANCH  33  34
ENDBRANCH  32  33
ENDBRANCH  31  32
ENDBRANCH   1  31
TORSDOF 21
ENDMDL
