MODEL 1
REMARK VINA RESULT:     -10.1      0.000      0.000
REMARK SMILES CC(C)CN(C)c1cc2c(cc1Cl)C=C(C(=O)OCCOCCOCCOC(=O)c1ccc(-c3c4nc(c(-c5c(F)cccc5F)c5ccc([nH]5)c(-c5c(F)cccc5F)c5nc(c(-c6c(F)cccc6F)c6ccc3[nH]6)C=C5)C=C4)cc1)[C@H](C(F)(F)F)O2
REMARK SMILES IDX 22 1 21 2 20 3 19 4 18 5 16 6 17 7 15 8 7 9 8 10 12 11 9 12
REMARK SMILES IDX 11 13 13 14 10 15 89 16 14 17 84 18 5 19 6 20 4 21 2 22 1 23
REMARK SMILES IDX 3 24 85 25 86 26 87 27 88 28 23 29 24 30 25 31 26 32 27 33
REMARK SMILES IDX 28 34 29 35 30 36 31 37 83 38 32 39 82 40 33 41 34 42 35 43
REMARK SMILES IDX 76 44 36 45 81 46 75 47 77 48 37 49 80 50 74 51 73 52 38 54
REMARK SMILES IDX 64 55 47 56 63 57 48 58 51 59 62 60 78 61 49 62 50 63 61 65
REMARK SMILES IDX 79 66 52 67 39 68 40 69 45 70 41 71 42 72 44 73 46 74 43 75
REMARK SMILES IDX 65 76 66 77 71 78 67 79 68 80 70 81 72 82 69 83 53 84 54 85
REMARK SMILES IDX 59 86 55 87 56 88 58 89 60 90 57 91
REMARK H PARENT 77 53 51 64
REMARK Flexibility Score: inf
ROOT
ATOM      1  C   UNL A   1      32.249  20.895  24.382  1.00  0.00     0.188 C 
ENDROOT
BRANCH   1   2
ATOM      2  O   UNL A   1      32.135  21.670  23.212  1.00  0.00    -0.376 OA
BRANCH   2   3
ATOM      3  C   UNL A   1      31.397  22.884  23.216  1.00  0.00     0.202 C 
BRANCH   3   4
ATOM      4  C   UNL A   1      30.879  23.602  24.476  1.00  0.00     0.261 C 
BRANCH   4   5
ATOM      5  O   UNL A   1      30.489  24.970  24.319  1.00  0.00    -0.460 OA
BRANCH   5   6
ATOM      6  C   UNL A   1      31.412  25.772  23.747  1.00  0.00     0.338 C 
ATOM      7  O   UNL A   1      31.506  26.024  22.554  1.00  0.00    -0.246 OA
BRANCH   6   8
ATOM      8  C   UNL A   1      32.212  26.489  24.758  1.00  0.00     0.087 C 
ATOM      9  C   UNL A   1      33.834  30.582  27.227  1.00  0.00     0.059 A 
ATOM     10  C   UNL A   1      34.410  29.338  26.886  1.00  0.00     0.074 A 
ATOM     11  C   UNL A   1      32.483  30.771  26.864  1.00  0.00     0.065 A 
ATOM     12  C   UNL A   1      33.673  28.342  26.227  1.00  0.00     0.130 A 
ATOM     13  C   UNL A   1      31.715  29.729  26.340  1.00  0.00     0.034 A 
ATOM     14  Cl  UNL A   1      31.712  32.323  26.874  1.00  0.00    -0.082 Cl
ATOM     15  C   UNL A   1      32.313  28.517  26.010  1.00  0.00     0.019 A 
ATOM     16  O   UNL A   1      34.363  27.247  25.790  1.00  0.00    -0.475 OA
ATOM     17  C   UNL A   1      31.544  27.511  25.309  1.00  0.00     0.027 C 
ATOM     18  C   UNL A   1      33.696  26.273  24.919  1.00  0.00     0.316 C 
BRANCH   9  19
ATOM     19  N   UNL A   1      34.597  31.586  27.842  1.00  0.00    -0.373 N 
ATOM     20  C   UNL A   1      36.048  31.451  27.716  1.00  0.00     0.143 C 
BRANCH  19  21
ATOM     21  C   UNL A   1      34.101  32.192  29.102  1.00  0.00     0.119 C 
BRANCH  21  22
ATOM     22  C   UNL A   1      34.614  33.627  29.343  1.00  0.00     0.002 C 
ATOM     23  C   UNL A   1      33.974  34.630  28.378  1.00  0.00     0.009 C 
ATOM     24  C   UNL A   1      34.366  34.101  30.779  1.00  0.00     0.009 C 
ENDBRANCH  21  22
ENDBRANCH  19  21
ENDBRANCH   9  19
BRANCH  18  25
ATOM     25  C   UNL A   1      34.137  24.887  25.424  1.00  0.00     0.430 C 
ATOM     26  F   UNL A   1      33.359  24.445  26.436  1.00  0.00    -0.167 F 
ATOM     27  F   UNL A   1      34.151  23.956  24.448  1.00  0.00    -0.167 F 
ATOM     28  F   UNL A   1      35.408  24.947  25.902  1.00  0.00    -0.167 F 
ENDBRANCH  18  25
ENDBRANCH   6   8
ENDBRANCH   5   6
ENDBRANCH   4   5
ENDBRANCH   3   4
ENDBRANCH   2   3
ENDBRANCH   1   2
BRANCH   1  29
ATOM     29  C   UNL A   1      33.664  20.464  24.814  1.00  0.00     0.188 C 
BRANCH  29  30
ATOM     30  O   UNL A   1      34.209  20.884  26.049  1.00  0.00    -0.376 OA
BRANCH  30  31
ATOM     31  C   UNL A   1      35.484  21.505  26.076  1.00  0.00     0.202 C 
BRANCH  31  32
ATOM     32  C   UNL A   1      36.678  20.933  25.295  1.00  0.00     0.261 C 
BRANCH  32  33
ATOM     33  O   UNL A   1      37.829  21.781  25.215  1.00  0.00    -0.460 OA
BRANCH  33  34
ATOM     34  C   UNL A   1      38.894  21.394  25.962  1.00  0.00     0.338 C 
ATOM     35  O   UNL A   1      39.377  20.278  26.051  1.00  0.00    -0.246 OA
BRANCH  34  36
ATOM     36  C   UNL A   1      39.532  22.602  26.513  1.00  0.00     0.060 A 
ATOM     37  C   UNL A   1      40.568  22.489  27.440  1.00  0.00     0.016 A 
ATOM     38  C   UNL A   1      39.076  23.863  26.100  1.00  0.00     0.016 A 
ATOM     39  C   UNL A   1      41.160  23.647  27.943  1.00  0.00     0.010 A 
ATOM     40  C   UNL A   1      39.655  25.020  26.621  1.00  0.00     0.010 A 
ATOM     41  C   UNL A   1      40.716  24.917  27.530  1.00  0.00    -0.014 A 
BRANCH  41  42
ATOM     42  C   UNL A   1      41.486  26.119  27.921  1.00  0.00     0.031 A 
ATOM     43  C   UNL A   1      42.878  26.367  27.433  1.00  0.00     0.074 A 
ATOM     44  C   UNL A   1      40.887  27.005  28.736  1.00  0.00     0.049 A 
ATOM     45  N   UNL A   1      43.616  27.439  27.567  1.00  0.00    -0.248 NA
ATOM     46  C   UNL A   1      43.530  25.267  26.711  1.00  0.00     0.031 C 
ATOM     47  C   UNL A   1      39.547  26.847  29.305  1.00  0.00     0.029 A 
ATOM     48  N   UNL A   1      41.313  28.218  29.209  1.00  0.00    -0.354 N 
ATOM     49  C   UNL A   1      44.814  27.159  26.927  1.00  0.00     0.074 A 
ATOM     50  C   UNL A   1      44.722  25.791  26.453  1.00  0.00     0.031 C 
ATOM     51  C   UNL A   1      39.240  27.945  30.010  1.00  0.00     0.029 A 
ATOM     52  C   UNL A   1      40.368  28.869  29.962  1.00  0.00     0.049 A 
ATOM     53  H   UNL A   1      42.207  28.587  29.026  1.00  0.00     0.167 HD
ATOM     54  C   UNL A   1      45.882  27.974  26.741  1.00  0.00     0.037 A 
ATOM     55  C   UNL A   1      40.402  30.085  30.535  1.00  0.00     0.037 A 
ATOM     56  C   UNL A   1      45.976  29.321  27.253  1.00  0.00     0.049 A 
ATOM     57  C   UNL A   1      41.623  30.943  30.365  1.00  0.00     0.074 A 
ATOM     58  C   UNL A   1      46.993  30.246  27.076  1.00  0.00     0.029 A 
ATOM     59  N   UNL A   1      45.033  29.926  28.072  1.00  0.00    -0.354 N 
ATOM     60  N   UNL A   1      42.706  30.713  29.664  1.00  0.00    -0.248 NA
ATOM     61  C   UNL A   1      41.618  32.233  31.067  1.00  0.00     0.031 C 
ATOM     62  C   UNL A   1      46.695  31.381  27.841  1.00  0.00     0.029 A 
ATOM     63  C   UNL A   1      45.463  31.192  28.445  1.00  0.00     0.049 A 
ATOM     64  H   UNL A   1      44.181  29.516  28.349  1.00  0.00     0.167 HD
ATOM     65  C   UNL A   1      43.502  31.841  29.817  1.00  0.00     0.074 A 
ATOM     66  C   UNL A   1      42.764  32.759  30.661  1.00  0.00     0.031 C 
ATOM     67  C   UNL A   1      44.731  32.093  29.302  1.00  0.00     0.037 A 
BRANCH  54  68
ATOM     68  C   UNL A   1      47.047  27.415  25.970  1.00  0.00     0.057 A 
ATOM     69  C   UNL A   1      48.084  26.739  26.625  1.00  0.00     0.134 A 
ATOM     70  C   UNL A   1      47.148  27.555  24.579  1.00  0.00     0.134 A 
ATOM     71  F   UNL A   1      48.062  26.582  27.957  1.00  0.00    -0.206 F 
ATOM     72  C   UNL A   1      49.168  26.209  25.923  1.00  0.00     0.040 A 
ATOM     73  C   UNL A   1      48.213  27.003  23.863  1.00  0.00     0.040 A 
ATOM     74  F   UNL A   1      46.190  28.189  23.886  1.00  0.00    -0.206 F 
ATOM     75  C   UNL A   1      49.229  26.329  24.537  1.00  0.00     0.006 A 
ENDBRANCH  54  68
BRANCH  55  76
ATOM     76  C   UNL A   1      39.222  30.584  31.282  1.00  0.00     0.057 A 
ATOM     77  C   UNL A   1      38.946  30.158  32.587  1.00  0.00     0.134 A 
ATOM     78  C   UNL A   1      38.342  31.505  30.702  1.00  0.00     0.134 A 
ATOM     79  F   UNL A   1      39.747  29.268  33.191  1.00  0.00    -0.206 F 
ATOM     80  C   UNL A   1      37.836  30.628  33.287  1.00  0.00     0.040 A 
ATOM     81  C   UNL A   1      37.242  32.003  31.400  1.00  0.00     0.040 A 
ATOM     82  F   UNL A   1      38.563  31.958  29.459  1.00  0.00    -0.206 F 
ATOM     83  C   UNL A   1      36.985  31.561  32.696  1.00  0.00     0.006 A 
ENDBRANCH  55  76
BRANCH  67  84
ATOM     84  C   UNL A   1      45.341  33.429  29.628  1.00  0.00     0.057 A 
ATOM     85  C   UNL A   1      46.165  33.582  30.751  1.00  0.00     0.134 A 
ATOM     86  C   UNL A   1      45.120  34.562  28.833  1.00  0.00     0.134 A 
ATOM     87  F   UNL A   1      46.416  32.542  31.561  1.00  0.00    -0.206 F 
ATOM     88  C   UNL A   1      46.748  34.810  31.068  1.00  0.00     0.040 A 
ATOM     89  C   UNL A   1      45.724  35.788  29.122  1.00  0.00     0.040 A 
ATOM     90  F   UNL A   1      44.356  34.482  27.733  1.00  0.00    -0.206 F 
ATOM     91  C   UNL A   1      46.537  35.914  30.246  1.00  0.00     0.006 A 
ENDBRANCH  67  84
ENDBRANCH  41  42
ENDBRANCH  34  36
ENDBRANCH  33  34
ENDBRANCH  32  33
ENDBRANCH  31  32
ENDBRANCH  30  31
ENDBRANCH  29  30
ENDBRANCH   1  29
TORSDOF 21
ENDMDL
MODEL 2
REMARK VINA RESULT:      -9.5      4.359      8.226
REMARK SMILES CC(C)CN(C)c1cc2c(cc1Cl)C=C(C(=O)OCCOCCOCCOC(=O)c1ccc(-c3c4nc(c(-c5c(F)cccc5F)c5ccc([nH]5)c(-c5c(F)cccc5F)c5nc(c(-c6c(F)cccc6F)c6ccc3[nH]6)C=C5)C=C4)cc1)[C@H](C(F)(F)F)O2
REMARK SMILES IDX 22 1 21 2 20 3 19 4 18 5 16 6 17 7 15 8 7 9 8 10 12 11 9 12
REMARK SMILES IDX 11 13 13 14 10 15 89 16 14 17 84 18 5 19 6 20 4 21 2 22 1 23
REMARK SMILES IDX 3 24 85 25 86 26 87 27 88 28 23 29 24 30 25 31 26 32 27 33
REMARK SMILES IDX 28 34 29 35 30 36 31 37 83 38 32 39 82 40 33 41 34 42 35 43
REMARK SMILES IDX 76 44 36 45 81 46 75 47 77 48 37 49 80 50 74 51 73 52 38 54
REMARK SMILES IDX 64 55 47 56 63 57 48 58 51 59 62 60 78 61 49 62 50 63 61 65
REMARK SMILES IDX 79 66 52 67 39 68 40 69 45 70 41 71 42 72 44 73 46 74 43 75
REMARK SMILES IDX 65 76 66 77 71 78 67 79 68 80 70 81 72 82 69 83 53 84 54 85
REMARK SMILES IDX 59 86 55 87 56 88 58 89 60 90 57 91
REMARK H PARENT 77 53 51 64
REMARK Flexibility Score: inf
ROOT
ATOM      1  C   UNL A   1      44.912  19.377  24.298  1.00  0.00     0.188 C 
ENDROOT
BRANCH   1   2
ATOM      2  O   UNL A   1      43.544  19.649  24.496  1.00  0.00    -0.376 OA
BRANCH   2   3
ATOM      3  C   UNL A   1      42.865  19.154  25.641  1.00  0.00     0.202 C 
BRANCH   3   4
ATOM      4  C   UNL A   1      41.743  19.892  26.394  1.00  0.00     0.261 C 
BRANCH   4   5
ATOM      5  O   UNL A   1      40.796  20.605  25.591  1.00  0.00    -0.460 OA
BRANCH   5   6
ATOM      6  C   UNL A   1      39.552  20.082  25.564  1.00  0.00     0.338 C 
ATOM      7  O   UNL A   1      39.272  18.892  25.579  1.00  0.00    -0.246 OA
BRANCH   6   8
ATOM      8  C   UNL A   1      38.519  21.126  25.707  1.00  0.00     0.087 C 
ATOM      9  C   UNL A   1      34.140  23.388  24.619  1.00  0.00     0.059 A 
ATOM     10  C   UNL A   1      35.406  23.838  25.053  1.00  0.00     0.074 A 
ATOM     11  C   UNL A   1      33.981  21.992  24.482  1.00  0.00     0.065 A 
ATOM     12  C   UNL A   1      36.447  22.943  25.339  1.00  0.00     0.130 A 
ATOM     13  C   UNL A   1      34.969  21.100  24.904  1.00  0.00     0.034 A 
ATOM     14  Cl  UNL A   1      32.648  21.273  23.642  1.00  0.00    -0.082 Cl
ATOM     15  C   UNL A   1      36.208  21.575  25.322  1.00  0.00     0.019 A 
ATOM     16  O   UNL A   1      37.679  23.481  25.585  1.00  0.00    -0.475 OA
ATOM     17  C   UNL A   1      37.277  20.637  25.588  1.00  0.00     0.027 C 
ATOM     18  C   UNL A   1      38.846  22.598  25.685  1.00  0.00     0.316 C 
BRANCH   9  19
ATOM     19  N   UNL A   1      33.124  24.299  24.291  1.00  0.00    -0.373 N 
ATOM     20  C   UNL A   1      33.382  25.151  23.131  1.00  0.00     0.143 C 
BRANCH  19  21
ATOM     21  C   UNL A   1      32.323  24.902  25.383  1.00  0.00     0.119 C 
BRANCH  21  22
ATOM     22  C   UNL A   1      30.895  24.327  25.496  1.00  0.00     0.002 C 
ATOM     23  C   UNL A   1      30.831  23.149  26.474  1.00  0.00     0.009 C 
ATOM     24  C   UNL A   1      29.874  25.382  25.931  1.00  0.00     0.009 C 
ENDBRANCH  21  22
ENDBRANCH  19  21
ENDBRANCH   9  19
BRANCH  18  25
ATOM     25  C   UNL A   1      39.677  23.134  26.865  1.00  0.00     0.430 C 
ATOM     26  F   UNL A   1      40.926  23.486  26.488  1.00  0.00    -0.167 F 
ATOM     27  F   UNL A   1      39.095  24.185  27.478  1.00  0.00    -0.167 F 
ATOM     28  F   UNL A   1      39.810  22.172  27.817  1.00  0.00    -0.167 F 
ENDBRANCH  18  25
ENDBRANCH   6   8
ENDBRANCH   5   6
ENDBRANCH   4   5
ENDBRANCH   3   4
ENDBRANCH   2   3
ENDBRANCH   1   2
BRANCH   1  29
ATOM     29  C   UNL A   1      45.901  19.906  25.355  1.00  0.00     0.188 C 
BRANCH  29  30
ATOM     30  O   UNL A   1      46.337  21.250  25.338  1.00  0.00    -0.376 OA
BRANCH  30  31
ATOM     31  C   UNL A   1      45.680  22.208  26.153  1.00  0.00     0.202 C 
BRANCH  31  32
ATOM     32  C   UNL A   1      44.836  23.341  25.548  1.00  0.00     0.261 C 
BRANCH  32  33
ATOM     33  O   UNL A   1      44.394  24.343  26.471  1.00  0.00    -0.460 OA
BRANCH  33  34
ATOM     34  C   UNL A   1      43.679  25.362  25.929  1.00  0.00     0.338 C 
ATOM     35  O   UNL A   1      43.383  25.526  24.758  1.00  0.00    -0.246 OA
BRANCH  34  36
ATOM     36  C   UNL A   1      43.118  26.165  27.030  1.00  0.00     0.060 A 
ATOM     37  C   UNL A   1      42.261  25.579  27.960  1.00  0.00     0.016 A 
ATOM     38  C   UNL A   1      43.450  27.526  27.119  1.00  0.00     0.016 A 
ATOM     39  C   UNL A   1      41.747  26.358  28.996  1.00  0.00     0.010 A 
ATOM     40  C   UNL A   1      42.918  28.307  28.144  1.00  0.00     0.010 A 
ATOM     41  C   UNL A   1      42.080  27.722  29.101  1.00  0.00    -0.014 A 
BRANCH  41  42
ATOM     42  C   UNL A   1      41.685  28.475  30.313  1.00  0.00     0.031 A 
ATOM     43  C   UNL A   1      42.442  28.367  31.598  1.00  0.00     0.074 A 
ATOM     44  C   UNL A   1      40.613  29.282  30.224  1.00  0.00     0.049 A 
ATOM     45  N   UNL A   1      42.309  29.075  32.691  1.00  0.00    -0.248 NA
ATOM     46  C   UNL A   1      43.474  27.325  31.672  1.00  0.00     0.031 C 
ATOM     47  C   UNL A   1      39.777  29.435  29.033  1.00  0.00     0.029 A 
ATOM     48  N   UNL A   1      40.058  30.138  31.138  1.00  0.00    -0.354 N 
ATOM     49  C   UNL A   1      43.254  28.584  33.580  1.00  0.00     0.074 A 
ATOM     50  C   UNL A   1      43.916  27.479  32.914  1.00  0.00     0.031 C 
ATOM     51  C   UNL A   1      38.845  30.368  29.272  1.00  0.00     0.029 A 
ATOM     52  C   UNL A   1      39.002  30.858  30.637  1.00  0.00     0.049 A 
ATOM     53  H   UNL A   1      40.384  30.228  32.063  1.00  0.00     0.167 HD
ATOM     54  C   UNL A   1      43.548  29.027  34.829  1.00  0.00     0.037 A 
ATOM     55  C   UNL A   1      38.257  31.819  31.210  1.00  0.00     0.037 A 
ATOM     56  C   UNL A   1      42.853  30.103  35.495  1.00  0.00     0.049 A 
ATOM     57  C   UNL A   1      38.565  32.247  32.615  1.00  0.00     0.074 A 
ATOM     58  C   UNL A   1      43.109  30.661  36.737  1.00  0.00     0.029 A 
ATOM     59  N   UNL A   1      41.743  30.764  34.988  1.00  0.00    -0.354 N 
ATOM     60  N   UNL A   1      39.533  31.855  33.408  1.00  0.00    -0.248 NA
ATOM     61  C   UNL A   1      37.676  33.257  33.201  1.00  0.00     0.031 C 
ATOM     62  C   UNL A   1      42.115  31.609  37.007  1.00  0.00     0.029 A 
ATOM     63  C   UNL A   1      41.275  31.691  35.909  1.00  0.00     0.049 A 
ATOM     64  H   UNL A   1      41.345  30.600  34.102  1.00  0.00     0.167 HD
ATOM     65  C   UNL A   1      39.386  32.590  34.577  1.00  0.00     0.074 A 
ATOM     66  C   UNL A   1      38.248  33.464  34.378  1.00  0.00     0.031 C 
ATOM     67  C   UNL A   1      40.129  32.545  35.711  1.00  0.00     0.037 A 
BRANCH  54  68
ATOM     68  C   UNL A   1      44.657  28.324  35.562  1.00  0.00     0.057 A 
ATOM     69  C   UNL A   1      44.429  27.105  36.213  1.00  0.00     0.134 A 
ATOM     70  C   UNL A   1      45.952  28.859  35.634  1.00  0.00     0.134 A 
ATOM     71  F   UNL A   1      43.211  26.543  36.200  1.00  0.00    -0.206 F 
ATOM     72  C   UNL A   1      45.449  26.437  36.893  1.00  0.00     0.040 A 
ATOM     73  C   UNL A   1      46.987  28.185  36.286  1.00  0.00     0.040 A 
ATOM     74  F   UNL A   1      46.242  30.022  35.032  1.00  0.00    -0.206 F 
ATOM     75  C   UNL A   1      46.735  26.971  36.921  1.00  0.00     0.006 A 
ENDBRANCH  54  68
BRANCH  55  76
ATOM     76  C   UNL A   1      37.177  32.477  30.435  1.00  0.00     0.057 A 
ATOM     77  C   UNL A   1      35.843  32.069  30.544  1.00  0.00     0.134 A 
ATOM     78  C   UNL A   1      37.461  33.538  29.567  1.00  0.00     0.134 A 
ATOM     79  F   UNL A   1      35.511  31.051  31.352  1.00  0.00    -0.206 F 
ATOM     80  C   UNL A   1      34.829  32.689  29.815  1.00  0.00     0.040 A 
ATOM     81  C   UNL A   1      36.454  34.185  28.851  1.00  0.00     0.040 A 
ATOM     82  F   UNL A   1      38.721  33.980  29.431  1.00  0.00    -0.206 F 
ATOM     83  C   UNL A   1      35.133  33.757  28.972  1.00  0.00     0.006 A 
ENDBRANCH  55  76
BRANCH  67  84
ATOM     84  C   UNL A   1      39.736  33.488  36.815  1.00  0.00     0.057 A 
ATOM     85  C   UNL A   1      40.285  34.775  36.884  1.00  0.00     0.134 A 
ATOM     86  C   UNL A   1      38.814  33.127  37.808  1.00  0.00     0.134 A 
ATOM     87  F   UNL A   1      41.178  35.186  35.972  1.00  0.00    -0.206 F 
ATOM     88  C   UNL A   1      39.928  35.669  37.896  1.00  0.00     0.040 A 
ATOM     89  C   UNL A   1      38.425  34.024  38.805  1.00  0.00     0.040 A 
ATOM     90  F   UNL A   1      38.237  31.916  37.791  1.00  0.00    -0.206 F 
ATOM     91  C   UNL A   1      38.987  35.297  38.853  1.00  0.00     0.006 A 
ENDBRANCH  67  84
ENDBRANCH  41  42
ENDBRANCH  34  36
ENDBRANCH  33  34
ENDBRANCH  32  33
ENDBRANCH  31  32
ENDBRANCH  30  31
ENDBRANCH  29  30
ENDBRANCH   1  29
TORSDOF 21
ENDMDL
MODEL 3
REMARK VINA RESULT:      -9.5      0.845      6.029
REMARK SMILES CC(C)CN(C)c1cc2c(cc1Cl)C=C(C(=O)OCCOCCOCCOC(=O)c1ccc(-c3c4nc(c(-c5c(F)cccc5F)c5ccc([nH]5)c(-c5c(F)cccc5F)c5nc(c(-c6c(F)cccc6F)c6ccc3[nH]6)C=C5)C=C4)cc1)[C@H](C(F)(F)F)O2
REMARK SMILES IDX 22 1 21 2 20 3 19 4 18 5 16 6 17 7 15 8 7 9 8 10 12 11 9 12
REMARK SMILES IDX 11 13 13 14 10 15 89 16 14 17 84 18 5 19 6 20 4 21 2 22 1 23
REMARK SMILES IDX 3 24 85 25 86 26 87 27 88 28 23 29 24 30 25 31 26 32 27 33
REMARK SMILES IDX 28 34 29 35 30 36 31 37 83 38 32 39 82 40 33 41 34 42 35 43
REMARK SMILES IDX 76 44 36 45 81 46 75 47 77 48 37 49 80 50 74 51 73 52 38 54
REMARK SMILES IDX 64 55 47 56 63 57 48 58 51 59 62 60 78 61 49 62 50 63 61 65
REMARK SMILES IDX 79 66 52 67 39 68 40 69 45 70 41 71 42 72 44 73 46 74 43 75
REMARK SMILES IDX 65 76 66 77 71 78 67 79 68 80 70 81 72 82 69 83 53 84 54 85
REMARK SMILES IDX 59 86 55 87 56 88 58 89 60 90 57 91
REMARK H PARENT 77 53 51 64
REMARK Flexibility Score: inf
ROOT
ATOM      1  C   UNL A   1      31.794  22.030  24.330  1.00  0.00     0.188 C 
ENDROOT
BRANCH   1   2
ATOM      2  O   UNL A   1      31.406  22.646  23.125  1.00  0.00    -0.376 OA
BRANCH   2   3
ATOM      3  C   UNL A   1      30.971  23.999  23.110  1.00  0.00     0.202 C 
BRANCH   3   4
ATOM      4  C   UNL A   1      30.397  24.759  24.320  1.00  0.00     0.261 C 
BRANCH   4   5
ATOM      5  O   UNL A   1      30.205  26.168  24.158  1.00  0.00    -0.460 OA
BRANCH   5   6
ATOM      6  C   UNL A   1      31.266  26.844  23.671  1.00  0.00     0.338 C 
ATOM      7  O   UNL A   1      31.462  27.127  22.498  1.00  0.00    -0.246 OA
BRANCH   6   8
ATOM      8  C   UNL A   1      32.106  27.391  24.754  1.00  0.00     0.087 C 
ATOM      9  C   UNL A   1      34.085  31.086  27.568  1.00  0.00     0.059 A 
ATOM     10  C   UNL A   1      34.532  29.814  27.146  1.00  0.00     0.074 A 
ATOM     11  C   UNL A   1      32.775  31.450  27.189  1.00  0.00     0.065 A 
ATOM     12  C   UNL A   1      33.713  28.958  26.396  1.00  0.00     0.130 A 
ATOM     13  C   UNL A   1      31.915  30.541  26.568  1.00  0.00     0.034 A 
ATOM     14  Cl  UNL A   1      32.178  33.072  27.300  1.00  0.00    -0.082 Cl
ATOM     15  C   UNL A   1      32.387  29.298  26.160  1.00  0.00     0.019 A 
ATOM     16  O   UNL A   1      34.293  27.828  25.892  1.00  0.00    -0.475 OA
ATOM     17  C   UNL A   1      31.537  28.438  25.366  1.00  0.00     0.027 C 
ATOM     18  C   UNL A   1      33.552  27.001  24.933  1.00  0.00     0.316 C 
BRANCH   9  19
ATOM     19  N   UNL A   1      34.933  31.950  28.276  1.00  0.00    -0.373 N 
ATOM     20  C   UNL A   1      36.355  31.854  27.954  1.00  0.00     0.143 C 
BRANCH  19  21
ATOM     21  C   UNL A   1      34.600  32.286  29.683  1.00  0.00     0.119 C 
BRANCH  21  22
ATOM     22  C   UNL A   1      34.313  33.785  29.910  1.00  0.00     0.002 C 
ATOM     23  C   UNL A   1      34.796  34.255  31.286  1.00  0.00     0.009 C 
ATOM     24  C   UNL A   1      34.954  34.671  28.837  1.00  0.00     0.009 C 
ENDBRANCH  21  22
ENDBRANCH  19  21
ENDBRANCH   9  19
BRANCH  18  25
ATOM     25  C   UNL A   1      33.823  25.541  25.340  1.00  0.00     0.430 C 
ATOM     26  F   UNL A   1      35.044  25.388  25.898  1.00  0.00    -0.167 F 
ATOM     27  F   UNL A   1      32.894  25.055  26.189  1.00  0.00    -0.167 F 
ATOM     28  F   UNL A   1      33.787  24.736  24.245  1.00  0.00    -0.167 F 
ENDBRANCH  18  25
ENDBRANCH   6   8
ENDBRANCH   5   6
ENDBRANCH   4   5
ENDBRANCH   3   4
ENDBRANCH   2   3
ENDBRANCH   1   2
BRANCH   1  29
ATOM     29  C   UNL A   1      33.281  21.657  24.490  1.00  0.00     0.188 C 
BRANCH  29  30
ATOM     30  O   UNL A   1      33.794  21.220  25.733  1.00  0.00    -0.376 OA
BRANCH  30  31
ATOM     31  C   UNL A   1      35.130  21.539  26.088  1.00  0.00     0.202 C 
BRANCH  31  32
ATOM     32  C   UNL A   1      36.331  20.905  25.367  1.00  0.00     0.261 C 
BRANCH  32  33
ATOM     33  O   UNL A   1      37.460  21.764  25.175  1.00  0.00    -0.460 OA
BRANCH  33  34
ATOM     34  C   UNL A   1      38.607  21.368  25.784  1.00  0.00     0.338 C 
ATOM     35  O   UNL A   1      39.124  20.264  25.756  1.00  0.00    -0.246 OA
BRANCH  34  36
ATOM     36  C   UNL A   1      39.269  22.562  26.338  1.00  0.00     0.060 A 
ATOM     37  C   UNL A   1      40.371  22.426  27.182  1.00  0.00     0.016 A 
ATOM     38  C   UNL A   1      38.768  23.832  26.013  1.00  0.00     0.016 A 
ATOM     39  C   UNL A   1      40.983  23.571  27.690  1.00  0.00     0.010 A 
ATOM     40  C   UNL A   1      39.370  24.975  26.539  1.00  0.00     0.010 A 
ATOM     41  C   UNL A   1      40.495  24.851  27.363  1.00  0.00    -0.014 A 
BRANCH  41  42
ATOM     42  C   UNL A   1      41.276  26.047  27.749  1.00  0.00     0.031 A 
ATOM     43  C   UNL A   1      40.741  27.078  28.691  1.00  0.00     0.074 A 
ATOM     44  C   UNL A   1      42.509  26.181  27.228  1.00  0.00     0.049 A 
ATOM     45  N   UNL A   1      41.362  28.093  29.236  1.00  0.00    -0.248 NA
ATOM     46  C   UNL A   1      39.325  26.963  29.060  1.00  0.00     0.031 C 
ATOM     47  C   UNL A   1      43.118  25.258  26.269  1.00  0.00     0.029 A 
ATOM     48  N   UNL A   1      43.475  27.128  27.445  1.00  0.00    -0.354 N 
ATOM     49  C   UNL A   1      40.423  28.729  30.035  1.00  0.00     0.074 A 
ATOM     50  C   UNL A   1      39.173  28.014  29.856  1.00  0.00     0.031 C 
ATOM     51  C   UNL A   1      44.374  25.655  26.018  1.00  0.00     0.029 A 
ATOM     52  C   UNL A   1      44.647  26.871  26.777  1.00  0.00     0.049 A 
ATOM     53  H   UNL A   1      43.343  27.913  28.023  1.00  0.00     0.167 HD
ATOM     54  C   UNL A   1      40.595  29.800  30.849  1.00  0.00     0.037 A 
ATOM     55  C   UNL A   1      45.817  27.533  26.791  1.00  0.00     0.037 A 
ATOM     56  C   UNL A   1      41.834  30.527  30.987  1.00  0.00     0.049 A 
ATOM     57  C   UNL A   1      45.960  28.752  27.655  1.00  0.00     0.074 A 
ATOM     58  C   UNL A   1      42.126  31.591  31.824  1.00  0.00     0.029 A 
ATOM     59  N   UNL A   1      42.982  30.285  30.244  1.00  0.00    -0.354 N 
ATOM     60  N   UNL A   1      45.101  29.280  28.492  1.00  0.00    -0.248 NA
ATOM     61  C   UNL A   1      47.243  29.462  27.577  1.00  0.00     0.031 C 
ATOM     62  C   UNL A   1      43.424  32.035  31.539  1.00  0.00     0.029 A 
ATOM     63  C   UNL A   1      43.967  31.208  30.570  1.00  0.00     0.049 A 
ATOM     64  H   UNL A   1      43.083  29.563  29.581  1.00  0.00     0.167 HD
ATOM     65  C   UNL A   1      45.748  30.370  29.061  1.00  0.00     0.074 A 
ATOM     66  C   UNL A   1      47.078  30.410  28.486  1.00  0.00     0.031 C 
ATOM     67  C   UNL A   1      45.283  31.253  29.979  1.00  0.00     0.037 A 
BRANCH  54  68
ATOM     68  C   UNL A   1      39.399  30.262  31.637  1.00  0.00     0.057 A 
ATOM     69  C   UNL A   1      38.597  31.314  31.174  1.00  0.00     0.134 A 
ATOM     70  C   UNL A   1      39.046  29.674  32.859  1.00  0.00     0.134 A 
ATOM     71  F   UNL A   1      38.885  31.934  30.020  1.00  0.00    -0.206 F 
ATOM     72  C   UNL A   1      37.481  31.751  31.890  1.00  0.00     0.040 A 
ATOM     73  C   UNL A   1      37.915  30.084  33.569  1.00  0.00     0.040 A 
ATOM     74  F   UNL A   1      39.768  28.661  33.361  1.00  0.00    -0.206 F 
ATOM     75  C   UNL A   1      37.129  31.127  33.084  1.00  0.00     0.006 A 
ENDBRANCH  54  68
BRANCH  55  76
ATOM     76  C   UNL A   1      46.961  27.028  25.995  1.00  0.00     0.057 A 
ATOM     77  C   UNL A   1      47.145  27.398  24.657  1.00  0.00     0.134 A 
ATOM     78  C   UNL A   1      47.903  26.161  26.562  1.00  0.00     0.134 A 
ATOM     79  F   UNL A   1      46.271  28.218  24.056  1.00  0.00    -0.206 F 
ATOM     80  C   UNL A   1      48.222  26.921  23.910  1.00  0.00     0.040 A 
ATOM     81  C   UNL A   1      48.999  25.697  25.835  1.00  0.00     0.040 A 
ATOM     82  F   UNL A   1      47.785  25.782  27.843  1.00  0.00    -0.206 F 
ATOM     83  C   UNL A   1      49.158  26.075  24.503  1.00  0.00     0.006 A 
ENDBRANCH  55  76
BRANCH  67  84
ATOM     84  C   UNL A   1      46.234  32.329  30.427  1.00  0.00     0.057 A 
ATOM     85  C   UNL A   1      47.116  32.103  31.492  1.00  0.00     0.134 A 
ATOM     86  C   UNL A   1      46.283  33.584  29.806  1.00  0.00     0.134 A 
ATOM     87  F   UNL A   1      47.121  30.928  32.137  1.00  0.00    -0.206 F 
ATOM     88  C   UNL A   1      48.014  33.085  31.919  1.00  0.00     0.040 A 
ATOM     89  C   UNL A   1      47.199  34.562  30.202  1.00  0.00     0.040 A 
ATOM     90  F   UNL A   1      45.479  33.861  28.768  1.00  0.00    -0.206 F 
ATOM     91  C   UNL A   1      48.064  34.314  31.265  1.00  0.00     0.006 A 
ENDBRANCH  67  84
ENDBRANCH  41  42
ENDBRANCH  34  36
ENDBRANCH  33  34
ENDBRANCH  32  33
ENDBRANCH  31  32
ENDBRANCH  30  31
ENDBRANCH  29  30
ENDBRANCH   1  29
TORSDOF 21
ENDMDL
