MODEL 1
REMARK VINA RESULT:      -9.7      0.000      0.000
REMARK SMILES CC(C)C[C@@H](NC(=O)Cn1nc(O)ccc1=O)C(=O)OCCOCCOCCOC(=O)c1ccc(-c2c3nc(c(-c4c(F)cccc4F)c4ccc([nH]4)c(-c4c(F)cccc4F)c4nc(c(-c5c(F)cccc5F)c5ccc2[nH]5)C=C4)C=C3)cc1
REMARK SMILES IDX 24 1 23 2 22 3 21 4 20 5 18 6 19 7 5 8 4 9 2 10 1 11 3 12
REMARK SMILES IDX 6 13 7 14 8 16 9 17 10 18 11 19 16 20 12 21 15 22 17 23
REMARK SMILES IDX 14 24 13 25 25 27 26 28 27 29 28 30 29 31 30 32 31 33 32 34
REMARK SMILES IDX 33 35 85 36 34 37 84 38 35 39 36 40 37 41 78 42 38 43 83 44
REMARK SMILES IDX 77 45 79 46 39 47 82 48 76 49 75 50 40 52 66 53 49 54 65 55
REMARK SMILES IDX 50 56 53 57 64 58 80 59 51 60 52 61 63 63 81 64 54 65 41 66
REMARK SMILES IDX 42 67 47 68 43 69 44 70 46 71 48 72 45 73 67 74 68 75 73 76
REMARK SMILES IDX 69 77 70 78 72 79 74 80 71 81 55 82 56 83 61 84 57 85 58 86
REMARK SMILES IDX 60 87 62 88 59 89
REMARK H PARENT 6 15 13 26 79 51 53 62
REMARK Flexibility Score: inf
ROOT
ATOM      1  C   UNL A   1      34.042  30.980  27.864  1.00  0.00     0.188 C 
ENDROOT
BRANCH   1   2
ATOM      2  O   UNL A   1      33.807  30.250  26.666  1.00  0.00    -0.376 OA
BRANCH   2   3
ATOM      3  C   UNL A   1      34.398  28.950  26.693  1.00  0.00     0.202 C 
BRANCH   3   4
ATOM      4  C   UNL A   1      33.430  27.833  26.262  1.00  0.00     0.261 C 
BRANCH   4   5
ATOM      5  O   UNL A   1      34.082  26.748  25.554  1.00  0.00    -0.462 OA
BRANCH   5   6
ATOM      6  C   UNL A   1      33.524  25.514  25.612  1.00  0.00     0.328 C 
ATOM      7  O   UNL A   1      32.418  25.277  26.086  1.00  0.00    -0.250 OA
BRANCH   6   8
ATOM      8  C   UNL A   1      34.336  24.446  24.844  1.00  0.00     0.192 C 
BRANCH   8   9
ATOM      9  C   UNL A   1      35.283  23.630  25.752  1.00  0.00     0.040 C 
BRANCH   9  10
ATOM     10  C   UNL A   1      34.912  22.132  25.869  1.00  0.00    -0.015 C 
ATOM     11  C   UNL A   1      36.139  21.232  25.674  1.00  0.00     0.007 C 
ATOM     12  C   UNL A   1      34.297  21.837  27.241  1.00  0.00     0.007 C 
ENDBRANCH   9  10
ENDBRANCH   8   9
BRANCH   8  13
ATOM     13  N   UNL A   1      33.660  23.613  23.841  1.00  0.00    -0.341 N 
ATOM     14  C   UNL A   1      32.940  23.835  22.711  1.00  0.00     0.242 C 
ATOM     15  H   UNL A   1      33.751  22.652  24.037  1.00  0.00     0.164 HD
ATOM     16  O   UNL A   1      32.282  22.870  22.302  1.00  0.00    -0.273 OA
BRANCH  14  17
ATOM     17  C   UNL A   1      32.972  25.135  21.920  1.00  0.00     0.248 C 
BRANCH  17  18
ATOM     18  N   UNL A   1      32.364  26.318  22.513  1.00  0.00    -0.217 N 
ATOM     19  N   UNL A   1      31.064  26.193  22.973  1.00  0.00    -0.131 NA
ATOM     20  C   UNL A   1      32.992  27.550  22.335  1.00  0.00     0.267 A 
ATOM     21  C   UNL A   1      30.472  27.288  23.286  1.00  0.00     0.229 A 
ATOM     22  C   UNL A   1      32.249  28.746  22.799  1.00  0.00     0.079 A 
ATOM     23  O   UNL A   1      34.080  27.712  21.792  1.00  0.00    -0.268 OA
ATOM     24  C   UNL A   1      30.995  28.642  23.243  1.00  0.00     0.075 A 
BRANCH  21  25
ATOM     25  O   UNL A   1      29.202  27.257  23.700  1.00  0.00    -0.492 OA
ATOM     26  H   UNL A   1      29.003  27.023  24.586  1.00  0.00     0.295 HD
ENDBRANCH  21  25
ENDBRANCH  17  18
ENDBRANCH  14  17
ENDBRANCH   8  13
ENDBRANCH   6   8
ENDBRANCH   5   6
ENDBRANCH   4   5
ENDBRANCH   3   4
ENDBRANCH   2   3
ENDBRANCH   1   2
BRANCH   1  27
ATOM     27  C   UNL A   1      33.595  32.414  27.738  1.00  0.00     0.188 C 
BRANCH  27  28
ATOM     28  O   UNL A   1      34.550  33.321  28.293  1.00  0.00    -0.376 OA
BRANCH  28  29
ATOM     29  C   UNL A   1      34.000  34.173  29.299  1.00  0.00     0.202 C 
BRANCH  29  30
ATOM     30  C   UNL A   1      34.525  33.951  30.732  1.00  0.00     0.261 C 
BRANCH  30  31
ATOM     31  O   UNL A   1      34.750  32.553  31.008  1.00  0.00    -0.460 OA
BRANCH  31  32
ATOM     32  C   UNL A   1      35.683  32.273  31.959  1.00  0.00     0.338 C 
ATOM     33  O   UNL A   1      35.560  32.415  33.157  1.00  0.00    -0.246 OA
BRANCH  32  34
ATOM     34  C   UNL A   1      36.807  31.510  31.334  1.00  0.00     0.060 A 
ATOM     35  C   UNL A   1      36.982  31.435  29.950  1.00  0.00     0.016 A 
ATOM     36  C   UNL A   1      37.642  30.758  32.179  1.00  0.00     0.016 A 
ATOM     37  C   UNL A   1      38.010  30.649  29.420  1.00  0.00     0.010 A 
ATOM     38  C   UNL A   1      38.671  29.971  31.649  1.00  0.00     0.010 A 
ATOM     39  C   UNL A   1      38.883  29.940  30.264  1.00  0.00    -0.014 A 
BRANCH  39  40
ATOM     40  C   UNL A   1      40.156  29.418  29.707  1.00  0.00     0.031 A 
ATOM     41  C   UNL A   1      40.331  28.016  29.211  1.00  0.00     0.074 A 
ATOM     42  C   UNL A   1      41.183  30.288  29.640  1.00  0.00     0.049 A 
ATOM     43  N   UNL A   1      41.344  27.506  28.553  1.00  0.00    -0.248 NA
ATOM     44  C   UNL A   1      39.251  27.064  29.493  1.00  0.00     0.031 C 
ATOM     45  C   UNL A   1      41.149  31.662  30.149  1.00  0.00     0.029 A 
ATOM     46  N   UNL A   1      42.437  30.160  29.107  1.00  0.00    -0.354 N 
ATOM     47  C   UNL A   1      41.014  26.180  28.310  1.00  0.00     0.074 A 
ATOM     48  C   UNL A   1      39.729  25.951  28.944  1.00  0.00     0.031 C 
ATOM     49  C   UNL A   1      42.314  32.261  29.873  1.00  0.00     0.029 A 
ATOM     50  C   UNL A   1      43.178  31.313  29.179  1.00  0.00     0.049 A 
ATOM     51  H   UNL A   1      42.775  29.323  28.713  1.00  0.00     0.167 HD
ATOM     52  C   UNL A   1      41.712  25.252  27.607  1.00  0.00     0.037 A 
ATOM     53  C   UNL A   1      44.411  31.589  28.720  1.00  0.00     0.037 A 
ATOM     54  C   UNL A   1      43.007  25.477  27.009  1.00  0.00     0.049 A 
ATOM     55  C   UNL A   1      45.162  30.540  27.957  1.00  0.00     0.074 A 
ATOM     56  C   UNL A   1      43.772  24.609  26.245  1.00  0.00     0.029 A 
ATOM     57  N   UNL A   1      43.741  26.649  27.121  1.00  0.00    -0.354 N 
ATOM     58  N   UNL A   1      44.791  29.325  27.641  1.00  0.00    -0.248 NA
ATOM     59  C   UNL A   1      46.499  30.911  27.475  1.00  0.00     0.031 C 
ATOM     60  C   UNL A   1      44.982  25.240  25.932  1.00  0.00     0.029 A 
ATOM     61  C   UNL A   1      44.956  26.518  26.464  1.00  0.00     0.049 A 
ATOM     62  H   UNL A   1      43.443  27.458  27.598  1.00  0.00     0.167 HD
ATOM     63  C   UNL A   1      45.842  28.788  26.911  1.00  0.00     0.074 A 
ATOM     64  C   UNL A   1      46.850  29.823  26.806  1.00  0.00     0.031 C 
ATOM     65  C   UNL A   1      45.963  27.547  26.381  1.00  0.00     0.037 A 
BRANCH  52  66
ATOM     66  C   UNL A   1      41.080  23.900  27.424  1.00  0.00     0.057 A 
ATOM     67  C   UNL A   1      41.585  22.768  28.076  1.00  0.00     0.134 A 
ATOM     68  C   UNL A   1      40.011  23.711  26.538  1.00  0.00     0.134 A 
ATOM     69  F   UNL A   1      42.618  22.873  28.925  1.00  0.00    -0.206 F 
ATOM     70  C   UNL A   1      41.049  21.497  27.853  1.00  0.00     0.040 A 
ATOM     71  C   UNL A   1      39.453  22.449  26.323  1.00  0.00     0.040 A 
ATOM     72  F   UNL A   1      39.485  24.752  25.876  1.00  0.00    -0.206 F 
ATOM     73  C   UNL A   1      39.977  21.336  26.977  1.00  0.00     0.006 A 
ENDBRANCH  52  66
BRANCH  53  74
ATOM     74  C   UNL A   1      44.991  32.935  28.937  1.00  0.00     0.057 A 
ATOM     75  C   UNL A   1      44.716  33.992  28.061  1.00  0.00     0.134 A 
ATOM     76  C   UNL A   1      45.831  33.193  30.025  1.00  0.00     0.134 A 
ATOM     77  F   UNL A   1      43.930  33.799  26.992  1.00  0.00    -0.206 F 
ATOM     78  C   UNL A   1      45.255  35.262  28.262  1.00  0.00     0.040 A 
ATOM     79  C   UNL A   1      46.357  34.465  30.252  1.00  0.00     0.040 A 
ATOM     80  F   UNL A   1      46.120  32.221  30.901  1.00  0.00    -0.206 F 
ATOM     81  C   UNL A   1      46.071  35.504  29.366  1.00  0.00     0.006 A 
ENDBRANCH  53  74
BRANCH  65  82
ATOM     82  C   UNL A   1      47.237  27.255  25.644  1.00  0.00     0.057 A 
ATOM     83  C   UNL A   1      47.366  27.558  24.283  1.00  0.00     0.134 A 
ATOM     84  C   UNL A   1      48.348  26.693  26.288  1.00  0.00     0.134 A 
ATOM     85  F   UNL A   1      46.341  28.095  23.603  1.00  0.00    -0.206 F 
ATOM     86  C   UNL A   1      48.556  27.321  23.592  1.00  0.00     0.040 A 
ATOM     87  C   UNL A   1      49.552  26.477  25.615  1.00  0.00     0.040 A 
ATOM     88  F   UNL A   1      48.297  26.399  27.596  1.00  0.00    -0.206 F 
ATOM     89  C   UNL A   1      49.657  26.789  24.261  1.00  0.00     0.006 A 
ENDBRANCH  65  82
ENDBRANCH  39  40
ENDBRANCH  32  34
ENDBRANCH  31  32
ENDBRANCH  30  31
ENDBRANCH  29  30
ENDBRANCH  28  29
ENDBRANCH  27  28
ENDBRANCH   1  27
TORSDOF 23
ENDMDL
MODEL 2
REMARK VINA RESULT:      -9.5      1.197      2.062
REMARK SMILES CC(C)C[C@@H](NC(=O)Cn1nc(O)ccc1=O)C(=O)OCCOCCOCCOC(=O)c1ccc(-c2c3nc(c(-c4c(F)cccc4F)c4ccc([nH]4)c(-c4c(F)cccc4F)c4nc(c(-c5c(F)cccc5F)c5ccc2[nH]5)C=C4)C=C3)cc1
REMARK SMILES IDX 24 1 23 2 22 3 21 4 20 5 18 6 19 7 5 8 4 9 2 10 1 11 3 12
REMARK SMILES IDX 6 13 7 14 8 16 9 17 10 18 11 19 16 20 12 21 15 22 17 23
REMARK SMILES IDX 14 24 13 25 25 27 26 28 27 29 28 30 29 31 30 32 31 33 32 34
REMARK SMILES IDX 33 35 85 36 34 37 84 38 35 39 36 40 37 41 78 42 38 43 83 44
REMARK SMILES IDX 77 45 79 46 39 47 82 48 76 49 75 50 40 52 66 53 49 54 65 55
REMARK SMILES IDX 50 56 53 57 64 58 80 59 51 60 52 61 63 63 81 64 54 65 41 66
REMARK SMILES IDX 42 67 47 68 43 69 44 70 46 71 48 72 45 73 67 74 68 75 73 76
REMARK SMILES IDX 69 77 70 78 72 79 74 80 71 81 55 82 56 83 61 84 57 85 58 86
REMARK SMILES IDX 60 87 62 88 59 89
REMARK H PARENT 6 15 13 26 79 51 53 62
REMARK Flexibility Score: inf
ROOT
ATOM      1  C   UNL A   1      33.401  31.619  27.912  1.00  0.00     0.188 C 
ENDROOT
BRANCH   1   2
ATOM      2  O   UNL A   1      33.722  30.902  26.725  1.00  0.00    -0.376 OA
BRANCH   2   3
ATOM      3  C   UNL A   1      34.641  29.836  26.963  1.00  0.00     0.202 C 
BRANCH   3   4
ATOM      4  C   UNL A   1      33.950  28.501  27.298  1.00  0.00     0.261 C 
BRANCH   4   5
ATOM      5  O   UNL A   1      32.808  28.216  26.451  1.00  0.00    -0.462 OA
BRANCH   5   6
ATOM      6  C   UNL A   1      32.519  26.921  26.174  1.00  0.00     0.328 C 
ATOM      7  O   UNL A   1      31.721  26.239  26.809  1.00  0.00    -0.250 OA
BRANCH   6   8
ATOM      8  C   UNL A   1      33.152  26.430  24.852  1.00  0.00     0.192 C 
BRANCH   8   9
ATOM      9  C   UNL A   1      34.238  25.351  25.059  1.00  0.00     0.040 C 
BRANCH   9  10
ATOM     10  C   UNL A   1      33.986  24.040  24.277  1.00  0.00    -0.015 C 
ATOM     11  C   UNL A   1      35.301  23.394  23.824  1.00  0.00     0.007 C 
ATOM     12  C   UNL A   1      33.216  23.038  25.143  1.00  0.00     0.007 C 
ENDBRANCH   9  10
ENDBRANCH   8   9
BRANCH   8  13
ATOM     13  N   UNL A   1      32.284  26.143  23.703  1.00  0.00    -0.341 N 
ATOM     14  C   UNL A   1      31.488  26.867  22.874  1.00  0.00     0.242 C 
ATOM     15  H   UNL A   1      32.275  25.184  23.477  1.00  0.00     0.164 HD
ATOM     16  O   UNL A   1      30.680  26.210  22.205  1.00  0.00    -0.273 OA
BRANCH  14  17
ATOM     17  C   UNL A   1      31.600  28.373  22.683  1.00  0.00     0.248 C 
BRANCH  17  18
ATOM     18  N   UNL A   1      30.389  29.173  22.796  1.00  0.00    -0.217 N 
ATOM     19  N   UNL A   1      29.588  29.264  21.670  1.00  0.00    -0.131 NA
ATOM     20  C   UNL A   1      30.246  30.013  23.899  1.00  0.00     0.267 A 
ATOM     21  C   UNL A   1      28.652  30.142  21.717  1.00  0.00     0.229 A 
ATOM     22  C   UNL A   1      29.089  30.939  23.883  1.00  0.00     0.079 A 
ATOM     23  O   UNL A   1      31.024  30.067  24.847  1.00  0.00    -0.268 OA
ATOM     24  C   UNL A   1      28.309  31.039  22.806  1.00  0.00     0.075 A 
BRANCH  21  25
ATOM     25  O   UNL A   1      27.861  30.321  20.655  1.00  0.00    -0.492 OA
ATOM     26  H   UNL A   1      28.222  30.640  19.851  1.00  0.00     0.295 HD
ENDBRANCH  21  25
ENDBRANCH  17  18
ENDBRANCH  14  17
ENDBRANCH   8  13
ENDBRANCH   6   8
ENDBRANCH   5   6
ENDBRANCH   4   5
ENDBRANCH   3   4
ENDBRANCH   2   3
ENDBRANCH   1   2
BRANCH   1  27
ATOM     27  C   UNL A   1      33.163  33.081  27.631  1.00  0.00     0.188 C 
BRANCH  27  28
ATOM     28  O   UNL A   1      34.176  33.907  28.211  1.00  0.00    -0.376 OA
BRANCH  28  29
ATOM     29  C   UNL A   1      33.743  34.587  29.391  1.00  0.00     0.202 C 
BRANCH  29  30
ATOM     30  C   UNL A   1      34.450  34.183  30.699  1.00  0.00     0.261 C 
BRANCH  30  31
ATOM     31  O   UNL A   1      34.685  32.761  30.764  1.00  0.00    -0.460 OA
BRANCH  31  32
ATOM     32  C   UNL A   1      35.491  32.333  31.774  1.00  0.00     0.338 C 
ATOM     33  O   UNL A   1      35.243  32.365  32.961  1.00  0.00    -0.246 OA
BRANCH  32  34
ATOM     34  C   UNL A   1      36.637  31.566  31.196  1.00  0.00     0.060 A 
ATOM     35  C   UNL A   1      36.808  31.401  29.819  1.00  0.00     0.016 A 
ATOM     36  C   UNL A   1      37.500  30.902  32.085  1.00  0.00     0.016 A 
ATOM     37  C   UNL A   1      37.859  30.614  29.338  1.00  0.00     0.010 A 
ATOM     38  C   UNL A   1      38.552  30.114  31.604  1.00  0.00     0.010 A 
ATOM     39  C   UNL A   1      38.759  29.994  30.223  1.00  0.00    -0.014 A 
BRANCH  39  40
ATOM     40  C   UNL A   1      40.046  29.477  29.695  1.00  0.00     0.031 A 
ATOM     41  C   UNL A   1      40.240  28.072  29.212  1.00  0.00     0.074 A 
ATOM     42  C   UNL A   1      41.068  30.352  29.642  1.00  0.00     0.049 A 
ATOM     43  N   UNL A   1      41.268  27.564  28.579  1.00  0.00    -0.248 NA
ATOM     44  C   UNL A   1      39.161  27.115  29.480  1.00  0.00     0.031 C 
ATOM     45  C   UNL A   1      41.015  31.729  30.141  1.00  0.00     0.029 A 
ATOM     46  N   UNL A   1      42.334  30.229  29.135  1.00  0.00    -0.354 N 
ATOM     47  C   UNL A   1      40.952  26.234  28.338  1.00  0.00     0.074 A 
ATOM     48  C   UNL A   1      39.656  26.002  28.948  1.00  0.00     0.031 C 
ATOM     49  C   UNL A   1      42.182  32.335  29.883  1.00  0.00     0.029 A 
ATOM     50  C   UNL A   1      43.066  31.388  29.213  1.00  0.00     0.049 A 
ATOM     51  H   UNL A   1      42.685  29.392  28.753  1.00  0.00     0.167 HD
ATOM     52  C   UNL A   1      41.670  25.306  27.656  1.00  0.00     0.037 A 
ATOM     53  C   UNL A   1      44.305  31.669  28.776  1.00  0.00     0.037 A 
ATOM     54  C   UNL A   1      42.975  25.536  27.081  1.00  0.00     0.049 A 
ATOM     55  C   UNL A   1      45.078  30.619  28.036  1.00  0.00     0.074 A 
ATOM     56  C   UNL A   1      43.761  24.667  26.339  1.00  0.00     0.029 A 
ATOM     57  N   UNL A   1      43.699  26.713  27.200  1.00  0.00    -0.354 N 
ATOM     58  N   UNL A   1      44.722  29.399  27.721  1.00  0.00    -0.248 NA
ATOM     59  C   UNL A   1      46.422  30.996  27.578  1.00  0.00     0.031 C 
ATOM     60  C   UNL A   1      44.973  25.304  26.046  1.00  0.00     0.029 A 
ATOM     61  C   UNL A   1      44.928  26.586  26.568  1.00  0.00     0.049 A 
ATOM     62  H   UNL A   1      43.387  27.523  27.665  1.00  0.00     0.167 HD
ATOM     63  C   UNL A   1      45.790  28.865  27.016  1.00  0.00     0.074 A 
ATOM     64  C   UNL A   1      46.793  29.905  26.923  1.00  0.00     0.031 C 
ATOM     65  C   UNL A   1      45.929  27.620  26.497  1.00  0.00     0.037 A 
BRANCH  52  66
ATOM     66  C   UNL A   1      41.051  23.949  27.470  1.00  0.00     0.057 A 
ATOM     67  C   UNL A   1      41.545  22.826  28.145  1.00  0.00     0.134 A 
ATOM     68  C   UNL A   1      40.005  23.745  26.559  1.00  0.00     0.134 A 
ATOM     69  F   UNL A   1      42.556  22.945  29.018  1.00  0.00    -0.206 F 
ATOM     70  C   UNL A   1      41.023  21.550  27.920  1.00  0.00     0.040 A 
ATOM     71  C   UNL A   1      39.460  22.478  26.342  1.00  0.00     0.040 A 
ATOM     72  F   UNL A   1      39.490  24.777  25.874  1.00  0.00    -0.206 F 
ATOM     73  C   UNL A   1      39.974  21.374  27.020  1.00  0.00     0.006 A 
ENDBRANCH  52  66
BRANCH  53  74
ATOM     74  C   UNL A   1      44.873  33.020  28.995  1.00  0.00     0.057 A 
ATOM     75  C   UNL A   1      45.678  33.295  30.106  1.00  0.00     0.134 A 
ATOM     76  C   UNL A   1      44.624  34.063  28.097  1.00  0.00     0.134 A 
ATOM     77  F   UNL A   1      45.939  32.338  31.009  1.00  0.00    -0.206 F 
ATOM     78  C   UNL A   1      46.219  34.563  30.316  1.00  0.00     0.040 A 
ATOM     79  C   UNL A   1      45.179  35.329  28.281  1.00  0.00     0.040 A 
ATOM     80  F   UNL A   1      43.868  33.852  27.011  1.00  0.00    -0.206 F 
ATOM     81  C   UNL A   1      45.978  35.582  29.396  1.00  0.00     0.006 A 
ENDBRANCH  53  74
BRANCH  65  82
ATOM     82  C   UNL A   1      47.220  27.332  25.787  1.00  0.00     0.057 A 
ATOM     83  C   UNL A   1      48.293  26.737  26.461  1.00  0.00     0.134 A 
ATOM     84  C   UNL A   1      47.392  27.624  24.428  1.00  0.00     0.134 A 
ATOM     85  F   UNL A   1      48.197  26.433  27.765  1.00  0.00    -0.206 F 
ATOM     86  C   UNL A   1      49.488  26.434  25.806  1.00  0.00     0.040 A 
ATOM     87  C   UNL A   1      48.573  27.301  23.755  1.00  0.00     0.040 A 
ATOM     88  F   UNL A   1      46.396  28.175  23.719  1.00  0.00    -0.206 F 
ATOM     89  C   UNL A   1      49.626  26.706  24.446  1.00  0.00     0.006 A 
ENDBRANCH  65  82
ENDBRANCH  39  40
ENDBRANCH  32  34
ENDBRANCH  31  32
ENDBRANCH  30  31
ENDBRANCH  29  30
ENDBRANCH  28  29
ENDBRANCH  27  28
ENDBRANCH   1  27
TORSDOF 23
ENDMDL
MODEL 3
REMARK VINA RESULT:      -9.5      2.917      8.153
REMARK SMILES CC(C)C[C@@H](NC(=O)Cn1nc(O)ccc1=O)C(=O)OCCOCCOCCOC(=O)c1ccc(-c2c3nc(c(-c4c(F)cccc4F)c4ccc([nH]4)c(-c4c(F)cccc4F)c4nc(c(-c5c(F)cccc5F)c5ccc2[nH]5)C=C4)C=C3)cc1
REMARK SMILES IDX 24 1 23 2 22 3 21 4 20 5 18 6 19 7 5 8 4 9 2 10 1 11 3 12
REMARK SMILES IDX 6 13 7 14 8 16 9 17 10 18 11 19 16 20 12 21 15 22 17 23
REMARK SMILES IDX 14 24 13 25 25 27 26 28 27 29 28 30 29 31 30 32 31 33 32 34
REMARK SMILES IDX 33 35 85 36 34 37 84 38 35 39 36 40 37 41 78 42 38 43 83 44
REMARK SMILES IDX 77 45 79 46 39 47 82 48 76 49 75 50 40 52 66 53 49 54 65 55
REMARK SMILES IDX 50 56 53 57 64 58 80 59 51 60 52 61 63 63 81 64 54 65 41 66
REMARK SMILES IDX 42 67 47 68 43 69 44 70 46 71 48 72 45 73 67 74 68 75 73 76
REMARK SMILES IDX 69 77 70 78 72 79 74 80 71 81 55 82 56 83 61 84 57 85 58 86
REMARK SMILES IDX 60 87 62 88 59 89
REMARK H PARENT 6 15 13 26 79 51 53 62
REMARK Flexibility Score: inf
ROOT
ATOM      1  C   UNL A   1      34.599  20.677  25.007  1.00  0.00     0.188 C 
ENDROOT
BRANCH   1   2
ATOM      2  O   UNL A   1      33.274  20.804  25.509  1.00  0.00    -0.376 OA
BRANCH   2   3
ATOM      3  C   UNL A   1      32.743  22.116  25.323  1.00  0.00     0.202 C 
BRANCH   3   4
ATOM      4  C   UNL A   1      32.119  22.706  26.601  1.00  0.00     0.261 C 
BRANCH   4   5
ATOM      5  O   UNL A   1      31.817  24.121  26.493  1.00  0.00    -0.462 OA
BRANCH   5   6
ATOM      6  C   UNL A   1      32.786  24.953  26.038  1.00  0.00     0.328 C 
ATOM      7  O   UNL A   1      33.984  24.805  26.256  1.00  0.00    -0.250 OA
BRANCH   6   8
ATOM      8  C   UNL A   1      32.254  26.012  25.045  1.00  0.00     0.192 C 
BRANCH   8   9
ATOM      9  C   UNL A   1      32.681  27.453  25.402  1.00  0.00     0.040 C 
BRANCH   9  10
ATOM     10  C   UNL A   1      31.569  28.295  26.072  1.00  0.00    -0.015 C 
ATOM     11  C   UNL A   1      31.636  28.200  27.602  1.00  0.00     0.007 C 
ATOM     12  C   UNL A   1      31.690  29.766  25.663  1.00  0.00     0.007 C 
ENDBRANCH   9  10
ENDBRANCH   8   9
BRANCH   8  13
ATOM     13  N   UNL A   1      32.327  25.744  23.602  1.00  0.00    -0.341 N 
ATOM     14  C   UNL A   1      31.845  26.329  22.474  1.00  0.00     0.242 C 
ATOM     15  H   UNL A   1      32.857  24.939  23.402  1.00  0.00     0.164 HD
ATOM     16  O   UNL A   1      31.879  25.626  21.456  1.00  0.00    -0.273 OA
BRANCH  14  17
ATOM     17  C   UNL A   1      31.364  27.771  22.398  1.00  0.00     0.248 C 
BRANCH  17  18
ATOM     18  N   UNL A   1      29.999  28.064  22.811  1.00  0.00    -0.217 N 
ATOM     19  N   UNL A   1      29.314  27.060  23.477  1.00  0.00    -0.131 NA
ATOM     20  C   UNL A   1      29.371  29.191  22.285  1.00  0.00     0.267 A 
ATOM     21  C   UNL A   1      28.054  27.251  23.636  1.00  0.00     0.229 A 
ATOM     22  C   UNL A   1      27.929  29.351  22.590  1.00  0.00     0.079 A 
ATOM     23  O   UNL A   1      29.911  30.023  21.563  1.00  0.00    -0.268 OA
ATOM     24  C   UNL A   1      27.255  28.393  23.229  1.00  0.00     0.075 A 
BRANCH  21  25
ATOM     25  O   UNL A   1      27.315  26.312  24.231  1.00  0.00    -0.492 OA
ATOM     26  H   UNL A   1      26.702  26.551  24.900  1.00  0.00     0.295 HD
ENDBRANCH  21  25
ENDBRANCH  17  18
ENDBRANCH  14  17
ENDBRANCH   8  13
ENDBRANCH   6   8
ENDBRANCH   5   6
ENDBRANCH   4   5
ENDBRANCH   3   4
ENDBRANCH   2   3
ENDBRANCH   1   2
BRANCH   1  27
ATOM     27  C   UNL A   1      35.480  21.809  25.472  1.00  0.00     0.188 C 
BRANCH  27  28
ATOM     28  O   UNL A   1      36.823  21.378  25.705  1.00  0.00    -0.376 OA
BRANCH  28  29
ATOM     29  C   UNL A   1      37.380  20.647  24.610  1.00  0.00     0.202 C 
BRANCH  29  30
ATOM     30  C   UNL A   1      38.527  19.680  24.960  1.00  0.00     0.261 C 
BRANCH  30  31
ATOM     31  O   UNL A   1      39.259  20.116  26.123  1.00  0.00    -0.460 OA
BRANCH  31  32
ATOM     32  C   UNL A   1      40.607  19.930  26.087  1.00  0.00     0.338 C 
ATOM     33  O   UNL A   1      41.198  19.022  25.540  1.00  0.00    -0.246 OA
BRANCH  32  34
ATOM     34  C   UNL A   1      41.287  21.159  26.601  1.00  0.00     0.060 A 
ATOM     35  C   UNL A   1      42.013  22.015  25.768  1.00  0.00     0.016 A 
ATOM     36  C   UNL A   1      41.278  21.385  27.988  1.00  0.00     0.016 A 
ATOM     37  C   UNL A   1      42.686  23.112  26.316  1.00  0.00     0.010 A 
ATOM     38  C   UNL A   1      41.952  22.482  28.537  1.00  0.00     0.010 A 
ATOM     39  C   UNL A   1      42.633  23.374  27.698  1.00  0.00    -0.014 A 
BRANCH  39  40
ATOM     40  C   UNL A   1      43.043  24.712  28.191  1.00  0.00     0.031 A 
ATOM     41  C   UNL A   1      44.471  25.131  28.361  1.00  0.00     0.074 A 
ATOM     42  C   UNL A   1      42.051  25.578  28.472  1.00  0.00     0.049 A 
ATOM     43  N   UNL A   1      44.943  26.325  28.624  1.00  0.00    -0.248 NA
ATOM     44  C   UNL A   1      45.496  24.089  28.236  1.00  0.00     0.031 C 
ATOM     45  C   UNL A   1      40.621  25.262  28.404  1.00  0.00     0.029 A 
ATOM     46  N   UNL A   1      42.084  26.893  28.851  1.00  0.00    -0.354 N 
ATOM     47  C   UNL A   1      46.324  26.192  28.663  1.00  0.00     0.074 A 
ATOM     48  C   UNL A   1      46.608  24.784  28.453  1.00  0.00     0.031 C 
ATOM     49  C   UNL A   1      39.914  26.362  28.694  1.00  0.00     0.029 A 
ATOM     50  C   UNL A   1      40.838  27.454  28.979  1.00  0.00     0.049 A 
ATOM     51  H   UNL A   1      42.920  27.388  29.016  1.00  0.00     0.167 HD
ATOM     52  C   UNL A   1      47.260  27.158  28.837  1.00  0.00     0.037 A 
ATOM     53  C   UNL A   1      40.473  28.713  29.274  1.00  0.00     0.037 A 
ATOM     54  C   UNL A   1      46.968  28.552  29.080  1.00  0.00     0.049 A 
ATOM     55  C   UNL A   1      41.530  29.756  29.473  1.00  0.00     0.074 A 
ATOM     56  C   UNL A   1      47.852  29.610  29.230  1.00  0.00     0.029 A 
ATOM     57  N   UNL A   1      45.695  29.082  29.229  1.00  0.00    -0.354 N 
ATOM     58  N   UNL A   1      42.832  29.638  29.399  1.00  0.00    -0.248 NA
ATOM     59  C   UNL A   1      41.062  31.114  29.782  1.00  0.00     0.031 C 
ATOM     60  C   UNL A   1      47.116  30.768  29.510  1.00  0.00     0.029 A 
ATOM     61  C   UNL A   1      45.770  30.442  29.493  1.00  0.00     0.049 A 
ATOM     62  H   UNL A   1      44.858  28.568  29.158  1.00  0.00     0.167 HD
ATOM     63  C   UNL A   1      43.341  30.906  29.637  1.00  0.00     0.074 A 
ATOM     64  C   UNL A   1      42.204  31.784  29.828  1.00  0.00     0.031 C 
ATOM     65  C   UNL A   1      44.634  31.306  29.701  1.00  0.00     0.037 A 
BRANCH  52  66
ATOM     66  C   UNL A   1      48.704  26.749  28.752  1.00  0.00     0.057 A 
ATOM     67  C   UNL A   1      49.448  26.463  29.904  1.00  0.00     0.134 A 
ATOM     68  C   UNL A   1      49.378  26.711  27.523  1.00  0.00     0.134 A 
ATOM     69  F   UNL A   1      48.872  26.498  31.114  1.00  0.00    -0.206 F 
ATOM     70  C   UNL A   1      50.809  26.156  29.837  1.00  0.00     0.040 A 
ATOM     71  C   UNL A   1      50.733  26.384  27.441  1.00  0.00     0.040 A 
ATOM     72  F   UNL A   1      48.726  26.981  26.382  1.00  0.00    -0.206 F 
ATOM     73  C   UNL A   1      51.454  26.110  28.602  1.00  0.00     0.006 A 
ENDBRANCH  52  66
BRANCH  53  74
ATOM     74  C   UNL A   1      39.035  29.061  29.357  1.00  0.00     0.057 A 
ATOM     75  C   UNL A   1      38.330  28.945  30.560  1.00  0.00     0.134 A 
ATOM     76  C   UNL A   1      38.336  29.519  28.235  1.00  0.00     0.134 A 
ATOM     77  F   UNL A   1      38.944  28.497  31.665  1.00  0.00    -0.206 F 
ATOM     78  C   UNL A   1      36.978  29.275  30.647  1.00  0.00     0.040 A 
ATOM     79  C   UNL A   1      36.990  29.877  28.313  1.00  0.00     0.040 A 
ATOM     80  F   UNL A   1      38.964  29.659  27.059  1.00  0.00    -0.206 F 
ATOM     81  C   UNL A   1      36.306  29.752  29.522  1.00  0.00     0.006 A 
ENDBRANCH  53  74
BRANCH  65  82
ATOM     82  C   UNL A   1      44.872  32.759  29.989  1.00  0.00     0.057 A 
ATOM     83  C   UNL A   1      45.077  33.208  31.300  1.00  0.00     0.134 A 
ATOM     84  C   UNL A   1      44.921  33.714  28.964  1.00  0.00     0.134 A 
ATOM     85  F   UNL A   1      45.041  32.347  32.329  1.00  0.00    -0.206 F 
ATOM     86  C   UNL A   1      45.331  34.552  31.579  1.00  0.00     0.040 A 
ATOM     87  C   UNL A   1      45.201  35.056  29.229  1.00  0.00     0.040 A 
ATOM     88  F   UNL A   1      44.754  33.347  27.685  1.00  0.00    -0.206 F 
ATOM     89  C   UNL A   1      45.404  35.478  30.541  1.00  0.00     0.006 A 
ENDBRANCH  65  82
ENDBRANCH  39  40
ENDBRANCH  32  34
ENDBRANCH  31  32
ENDBRANCH  30  31
ENDBRANCH  29  30
ENDBRANCH  28  29
ENDBRANCH  27  28
ENDBRANCH   1  27
TORSDOF 23
ENDMDL
