MODEL 1
REMARK VINA RESULT:     -10.7      0.000      0.000
REMARK SMILES C[C@@H](c1ccccc1)[C@@H]1[NH2+][C@@H](C(=O)OCCOCCOCCOC(=O)c2ccc(-c3c4nc(c(-c5c(F)cccc5F)c5ccc([nH]5)c(-c5c(F)cccc5F)c5nc(c(-c6c(F)cccc6F)c6ccc3[nH]6)C=C5)C=C4)cc2)CS1
REMARK SMILES IDX 18 1 17 2 16 3 15 4 14 5 12 6 13 7 11 8 9 9 10 10 81 11
REMARK SMILES IDX 80 14 2 15 1 16 3 17 4 18 8 19 5 20 7 21 6 22 19 23 20 24
REMARK SMILES IDX 21 25 22 26 23 27 24 28 25 29 26 30 27 31 79 32 28 33 78 34
REMARK SMILES IDX 29 35 30 36 31 37 72 38 32 39 77 40 71 41 73 42 33 43 76 44
REMARK SMILES IDX 70 45 69 46 34 48 60 49 43 50 59 51 44 52 47 53 58 54 74 55
REMARK SMILES IDX 45 56 46 57 57 59 75 60 48 61 35 62 36 63 41 64 37 65 38 66
REMARK SMILES IDX 40 67 42 68 39 69 61 70 62 71 67 72 63 73 64 74 66 75 68 76
REMARK SMILES IDX 65 77 49 78 50 79 55 80 51 81 52 82 54 83 56 84 53 85
REMARK H PARENT 10 12 10 13 73 47 47 58
REMARK Flexibility Score: inf
ROOT
ATOM      1  C   UNL A   1      41.064  19.444  26.168  1.00  0.00     0.188 C 
ENDROOT
BRANCH   1   2
ATOM      2  O   UNL A   1      40.520  20.142  27.285  1.00  0.00    -0.376 OA
BRANCH   2   3
ATOM      3  C   UNL A   1      40.602  21.557  27.330  1.00  0.00     0.202 C 
BRANCH   3   4
ATOM      4  C   UNL A   1      39.910  22.368  26.224  1.00  0.00     0.261 C 
BRANCH   4   5
ATOM      5  O   UNL A   1      38.508  22.094  26.065  1.00  0.00    -0.459 OA
BRANCH   5   6
ATOM      6  C   UNL A   1      37.656  23.155  26.128  1.00  0.00     0.365 C 
ATOM      7  O   UNL A   1      38.002  24.304  26.378  1.00  0.00    -0.245 OA
BRANCH   6   8
ATOM      8  C   UNL A   1      36.188  22.777  25.835  1.00  0.00     0.304 C 
ATOM      9  C   UNL A   1      34.744  21.899  24.099  1.00  0.00     0.249 C 
ATOM     10  N   UNL A   1      36.039  21.740  24.771  1.00  0.00    -0.322 N 
ATOM     11  S   UNL A   1      34.564  23.694  23.905  1.00  0.00    -0.092 SA
ATOM     12  H   UNL A   1      36.789  21.846  24.087  1.00  0.00     0.348 HD
ATOM     13  H   UNL A   1      36.087  20.814  25.193  1.00  0.00     0.348 HD
ATOM     14  C   UNL A   1      35.424  24.050  25.464  1.00  0.00     0.153 C 
BRANCH   9  15
ATOM     15  C   UNL A   1      33.554  21.095  24.725  1.00  0.00     0.085 C 
ATOM     16  C   UNL A   1      32.241  21.887  24.587  1.00  0.00     0.020 C 
BRANCH  15  17
ATOM     17  C   UNL A   1      33.457  19.649  24.265  1.00  0.00    -0.038 A 
ATOM     18  C   UNL A   1      32.459  19.193  23.396  1.00  0.00     0.004 A 
ATOM     19  C   UNL A   1      34.482  18.758  24.635  1.00  0.00     0.004 A 
ATOM     20  C   UNL A   1      32.541  17.917  22.834  1.00  0.00     0.000 A 
ATOM     21  C   UNL A   1      34.563  17.488  24.071  1.00  0.00     0.000 A 
ATOM     22  C   UNL A   1      33.603  17.074  23.154  1.00  0.00     0.000 A 
ENDBRANCH  15  17
ENDBRANCH   9  15
ENDBRANCH   6   8
ENDBRANCH   5   6
ENDBRANCH   4   5
ENDBRANCH   3   4
ENDBRANCH   2   3
ENDBRANCH   1   2
BRANCH   1  23
ATOM     23  C   UNL A   1      42.578  19.116  26.117  1.00  0.00     0.188 C 
BRANCH  23  24
ATOM     24  O   UNL A   1      43.196  19.677  24.985  1.00  0.00    -0.376 OA
BRANCH  24  25
ATOM     25  C   UNL A   1      44.317  20.508  25.154  1.00  0.00     0.202 C 
BRANCH  25  26
ATOM     26  C   UNL A   1      44.375  21.911  24.524  1.00  0.00     0.261 C 
BRANCH  26  27
ATOM     27  O   UNL A   1      43.705  22.986  25.200  1.00  0.00    -0.460 OA
BRANCH  27  28
ATOM     28  C   UNL A   1      44.313  24.190  25.205  1.00  0.00     0.338 C 
ATOM     29  O   UNL A   1      45.266  24.536  24.507  1.00  0.00    -0.246 OA
BRANCH  28  30
ATOM     30  C   UNL A   1      43.577  25.117  26.088  1.00  0.00     0.060 A 
ATOM     31  C   UNL A   1      43.829  26.493  26.002  1.00  0.00     0.016 A 
ATOM     32  C   UNL A   1      42.674  24.629  27.035  1.00  0.00     0.016 A 
ATOM     33  C   UNL A   1      43.202  27.382  26.883  1.00  0.00     0.010 A 
ATOM     34  C   UNL A   1      42.061  25.518  27.928  1.00  0.00     0.010 A 
ATOM     35  C   UNL A   1      42.344  26.896  27.879  1.00  0.00    -0.014 A 
BRANCH  35  36
ATOM     36  C   UNL A   1      41.872  27.782  28.978  1.00  0.00     0.031 A 
ATOM     37  C   UNL A   1      42.593  27.742  30.300  1.00  0.00     0.074 A 
ATOM     38  C   UNL A   1      40.815  28.600  28.826  1.00  0.00     0.049 A 
ATOM     39  N   UNL A   1      42.298  28.329  31.431  1.00  0.00    -0.248 NA
ATOM     40  C   UNL A   1      43.812  26.919  30.349  1.00  0.00     0.031 C 
ATOM     41  C   UNL A   1      40.054  28.784  27.593  1.00  0.00     0.029 A 
ATOM     42  N   UNL A   1      40.187  29.418  29.736  1.00  0.00    -0.354 N 
ATOM     43  C   UNL A   1      43.285  27.938  32.329  1.00  0.00     0.074 A 
ATOM     44  C   UNL A   1      44.172  27.042  31.617  1.00  0.00     0.031 C 
ATOM     45  C   UNL A   1      39.046  29.642  27.828  1.00  0.00     0.029 A 
ATOM     46  C   UNL A   1      39.067  30.039  29.236  1.00  0.00     0.049 A 
ATOM     47  H   UNL A   1      40.508  29.547  30.657  1.00  0.00     0.167 HD
ATOM     48  C   UNL A   1      43.442  28.293  33.627  1.00  0.00     0.037 A 
ATOM     49  C   UNL A   1      38.149  30.812  29.851  1.00  0.00     0.037 A 
ATOM     50  C   UNL A   1      42.560  29.179  34.341  1.00  0.00     0.049 A 
ATOM     51  C   UNL A   1      38.294  31.123  31.320  1.00  0.00     0.074 A 
ATOM     52  C   UNL A   1      42.649  29.607  35.655  1.00  0.00     0.029 A 
ATOM     53  N   UNL A   1      41.422  29.764  33.806  1.00  0.00    -0.354 N 
ATOM     54  N   UNL A   1      39.238  30.763  32.156  1.00  0.00    -0.248 NA
ATOM     55  C   UNL A   1      37.241  31.950  31.931  1.00  0.00     0.031 C 
ATOM     56  C   UNL A   1      41.534  30.406  35.931  1.00  0.00     0.029 A 
ATOM     57  C   UNL A   1      40.785  30.527  34.772  1.00  0.00     0.049 A 
ATOM     58  H   UNL A   1      41.114  29.654  32.878  1.00  0.00     0.167 HD
ATOM     59  C   UNL A   1      38.913  31.348  33.376  1.00  0.00     0.074 A 
ATOM     60  C   UNL A   1      37.690  32.093  33.171  1.00  0.00     0.031 C 
ATOM     61  C   UNL A   1      39.573  31.276  34.558  1.00  0.00     0.037 A 
BRANCH  48  62
ATOM     62  C   UNL A   1      44.600  27.693  34.371  1.00  0.00     0.057 A 
ATOM     63  C   UNL A   1      44.516  26.439  34.989  1.00  0.00     0.134 A 
ATOM     64  C   UNL A   1      45.825  28.369  34.445  1.00  0.00     0.134 A 
ATOM     65  F   UNL A   1      43.368  25.745  34.966  1.00  0.00    -0.206 F 
ATOM     66  C   UNL A   1      45.601  25.890  35.677  1.00  0.00     0.040 A 
ATOM     67  C   UNL A   1      46.925  27.819  35.106  1.00  0.00     0.040 A 
ATOM     68  F   UNL A   1      45.977  29.571  33.870  1.00  0.00    -0.206 F 
ATOM     69  C   UNL A   1      46.811  26.578  35.731  1.00  0.00     0.006 A 
ENDBRANCH  48  62
BRANCH  49  70
ATOM     70  C   UNL A   1      36.984  31.337  29.090  1.00  0.00     0.057 A 
ATOM     71  C   UNL A   1      36.953  32.660  28.633  1.00  0.00     0.134 A 
ATOM     72  C   UNL A   1      35.860  30.541  28.836  1.00  0.00     0.134 A 
ATOM     73  F   UNL A   1      37.985  33.481  28.873  1.00  0.00    -0.206 F 
ATOM     74  C   UNL A   1      35.839  33.178  27.969  1.00  0.00     0.040 A 
ATOM     75  C   UNL A   1      34.752  31.039  28.148  1.00  0.00     0.040 A 
ATOM     76  F   UNL A   1      35.823  29.267  29.253  1.00  0.00    -0.206 F 
ATOM     77  C   UNL A   1      34.736  32.364  27.720  1.00  0.00     0.006 A 
ENDBRANCH  49  70
BRANCH  61  78
ATOM     78  C   UNL A   1      39.021  32.062  35.715  1.00  0.00     0.057 A 
ATOM     79  C   UNL A   1      38.214  31.475  36.698  1.00  0.00     0.134 A 
ATOM     80  C   UNL A   1      39.344  33.417  35.872  1.00  0.00     0.134 A 
ATOM     81  F   UNL A   1      37.858  30.185  36.605  1.00  0.00    -0.206 F 
ATOM     82  C   UNL A   1      37.729  32.212  37.781  1.00  0.00     0.040 A 
ATOM     83  C   UNL A   1      38.889  34.157  36.966  1.00  0.00     0.040 A 
ATOM     84  F   UNL A   1      40.121  34.042  34.974  1.00  0.00    -0.206 F 
ATOM     85  C   UNL A   1      38.074  33.555  37.921  1.00  0.00     0.006 A 
ENDBRANCH  61  78
ENDBRANCH  35  36
ENDBRANCH  28  30
ENDBRANCH  27  28
ENDBRANCH  26  27
ENDBRANCH  25  26
ENDBRANCH  24  25
ENDBRANCH  23  24
ENDBRANCH   1  23
TORSDOF 19
ENDMDL
MODEL 2
REMARK VINA RESULT:     -10.4      1.400      3.175
REMARK SMILES C[C@@H](c1ccccc1)[C@@H]1[NH2+][C@@H](C(=O)OCCOCCOCCOC(=O)c2ccc(-c3c4nc(c(-c5c(F)cccc5F)c5ccc([nH]5)c(-c5c(F)cccc5F)c5nc(c(-c6c(F)cccc6F)c6ccc3[nH]6)C=C5)C=C4)cc2)CS1
REMARK SMILES IDX 18 1 17 2 16 3 15 4 14 5 12 6 13 7 11 8 9 9 10 10 81 11
REMARK SMILES IDX 80 14 2 15 1 16 3 17 4 18 8 19 5 20 7 21 6 22 19 23 20 24
REMARK SMILES IDX 21 25 22 26 23 27 24 28 25 29 26 30 27 31 79 32 28 33 78 34
REMARK SMILES IDX 29 35 30 36 31 37 72 38 32 39 77 40 71 41 73 42 33 43 76 44
REMARK SMILES IDX 70 45 69 46 34 48 60 49 43 50 59 51 44 52 47 53 58 54 74 55
REMARK SMILES IDX 45 56 46 57 57 59 75 60 48 61 35 62 36 63 41 64 37 65 38 66
REMARK SMILES IDX 40 67 42 68 39 69 61 70 62 71 67 72 63 73 64 74 66 75 68 76
REMARK SMILES IDX 65 77 49 78 50 79 55 80 51 81 52 82 54 83 56 84 53 85
REMARK H PARENT 10 12 10 13 73 47 47 58
REMARK Flexibility Score: inf
ROOT
ATOM      1  C   UNL A   1      40.779  19.825  26.213  1.00  0.00     0.188 C 
ENDROOT
BRANCH   1   2
ATOM      2  O   UNL A   1      40.068  20.713  27.071  1.00  0.00    -0.376 OA
BRANCH   2   3
ATOM      3  C   UNL A   1      39.596  21.948  26.558  1.00  0.00     0.202 C 
BRANCH   3   4
ATOM      4  C   UNL A   1      38.463  21.928  25.520  1.00  0.00     0.261 C 
BRANCH   4   5
ATOM      5  O   UNL A   1      37.152  22.171  26.057  1.00  0.00    -0.459 OA
BRANCH   5   6
ATOM      6  C   UNL A   1      36.093  21.667  25.364  1.00  0.00     0.365 C 
ATOM      7  O   UNL A   1      35.944  20.479  25.099  1.00  0.00    -0.245 OA
BRANCH   6   8
ATOM      8  C   UNL A   1      35.070  22.744  24.945  1.00  0.00     0.304 C 
ATOM      9  C   UNL A   1      33.507  24.359  25.852  1.00  0.00     0.249 C 
ATOM     10  N   UNL A   1      34.858  23.801  25.979  1.00  0.00    -0.322 N 
ATOM     11  S   UNL A   1      32.459  22.911  25.544  1.00  0.00    -0.092 SA
ATOM     12  H   UNL A   1      34.969  23.394  26.908  1.00  0.00     0.348 HD
ATOM     13  H   UNL A   1      35.543  24.544  25.846  1.00  0.00     0.348 HD
ATOM     14  C   UNL A   1      33.749  22.051  24.600  1.00  0.00     0.153 C 
BRANCH   9  15
ATOM     15  C   UNL A   1      33.372  25.593  24.896  1.00  0.00     0.085 C 
ATOM     16  C   UNL A   1      32.451  25.253  23.709  1.00  0.00     0.020 C 
BRANCH  15  17
ATOM     17  C   UNL A   1      33.027  26.899  25.595  1.00  0.00    -0.038 A 
ATOM     18  C   UNL A   1      33.381  28.152  25.082  1.00  0.00     0.004 A 
ATOM     19  C   UNL A   1      32.215  26.850  26.743  1.00  0.00     0.004 A 
ATOM     20  C   UNL A   1      32.856  29.318  25.641  1.00  0.00     0.000 A 
ATOM     21  C   UNL A   1      31.689  28.014  27.298  1.00  0.00     0.000 A 
ATOM     22  C   UNL A   1      31.993  29.248  26.734  1.00  0.00     0.000 A 
ENDBRANCH  15  17
ENDBRANCH   9  15
ENDBRANCH   6   8
ENDBRANCH   5   6
ENDBRANCH   4   5
ENDBRANCH   3   4
ENDBRANCH   2   3
ENDBRANCH   1   2
BRANCH   1  23
ATOM     23  C   UNL A   1      42.267  19.495  26.494  1.00  0.00     0.188 C 
BRANCH  23  24
ATOM     24  O   UNL A   1      43.018  19.421  25.308  1.00  0.00    -0.376 OA
BRANCH  24  25
ATOM     25  C   UNL A   1      44.160  20.230  25.166  1.00  0.00     0.202 C 
BRANCH  25  26
ATOM     26  C   UNL A   1      44.051  21.689  24.688  1.00  0.00     0.261 C 
BRANCH  26  27
ATOM     27  O   UNL A   1      43.768  22.703  25.665  1.00  0.00    -0.460 OA
BRANCH  27  28
ATOM     28  C   UNL A   1      44.228  23.947  25.417  1.00  0.00     0.338 C 
ATOM     29  O   UNL A   1      45.028  24.276  24.542  1.00  0.00    -0.246 OA
BRANCH  28  30
ATOM     30  C   UNL A   1      43.519  24.920  26.273  1.00  0.00     0.060 A 
ATOM     31  C   UNL A   1      43.899  26.269  26.239  1.00  0.00     0.016 A 
ATOM     32  C   UNL A   1      42.512  24.499  27.144  1.00  0.00     0.016 A 
ATOM     33  C   UNL A   1      43.295  27.194  27.099  1.00  0.00     0.010 A 
ATOM     34  C   UNL A   1      41.922  25.422  28.017  1.00  0.00     0.010 A 
ATOM     35  C   UNL A   1      42.330  26.769  28.023  1.00  0.00    -0.014 A 
BRANCH  35  36
ATOM     36  C   UNL A   1      41.865  27.673  29.110  1.00  0.00     0.031 A 
ATOM     37  C   UNL A   1      42.572  27.627  30.439  1.00  0.00     0.074 A 
ATOM     38  C   UNL A   1      40.827  28.512  28.941  1.00  0.00     0.049 A 
ATOM     39  N   UNL A   1      42.277  28.229  31.564  1.00  0.00    -0.248 NA
ATOM     40  C   UNL A   1      43.773  26.780  30.507  1.00  0.00     0.031 C 
ATOM     41  C   UNL A   1      40.083  28.702  27.699  1.00  0.00     0.029 A 
ATOM     42  N   UNL A   1      40.206  29.349  29.838  1.00  0.00    -0.354 N 
ATOM     43  C   UNL A   1      43.246  27.824  32.474  1.00  0.00     0.074 A 
ATOM     44  C   UNL A   1      44.122  26.905  31.779  1.00  0.00     0.031 C 
ATOM     45  C   UNL A   1      39.091  29.582  27.916  1.00  0.00     0.029 A 
ATOM     46  C   UNL A   1      39.105  29.989  29.322  1.00  0.00     0.049 A 
ATOM     47  H   UNL A   1      40.521  29.478  30.762  1.00  0.00     0.167 HD
ATOM     48  C   UNL A   1      43.397  28.186  33.771  1.00  0.00     0.037 A 
ATOM     49  C   UNL A   1      38.197  30.785  29.922  1.00  0.00     0.037 A 
ATOM     50  C   UNL A   1      42.526  29.095  34.470  1.00  0.00     0.049 A 
ATOM     51  C   UNL A   1      38.333  31.104  31.390  1.00  0.00     0.074 A 
ATOM     52  C   UNL A   1      42.610  29.531  35.781  1.00  0.00     0.029 A 
ATOM     53  N   UNL A   1      41.406  29.699  33.919  1.00  0.00    -0.354 N 
ATOM     54  N   UNL A   1      39.261  30.731  32.238  1.00  0.00    -0.248 NA
ATOM     55  C   UNL A   1      37.291  31.957  31.984  1.00  0.00     0.031 C 
ATOM     56  C   UNL A   1      41.509  30.354  36.040  1.00  0.00     0.029 A 
ATOM     57  C   UNL A   1      40.775  30.482  34.872  1.00  0.00     0.049 A 
ATOM     58  H   UNL A   1      41.105  29.589  32.989  1.00  0.00     0.167 HD
ATOM     59  C   UNL A   1      38.935  31.332  33.451  1.00  0.00     0.074 A 
ATOM     60  C   UNL A   1      37.730  32.100  33.227  1.00  0.00     0.031 C 
ATOM     61  C   UNL A   1      39.581  31.255  34.640  1.00  0.00     0.037 A 
BRANCH  48  62
ATOM     62  C   UNL A   1      44.534  27.568  34.532  1.00  0.00     0.057 A 
ATOM     63  C   UNL A   1      45.767  28.217  34.683  1.00  0.00     0.134 A 
ATOM     64  C   UNL A   1      44.384  26.317  35.145  1.00  0.00     0.134 A 
ATOM     65  F   UNL A   1      45.982  29.411  34.111  1.00  0.00    -0.206 F 
ATOM     66  C   UNL A   1      46.817  27.632  35.395  1.00  0.00     0.040 A 
ATOM     67  C   UNL A   1      45.416  25.735  35.882  1.00  0.00     0.040 A 
ATOM     68  F   UNL A   1      43.228  25.644  35.045  1.00  0.00    -0.206 F 
ATOM     69  C   UNL A   1      46.640  26.390  36.002  1.00  0.00     0.006 A 
ENDBRANCH  48  62
BRANCH  49  70
ATOM     70  C   UNL A   1      37.051  31.328  29.145  1.00  0.00     0.057 A 
ATOM     71  C   UNL A   1      37.041  32.655  28.698  1.00  0.00     0.134 A 
ATOM     72  C   UNL A   1      35.924  30.546  28.864  1.00  0.00     0.134 A 
ATOM     73  F   UNL A   1      38.077  33.465  28.964  1.00  0.00    -0.206 F 
ATOM     74  C   UNL A   1      35.945  33.191  28.019  1.00  0.00     0.040 A 
ATOM     75  C   UNL A   1      34.834  31.061  28.160  1.00  0.00     0.040 A 
ATOM     76  F   UNL A   1      35.867  29.269  29.268  1.00  0.00    -0.206 F 
ATOM     77  C   UNL A   1      34.839  32.390  27.743  1.00  0.00     0.006 A 
ENDBRANCH  49  70
BRANCH  61  78
ATOM     78  C   UNL A   1      39.033  32.060  35.786  1.00  0.00     0.057 A 
ATOM     79  C   UNL A   1      38.175  31.506  36.744  1.00  0.00     0.134 A 
ATOM     80  C   UNL A   1      39.411  33.399  35.957  1.00  0.00     0.134 A 
ATOM     81  F   UNL A   1      37.765  30.234  36.636  1.00  0.00    -0.206 F 
ATOM     82  C   UNL A   1      37.694  32.260  37.817  1.00  0.00     0.040 A 
ATOM     83  C   UNL A   1      38.960  34.155  37.042  1.00  0.00     0.040 A 
ATOM     84  F   UNL A   1      40.238  33.992  35.083  1.00  0.00    -0.206 F 
ATOM     85  C   UNL A   1      38.094  33.586  37.972  1.00  0.00     0.006 A 
ENDBRANCH  61  78
ENDBRANCH  35  36
ENDBRANCH  28  30
ENDBRANCH  27  28
ENDBRANCH  26  27
ENDBRANCH  25  26
ENDBRANCH  24  25
ENDBRANCH  23  24
ENDBRANCH   1  23
TORSDOF 19
ENDMDL
MODEL 3
REMARK VINA RESULT:      -9.9      5.122      9.955
REMARK SMILES C[C@@H](c1ccccc1)[C@@H]1[NH2+][C@@H](C(=O)OCCOCCOCCOC(=O)c2ccc(-c3c4nc(c(-c5c(F)cccc5F)c5ccc([nH]5)c(-c5c(F)cccc5F)c5nc(c(-c6c(F)cccc6F)c6ccc3[nH]6)C=C5)C=C4)cc2)CS1
REMARK SMILES IDX 18 1 17 2 16 3 15 4 14 5 12 6 13 7 11 8 9 9 10 10 81 11
REMARK SMILES IDX 80 14 2 15 1 16 3 17 4 18 8 19 5 20 7 21 6 22 19 23 20 24
REMARK SMILES IDX 21 25 22 26 23 27 24 28 25 29 26 30 27 31 79 32 28 33 78 34
REMARK SMILES IDX 29 35 30 36 31 37 72 38 32 39 77 40 71 41 73 42 33 43 76 44
REMARK SMILES IDX 70 45 69 46 34 48 60 49 43 50 59 51 44 52 47 53 58 54 74 55
REMARK SMILES IDX 45 56 46 57 57 59 75 60 48 61 35 62 36 63 41 64 37 65 38 66
REMARK SMILES IDX 40 67 42 68 39 69 61 70 62 71 67 72 63 73 64 74 66 75 68 76
REMARK SMILES IDX 65 77 49 78 50 79 55 80 51 81 52 82 54 83 56 84 53 85
REMARK H PARENT 10 12 10 13 73 47 47 58
REMARK Flexibility Score: inf
ROOT
ATOM      1  C   UNL A   1      33.824  30.444  26.878  1.00  0.00     0.188 C 
ENDROOT
BRANCH   1   2
ATOM      2  O   UNL A   1      32.487  29.967  26.997  1.00  0.00    -0.376 OA
BRANCH   2   3
ATOM      3  C   UNL A   1      31.971  29.085  26.014  1.00  0.00     0.202 C 
BRANCH   3   4
ATOM      4  C   UNL A   1      31.393  27.736  26.468  1.00  0.00     0.261 C 
BRANCH   4   5
ATOM      5  O   UNL A   1      30.726  26.990  25.436  1.00  0.00    -0.459 OA
BRANCH   5   6
ATOM      6  C   UNL A   1      30.255  25.755  25.768  1.00  0.00     0.365 C 
ATOM      7  O   UNL A   1      29.347  25.555  26.566  1.00  0.00    -0.245 OA
BRANCH   6   8
ATOM      8  C   UNL A   1      30.972  24.609  25.023  1.00  0.00     0.304 C 
ATOM      9  C   UNL A   1      33.118  23.971  24.098  1.00  0.00     0.249 C 
ATOM     10  N   UNL A   1      32.447  24.577  25.253  1.00  0.00    -0.322 N 
ATOM     11  S   UNL A   1      32.255  24.675  22.666  1.00  0.00    -0.092 SA
ATOM     12  H   UNL A   1      32.791  25.529  25.382  1.00  0.00     0.348 HD
ATOM     13  H   UNL A   1      32.646  24.024  26.086  1.00  0.00     0.348 HD
ATOM     14  C   UNL A   1      30.659  24.731  23.529  1.00  0.00     0.153 C 
BRANCH   9  15
ATOM     15  C   UNL A   1      33.308  22.417  24.163  1.00  0.00     0.085 C 
ATOM     16  C   UNL A   1      32.696  21.749  22.917  1.00  0.00     0.020 C 
BRANCH  15  17
ATOM     17  C   UNL A   1      34.726  21.966  24.475  1.00  0.00    -0.038 A 
ATOM     18  C   UNL A   1      35.030  20.680  24.936  1.00  0.00     0.004 A 
ATOM     19  C   UNL A   1      35.788  22.839  24.175  1.00  0.00     0.004 A 
ATOM     20  C   UNL A   1      36.357  20.247  24.998  1.00  0.00     0.000 A 
ATOM     21  C   UNL A   1      37.110  22.405  24.234  1.00  0.00     0.000 A 
ATOM     22  C   UNL A   1      37.394  21.101  24.627  1.00  0.00     0.000 A 
ENDBRANCH  15  17
ENDBRANCH   9  15
ENDBRANCH   6   8
ENDBRANCH   5   6
ENDBRANCH   4   5
ENDBRANCH   3   4
ENDBRANCH   2   3
ENDBRANCH   1   2
BRANCH   1  23
ATOM     23  C   UNL A   1      34.462  31.270  28.024  1.00  0.00     0.188 C 
BRANCH  23  24
ATOM     24  O   UNL A   1      33.780  32.483  28.233  1.00  0.00    -0.376 OA
BRANCH  24  25
ATOM     25  C   UNL A   1      34.361  33.464  29.057  1.00  0.00     0.202 C 
BRANCH  25  26
ATOM     26  C   UNL A   1      34.385  33.309  30.588  1.00  0.00     0.261 C 
BRANCH  26  27
ATOM     27  O   UNL A   1      34.877  32.077  31.138  1.00  0.00    -0.460 OA
BRANCH  27  28
ATOM     28  C   UNL A   1      35.799  32.162  32.119  1.00  0.00     0.338 C 
ATOM     29  O   UNL A   1      35.586  32.354  33.315  1.00  0.00    -0.246 OA
BRANCH  28  30
ATOM     30  C   UNL A   1      37.136  31.846  31.575  1.00  0.00     0.060 A 
ATOM     31  C   UNL A   1      37.372  31.999  30.202  1.00  0.00     0.016 A 
ATOM     32  C   UNL A   1      38.144  31.354  32.408  1.00  0.00     0.016 A 
ATOM     33  C   UNL A   1      38.607  31.632  29.654  1.00  0.00     0.010 A 
ATOM     34  C   UNL A   1      39.371  30.968  31.855  1.00  0.00     0.010 A 
ATOM     35  C   UNL A   1      39.601  31.075  30.470  1.00  0.00    -0.014 A 
BRANCH  35  36
ATOM     36  C   UNL A   1      40.811  30.445  29.875  1.00  0.00     0.031 A 
ATOM     37  C   UNL A   1      42.026  31.301  29.630  1.00  0.00     0.074 A 
ATOM     38  C   UNL A   1      40.841  29.142  29.539  1.00  0.00     0.049 A 
ATOM     39  N   UNL A   1      43.146  31.007  29.021  1.00  0.00    -0.248 NA
ATOM     40  C   UNL A   1      41.960  32.681  30.138  1.00  0.00     0.031 C 
ATOM     41  C   UNL A   1      39.764  28.183  29.765  1.00  0.00     0.029 A 
ATOM     42  N   UNL A   1      41.821  28.409  28.911  1.00  0.00    -0.354 N 
ATOM     43  C   UNL A   1      43.913  32.166  29.061  1.00  0.00     0.074 A 
ATOM     44  C   UNL A   1      43.120  33.175  29.731  1.00  0.00     0.031 C 
ATOM     45  C   UNL A   1      40.131  26.991  29.262  1.00  0.00     0.029 A 
ATOM     46  C   UNL A   1      41.452  27.112  28.646  1.00  0.00     0.049 A 
ATOM     47  H   UNL A   1      42.702  28.778  28.675  1.00  0.00     0.167 HD
ATOM     48  C   UNL A   1      45.166  32.373  28.588  1.00  0.00     0.037 A 
ATOM     49  C   UNL A   1      42.093  26.146  27.958  1.00  0.00     0.037 A 
ATOM     50  C   UNL A   1      45.957  31.376  27.916  1.00  0.00     0.049 A 
ATOM     51  C   UNL A   1      43.451  26.424  27.361  1.00  0.00     0.074 A 
ATOM     52  C   UNL A   1      47.243  31.490  27.415  1.00  0.00     0.029 A 
ATOM     53  N   UNL A   1      45.537  30.083  27.643  1.00  0.00    -0.354 N 
ATOM     54  N   UNL A   1      44.175  27.516  27.419  1.00  0.00    -0.248 NA
ATOM     55  C   UNL A   1      44.079  25.332  26.601  1.00  0.00     0.031 C 
ATOM     56  C   UNL A   1      47.577  30.286  26.787  1.00  0.00     0.029 A 
ATOM     57  C   UNL A   1      46.526  29.399  26.954  1.00  0.00     0.049 A 
ATOM     58  H   UNL A   1      44.664  29.707  27.900  1.00  0.00     0.167 HD
ATOM     59  C   UNL A   1      45.354  27.230  26.737  1.00  0.00     0.074 A 
ATOM     60  C   UNL A   1      45.253  25.861  26.282  1.00  0.00     0.031 C 
ATOM     61  C   UNL A   1      46.425  28.031  26.514  1.00  0.00     0.037 A 
BRANCH  48  62
ATOM     62  C   UNL A   1      45.747  33.748  28.752  1.00  0.00     0.057 A 
ATOM     63  C   UNL A   1      46.521  34.099  29.865  1.00  0.00     0.134 A 
ATOM     64  C   UNL A   1      45.552  34.724  27.767  1.00  0.00     0.134 A 
ATOM     65  F   UNL A   1      46.735  33.215  30.852  1.00  0.00    -0.206 F 
ATOM     66  C   UNL A   1      47.057  35.381  30.005  1.00  0.00     0.040 A 
ATOM     67  C   UNL A   1      46.106  36.000  27.882  1.00  0.00     0.040 A 
ATOM     68  F   UNL A   1      44.827  34.452  26.671  1.00  0.00    -0.206 F 
ATOM     69  C   UNL A   1      46.856  36.333  29.008  1.00  0.00     0.006 A 
ENDBRANCH  48  62
BRANCH  49  70
ATOM     70  C   UNL A   1      41.455  24.816  27.768  1.00  0.00     0.057 A 
ATOM     71  C   UNL A   1      41.862  23.703  28.513  1.00  0.00     0.134 A 
ATOM     72  C   UNL A   1      40.452  24.618  26.811  1.00  0.00     0.134 A 
ATOM     73  F   UNL A   1      42.841  23.820  29.422  1.00  0.00    -0.206 F 
ATOM     74  C   UNL A   1      41.310  22.438  28.301  1.00  0.00     0.040 A 
ATOM     75  C   UNL A   1      39.871  23.365  26.609  1.00  0.00     0.040 A 
ATOM     76  F   UNL A   1      40.021  25.641  26.059  1.00  0.00    -0.206 F 
ATOM     77  C   UNL A   1      40.306  22.268  27.349  1.00  0.00     0.006 A 
ENDBRANCH  49  70
BRANCH  61  78
ATOM     78  C   UNL A   1      47.600  27.439  25.788  1.00  0.00     0.057 A 
ATOM     79  C   UNL A   1      48.642  26.788  26.461  1.00  0.00     0.134 A 
ATOM     80  C   UNL A   1      47.665  27.479  24.388  1.00  0.00     0.134 A 
ATOM     81  F   UNL A   1      48.650  26.721  27.801  1.00  0.00    -0.206 F 
ATOM     82  C   UNL A   1      49.716  26.220  25.771  1.00  0.00     0.040 A 
ATOM     83  C   UNL A   1      48.718  26.889  23.685  1.00  0.00     0.040 A 
ATOM     84  F   UNL A   1      46.696  28.076  23.678  1.00  0.00    -0.206 F 
ATOM     85  C   UNL A   1      49.751  26.263  24.379  1.00  0.00     0.006 A 
ENDBRANCH  61  78
ENDBRANCH  35  36
ENDBRANCH  28  30
ENDBRANCH  27  28
ENDBRANCH  26  27
ENDBRANCH  25  26
ENDBRANCH  24  25
ENDBRANCH  23  24
ENDBRANCH   1  23
TORSDOF 19
ENDMDL
