MODEL 1
REMARK VINA RESULT:     -10.7      0.000      0.000
REMARK SMILES CC(C)(CNC(=O)[C@H]1CCC[C@H](C(=O)OCCOCCOCCOC(=O)c2ccc(-c3c4nc(c(-c5c(F)cccc5F)c5ccc([nH]5)c(-c5c(F)cccc5F)c5nc(c(-c6c(F)cccc6F)c6ccc3[nH]6)C=C5)C=C4)cc2)C1)S(C)(=O)=O
REMARK SMILES IDX 19 1 18 2 17 3 16 4 15 5 13 6 14 7 12 8 8 9 9 10 81 11 10 12
REMARK SMILES IDX 11 13 6 14 5 15 7 17 4 18 2 19 1 20 3 21 82 22 83 23 84 24
REMARK SMILES IDX 85 25 20 26 21 27 22 28 23 29 24 30 25 31 26 32 27 33 28 34
REMARK SMILES IDX 80 35 29 36 79 37 30 38 31 39 32 40 73 41 33 42 78 43 72 44
REMARK SMILES IDX 74 45 34 46 77 47 71 48 70 49 35 51 61 52 44 53 60 54 45 55
REMARK SMILES IDX 48 56 59 57 75 58 46 59 47 60 58 62 76 63 49 64 36 65 37 66
REMARK SMILES IDX 42 67 38 68 39 69 41 70 43 71 40 72 62 73 63 74 68 75 64 76
REMARK SMILES IDX 65 77 67 78 69 79 66 80 50 81 51 82 56 83 52 84 53 85 55 86
REMARK SMILES IDX 57 87 54 88
REMARK H PARENT 5 16 74 50 48 61
REMARK Flexibility Score: inf
ROOT
ATOM      1  C   UNL A   1      40.781  20.710  26.888  1.00  0.00     0.188 C 
ENDROOT
BRANCH   1   2
ATOM      2  O   UNL A   1      40.273  21.699  26.024  1.00  0.00    -0.376 OA
BRANCH   2   3
ATOM      3  C   UNL A   1      38.881  21.984  26.127  1.00  0.00     0.202 C 
BRANCH   3   4
ATOM      4  C   UNL A   1      38.319  23.427  26.129  1.00  0.00     0.261 C 
BRANCH   4   5
ATOM      5  O   UNL A   1      36.885  23.562  26.126  1.00  0.00    -0.463 OA
BRANCH   5   6
ATOM      6  C   UNL A   1      36.338  23.705  24.888  1.00  0.00     0.309 C 
ATOM      7  O   UNL A   1      36.957  23.464  23.854  1.00  0.00    -0.252 OA
BRANCH   6   8
ATOM      8  C   UNL A   1      34.838  24.054  24.907  1.00  0.00     0.100 C 
ATOM      9  C   UNL A   1      32.910  24.504  23.224  1.00  0.00     0.079 C 
ATOM     10  C   UNL A   1      32.547  25.746  24.074  1.00  0.00     0.013 C 
ATOM     11  C   UNL A   1      34.395  24.223  23.444  1.00  0.00     0.028 C 
ATOM     12  C   UNL A   1      32.928  25.565  25.547  1.00  0.00     0.002 C 
ATOM     13  C   UNL A   1      34.427  25.285  25.714  1.00  0.00     0.015 C 
BRANCH   9  14
ATOM     14  C   UNL A   1      31.856  23.394  23.420  1.00  0.00     0.223 C 
ATOM     15  N   UNL A   1      32.104  22.057  23.411  1.00  0.00    -0.354 N 
ATOM     16  H   UNL A   1      31.282  21.515  23.418  1.00  0.00     0.163 HD
ATOM     17  O   UNL A   1      30.653  23.673  23.495  1.00  0.00    -0.275 OA
BRANCH  15  18
ATOM     18  C   UNL A   1      33.310  21.255  23.393  1.00  0.00     0.138 C 
BRANCH  18  19
ATOM     19  C   UNL A   1      33.550  20.345  24.625  1.00  0.00     0.084 C 
ATOM     20  C   UNL A   1      35.037  20.293  25.000  1.00  0.00     0.030 C 
ATOM     21  C   UNL A   1      32.764  20.973  25.804  1.00  0.00     0.030 C 
BRANCH  19  22
ATOM     22  S   UNL A   1      32.905  18.648  24.439  1.00  0.00     0.154 S 
ATOM     23  C   UNL A   1      34.267  17.511  24.274  1.00  0.00     0.158 C 
ATOM     24  O   UNL A   1      32.243  18.286  25.681  1.00  0.00    -0.229 OA
ATOM     25  O   UNL A   1      32.149  18.603  23.204  1.00  0.00    -0.229 OA
ENDBRANCH  19  22
ENDBRANCH  18  19
ENDBRANCH  15  18
ENDBRANCH   9  14
ENDBRANCH   6   8
ENDBRANCH   5   6
ENDBRANCH   4   5
ENDBRANCH   3   4
ENDBRANCH   2   3
ENDBRANCH   1   2
BRANCH   1  26
ATOM     26  C   UNL A   1      41.303  19.464  26.162  1.00  0.00     0.188 C 
BRANCH  26  27
ATOM     27  O   UNL A   1      42.331  19.512  25.182  1.00  0.00    -0.376 OA
BRANCH  27  28
ATOM     28  C   UNL A   1      43.633  19.950  25.542  1.00  0.00     0.202 C 
BRANCH  28  29
ATOM     29  C   UNL A   1      44.133  21.362  25.177  1.00  0.00     0.261 C 
BRANCH  29  30
ATOM     30  O   UNL A   1      43.683  22.432  26.016  1.00  0.00    -0.460 OA
BRANCH  30  31
ATOM     31  C   UNL A   1      43.949  23.678  25.541  1.00  0.00     0.338 C 
ATOM     32  O   UNL A   1      44.488  23.973  24.493  1.00  0.00    -0.246 OA
BRANCH  31  33
ATOM     33  C   UNL A   1      43.262  24.665  26.405  1.00  0.00     0.060 A 
ATOM     34  C   UNL A   1      43.715  25.996  26.378  1.00  0.00     0.016 A 
ATOM     35  C   UNL A   1      42.187  24.300  27.212  1.00  0.00     0.016 A 
ATOM     36  C   UNL A   1      43.097  26.967  27.160  1.00  0.00     0.010 A 
ATOM     37  C   UNL A   1      41.601  25.264  28.037  1.00  0.00     0.010 A 
ATOM     38  C   UNL A   1      42.069  26.593  28.032  1.00  0.00    -0.014 A 
BRANCH  38  39
ATOM     39  C   UNL A   1      41.650  27.527  29.102  1.00  0.00     0.031 A 
ATOM     40  C   UNL A   1      42.387  27.472  30.411  1.00  0.00     0.074 A 
ATOM     41  C   UNL A   1      40.657  28.413  28.920  1.00  0.00     0.049 A 
ATOM     42  N   UNL A   1      42.147  28.104  31.530  1.00  0.00    -0.248 NA
ATOM     43  C   UNL A   1      43.553  26.574  30.461  1.00  0.00     0.031 C 
ATOM     44  C   UNL A   1      39.902  28.602  27.685  1.00  0.00     0.029 A 
ATOM     45  N   UNL A   1      40.100  29.308  29.800  1.00  0.00    -0.354 N 
ATOM     46  C   UNL A   1      43.122  27.670  32.420  1.00  0.00     0.074 A 
ATOM     47  C   UNL A   1      43.937  26.701  31.721  1.00  0.00     0.031 C 
ATOM     48  C   UNL A   1      38.956  29.536  27.894  1.00  0.00     0.029 A 
ATOM     49  C   UNL A   1      39.016  29.977  29.287  1.00  0.00     0.049 A 
ATOM     50  H   UNL A   1      40.444  29.455  30.710  1.00  0.00     0.167 HD
ATOM     51  C   UNL A   1      43.324  28.050  33.703  1.00  0.00     0.037 A 
ATOM     52  C   UNL A   1      38.151  30.815  29.891  1.00  0.00     0.037 A 
ATOM     53  C   UNL A   1      42.502  29.003  34.401  1.00  0.00     0.049 A 
ATOM     54  C   UNL A   1      38.335  31.153  31.351  1.00  0.00     0.074 A 
ATOM     55  C   UNL A   1      42.623  29.455  35.703  1.00  0.00     0.029 A 
ATOM     56  N   UNL A   1      41.399  29.642  33.855  1.00  0.00    -0.354 N 
ATOM     57  N   UNL A   1      39.263  30.750  32.185  1.00  0.00    -0.248 NA
ATOM     58  C   UNL A   1      37.350  32.067  31.949  1.00  0.00     0.031 C 
ATOM     59  C   UNL A   1      41.559  30.324  35.963  1.00  0.00     0.029 A 
ATOM     60  C   UNL A   1      40.815  30.467  34.803  1.00  0.00     0.049 A 
ATOM     61  H   UNL A   1      41.079  29.527  32.932  1.00  0.00     0.167 HD
ATOM     62  C   UNL A   1      38.992  31.382  33.395  1.00  0.00     0.074 A 
ATOM     63  C   UNL A   1      37.821  32.206  33.180  1.00  0.00     0.031 C 
ATOM     64  C   UNL A   1      39.654  31.290  34.575  1.00  0.00     0.037 A 
BRANCH  51  65
ATOM     65  C   UNL A   1      44.458  27.400  34.442  1.00  0.00     0.057 A 
ATOM     66  C   UNL A   1      45.718  28.004  34.549  1.00  0.00     0.134 A 
ATOM     67  C   UNL A   1      44.284  26.158  35.066  1.00  0.00     0.134 A 
ATOM     68  F   UNL A   1      45.958  29.186  33.959  1.00  0.00    -0.206 F 
ATOM     69  C   UNL A   1      46.771  27.383  35.222  1.00  0.00     0.040 A 
ATOM     70  C   UNL A   1      45.319  25.542  35.769  1.00  0.00     0.040 A 
ATOM     71  F   UNL A   1      43.102  25.525  35.005  1.00  0.00    -0.206 F 
ATOM     72  C   UNL A   1      46.570  26.151  35.841  1.00  0.00     0.006 A 
ENDBRANCH  51  65
BRANCH  52  73
ATOM     73  C   UNL A   1      37.004  31.372  29.128  1.00  0.00     0.057 A 
ATOM     74  C   UNL A   1      37.002  32.699  28.682  1.00  0.00     0.134 A 
ATOM     75  C   UNL A   1      35.870  30.598  28.850  1.00  0.00     0.134 A 
ATOM     76  F   UNL A   1      38.046  33.499  28.940  1.00  0.00    -0.206 F 
ATOM     77  C   UNL A   1      35.908  33.241  28.003  1.00  0.00     0.040 A 
ATOM     78  C   UNL A   1      34.784  31.117  28.145  1.00  0.00     0.040 A 
ATOM     79  F   UNL A   1      35.806  29.321  29.254  1.00  0.00    -0.206 F 
ATOM     80  C   UNL A   1      34.797  32.446  27.726  1.00  0.00     0.006 A 
ENDBRANCH  52  73
BRANCH  64  81
ATOM     81  C   UNL A   1      39.164  32.138  35.716  1.00  0.00     0.057 A 
ATOM     82  C   UNL A   1      39.563  33.471  35.882  1.00  0.00     0.134 A 
ATOM     83  C   UNL A   1      38.237  31.626  36.635  1.00  0.00     0.134 A 
ATOM     84  F   UNL A   1      40.454  34.023  35.045  1.00  0.00    -0.206 F 
ATOM     85  C   UNL A   1      39.080  34.252  36.934  1.00  0.00     0.040 A 
ATOM     86  C   UNL A   1      37.724  32.406  37.672  1.00  0.00     0.040 A 
ATOM     87  F   UNL A   1      37.802  30.361  36.529  1.00  0.00    -0.206 F 
ATOM     88  C   UNL A   1      38.151  33.722  37.828  1.00  0.00     0.006 A 
ENDBRANCH  64  81
ENDBRANCH  38  39
ENDBRANCH  31  33
ENDBRANCH  30  31
ENDBRANCH  29  30
ENDBRANCH  28  29
ENDBRANCH  27  28
ENDBRANCH  26  27
ENDBRANCH   1  26
TORSDOF 21
ENDMDL
MODEL 2
REMARK VINA RESULT:     -10.1      3.126      7.674
REMARK SMILES CC(C)(CNC(=O)[C@H]1CCC[C@H](C(=O)OCCOCCOCCOC(=O)c2ccc(-c3c4nc(c(-c5c(F)cccc5F)c5ccc([nH]5)c(-c5c(F)cccc5F)c5nc(c(-c6c(F)cccc6F)c6ccc3[nH]6)C=C5)C=C4)cc2)C1)S(C)(=O)=O
REMARK SMILES IDX 19 1 18 2 17 3 16 4 15 5 13 6 14 7 12 8 8 9 9 10 81 11 10 12
REMARK SMILES IDX 11 13 6 14 5 15 7 17 4 18 2 19 1 20 3 21 82 22 83 23 84 24
REMARK SMILES IDX 85 25 20 26 21 27 22 28 23 29 24 30 25 31 26 32 27 33 28 34
REMARK SMILES IDX 80 35 29 36 79 37 30 38 31 39 32 40 73 41 33 42 78 43 72 44
REMARK SMILES IDX 74 45 34 46 77 47 71 48 70 49 35 51 61 52 44 53 60 54 45 55
REMARK SMILES IDX 48 56 59 57 75 58 46 59 47 60 58 62 76 63 49 64 36 65 37 66
REMARK SMILES IDX 42 67 38 68 39 69 41 70 43 71 40 72 62 73 63 74 68 75 64 76
REMARK SMILES IDX 65 77 67 78 69 79 66 80 50 81 51 82 56 83 52 84 53 85 55 86
REMARK SMILES IDX 57 87 54 88
REMARK H PARENT 5 16 74 50 48 61
REMARK Flexibility Score: inf
ROOT
ATOM      1  C   UNL A   1      37.951  21.539  25.280  1.00  0.00     0.188 C 
ENDROOT
BRANCH   1   2
ATOM      2  O   UNL A   1      36.601  21.452  25.672  1.00  0.00    -0.376 OA
BRANCH   2   3
ATOM      3  C   UNL A   1      35.630  21.855  24.711  1.00  0.00     0.202 C 
BRANCH   3   4
ATOM      4  C   UNL A   1      34.190  21.284  24.682  1.00  0.00     0.261 C 
BRANCH   4   5
ATOM      5  O   UNL A   1      33.115  22.240  24.734  1.00  0.00    -0.463 OA
BRANCH   5   6
ATOM      6  C   UNL A   1      32.933  22.941  23.581  1.00  0.00     0.309 C 
ATOM      7  O   UNL A   1      32.843  22.403  22.480  1.00  0.00    -0.252 OA
BRANCH   6   8
ATOM      8  C   UNL A   1      32.705  24.449  23.800  1.00  0.00     0.100 C 
ATOM      9  C   UNL A   1      31.500  26.436  22.639  1.00  0.00     0.079 C 
ATOM     10  C   UNL A   1      32.793  27.260  22.854  1.00  0.00     0.013 C 
ATOM     11  C   UNL A   1      31.903  24.964  22.593  1.00  0.00     0.028 C 
ATOM     12  C   UNL A   1      33.571  26.796  24.089  1.00  0.00     0.002 C 
ATOM     13  C   UNL A   1      33.951  25.312  23.996  1.00  0.00     0.015 C 
BRANCH   9  14
ATOM     14  C   UNL A   1      30.389  26.925  23.592  1.00  0.00     0.223 C 
ATOM     15  N   UNL A   1      29.753  28.125  23.516  1.00  0.00    -0.354 N 
ATOM     16  H   UNL A   1      29.174  28.301  24.292  1.00  0.00     0.163 HD
ATOM     17  O   UNL A   1      30.075  26.261  24.587  1.00  0.00    -0.275 OA
BRANCH  15  18
ATOM     18  C   UNL A   1      29.740  29.200  22.545  1.00  0.00     0.138 C 
BRANCH  18  19
ATOM     19  C   UNL A   1      28.413  29.989  22.409  1.00  0.00     0.084 C 
ATOM     20  C   UNL A   1      28.107  30.323  20.944  1.00  0.00     0.030 C 
ATOM     21  C   UNL A   1      27.289  29.070  22.952  1.00  0.00     0.030 C 
BRANCH  19  22
ATOM     22  S   UNL A   1      28.343  31.513  23.413  1.00  0.00     0.154 S 
ATOM     23  C   UNL A   1      28.543  32.930  22.351  1.00  0.00     0.158 C 
ATOM     24  O   UNL A   1      27.002  31.622  23.960  1.00  0.00    -0.229 OA
ATOM     25  O   UNL A   1      29.470  31.486  24.322  1.00  0.00    -0.229 OA
ENDBRANCH  19  22
ENDBRANCH  18  19
ENDBRANCH  15  18
ENDBRANCH   9  14
ENDBRANCH   6   8
ENDBRANCH   5   6
ENDBRANCH   4   5
ENDBRANCH   3   4
ENDBRANCH   2   3
ENDBRANCH   1   2
BRANCH   1  26
ATOM     26  C   UNL A   1      38.783  22.499  26.140  1.00  0.00     0.188 C 
BRANCH  26  27
ATOM     27  O   UNL A   1      39.910  22.081  26.897  1.00  0.00    -0.376 OA
BRANCH  27  28
ATOM     28  C   UNL A   1      41.129  21.767  26.240  1.00  0.00     0.202 C 
BRANCH  28  29
ATOM     29  C   UNL A   1      42.169  22.857  25.915  1.00  0.00     0.261 C 
BRANCH  29  30
ATOM     30  O   UNL A   1      42.216  23.977  26.805  1.00  0.00    -0.460 OA
BRANCH  30  31
ATOM     31  C   UNL A   1      42.014  25.184  26.213  1.00  0.00     0.338 C 
ATOM     32  O   UNL A   1      42.018  25.437  25.025  1.00  0.00    -0.246 OA
BRANCH  31  33
ATOM     33  C   UNL A   1      41.545  26.139  27.243  1.00  0.00     0.060 A 
ATOM     34  C   UNL A   1      42.164  27.400  27.306  1.00  0.00     0.016 A 
ATOM     35  C   UNL A   1      40.512  25.814  28.119  1.00  0.00     0.016 A 
ATOM     36  C   UNL A   1      41.754  28.340  28.247  1.00  0.00     0.010 A 
ATOM     37  C   UNL A   1      40.136  26.738  29.098  1.00  0.00     0.010 A 
ATOM     38  C   UNL A   1      40.772  27.993  29.180  1.00  0.00    -0.014 A 
BRANCH  38  39
ATOM     39  C   UNL A   1      40.580  28.840  30.379  1.00  0.00     0.031 A 
ATOM     40  C   UNL A   1      39.505  29.890  30.333  1.00  0.00     0.074 A 
ATOM     41  C   UNL A   1      41.321  28.678  31.488  1.00  0.00     0.049 A 
ATOM     42  N   UNL A   1      39.210  30.821  31.203  1.00  0.00    -0.248 NA
ATOM     43  C   UNL A   1      38.651  29.890  29.133  1.00  0.00     0.031 C 
ATOM     44  C   UNL A   1      42.355  27.664  31.679  1.00  0.00     0.029 A 
ATOM     45  N   UNL A   1      41.325  29.392  32.660  1.00  0.00    -0.354 N 
ATOM     46  C   UNL A   1      38.147  31.524  30.650  1.00  0.00     0.074 A 
ATOM     47  C   UNL A   1      37.869  30.934  29.360  1.00  0.00     0.031 C 
ATOM     48  C   UNL A   1      42.915  27.840  32.889  1.00  0.00     0.029 A 
ATOM     49  C   UNL A   1      42.308  29.003  33.535  1.00  0.00     0.049 A 
ATOM     50  H   UNL A   1      40.684  30.114  32.854  1.00  0.00     0.167 HD
ATOM     51  C   UNL A   1      37.460  32.566  31.174  1.00  0.00     0.037 A 
ATOM     52  C   UNL A   1      42.695  29.553  34.703  1.00  0.00     0.037 A 
ATOM     53  C   UNL A   1      37.748  33.162  32.452  1.00  0.00     0.049 A 
ATOM     54  C   UNL A   1      41.979  30.774  35.227  1.00  0.00     0.074 A 
ATOM     55  C   UNL A   1      37.111  34.221  33.072  1.00  0.00     0.029 A 
ATOM     56  N   UNL A   1      38.767  32.754  33.300  1.00  0.00    -0.354 N 
ATOM     57  N   UNL A   1      40.969  31.430  34.708  1.00  0.00    -0.248 NA
ATOM     58  C   UNL A   1      42.459  31.328  36.502  1.00  0.00     0.031 C 
ATOM     59  C   UNL A   1      37.781  34.492  34.269  1.00  0.00     0.029 A 
ATOM     60  C   UNL A   1      38.793  33.558  34.428  1.00  0.00     0.049 A 
ATOM     61  H   UNL A   1      39.382  32.005  33.126  1.00  0.00     0.167 HD
ATOM     62  C   UNL A   1      40.673  32.452  35.605  1.00  0.00     0.074 A 
ATOM     63  C   UNL A   1      41.602  32.320  36.706  1.00  0.00     0.031 C 
ATOM     64  C   UNL A   1      39.717  33.411  35.524  1.00  0.00     0.037 A 
BRANCH  51  65
ATOM     65  C   UNL A   1      36.354  33.147  30.342  1.00  0.00     0.057 A 
ATOM     66  C   UNL A   1      36.608  34.011  29.267  1.00  0.00     0.134 A 
ATOM     67  C   UNL A   1      35.017  32.830  30.612  1.00  0.00     0.134 A 
ATOM     68  F   UNL A   1      37.866  34.369  28.965  1.00  0.00    -0.206 F 
ATOM     69  C   UNL A   1      35.571  34.560  28.512  1.00  0.00     0.040 A 
ATOM     70  C   UNL A   1      33.974  33.348  29.843  1.00  0.00     0.040 A 
ATOM     71  F   UNL A   1      34.702  32.008  31.624  1.00  0.00    -0.206 F 
ATOM     72  C   UNL A   1      34.249  34.223  28.795  1.00  0.00     0.006 A 
ENDBRANCH  51  65
BRANCH  52  73
ATOM     73  C   UNL A   1      43.844  28.977  35.448  1.00  0.00     0.057 A 
ATOM     74  C   UNL A   1      43.658  27.995  36.428  1.00  0.00     0.134 A 
ATOM     75  C   UNL A   1      45.154  29.414  35.218  1.00  0.00     0.134 A 
ATOM     76  F   UNL A   1      42.424  27.553  36.715  1.00  0.00    -0.206 F 
ATOM     77  C   UNL A   1      44.729  27.482  37.163  1.00  0.00     0.040 A 
ATOM     78  C   UNL A   1      46.238  28.887  35.922  1.00  0.00     0.040 A 
ATOM     79  F   UNL A   1      45.401  30.357  34.296  1.00  0.00    -0.206 F 
ATOM     80  C   UNL A   1      46.025  27.923  36.905  1.00  0.00     0.006 A 
ENDBRANCH  52  73
BRANCH  64  81
ATOM     81  C   UNL A   1      39.589  34.365  36.679  1.00  0.00     0.057 A 
ATOM     82  C   UNL A   1      38.896  34.032  37.850  1.00  0.00     0.134 A 
ATOM     83  C   UNL A   1      40.213  35.620  36.636  1.00  0.00     0.134 A 
ATOM     84  F   UNL A   1      38.267  32.852  37.955  1.00  0.00    -0.206 F 
ATOM     85  C   UNL A   1      38.807  34.921  38.923  1.00  0.00     0.040 A 
ATOM     86  C   UNL A   1      40.157  36.504  37.714  1.00  0.00     0.040 A 
ATOM     87  F   UNL A   1      40.905  36.000  35.551  1.00  0.00    -0.206 F 
ATOM     88  C   UNL A   1      39.445  36.158  38.860  1.00  0.00     0.006 A 
ENDBRANCH  64  81
ENDBRANCH  38  39
ENDBRANCH  31  33
ENDBRANCH  30  31
ENDBRANCH  29  30
ENDBRANCH  28  29
ENDBRANCH  27  28
ENDBRANCH  26  27
ENDBRANCH   1  26
TORSDOF 21
ENDMDL
MODEL 3
REMARK VINA RESULT:     -10.0      4.509      9.659
REMARK SMILES CC(C)(CNC(=O)[C@H]1CCC[C@H](C(=O)OCCOCCOCCOC(=O)c2ccc(-c3c4nc(c(-c5c(F)cccc5F)c5ccc([nH]5)c(-c5c(F)cccc5F)c5nc(c(-c6c(F)cccc6F)c6ccc3[nH]6)C=C5)C=C4)cc2)C1)S(C)(=O)=O
REMARK SMILES IDX 19 1 18 2 17 3 16 4 15 5 13 6 14 7 12 8 8 9 9 10 81 11 10 12
REMARK SMILES IDX 11 13 6 14 5 15 7 17 4 18 2 19 1 20 3 21 82 22 83 23 84 24
REMARK SMILES IDX 85 25 20 26 21 27 22 28 23 29 24 30 25 31 26 32 27 33 28 34
REMARK SMILES IDX 80 35 29 36 79 37 30 38 31 39 32 40 73 41 33 42 78 43 72 44
REMARK SMILES IDX 74 45 34 46 77 47 71 48 70 49 35 51 61 52 44 53 60 54 45 55
REMARK SMILES IDX 48 56 59 57 75 58 46 59 47 60 58 62 76 63 49 64 36 65 37 66
REMARK SMILES IDX 42 67 38 68 39 69 41 70 43 71 40 72 62 73 63 74 68 75 64 76
REMARK SMILES IDX 65 77 67 78 69 79 66 80 50 81 51 82 56 83 52 84 53 85 55 86
REMARK SMILES IDX 57 87 54 88
REMARK H PARENT 5 16 74 50 48 61
REMARK Flexibility Score: inf
ROOT
ATOM      1  C   UNL A   1      34.019  32.399  28.414  1.00  0.00     0.188 C 
ENDROOT
BRANCH   1   2
ATOM      2  O   UNL A   1      34.190  31.494  27.349  1.00  0.00    -0.376 OA
BRANCH   2   3
ATOM      3  C   UNL A   1      33.496  30.254  27.448  1.00  0.00     0.202 C 
BRANCH   3   4
ATOM      4  C   UNL A   1      33.209  29.353  26.221  1.00  0.00     0.261 C 
BRANCH   4   5
ATOM      5  O   UNL A   1      33.192  27.931  26.453  1.00  0.00    -0.463 OA
BRANCH   5   6
ATOM      6  C   UNL A   1      31.988  27.444  26.858  1.00  0.00     0.309 C 
ATOM      7  O   UNL A   1      31.360  27.920  27.802  1.00  0.00    -0.252 OA
BRANCH   6   8
ATOM      8  C   UNL A   1      31.420  26.345  25.942  1.00  0.00     0.100 C 
ATOM      9  C   UNL A   1      32.275  24.351  24.512  1.00  0.00     0.079 C 
ATOM     10  C   UNL A   1      31.369  24.869  23.368  1.00  0.00     0.013 C 
ATOM     11  C   UNL A   1      32.617  25.549  25.396  1.00  0.00     0.028 C 
ATOM     12  C   UNL A   1      30.139  25.612  23.901  1.00  0.00     0.002 C 
ATOM     13  C   UNL A   1      30.535  26.803  24.782  1.00  0.00     0.015 C 
BRANCH   9  14
ATOM     14  C   UNL A   1      31.687  23.060  25.118  1.00  0.00     0.223 C 
ATOM     15  N   UNL A   1      32.138  21.799  24.883  1.00  0.00    -0.354 N 
ATOM     16  H   UNL A   1      31.548  21.105  25.255  1.00  0.00     0.163 HD
ATOM     17  O   UNL A   1      30.658  23.097  25.804  1.00  0.00    -0.275 OA
BRANCH  15  18
ATOM     18  C   UNL A   1      33.295  21.251  24.204  1.00  0.00     0.138 C 
BRANCH  18  19
ATOM     19  C   UNL A   1      34.655  21.402  24.932  1.00  0.00     0.084 C 
ATOM     20  C   UNL A   1      34.464  21.782  26.405  1.00  0.00     0.030 C 
ATOM     21  C   UNL A   1      35.352  20.019  24.864  1.00  0.00     0.030 C 
BRANCH  19  22
ATOM     22  S   UNL A   1      35.802  22.580  24.138  1.00  0.00     0.154 S 
ATOM     23  C   UNL A   1      36.083  23.959  25.231  1.00  0.00     0.158 C 
ATOM     24  O   UNL A   1      37.090  21.922  24.001  1.00  0.00    -0.229 OA
ATOM     25  O   UNL A   1      35.147  23.091  22.951  1.00  0.00    -0.229 OA
ENDBRANCH  19  22
ENDBRANCH  18  19
ENDBRANCH  15  18
ENDBRANCH   9  14
ENDBRANCH   6   8
ENDBRANCH   5   6
ENDBRANCH   4   5
ENDBRANCH   3   4
ENDBRANCH   2   3
ENDBRANCH   1   2
BRANCH   1  26
ATOM     26  C   UNL A   1      34.535  33.812  28.113  1.00  0.00     0.188 C 
BRANCH  26  27
ATOM     27  O   UNL A   1      34.604  34.837  29.094  1.00  0.00    -0.376 OA
BRANCH  27  28
ATOM     28  C   UNL A   1      34.041  34.625  30.381  1.00  0.00     0.202 C 
BRANCH  28  29
ATOM     29  C   UNL A   1      34.871  34.835  31.663  1.00  0.00     0.261 C 
BRANCH  29  30
ATOM     30  O   UNL A   1      36.011  33.986  31.829  1.00  0.00    -0.460 OA
BRANCH  30  31
ATOM     31  C   UNL A   1      35.718  32.680  32.072  1.00  0.00     0.338 C 
ATOM     32  O   UNL A   1      34.689  32.224  32.528  1.00  0.00    -0.246 OA
BRANCH  31  33
ATOM     33  C   UNL A   1      36.781  31.842  31.470  1.00  0.00     0.060 A 
ATOM     34  C   UNL A   1      37.748  31.285  32.326  1.00  0.00     0.016 A 
ATOM     35  C   UNL A   1      36.820  31.592  30.101  1.00  0.00     0.016 A 
ATOM     36  C   UNL A   1      38.760  30.479  31.815  1.00  0.00     0.010 A 
ATOM     37  C   UNL A   1      37.868  30.826  29.581  1.00  0.00     0.010 A 
ATOM     38  C   UNL A   1      38.854  30.288  30.432  1.00  0.00    -0.014 A 
BRANCH  38  39
ATOM     39  C   UNL A   1      40.101  29.735  29.859  1.00  0.00     0.031 A 
ATOM     40  C   UNL A   1      41.274  30.663  29.703  1.00  0.00     0.074 A 
ATOM     41  C   UNL A   1      40.206  28.445  29.500  1.00  0.00     0.049 A 
ATOM     42  N   UNL A   1      42.433  30.454  29.135  1.00  0.00    -0.248 NA
ATOM     43  C   UNL A   1      41.109  32.015  30.260  1.00  0.00     0.031 C 
ATOM     44  C   UNL A   1      39.163  27.434  29.650  1.00  0.00     0.029 A 
ATOM     45  N   UNL A   1      41.248  27.774  28.910  1.00  0.00    -0.354 N 
ATOM     46  C   UNL A   1      43.129  31.650  29.256  1.00  0.00     0.074 A 
ATOM     47  C   UNL A   1      42.253  32.588  29.922  1.00  0.00     0.031 C 
ATOM     48  C   UNL A   1      39.608  26.273  29.135  1.00  0.00     0.029 A 
ATOM     49  C   UNL A   1      40.948  26.475  28.585  1.00  0.00     0.049 A 
ATOM     50  H   UNL A   1      42.126  28.185  28.736  1.00  0.00     0.167 HD
ATOM     51  C   UNL A   1      44.388  31.939  28.853  1.00  0.00     0.037 A 
ATOM     52  C   UNL A   1      41.662  25.570  27.886  1.00  0.00     0.037 A 
ATOM     53  C   UNL A   1      45.253  31.009  28.177  1.00  0.00     0.049 A 
ATOM     54  C   UNL A   1      43.027  25.942  27.360  1.00  0.00     0.074 A 
ATOM     55  C   UNL A   1      46.546  31.205  27.726  1.00  0.00     0.029 A 
ATOM     56  N   UNL A   1      44.905  29.708  27.844  1.00  0.00    -0.354 N 
ATOM     57  N   UNL A   1      43.686  27.069  27.484  1.00  0.00    -0.248 NA
ATOM     58  C   UNL A   1      43.747  24.910  26.598  1.00  0.00     0.031 C 
ATOM     59  C   UNL A   1      46.959  30.041  27.070  1.00  0.00     0.029 A 
ATOM     60  C   UNL A   1      45.951  29.097  27.171  1.00  0.00     0.049 A 
ATOM     61  H   UNL A   1      44.043  29.282  28.055  1.00  0.00     0.167 HD
ATOM     62  C   UNL A   1      44.906  26.873  26.846  1.00  0.00     0.074 A 
ATOM     63  C   UNL A   1      44.901  25.515  26.347  1.00  0.00     0.031 C 
ATOM     64  C   UNL A   1      45.938  27.740  26.688  1.00  0.00     0.037 A 
BRANCH  51  65
ATOM     65  C   UNL A   1      44.886  33.334  29.102  1.00  0.00     0.057 A 
ATOM     66  C   UNL A   1      45.611  33.669  30.254  1.00  0.00     0.134 A 
ATOM     67  C   UNL A   1      44.649  34.352  28.171  1.00  0.00     0.134 A 
ATOM     68  F   UNL A   1      45.858  32.745  31.195  1.00  0.00    -0.206 F 
ATOM     69  C   UNL A   1      46.053  34.972  30.484  1.00  0.00     0.040 A 
ATOM     70  C   UNL A   1      45.114  35.652  28.375  1.00  0.00     0.040 A 
ATOM     71  F   UNL A   1      43.964  34.101  27.044  1.00  0.00    -0.206 F 
ATOM     72  C   UNL A   1      45.811  35.967  29.539  1.00  0.00     0.006 A 
ENDBRANCH  51  65
BRANCH  52  73
ATOM     73  C   UNL A   1      41.088  24.228  27.608  1.00  0.00     0.057 A 
ATOM     74  C   UNL A   1      41.548  23.087  28.274  1.00  0.00     0.134 A 
ATOM     75  C   UNL A   1      40.083  24.051  26.649  1.00  0.00     0.134 A 
ATOM     76  F   UNL A   1      42.528  23.186  29.184  1.00  0.00    -0.206 F 
ATOM     77  C   UNL A   1      41.044  21.817  27.985  1.00  0.00     0.040 A 
ATOM     78  C   UNL A   1      39.547  22.792  26.373  1.00  0.00     0.040 A 
ATOM     79  F   UNL A   1      39.601  25.103  25.971  1.00  0.00    -0.206 F 
ATOM     80  C   UNL A   1      40.034  21.669  27.037  1.00  0.00     0.006 A 
ENDBRANCH  52  73
BRANCH  64  81
ATOM     81  C   UNL A   1      47.171  27.234  25.992  1.00  0.00     0.057 A 
ATOM     82  C   UNL A   1      47.374  27.399  24.616  1.00  0.00     0.134 A 
ATOM     83  C   UNL A   1      48.195  26.614  26.722  1.00  0.00     0.134 A 
ATOM     84  F   UNL A   1      46.431  27.976  23.854  1.00  0.00    -0.206 F 
ATOM     85  C   UNL A   1      48.535  26.945  23.988  1.00  0.00     0.040 A 
ATOM     86  C   UNL A   1      49.374  26.183  26.112  1.00  0.00     0.040 A 
ATOM     87  F   UNL A   1      48.074  26.434  28.046  1.00  0.00    -0.206 F 
ATOM     88  C   UNL A   1      49.543  26.342  24.739  1.00  0.00     0.006 A 
ENDBRANCH  64  81
ENDBRANCH  38  39
ENDBRANCH  31  33
ENDBRANCH  30  31
ENDBRANCH  29  30
ENDBRANCH  28  29
ENDBRANCH  27  28
ENDBRANCH  26  27
ENDBRANCH   1  26
TORSDOF 21
ENDMDL
