MODEL 1
REMARK VINA RESULT:     -11.1      0.000      0.000
REMARK SMILES O=C(OCCOCCOCCOC(=O)[C@H]1C[N@H+](Cc2ccc(Cl)c(Cl)c2)CC12CCCCC2)c1ccc(-c2c3nc(c(-c4c(F)cccc4F)c4ccc([nH]4)c(-c4c(F)cccc4F)c4nc(c(-c5c(F)cccc5F)c5ccc2[nH]5)C=C4)C=C3)cc1
REMARK SMILES IDX 7 1 6 2 5 3 4 4 3 5 2 6 1 7 34 8 35 9 87 10 36 11 86 12
REMARK SMILES IDX 37 13 38 14 39 15 80 16 40 17 85 18 79 19 81 20 41 21 84 22
REMARK SMILES IDX 78 23 77 24 42 26 68 27 51 28 67 29 52 30 55 31 66 32 82 33
REMARK SMILES IDX 53 34 54 35 65 37 83 38 56 39 43 40 44 41 49 42 45 43 46 44
REMARK SMILES IDX 48 45 50 46 47 47 69 48 70 49 75 50 71 51 72 52 74 53 76 54
REMARK SMILES IDX 73 55 57 56 58 57 63 58 59 59 60 60 62 61 64 62 61 63 8 64
REMARK SMILES IDX 9 65 10 66 11 67 12 68 13 69 14 70 15 71 16 72 28 73 17 74
REMARK SMILES IDX 27 75 29 76 33 77 30 79 32 80 31 81 18 82 19 83 20 84 26 85
REMARK SMILES IDX 21 86 24 87 22 88 25 89 23 90
REMARK H PARENT 81 25 55 36 17 78
REMARK Flexibility Score: inf
ROOT
ATOM      1  C   UNL A   1      40.027  20.914  26.416  1.00  0.00     0.188 C 
ENDROOT
BRANCH   1   2
ATOM      2  O   UNL A   1      41.348  21.030  26.966  1.00  0.00    -0.376 OA
BRANCH   2   3
ATOM      3  C   UNL A   1      42.359  20.393  26.175  1.00  0.00     0.202 C 
BRANCH   3   4
ATOM      4  C   UNL A   1      43.396  21.324  25.525  1.00  0.00     0.261 C 
BRANCH   4   5
ATOM      5  O   UNL A   1      42.870  22.604  25.150  1.00  0.00    -0.460 OA
BRANCH   5   6
ATOM      6  C   UNL A   1      43.420  23.833  25.303  1.00  0.00     0.338 C 
ATOM      7  O   UNL A   1      44.328  24.161  24.539  1.00  0.00    -0.246 OA
BRANCH   6   8
ATOM      8  C   UNL A   1      42.985  24.832  26.329  1.00  0.00     0.060 A 
ATOM      9  C   UNL A   1      43.300  26.192  26.328  1.00  0.00     0.016 A 
ATOM     10  C   UNL A   1      42.124  24.360  27.338  1.00  0.00     0.016 A 
ATOM     11  C   UNL A   1      42.853  27.039  27.342  1.00  0.00     0.010 A 
ATOM     12  C   UNL A   1      41.648  25.209  28.344  1.00  0.00     0.010 A 
ATOM     13  C   UNL A   1      42.042  26.548  28.367  1.00  0.00    -0.014 A 
BRANCH  13  14
ATOM     14  C   UNL A   1      41.686  27.449  29.484  1.00  0.00     0.031 A 
ATOM     15  C   UNL A   1      42.568  27.506  30.671  1.00  0.00     0.074 A 
ATOM     16  C   UNL A   1      40.600  28.233  29.415  1.00  0.00     0.049 A 
ATOM     17  N   UNL A   1      42.409  28.209  31.755  1.00  0.00    -0.248 NA
ATOM     18  C   UNL A   1      43.747  26.629  30.666  1.00  0.00     0.031 C 
ATOM     19  C   UNL A   1      39.646  28.135  28.337  1.00  0.00     0.029 A 
ATOM     20  N   UNL A   1      40.095  29.233  30.204  1.00  0.00    -0.354 N 
ATOM     21  C   UNL A   1      43.421  27.804  32.601  1.00  0.00     0.074 A 
ATOM     22  C   UNL A   1      44.218  26.827  31.888  1.00  0.00     0.031 C 
ATOM     23  C   UNL A   1      38.709  29.081  28.473  1.00  0.00     0.029 A 
ATOM     24  C   UNL A   1      38.975  29.837  29.674  1.00  0.00     0.049 A 
ATOM     25  H   UNL A   1      40.494  29.493  31.067  1.00  0.00     0.167 HD
ATOM     26  C   UNL A   1      43.609  28.189  33.881  1.00  0.00     0.037 A 
ATOM     27  C   UNL A   1      38.223  30.865  30.107  1.00  0.00     0.037 A 
ATOM     28  C   UNL A   1      42.765  29.141  34.554  1.00  0.00     0.049 A 
ATOM     29  C   UNL A   1      38.528  31.356  31.483  1.00  0.00     0.074 A 
ATOM     30  C   UNL A   1      42.856  29.603  35.853  1.00  0.00     0.029 A 
ATOM     31  N   UNL A   1      41.663  29.768  33.980  1.00  0.00    -0.354 N 
ATOM     32  N   UNL A   1      39.490  30.964  32.283  1.00  0.00    -0.248 NA
ATOM     33  C   UNL A   1      37.611  32.341  32.061  1.00  0.00     0.031 C 
ATOM     34  C   UNL A   1      41.786  30.475  36.078  1.00  0.00     0.029 A 
ATOM     35  C   UNL A   1      41.056  30.602  34.905  1.00  0.00     0.049 A 
ATOM     36  H   UNL A   1      41.360  29.638  33.053  1.00  0.00     0.167 HD
ATOM     37  C   UNL A   1      39.255  31.594  33.486  1.00  0.00     0.074 A 
ATOM     38  C   UNL A   1      38.107  32.463  33.284  1.00  0.00     0.031 C 
ATOM     39  C   UNL A   1      39.898  31.429  34.665  1.00  0.00     0.037 A 
BRANCH  26  40
ATOM     40  C   UNL A   1      44.695  27.485  34.628  1.00  0.00     0.057 A 
ATOM     41  C   UNL A   1      46.009  27.967  34.672  1.00  0.00     0.134 A 
ATOM     42  C   UNL A   1      44.430  26.261  35.255  1.00  0.00     0.134 A 
ATOM     43  F   UNL A   1      46.335  29.109  34.049  1.00  0.00    -0.206 F 
ATOM     44  C   UNL A   1      47.027  27.244  35.296  1.00  0.00     0.040 A 
ATOM     45  C   UNL A   1      45.434  25.543  35.904  1.00  0.00     0.040 A 
ATOM     46  F   UNL A   1      43.197  25.733  35.226  1.00  0.00    -0.206 F 
ATOM     47  C   UNL A   1      46.739  26.031  35.918  1.00  0.00     0.006 A 
ENDBRANCH  26  40
BRANCH  27  48
ATOM     48  C   UNL A   1      37.086  31.415  29.312  1.00  0.00     0.057 A 
ATOM     49  C   UNL A   1      37.168  32.677  28.708  1.00  0.00     0.134 A 
ATOM     50  C   UNL A   1      35.889  30.709  29.142  1.00  0.00     0.134 A 
ATOM     51  F   UNL A   1      38.273  33.423  28.848  1.00  0.00    -0.206 F 
ATOM     52  C   UNL A   1      36.105  33.214  27.971  1.00  0.00     0.040 A 
ATOM     53  C   UNL A   1      34.829  31.221  28.389  1.00  0.00     0.040 A 
ATOM     54  F   UNL A   1      35.736  29.492  29.685  1.00  0.00    -0.206 F 
ATOM     55  C   UNL A   1      34.934  32.479  27.803  1.00  0.00     0.006 A 
ENDBRANCH  27  48
BRANCH  39  56
ATOM     56  C   UNL A   1      39.341  32.203  35.813  1.00  0.00     0.057 A 
ATOM     57  C   UNL A   1      39.770  33.507  36.092  1.00  0.00     0.134 A 
ATOM     58  C   UNL A   1      38.371  31.637  36.644  1.00  0.00     0.134 A 
ATOM     59  F   UNL A   1      40.722  34.086  35.344  1.00  0.00    -0.206 F 
ATOM     60  C   UNL A   1      39.258  34.218  37.174  1.00  0.00     0.040 A 
ATOM     61  C   UNL A   1      37.834  32.348  37.713  1.00  0.00     0.040 A 
ATOM     62  F   UNL A   1      37.932  30.387  36.424  1.00  0.00    -0.206 F 
ATOM     63  C   UNL A   1      38.281  33.640  37.984  1.00  0.00     0.006 A 
ENDBRANCH  39  56
ENDBRANCH  13  14
ENDBRANCH   6   8
ENDBRANCH   5   6
ENDBRANCH   4   5
ENDBRANCH   3   4
ENDBRANCH   2   3
ENDBRANCH   1   2
BRANCH   1  64
ATOM     64  C   UNL A   1      39.335  22.268  26.245  1.00  0.00     0.188 C 
BRANCH  64  65
ATOM     65  O   UNL A   1      38.014  22.257  25.706  1.00  0.00    -0.376 OA
BRANCH  65  66
ATOM     66  C   UNL A   1      37.428  23.507  25.370  1.00  0.00     0.202 C 
BRANCH  66  67
ATOM     67  C   UNL A   1      36.029  23.807  25.914  1.00  0.00     0.261 C 
BRANCH  67  68
ATOM     68  O   UNL A   1      35.193  22.659  26.071  1.00  0.00    -0.463 OA
BRANCH  68  69
ATOM     69  C   UNL A   1      34.658  22.167  24.923  1.00  0.00     0.315 C 
ATOM     70  O   UNL A   1      34.834  21.032  24.491  1.00  0.00    -0.252 OA
BRANCH  69  71
ATOM     71  C   UNL A   1      33.873  23.204  24.165  1.00  0.00     0.166 C 
ATOM     72  C   UNL A   1      33.817  22.974  22.659  1.00  0.00     0.278 C 
ATOM     73  C   UNL A   1      32.408  23.396  24.632  1.00  0.00     0.038 C 
ATOM     74  N   UNL A   1      32.645  23.712  22.218  1.00  0.00    -0.330 N 
ATOM     75  C   UNL A   1      31.667  23.614  23.300  1.00  0.00     0.270 C 
ATOM     76  C   UNL A   1      31.798  22.194  25.402  1.00  0.00     0.014 C 
ATOM     77  C   UNL A   1      32.305  24.641  25.543  1.00  0.00     0.014 C 
ATOM     78  H   UNL A   1      32.267  23.273  21.378  1.00  0.00     0.348 HD
ATOM     79  C   UNL A   1      30.387  22.460  25.936  1.00  0.00     0.001 C 
ATOM     80  C   UNL A   1      30.889  24.921  26.045  1.00  0.00     0.001 C 
ATOM     81  C   UNL A   1      30.334  23.720  26.793  1.00  0.00     0.000 C 
BRANCH  74  82
ATOM     82  C   UNL A   1      32.829  25.002  21.545  1.00  0.00     0.299 C 
BRANCH  82  83
ATOM     83  C   UNL A   1      32.520  26.243  22.340  1.00  0.00     0.008 A 
ATOM     84  C   UNL A   1      33.517  26.833  23.121  1.00  0.00     0.011 A 
ATOM     85  C   UNL A   1      31.224  26.786  22.361  1.00  0.00     0.031 A 
ATOM     86  C   UNL A   1      33.199  27.847  24.022  1.00  0.00     0.022 A 
ATOM     87  C   UNL A   1      30.904  27.813  23.254  1.00  0.00     0.060 A 
ATOM     88  C   UNL A   1      31.887  28.316  24.114  1.00  0.00     0.059 A 
ATOM     89  Cl  UNL A   1      29.265  28.357  23.307  1.00  0.00    -0.083 Cl
ATOM     90  Cl  UNL A   1      31.538  29.480  25.341  1.00  0.00    -0.083 Cl
ENDBRANCH  82  83
ENDBRANCH  74  82
ENDBRANCH  69  71
ENDBRANCH  68  69
ENDBRANCH  67  68
ENDBRANCH  66  67
ENDBRANCH  65  66
ENDBRANCH  64  65
ENDBRANCH   1  64
TORSDOF 19
ENDMDL
MODEL 2
REMARK VINA RESULT:     -10.7      0.637      5.954
REMARK SMILES O=C(OCCOCCOCCOC(=O)[C@H]1C[N@H+](Cc2ccc(Cl)c(Cl)c2)CC12CCCCC2)c1ccc(-c2c3nc(c(-c4c(F)cccc4F)c4ccc([nH]4)c(-c4c(F)cccc4F)c4nc(c(-c5c(F)cccc5F)c5ccc2[nH]5)C=C4)C=C3)cc1
REMARK SMILES IDX 7 1 6 2 5 3 4 4 3 5 2 6 1 7 34 8 35 9 87 10 36 11 86 12
REMARK SMILES IDX 37 13 38 14 39 15 80 16 40 17 85 18 79 19 81 20 41 21 84 22
REMARK SMILES IDX 78 23 77 24 42 26 68 27 51 28 67 29 52 30 55 31 66 32 82 33
REMARK SMILES IDX 53 34 54 35 65 37 83 38 56 39 43 40 44 41 49 42 45 43 46 44
REMARK SMILES IDX 48 45 50 46 47 47 69 48 70 49 75 50 71 51 72 52 74 53 76 54
REMARK SMILES IDX 73 55 57 56 58 57 63 58 59 59 60 60 62 61 64 62 61 63 8 64
REMARK SMILES IDX 9 65 10 66 11 67 12 68 13 69 14 70 15 71 16 72 28 73 17 74
REMARK SMILES IDX 27 75 29 76 33 77 30 79 32 80 31 81 18 82 19 83 20 84 26 85
REMARK SMILES IDX 21 86 24 87 22 88 25 89 23 90
REMARK H PARENT 81 25 55 36 17 78
REMARK Flexibility Score: inf
ROOT
ATOM      1  C   UNL A   1      40.892  20.956  27.447  1.00  0.00     0.188 C 
ENDROOT
BRANCH   1   2
ATOM      2  O   UNL A   1      42.317  21.036  27.288  1.00  0.00    -0.376 OA
BRANCH   2   3
ATOM      3  C   UNL A   1      42.753  20.897  25.931  1.00  0.00     0.202 C 
BRANCH   3   4
ATOM      4  C   UNL A   1      43.781  21.930  25.441  1.00  0.00     0.261 C 
BRANCH   4   5
ATOM      5  O   UNL A   1      43.207  23.198  25.095  1.00  0.00    -0.460 OA
BRANCH   5   6
ATOM      6  C   UNL A   1      43.674  24.445  25.346  1.00  0.00     0.338 C 
ATOM      7  O   UNL A   1      44.592  24.872  24.646  1.00  0.00    -0.246 OA
BRANCH   6   8
ATOM      8  C   UNL A   1      43.135  25.351  26.408  1.00  0.00     0.060 A 
ATOM      9  C   UNL A   1      43.407  26.715  26.532  1.00  0.00     0.016 A 
ATOM     10  C   UNL A   1      42.217  24.782  27.312  1.00  0.00     0.016 A 
ATOM     11  C   UNL A   1      42.861  27.471  27.570  1.00  0.00     0.010 A 
ATOM     12  C   UNL A   1      41.643  25.539  28.339  1.00  0.00     0.010 A 
ATOM     13  C   UNL A   1      41.993  26.881  28.491  1.00  0.00    -0.014 A 
BRANCH  13  14
ATOM     14  C   UNL A   1      41.528  27.685  29.642  1.00  0.00     0.031 A 
ATOM     15  C   UNL A   1      40.264  28.447  29.524  1.00  0.00     0.074 A 
ATOM     16  C   UNL A   1      42.217  27.701  30.793  1.00  0.00     0.049 A 
ATOM     17  N   UNL A   1      39.712  29.226  30.409  1.00  0.00    -0.248 NA
ATOM     18  C   UNL A   1      39.558  28.367  28.238  1.00  0.00     0.031 C 
ATOM     19  C   UNL A   1      43.509  27.073  30.926  1.00  0.00     0.029 A 
ATOM     20  N   UNL A   1      41.983  28.227  32.036  1.00  0.00    -0.354 N 
ATOM     21  C   UNL A   1      38.634  29.797  29.764  1.00  0.00     0.074 A 
ATOM     22  C   UNL A   1      38.581  29.241  28.429  1.00  0.00     0.031 C 
ATOM     23  C   UNL A   1      43.933  27.171  32.192  1.00  0.00     0.029 A 
ATOM     24  C   UNL A   1      42.954  27.903  32.960  1.00  0.00     0.049 A 
ATOM     25  H   UNL A   1      41.198  28.782  32.249  1.00  0.00     0.167 HD
ATOM     26  C   UNL A   1      37.810  30.748  30.253  1.00  0.00     0.037 A 
ATOM     27  C   UNL A   1      43.070  28.180  34.271  1.00  0.00     0.037 A 
ATOM     28  C   UNL A   1      37.927  31.293  31.581  1.00  0.00     0.049 A 
ATOM     29  C   UNL A   1      42.072  29.145  34.820  1.00  0.00     0.074 A 
ATOM     30  C   UNL A   1      37.153  32.266  32.182  1.00  0.00     0.029 A 
ATOM     31  N   UNL A   1      38.894  30.917  32.508  1.00  0.00    -0.354 N 
ATOM     32  N   UNL A   1      41.052  29.687  34.201  1.00  0.00    -0.248 NA
ATOM     33  C   UNL A   1      42.281  29.616  36.191  1.00  0.00     0.031 C 
ATOM     34  C   UNL A   1      37.676  32.508  33.457  1.00  0.00     0.029 A 
ATOM     35  C   UNL A   1      38.744  31.650  33.674  1.00  0.00     0.049 A 
ATOM     36  H   UNL A   1      39.583  30.230  32.359  1.00  0.00     0.167 HD
ATOM     37  C   UNL A   1      40.538  30.620  35.075  1.00  0.00     0.074 A 
ATOM     38  C   UNL A   1      41.307  30.508  36.304  1.00  0.00     0.031 C 
ATOM     39  C   UNL A   1      39.552  31.523  34.863  1.00  0.00     0.037 A 
BRANCH  26  40
ATOM     40  C   UNL A   1      36.809  31.309  29.295  1.00  0.00     0.057 A 
ATOM     41  C   UNL A   1      36.923  32.599  28.762  1.00  0.00     0.134 A 
ATOM     42  C   UNL A   1      35.672  30.564  28.959  1.00  0.00     0.134 A 
ATOM     43  F   UNL A   1      37.966  33.379  29.085  1.00  0.00    -0.206 F 
ATOM     44  C   UNL A   1      35.928  33.137  27.944  1.00  0.00     0.040 A 
ATOM     45  C   UNL A   1      34.684  31.082  28.122  1.00  0.00     0.040 A 
ATOM     46  F   UNL A   1      35.492  29.332  29.458  1.00  0.00    -0.206 F 
ATOM     47  C   UNL A   1      34.807  32.374  27.619  1.00  0.00     0.006 A 
ENDBRANCH  26  40
BRANCH  27  48
ATOM     48  C   UNL A   1      44.184  27.644  35.106  1.00  0.00     0.057 A 
ATOM     49  C   UNL A   1      45.362  28.378  35.303  1.00  0.00     0.134 A 
ATOM     50  C   UNL A   1      44.114  26.386  35.720  1.00  0.00     0.134 A 
ATOM     51  F   UNL A   1      45.513  29.579  34.727  1.00  0.00    -0.206 F 
ATOM     52  C   UNL A   1      46.422  27.883  36.071  1.00  0.00     0.040 A 
ATOM     53  C   UNL A   1      45.153  25.890  36.510  1.00  0.00     0.040 A 
ATOM     54  F   UNL A   1      43.017  25.626  35.584  1.00  0.00    -0.206 F 
ATOM     55  C   UNL A   1      46.314  26.637  36.685  1.00  0.00     0.006 A 
ENDBRANCH  27  48
BRANCH  39  56
ATOM     56  C   UNL A   1      39.285  32.459  35.994  1.00  0.00     0.057 A 
ATOM     57  C   UNL A   1      39.927  33.700  36.083  1.00  0.00     0.134 A 
ATOM     58  C   UNL A   1      38.379  32.111  37.000  1.00  0.00     0.134 A 
ATOM     59  F   UNL A   1      40.829  34.069  35.160  1.00  0.00    -0.206 F 
ATOM     60  C   UNL A   1      39.685  34.562  37.150  1.00  0.00     0.040 A 
ATOM     61  C   UNL A   1      38.111  32.975  38.058  1.00  0.00     0.040 A 
ATOM     62  F   UNL A   1      37.744  30.929  36.965  1.00  0.00    -0.206 F 
ATOM     63  C   UNL A   1      38.768  34.202  38.138  1.00  0.00     0.006 A 
ENDBRANCH  39  56
ENDBRANCH  13  14
ENDBRANCH   6   8
ENDBRANCH   5   6
ENDBRANCH   4   5
ENDBRANCH   3   4
ENDBRANCH   2   3
ENDBRANCH   1   2
BRANCH   1  64
ATOM     64  C   UNL A   1      40.134  21.847  26.461  1.00  0.00     0.188 C 
BRANCH  64  65
ATOM     65  O   UNL A   1      38.943  21.311  25.886  1.00  0.00    -0.376 OA
BRANCH  65  66
ATOM     66  C   UNL A   1      37.840  22.190  25.714  1.00  0.00     0.202 C 
BRANCH  66  67
ATOM     67  C   UNL A   1      36.435  21.587  25.763  1.00  0.00     0.261 C 
BRANCH  67  68
ATOM     68  O   UNL A   1      35.381  22.510  25.480  1.00  0.00    -0.463 OA
BRANCH  68  69
ATOM     69  C   UNL A   1      34.457  22.080  24.581  1.00  0.00     0.315 C 
ATOM     70  O   UNL A   1      34.258  20.908  24.277  1.00  0.00    -0.252 OA
BRANCH  69  71
ATOM     71  C   UNL A   1      33.736  23.219  23.911  1.00  0.00     0.166 C 
ATOM     72  C   UNL A   1      33.513  23.029  22.414  1.00  0.00     0.278 C 
ATOM     73  C   UNL A   1      32.354  23.574  24.515  1.00  0.00     0.038 C 
ATOM     74  N   UNL A   1      32.403  23.910  22.093  1.00  0.00    -0.330 N 
ATOM     75  C   UNL A   1      31.525  23.907  23.262  1.00  0.00     0.270 C 
ATOM     76  C   UNL A   1      31.678  22.438  25.328  1.00  0.00     0.014 C 
ATOM     77  C   UNL A   1      32.487  24.804  25.444  1.00  0.00     0.014 C 
ATOM     78  H   UNL A   1      31.899  23.537  21.289  1.00  0.00     0.348 HD
ATOM     79  C   UNL A   1      30.365  22.859  25.996  1.00  0.00     0.001 C 
ATOM     80  C   UNL A   1      31.168  25.240  26.080  1.00  0.00     0.001 C 
ATOM     81  C   UNL A   1      30.544  24.098  26.866  1.00  0.00     0.000 C 
BRANCH  74  82
ATOM     82  C   UNL A   1      32.677  25.182  21.418  1.00  0.00     0.299 C 
BRANCH  82  83
ATOM     83  C   UNL A   1      32.537  26.439  22.235  1.00  0.00     0.008 A 
ATOM     84  C   UNL A   1      33.646  26.952  22.915  1.00  0.00     0.011 A 
ATOM     85  C   UNL A   1      31.293  27.074  22.380  1.00  0.00     0.031 A 
ATOM     86  C   UNL A   1      33.490  27.983  23.839  1.00  0.00     0.022 A 
ATOM     87  C   UNL A   1      31.135  28.118  23.298  1.00  0.00     0.060 A 
ATOM     88  C   UNL A   1      32.231  28.545  24.056  1.00  0.00     0.059 A 
ATOM     89  Cl  UNL A   1      29.553  28.778  23.508  1.00  0.00    -0.083 Cl
ATOM     90  Cl  UNL A   1      32.088  29.726  25.308  1.00  0.00    -0.083 Cl
ENDBRANCH  82  83
ENDBRANCH  74  82
ENDBRANCH  69  71
ENDBRANCH  68  69
ENDBRANCH  67  68
ENDBRANCH  66  67
ENDBRANCH  65  66
ENDBRANCH  64  65
ENDBRANCH   1  64
TORSDOF 19
ENDMDL
MODEL 3
REMARK VINA RESULT:     -10.7      0.986      2.205
REMARK SMILES O=C(OCCOCCOCCOC(=O)[C@H]1C[N@H+](Cc2ccc(Cl)c(Cl)c2)CC12CCCCC2)c1ccc(-c2c3nc(c(-c4c(F)cccc4F)c4ccc([nH]4)c(-c4c(F)cccc4F)c4nc(c(-c5c(F)cccc5F)c5ccc2[nH]5)C=C4)C=C3)cc1
REMARK SMILES IDX 7 1 6 2 5 3 4 4 3 5 2 6 1 7 34 8 35 9 87 10 36 11 86 12
REMARK SMILES IDX 37 13 38 14 39 15 80 16 40 17 85 18 79 19 81 20 41 21 84 22
REMARK SMILES IDX 78 23 77 24 42 26 68 27 51 28 67 29 52 30 55 31 66 32 82 33
REMARK SMILES IDX 53 34 54 35 65 37 83 38 56 39 43 40 44 41 49 42 45 43 46 44
REMARK SMILES IDX 48 45 50 46 47 47 69 48 70 49 75 50 71 51 72 52 74 53 76 54
REMARK SMILES IDX 73 55 57 56 58 57 63 58 59 59 60 60 62 61 64 62 61 63 8 64
REMARK SMILES IDX 9 65 10 66 11 67 12 68 13 69 14 70 15 71 16 72 28 73 17 74
REMARK SMILES IDX 27 75 29 76 33 77 30 79 32 80 31 81 18 82 19 83 20 84 26 85
REMARK SMILES IDX 21 86 24 87 22 88 25 89 23 90
REMARK H PARENT 81 25 55 36 17 78
REMARK Flexibility Score: inf
ROOT
ATOM      1  C   UNL A   1      42.300  18.758  26.667  1.00  0.00     0.188 C 
ENDROOT
BRANCH   1   2
ATOM      2  O   UNL A   1      43.581  19.093  26.112  1.00  0.00    -0.376 OA
BRANCH   2   3
ATOM      3  C   UNL A   1      43.520  20.089  25.083  1.00  0.00     0.202 C 
BRANCH   3   4
ATOM      4  C   UNL A   1      44.218  21.424  25.391  1.00  0.00     0.261 C 
BRANCH   4   5
ATOM      5  O   UNL A   1      43.326  22.546  25.441  1.00  0.00    -0.460 OA
BRANCH   5   6
ATOM      6  C   UNL A   1      43.613  23.869  25.400  1.00  0.00     0.338 C 
ATOM      7  O   UNL A   1      44.277  24.290  24.453  1.00  0.00    -0.246 OA
BRANCH   6   8
ATOM      8  C   UNL A   1      43.160  24.864  26.422  1.00  0.00     0.060 A 
ATOM      9  C   UNL A   1      43.509  26.215  26.456  1.00  0.00     0.016 A 
ATOM     10  C   UNL A   1      42.245  24.400  27.387  1.00  0.00     0.016 A 
ATOM     11  C   UNL A   1      43.040  27.059  27.464  1.00  0.00     0.010 A 
ATOM     12  C   UNL A   1      41.748  25.245  28.385  1.00  0.00     0.010 A 
ATOM     13  C   UNL A   1      42.174  26.573  28.445  1.00  0.00    -0.014 A 
BRANCH  13  14
ATOM     14  C   UNL A   1      41.793  27.467  29.560  1.00  0.00     0.031 A 
ATOM     15  C   UNL A   1      42.655  27.524  30.762  1.00  0.00     0.074 A 
ATOM     16  C   UNL A   1      40.702  28.244  29.478  1.00  0.00     0.049 A 
ATOM     17  N   UNL A   1      42.473  28.222  31.846  1.00  0.00    -0.248 NA
ATOM     18  C   UNL A   1      43.841  26.656  30.772  1.00  0.00     0.031 C 
ATOM     19  C   UNL A   1      39.767  28.143  28.384  1.00  0.00     0.029 A 
ATOM     20  N   UNL A   1      40.178  29.236  30.263  1.00  0.00    -0.354 N 
ATOM     21  C   UNL A   1      43.474  27.820  32.707  1.00  0.00     0.074 A 
ATOM     22  C   UNL A   1      44.290  26.852  32.003  1.00  0.00     0.031 C 
ATOM     23  C   UNL A   1      38.821  29.082  28.509  1.00  0.00     0.029 A 
ATOM     24  C   UNL A   1      39.062  29.835  29.717  1.00  0.00     0.049 A 
ATOM     25  H   UNL A   1      40.560  29.495  31.132  1.00  0.00     0.167 HD
ATOM     26  C   UNL A   1      43.639  28.200  33.991  1.00  0.00     0.037 A 
ATOM     27  C   UNL A   1      38.295  30.855  30.142  1.00  0.00     0.037 A 
ATOM     28  C   UNL A   1      42.777  29.144  34.655  1.00  0.00     0.049 A 
ATOM     29  C   UNL A   1      38.575  31.342  31.525  1.00  0.00     0.074 A 
ATOM     30  C   UNL A   1      42.843  29.600  35.957  1.00  0.00     0.029 A 
ATOM     31  N   UNL A   1      41.680  29.765  34.066  1.00  0.00    -0.354 N 
ATOM     32  N   UNL A   1      39.526  30.953  32.339  1.00  0.00    -0.248 NA
ATOM     33  C   UNL A   1      37.641  32.317  32.092  1.00  0.00     0.031 C 
ATOM     34  C   UNL A   1      41.763  30.464  36.168  1.00  0.00     0.029 A 
ATOM     35  C   UNL A   1      41.052  30.591  34.984  1.00  0.00     0.049 A 
ATOM     36  H   UNL A   1      41.393  29.637  33.133  1.00  0.00     0.167 HD
ATOM     37  C   UNL A   1      39.266  31.576  33.541  1.00  0.00     0.074 A 
ATOM     38  C   UNL A   1      38.116  32.438  33.323  1.00  0.00     0.031 C 
ATOM     39  C   UNL A   1      39.891  31.410  34.730  1.00  0.00     0.037 A 
BRANCH  26  40
ATOM     40  C   UNL A   1      44.717  27.501  34.753  1.00  0.00     0.057 A 
ATOM     41  C   UNL A   1      44.494  26.300  35.437  1.00  0.00     0.134 A 
ATOM     42  C   UNL A   1      45.986  28.084  34.860  1.00  0.00     0.134 A 
ATOM     43  F   UNL A   1      43.285  25.718  35.413  1.00  0.00    -0.206 F 
ATOM     44  C   UNL A   1      45.490  25.714  36.220  1.00  0.00     0.040 A 
ATOM     45  C   UNL A   1      46.997  27.494  35.618  1.00  0.00     0.040 A 
ATOM     46  F   UNL A   1      46.256  29.247  34.249  1.00  0.00    -0.206 F 
ATOM     47  C   UNL A   1      46.747  26.310  36.308  1.00  0.00     0.006 A 
ENDBRANCH  26  40
BRANCH  27  48
ATOM     48  C   UNL A   1      37.168  31.400  29.331  1.00  0.00     0.057 A 
ATOM     49  C   UNL A   1      35.997  30.658  29.124  1.00  0.00     0.134 A 
ATOM     50  C   UNL A   1      37.229  32.665  28.732  1.00  0.00     0.134 A 
ATOM     51  F   UNL A   1      35.877  29.428  29.644  1.00  0.00    -0.206 F 
ATOM     52  C   UNL A   1      34.937  31.149  28.353  1.00  0.00     0.040 A 
ATOM     53  C   UNL A   1      36.168  33.178  27.981  1.00  0.00     0.040 A 
ATOM     54  F   UNL A   1      38.313  33.438  28.888  1.00  0.00    -0.206 F 
ATOM     55  C   UNL A   1      35.019  32.419  27.786  1.00  0.00     0.006 A 
ENDBRANCH  27  48
BRANCH  39  56
ATOM     56  C   UNL A   1      39.311  32.175  35.871  1.00  0.00     0.057 A 
ATOM     57  C   UNL A   1      38.334  31.617  36.705  1.00  0.00     0.134 A 
ATOM     58  C   UNL A   1      39.734  33.481  36.135  1.00  0.00     0.134 A 
ATOM     59  F   UNL A   1      37.871  30.378  36.477  1.00  0.00    -0.206 F 
ATOM     60  C   UNL A   1      37.785  32.342  37.759  1.00  0.00     0.040 A 
ATOM     61  C   UNL A   1      39.211  34.207  37.201  1.00  0.00     0.040 A 
ATOM     62  F   UNL A   1      40.662  34.065  35.361  1.00  0.00    -0.206 F 
ATOM     63  C   UNL A   1      38.230  33.639  38.014  1.00  0.00     0.006 A 
ENDBRANCH  39  56
ENDBRANCH  13  14
ENDBRANCH   6   8
ENDBRANCH   5   6
ENDBRANCH   4   5
ENDBRANCH   3   4
ENDBRANCH   2   3
ENDBRANCH   1   2
BRANCH   1  64
ATOM     64  C   UNL A   1      41.404  19.981  26.871  1.00  0.00     0.188 C 
BRANCH  64  65
ATOM     65  O   UNL A   1      40.215  20.051  26.083  1.00  0.00    -0.376 OA
BRANCH  65  66
ATOM     66  C   UNL A   1      39.633  21.331  25.881  1.00  0.00     0.202 C 
BRANCH  66  67
ATOM     67  C   UNL A   1      38.120  21.397  25.659  1.00  0.00     0.261 C 
BRANCH  67  68
ATOM     68  O   UNL A   1      37.698  22.399  24.731  1.00  0.00    -0.463 OA
BRANCH  68  69
ATOM     69  C   UNL A   1      36.972  23.417  25.263  1.00  0.00     0.315 C 
ATOM     70  O   UNL A   1      37.319  24.110  26.216  1.00  0.00    -0.252 OA
BRANCH  69  71
ATOM     71  C   UNL A   1      35.625  23.565  24.608  1.00  0.00     0.166 C 
ATOM     72  C   UNL A   1      35.543  22.983  23.201  1.00  0.00     0.278 C 
ATOM     73  C   UNL A   1      34.436  22.963  25.398  1.00  0.00     0.038 C 
ATOM     74  N   UNL A   1      34.126  22.751  22.981  1.00  0.00    -0.330 N 
ATOM     75  C   UNL A   1      33.567  22.366  24.276  1.00  0.00     0.270 C 
ATOM     76  C   UNL A   1      34.817  21.870  26.432  1.00  0.00     0.014 C 
ATOM     77  C   UNL A   1      33.686  24.086  26.153  1.00  0.00     0.014 C 
ATOM     78  H   UNL A   1      34.009  21.984  22.320  1.00  0.00     0.348 HD
ATOM     79  C   UNL A   1      33.630  21.374  27.265  1.00  0.00     0.001 C 
ATOM     80  C   UNL A   1      32.483  23.590  26.955  1.00  0.00     0.001 C 
ATOM     81  C   UNL A   1      32.903  22.524  27.954  1.00  0.00     0.000 C 
BRANCH  74  82
ATOM     82  C   UNL A   1      33.374  23.685  22.137  1.00  0.00     0.299 C 
BRANCH  82  83
ATOM     83  C   UNL A   1      32.782  24.896  22.808  1.00  0.00     0.008 A 
ATOM     84  C   UNL A   1      31.442  24.883  23.205  1.00  0.00     0.011 A 
ATOM     85  C   UNL A   1      33.537  26.066  22.988  1.00  0.00     0.031 A 
ATOM     86  C   UNL A   1      30.822  26.056  23.630  1.00  0.00     0.022 A 
ATOM     87  C   UNL A   1      32.922  27.243  23.428  1.00  0.00     0.060 A 
ATOM     88  C   UNL A   1      31.551  27.244  23.711  1.00  0.00     0.059 A 
ATOM     89  Cl  UNL A   1      33.885  28.674  23.519  1.00  0.00    -0.083 Cl
ATOM     90  Cl  UNL A   1      30.691  28.684  24.120  1.00  0.00    -0.083 Cl
ENDBRANCH  82  83
ENDBRANCH  74  82
ENDBRANCH  69  71
ENDBRANCH  68  69
ENDBRANCH  67  68
ENDBRANCH  66  67
ENDBRANCH  65  66
ENDBRANCH  64  65
ENDBRANCH   1  64
TORSDOF 19
ENDMDL
