MODEL 1
REMARK VINA RESULT:     -10.2      0.000      0.000
REMARK SMILES COC(=O)c1ccccc1-c1ccc(/C=C(\C#N)C(=O)OCCOCCOCCOC(=O)c2ccc(-c3c4nc(c(-c5c(F)cccc5F)c5ccc([nH]5)c(-c5c(F)cccc5F)c5nc(c(-c6c(F)cccc6F)c6ccc3[nH]6)C=C5)C=C4)cc2)o1
REMARK SMILES IDX 25 1 24 2 23 3 22 4 21 5 19 6 20 7 16 8 15 9 14 10 11 11
REMARK SMILES IDX 12 12 87 13 13 14 10 15 5 16 6 17 7 18 9 19 8 20 3 21 4 22
REMARK SMILES IDX 2 23 1 24 17 25 18 26 26 27 27 28 28 29 29 30 30 31 31 32
REMARK SMILES IDX 32 33 33 34 34 35 86 36 35 37 85 38 36 39 37 40 38 41 79 42
REMARK SMILES IDX 39 43 84 44 78 45 80 46 40 47 83 48 77 49 76 50 41 52 67 53
REMARK SMILES IDX 50 54 66 55 51 56 54 57 65 58 81 59 52 60 53 61 64 63 82 64
REMARK SMILES IDX 55 65 42 66 43 67 48 68 44 69 45 70 47 71 49 72 46 73 68 74
REMARK SMILES IDX 69 75 74 76 70 77 71 78 73 79 75 80 72 81 56 82 57 83 62 84
REMARK SMILES IDX 58 85 59 86 61 87 63 88 60 89
REMARK H PARENT 80 51 54 62
REMARK Flexibility Score: inf
ROOT
ATOM      1  C   UNL A   1      35.479  21.069  25.497  1.00  0.00     0.188 C 
ENDROOT
BRANCH   1   2
ATOM      2  O   UNL A   1      34.997  20.113  24.566  1.00  0.00    -0.376 OA
BRANCH   2   3
ATOM      3  C   UNL A   1      33.756  19.449  24.760  1.00  0.00     0.202 C 
BRANCH   3   4
ATOM      4  C   UNL A   1      32.431  20.184  24.532  1.00  0.00     0.261 C 
BRANCH   4   5
ATOM      5  O   UNL A   1      32.524  21.602  24.725  1.00  0.00    -0.459 OA
BRANCH   5   6
ATOM      6  C   UNL A   1      31.479  22.155  25.379  1.00  0.00     0.349 C 
ATOM      7  O   UNL A   1      30.686  21.564  26.097  1.00  0.00    -0.245 OA
BRANCH   6   8
ATOM      8  C   UNL A   1      31.499  23.633  25.230  1.00  0.00     0.141 C 
ATOM      9  C   UNL A   1      30.559  24.118  24.386  1.00  0.00     0.074 C 
BRANCH   9  10
ATOM     10  C   UNL A   1      30.701  25.313  23.614  1.00  0.00     0.129 A 
ATOM     11  C   UNL A   1      30.544  27.462  23.027  1.00  0.00     0.135 A 
ATOM     12  C   UNL A   1      31.400  26.881  22.122  1.00  0.00     0.051 A 
ATOM     13  O   UNL A   1      30.126  26.528  23.922  1.00  0.00    -0.457 OA
ATOM     14  C   UNL A   1      31.500  25.518  22.493  1.00  0.00     0.051 A 
BRANCH  11  15
ATOM     15  C   UNL A   1      30.006  28.806  23.194  1.00  0.00     0.032 A 
ATOM     16  C   UNL A   1      30.546  29.727  24.112  1.00  0.00     0.071 A 
ATOM     17  C   UNL A   1      29.928  30.970  24.328  1.00  0.00     0.016 A 
ATOM     18  C   UNL A   1      28.783  31.318  23.614  1.00  0.00     0.001 A 
ATOM     19  C   UNL A   1      28.862  29.184  22.471  1.00  0.00     0.013 A 
ATOM     20  C   UNL A   1      28.254  30.428  22.682  1.00  0.00     0.001 A 
BRANCH  16  21
ATOM     21  C   UNL A   1      31.756  29.441  24.908  1.00  0.00     0.338 C 
ATOM     22  O   UNL A   1      32.894  29.605  24.485  1.00  0.00    -0.246 OA
BRANCH  21  23
ATOM     23  O   UNL A   1      31.410  28.931  26.111  1.00  0.00    -0.465 OA
ATOM     24  C   UNL A   1      32.372  29.155  27.140  1.00  0.00     0.282 C 
ENDBRANCH  21  23
ENDBRANCH  16  21
ENDBRANCH  11  15
ENDBRANCH   9  10
BRANCH   8  25
ATOM     25  C   UNL A   1      32.843  24.323  25.387  1.00  0.00     0.107 C 
ATOM     26  N   UNL A   1      33.960  24.897  25.516  1.00  0.00    -0.192 NA
ENDBRANCH   8  25
ENDBRANCH   6   8
ENDBRANCH   5   6
ENDBRANCH   4   5
ENDBRANCH   3   4
ENDBRANCH   2   3
ENDBRANCH   1   2
BRANCH   1  27
ATOM     27  C   UNL A   1      36.937  21.579  25.437  1.00  0.00     0.188 C 
BRANCH  27  28
ATOM     28  O   UNL A   1      37.815  20.882  24.603  1.00  0.00    -0.376 OA
BRANCH  28  29
ATOM     29  C   UNL A   1      38.342  19.647  25.044  1.00  0.00     0.202 C 
BRANCH  29  30
ATOM     30  C   UNL A   1      39.514  19.478  26.040  1.00  0.00     0.261 C 
BRANCH  30  31
ATOM     31  O   UNL A   1      40.836  19.218  25.537  1.00  0.00    -0.460 OA
BRANCH  31  32
ATOM     32  C   UNL A   1      41.869  19.498  26.376  1.00  0.00     0.338 C 
ATOM     33  O   UNL A   1      42.807  18.772  26.650  1.00  0.00    -0.246 OA
BRANCH  32  34
ATOM     34  C   UNL A   1      41.826  20.934  26.747  1.00  0.00     0.060 A 
ATOM     35  C   UNL A   1      41.421  21.878  25.787  1.00  0.00     0.016 A 
ATOM     36  C   UNL A   1      42.214  21.352  28.019  1.00  0.00     0.016 A 
ATOM     37  C   UNL A   1      41.440  23.243  26.087  1.00  0.00     0.010 A 
ATOM     38  C   UNL A   1      42.258  22.722  28.308  1.00  0.00     0.010 A 
ATOM     39  C   UNL A   1      41.908  23.676  27.334  1.00  0.00    -0.014 A 
BRANCH  39  40
ATOM     40  C   UNL A   1      42.233  25.112  27.549  1.00  0.00     0.031 A 
ATOM     41  C   UNL A   1      43.570  25.620  27.073  1.00  0.00     0.074 A 
ATOM     42  C   UNL A   1      41.371  25.957  28.140  1.00  0.00     0.049 A 
ATOM     43  N   UNL A   1      44.105  26.808  27.203  1.00  0.00    -0.248 NA
ATOM     44  C   UNL A   1      44.418  24.653  26.359  1.00  0.00     0.031 C 
ATOM     45  C   UNL A   1      40.033  25.610  28.613  1.00  0.00     0.029 A 
ATOM     46  N   UNL A   1      41.506  27.288  28.458  1.00  0.00    -0.354 N 
ATOM     47  C   UNL A   1      45.354  26.727  26.598  1.00  0.00     0.074 A 
ATOM     48  C   UNL A   1      45.509  25.367  26.130  1.00  0.00     0.031 C 
ATOM     49  C   UNL A   1      39.475  26.698  29.177  1.00  0.00     0.029 A 
ATOM     50  C   UNL A   1      40.428  27.806  29.134  1.00  0.00     0.049 A 
ATOM     51  H   UNL A   1      42.301  27.819  28.222  1.00  0.00     0.167 HD
ATOM     52  C   UNL A   1      46.286  27.697  26.437  1.00  0.00     0.037 A 
ATOM     53  C   UNL A   1      40.245  29.027  29.677  1.00  0.00     0.037 A 
ATOM     54  C   UNL A   1      46.138  29.050  26.907  1.00  0.00     0.049 A 
ATOM     55  C   UNL A   1      41.328  30.070  29.555  1.00  0.00     0.074 A 
ATOM     56  C   UNL A   1      47.019  30.109  26.776  1.00  0.00     0.029 A 
ATOM     57  N   UNL A   1      45.042  29.527  27.610  1.00  0.00    -0.354 N 
ATOM     58  N   UNL A   1      42.492  29.991  28.956  1.00  0.00    -0.248 NA
ATOM     59  C   UNL A   1      41.069  31.374  30.183  1.00  0.00     0.031 C 
ATOM     60  C   UNL A   1      46.485  31.210  27.451  1.00  0.00     0.029 A 
ATOM     61  C   UNL A   1      45.239  30.857  27.943  1.00  0.00     0.049 A 
ATOM     62  H   UNL A   1      44.244  28.999  27.838  1.00  0.00     0.167 HD
ATOM     63  C   UNL A   1      43.084  31.242  29.103  1.00  0.00     0.074 A 
ATOM     64  C   UNL A   1      42.146  32.064  29.837  1.00  0.00     0.031 C 
ATOM     65  C   UNL A   1      44.294  31.672  28.667  1.00  0.00     0.037 A 
BRANCH  52  66
ATOM     66  C   UNL A   1      47.566  27.318  25.749  1.00  0.00     0.057 A 
ATOM     67  C   UNL A   1      47.732  27.447  24.364  1.00  0.00     0.134 A 
ATOM     68  C   UNL A   1      48.659  26.846  26.487  1.00  0.00     0.134 A 
ATOM     69  F   UNL A   1      46.720  27.879  23.594  1.00  0.00    -0.206 F 
ATOM     70  C   UNL A   1      48.928  27.094  23.735  1.00  0.00     0.040 A 
ATOM     71  C   UNL A   1      49.870  26.519  25.874  1.00  0.00     0.040 A 
ATOM     72  F   UNL A   1      48.572  26.702  27.819  1.00  0.00    -0.206 F 
ATOM     73  C   UNL A   1      50.004  26.636  24.493  1.00  0.00     0.006 A 
ENDBRANCH  52  66
BRANCH  53  74
ATOM     74  C   UNL A   1      38.987  29.339  30.406  1.00  0.00     0.057 A 
ATOM     75  C   UNL A   1      38.835  29.023  31.762  1.00  0.00     0.134 A 
ATOM     76  C   UNL A   1      37.893  29.927  29.758  1.00  0.00     0.134 A 
ATOM     77  F   UNL A   1      39.837  28.434  32.434  1.00  0.00    -0.206 F 
ATOM     78  C   UNL A   1      37.637  29.257  32.441  1.00  0.00     0.040 A 
ATOM     79  C   UNL A   1      36.700  30.194  30.431  1.00  0.00     0.040 A 
ATOM     80  F   UNL A   1      37.970  30.252  28.460  1.00  0.00    -0.206 F 
ATOM     81  C   UNL A   1      36.567  29.851  31.775  1.00  0.00     0.006 A 
ENDBRANCH  53  74
BRANCH  65  82
ATOM     82  C   UNL A   1      44.657  33.109  28.923  1.00  0.00     0.057 A 
ATOM     83  C   UNL A   1      45.326  33.515  30.085  1.00  0.00     0.134 A 
ATOM     84  C   UNL A   1      44.361  34.097  27.974  1.00  0.00     0.134 A 
ATOM     85  F   UNL A   1      45.633  32.624  31.040  1.00  0.00    -0.206 F 
ATOM     86  C   UNL A   1      45.659  34.853  30.307  1.00  0.00     0.040 A 
ATOM     87  C   UNL A   1      44.717  35.432  28.170  1.00  0.00     0.040 A 
ATOM     88  F   UNL A   1      43.732  33.778  26.832  1.00  0.00    -0.206 F 
ATOM     89  C   UNL A   1      45.360  35.815  29.344  1.00  0.00     0.006 A 
ENDBRANCH  65  82
ENDBRANCH  39  40
ENDBRANCH  32  34
ENDBRANCH  31  32
ENDBRANCH  30  31
ENDBRANCH  29  30
ENDBRANCH  28  29
ENDBRANCH  27  28
ENDBRANCH   1  27
TORSDOF 22
ENDMDL
MODEL 2
REMARK VINA RESULT:      -9.7      1.026      2.230
REMARK SMILES COC(=O)c1ccccc1-c1ccc(/C=C(\C#N)C(=O)OCCOCCOCCOC(=O)c2ccc(-c3c4nc(c(-c5c(F)cccc5F)c5ccc([nH]5)c(-c5c(F)cccc5F)c5nc(c(-c6c(F)cccc6F)c6ccc3[nH]6)C=C5)C=C4)cc2)o1
REMARK SMILES IDX 25 1 24 2 23 3 22 4 21 5 19 6 20 7 16 8 15 9 14 10 11 11
REMARK SMILES IDX 12 12 87 13 13 14 10 15 5 16 6 17 7 18 9 19 8 20 3 21 4 22
REMARK SMILES IDX 2 23 1 24 17 25 18 26 26 27 27 28 28 29 29 30 30 31 31 32
REMARK SMILES IDX 32 33 33 34 34 35 86 36 35 37 85 38 36 39 37 40 38 41 79 42
REMARK SMILES IDX 39 43 84 44 78 45 80 46 40 47 83 48 77 49 76 50 41 52 67 53
REMARK SMILES IDX 50 54 66 55 51 56 54 57 65 58 81 59 52 60 53 61 64 63 82 64
REMARK SMILES IDX 55 65 42 66 43 67 48 68 44 69 45 70 47 71 49 72 46 73 68 74
REMARK SMILES IDX 69 75 74 76 70 77 71 78 73 79 75 80 72 81 56 82 57 83 62 84
REMARK SMILES IDX 58 85 59 86 61 87 63 88 60 89
REMARK H PARENT 80 51 54 62
REMARK Flexibility Score: inf
ROOT
ATOM      1  C   UNL A   1      35.542  20.416  25.368  1.00  0.00     0.188 C 
ENDROOT
BRANCH   1   2
ATOM      2  O   UNL A   1      35.081  19.246  24.712  1.00  0.00    -0.376 OA
BRANCH   2   3
ATOM      3  C   UNL A   1      33.701  18.906  24.684  1.00  0.00     0.202 C 
BRANCH   3   4
ATOM      4  C   UNL A   1      32.650  19.937  24.259  1.00  0.00     0.261 C 
BRANCH   4   5
ATOM      5  O   UNL A   1      33.182  20.996  23.453  1.00  0.00    -0.459 OA
BRANCH   5   6
ATOM      6  C   UNL A   1      32.255  21.748  22.819  1.00  0.00     0.349 C 
ATOM      7  O   UNL A   1      31.472  21.355  21.966  1.00  0.00    -0.245 OA
BRANCH   6   8
ATOM      8  C   UNL A   1      32.204  23.111  23.406  1.00  0.00     0.141 C 
ATOM      9  C   UNL A   1      31.763  24.066  22.553  1.00  0.00     0.074 C 
BRANCH   9  10
ATOM     10  C   UNL A   1      32.153  25.440  22.603  1.00  0.00     0.129 A 
ATOM     11  C   UNL A   1      32.368  27.534  23.348  1.00  0.00     0.135 A 
ATOM     12  C   UNL A   1      33.218  27.423  22.273  1.00  0.00     0.051 A 
ATOM     13  O   UNL A   1      31.731  26.350  23.549  1.00  0.00    -0.457 OA
ATOM     14  C   UNL A   1      33.082  26.096  21.800  1.00  0.00     0.051 A 
BRANCH  11  15
ATOM     15  C   UNL A   1      32.016  28.621  24.253  1.00  0.00     0.032 A 
ATOM     16  C   UNL A   1      30.839  29.378  24.102  1.00  0.00     0.071 A 
ATOM     17  C   UNL A   1      30.593  30.492  24.922  1.00  0.00     0.016 A 
ATOM     18  C   UNL A   1      31.504  30.848  25.915  1.00  0.00     0.001 A 
ATOM     19  C   UNL A   1      32.912  28.985  25.273  1.00  0.00     0.013 A 
ATOM     20  C   UNL A   1      32.659  30.090  26.094  1.00  0.00     0.001 A 
BRANCH  16  21
ATOM     21  C   UNL A   1      29.821  29.071  23.077  1.00  0.00     0.338 C 
ATOM     22  O   UNL A   1      28.826  28.393  23.300  1.00  0.00    -0.246 OA
BRANCH  21  23
ATOM     23  O   UNL A   1      30.189  29.594  21.886  1.00  0.00    -0.465 OA
ATOM     24  C   UNL A   1      29.297  30.587  21.383  1.00  0.00     0.282 C 
ENDBRANCH  21  23
ENDBRANCH  16  21
ENDBRANCH  11  15
ENDBRANCH   9  10
BRANCH   8  25
ATOM     25  C   UNL A   1      33.222  23.435  24.486  1.00  0.00     0.107 C 
ATOM     26  N   UNL A   1      34.067  23.704  25.384  1.00  0.00    -0.192 NA
ENDBRANCH   8  25
ENDBRANCH   6   8
ENDBRANCH   5   6
ENDBRANCH   4   5
ENDBRANCH   3   4
ENDBRANCH   2   3
ENDBRANCH   1   2
BRANCH   1  27
ATOM     27  C   UNL A   1      36.934  21.011  25.057  1.00  0.00     0.188 C 
BRANCH  27  28
ATOM     28  O   UNL A   1      37.858  20.165  24.440  1.00  0.00    -0.376 OA
BRANCH  28  29
ATOM     29  C   UNL A   1      38.575  19.240  25.233  1.00  0.00     0.202 C 
BRANCH  29  30
ATOM     30  C   UNL A   1      39.844  19.562  26.058  1.00  0.00     0.261 C 
BRANCH  30  31
ATOM     31  O   UNL A   1      41.131  19.156  25.562  1.00  0.00    -0.460 OA
BRANCH  31  32
ATOM     32  C   UNL A   1      42.207  19.503  26.317  1.00  0.00     0.338 C 
ATOM     33  O   UNL A   1      43.202  18.832  26.527  1.00  0.00    -0.246 OA
BRANCH  32  34
ATOM     34  C   UNL A   1      42.115  20.940  26.674  1.00  0.00     0.060 A 
ATOM     35  C   UNL A   1      41.806  21.877  25.673  1.00  0.00     0.016 A 
ATOM     36  C   UNL A   1      42.364  21.366  27.978  1.00  0.00     0.016 A 
ATOM     37  C   UNL A   1      41.782  23.243  25.968  1.00  0.00     0.010 A 
ATOM     38  C   UNL A   1      42.368  22.737  28.264  1.00  0.00     0.010 A 
ATOM     39  C   UNL A   1      42.114  23.685  27.254  1.00  0.00    -0.014 A 
BRANCH  39  40
ATOM     40  C   UNL A   1      42.404  25.124  27.496  1.00  0.00     0.031 A 
ATOM     41  C   UNL A   1      43.750  25.661  27.081  1.00  0.00     0.074 A 
ATOM     42  C   UNL A   1      41.503  25.947  28.059  1.00  0.00     0.049 A 
ATOM     43  N   UNL A   1      44.257  26.856  27.243  1.00  0.00    -0.248 NA
ATOM     44  C   UNL A   1      44.643  24.716  26.393  1.00  0.00     0.031 C 
ATOM     45  C   UNL A   1      40.153  25.572  28.472  1.00  0.00     0.029 A 
ATOM     46  N   UNL A   1      41.600  27.277  28.393  1.00  0.00    -0.354 N 
ATOM     47  C   UNL A   1      45.531  26.803  26.690  1.00  0.00     0.074 A 
ATOM     48  C   UNL A   1      45.731  25.451  26.216  1.00  0.00     0.031 C 
ATOM     49  C   UNL A   1      39.552  26.644  29.022  1.00  0.00     0.029 A 
ATOM     50  C   UNL A   1      40.486  27.770  29.028  1.00  0.00     0.049 A 
ATOM     51  H   UNL A   1      42.394  27.825  28.195  1.00  0.00     0.167 HD
ATOM     52  C   UNL A   1      46.451  27.791  26.577  1.00  0.00     0.037 A 
ATOM     53  C   UNL A   1      40.258  28.982  29.575  1.00  0.00     0.037 A 
ATOM     54  C   UNL A   1      46.259  29.137  27.053  1.00  0.00     0.049 A 
ATOM     55  C   UNL A   1      41.326  30.045  29.507  1.00  0.00     0.074 A 
ATOM     56  C   UNL A   1      47.126  30.212  26.967  1.00  0.00     0.029 A 
ATOM     57  N   UNL A   1      45.127  29.588  27.713  1.00  0.00    -0.354 N 
ATOM     58  N   UNL A   1      42.516  29.993  28.956  1.00  0.00    -0.248 NA
ATOM     59  C   UNL A   1      41.018  31.338  30.136  1.00  0.00     0.031 C 
ATOM     60  C   UNL A   1      46.544  31.297  27.629  1.00  0.00     0.029 A 
ATOM     61  C   UNL A   1      45.285  30.918  28.067  1.00  0.00     0.049 A 
ATOM     62  H   UNL A   1      44.329  29.043  27.903  1.00  0.00     0.167 HD
ATOM     63  C   UNL A   1      43.077  31.253  29.139  1.00  0.00     0.074 A 
ATOM     64  C   UNL A   1      42.095  32.050  29.841  1.00  0.00     0.031 C 
ATOM     65  C   UNL A   1      44.297  31.708  28.758  1.00  0.00     0.037 A 
BRANCH  52  66
ATOM     66  C   UNL A   1      47.765  27.442  25.939  1.00  0.00     0.057 A 
ATOM     67  C   UNL A   1      48.864  27.003  26.689  1.00  0.00     0.134 A 
ATOM     68  C   UNL A   1      47.924  27.518  24.548  1.00  0.00     0.134 A 
ATOM     69  F   UNL A   1      48.785  26.922  28.027  1.00  0.00    -0.206 F 
ATOM     70  C   UNL A   1      50.080  26.679  26.084  1.00  0.00     0.040 A 
ATOM     71  C   UNL A   1      49.125  27.167  23.929  1.00  0.00     0.040 A 
ATOM     72  F   UNL A   1      46.911  27.926  23.768  1.00  0.00    -0.206 F 
ATOM     73  C   UNL A   1      50.209  26.753  24.698  1.00  0.00     0.006 A 
ENDBRANCH  52  66
BRANCH  53  74
ATOM     74  C   UNL A   1      38.966  29.265  30.254  1.00  0.00     0.057 A 
ATOM     75  C   UNL A   1      37.900  29.862  29.569  1.00  0.00     0.134 A 
ATOM     76  C   UNL A   1      38.777  28.981  31.613  1.00  0.00     0.134 A 
ATOM     77  F   UNL A   1      38.026  30.183  28.273  1.00  0.00    -0.206 F 
ATOM     78  C   UNL A   1      36.704  30.187  30.214  1.00  0.00     0.040 A 
ATOM     79  C   UNL A   1      37.577  29.273  32.262  1.00  0.00     0.040 A 
ATOM     80  F   UNL A   1      39.759  28.413  32.328  1.00  0.00    -0.206 F 
ATOM     81  C   UNL A   1      36.539  29.886  31.564  1.00  0.00     0.006 A 
ENDBRANCH  53  74
BRANCH  65  82
ATOM     82  C   UNL A   1      44.622  33.149  29.042  1.00  0.00     0.057 A 
ATOM     83  C   UNL A   1      44.299  34.178  28.147  1.00  0.00     0.134 A 
ATOM     84  C   UNL A   1      45.238  33.514  30.247  1.00  0.00     0.134 A 
ATOM     85  F   UNL A   1      43.716  33.901  26.971  1.00  0.00    -0.206 F 
ATOM     86  C   UNL A   1      44.605  35.512  28.427  1.00  0.00     0.040 A 
ATOM     87  C   UNL A   1      45.519  34.847  30.552  1.00  0.00     0.040 A 
ATOM     88  F   UNL A   1      45.564  32.583  31.155  1.00  0.00    -0.206 F 
ATOM     89  C   UNL A   1      45.211  35.850  29.636  1.00  0.00     0.006 A 
ENDBRANCH  65  82
ENDBRANCH  39  40
ENDBRANCH  32  34
ENDBRANCH  31  32
ENDBRANCH  30  31
ENDBRANCH  29  30
ENDBRANCH  28  29
ENDBRANCH  27  28
ENDBRANCH   1  27
TORSDOF 22
ENDMDL
MODEL 3
REMARK VINA RESULT:      -9.1      3.290      5.489
REMARK SMILES COC(=O)c1ccccc1-c1ccc(/C=C(\C#N)C(=O)OCCOCCOCCOC(=O)c2ccc(-c3c4nc(c(-c5c(F)cccc5F)c5ccc([nH]5)c(-c5c(F)cccc5F)c5nc(c(-c6c(F)cccc6F)c6ccc3[nH]6)C=C5)C=C4)cc2)o1
REMARK SMILES IDX 25 1 24 2 23 3 22 4 21 5 19 6 20 7 16 8 15 9 14 10 11 11
REMARK SMILES IDX 12 12 87 13 13 14 10 15 5 16 6 17 7 18 9 19 8 20 3 21 4 22
REMARK SMILES IDX 2 23 1 24 17 25 18 26 26 27 27 28 28 29 29 30 30 31 31 32
REMARK SMILES IDX 32 33 33 34 34 35 86 36 35 37 85 38 36 39 37 40 38 41 79 42
REMARK SMILES IDX 39 43 84 44 78 45 80 46 40 47 83 48 77 49 76 50 41 52 67 53
REMARK SMILES IDX 50 54 66 55 51 56 54 57 65 58 81 59 52 60 53 61 64 63 82 64
REMARK SMILES IDX 55 65 42 66 43 67 48 68 44 69 45 70 47 71 49 72 46 73 68 74
REMARK SMILES IDX 69 75 74 76 70 77 71 78 73 79 75 80 72 81 56 82 57 83 62 84
REMARK SMILES IDX 58 85 59 86 61 87 63 88 60 89
REMARK H PARENT 80 51 54 62
REMARK Flexibility Score: inf
ROOT
ATOM      1  C   UNL A   1      36.736  21.400  25.732  1.00  0.00     0.188 C 
ENDROOT
BRANCH   1   2
ATOM      2  O   UNL A   1      36.136  20.616  24.714  1.00  0.00    -0.376 OA
BRANCH   2   3
ATOM      3  C   UNL A   1      36.035  19.203  24.825  1.00  0.00     0.202 C 
BRANCH   3   4
ATOM      4  C   UNL A   1      34.700  18.493  24.577  1.00  0.00     0.261 C 
BRANCH   4   5
ATOM      5  O   UNL A   1      33.579  19.160  25.171  1.00  0.00    -0.459 OA
BRANCH   5   6
ATOM      6  C   UNL A   1      32.731  19.737  24.290  1.00  0.00     0.349 C 
ATOM      7  O   UNL A   1      32.129  19.165  23.392  1.00  0.00    -0.245 OA
BRANCH   6   8
ATOM      8  C   UNL A   1      32.503  21.160  24.647  1.00  0.00     0.141 C 
ATOM      9  C   UNL A   1      32.470  22.000  23.586  1.00  0.00     0.074 C 
BRANCH   9  10
ATOM     10  C   UNL A   1      32.860  23.375  23.629  1.00  0.00     0.129 A 
ATOM     11  C   UNL A   1      33.092  25.467  24.374  1.00  0.00     0.135 A 
ATOM     12  C   UNL A   1      33.911  25.361  23.275  1.00  0.00     0.051 A 
ATOM     13  O   UNL A   1      32.463  24.281  24.590  1.00  0.00    -0.457 OA
ATOM     14  C   UNL A   1      33.765  24.034  22.801  1.00  0.00     0.051 A 
BRANCH  11  15
ATOM     15  C   UNL A   1      32.764  26.551  25.291  1.00  0.00     0.032 A 
ATOM     16  C   UNL A   1      31.502  27.174  25.304  1.00  0.00     0.071 A 
ATOM     17  C   UNL A   1      31.262  28.292  26.120  1.00  0.00     0.016 A 
ATOM     18  C   UNL A   1      32.268  28.784  26.949  1.00  0.00     0.001 A 
ATOM     19  C   UNL A   1      33.759  27.052  26.149  1.00  0.00     0.013 A 
ATOM     20  C   UNL A   1      33.513  28.160  26.967  1.00  0.00     0.001 A 
BRANCH  16  21
ATOM     21  C   UNL A   1      30.380  26.717  24.459  1.00  0.00     0.338 C 
ATOM     22  O   UNL A   1      29.445  26.050  24.886  1.00  0.00    -0.246 OA
BRANCH  21  23
ATOM     23  O   UNL A   1      30.583  27.091  23.176  1.00  0.00    -0.465 OA
ATOM     24  C   UNL A   1      29.807  28.216  22.766  1.00  0.00     0.282 C 
ENDBRANCH  21  23
ENDBRANCH  16  21
ENDBRANCH  11  15
ENDBRANCH   9  10
BRANCH   8  25
ATOM     25  C   UNL A   1      33.021  21.624  25.998  1.00  0.00     0.107 C 
ATOM     26  N   UNL A   1      33.450  22.008  27.121  1.00  0.00    -0.192 NA
ENDBRANCH   8  25
ENDBRANCH   6   8
ENDBRANCH   5   6
ENDBRANCH   4   5
ENDBRANCH   3   4
ENDBRANCH   2   3
ENDBRANCH   1   2
BRANCH   1  27
ATOM     27  C   UNL A   1      37.065  22.892  25.504  1.00  0.00     0.188 C 
BRANCH  27  28
ATOM     28  O   UNL A   1      38.370  23.301  25.790  1.00  0.00    -0.376 OA
BRANCH  28  29
ATOM     29  C   UNL A   1      39.260  22.379  26.386  1.00  0.00     0.202 C 
BRANCH  29  30
ATOM     30  C   UNL A   1      40.785  22.315  26.134  1.00  0.00     0.261 C 
BRANCH  30  31
ATOM     31  O   UNL A   1      41.687  22.844  27.120  1.00  0.00    -0.460 OA
BRANCH  31  32
ATOM     32  C   UNL A   1      41.434  24.106  27.558  1.00  0.00     0.338 C 
ATOM     33  O   UNL A   1      40.475  24.476  28.212  1.00  0.00    -0.246 OA
BRANCH  32  34
ATOM     34  C   UNL A   1      42.627  24.957  27.324  1.00  0.00     0.060 A 
ATOM     35  C   UNL A   1      43.399  25.371  28.423  1.00  0.00     0.016 A 
ATOM     36  C   UNL A   1      42.964  25.372  26.037  1.00  0.00     0.016 A 
ATOM     37  C   UNL A   1      44.486  26.230  28.239  1.00  0.00     0.010 A 
ATOM     38  C   UNL A   1      44.036  26.256  25.858  1.00  0.00     0.010 A 
ATOM     39  C   UNL A   1      44.779  26.720  26.960  1.00  0.00    -0.014 A 
BRANCH  39  40
ATOM     40  C   UNL A   1      45.713  27.866  26.798  1.00  0.00     0.031 A 
ATOM     41  C   UNL A   1      47.184  27.574  26.646  1.00  0.00     0.074 A 
ATOM     42  C   UNL A   1      45.280  29.139  26.774  1.00  0.00     0.049 A 
ATOM     43  N   UNL A   1      48.193  28.401  26.555  1.00  0.00    -0.248 NA
ATOM     44  C   UNL A   1      47.563  26.154  26.594  1.00  0.00     0.031 C 
ATOM     45  C   UNL A   1      43.886  29.563  26.872  1.00  0.00     0.029 A 
ATOM     46  N   UNL A   1      45.984  30.316  26.675  1.00  0.00    -0.354 N 
ATOM     47  C   UNL A   1      49.327  27.603  26.447  1.00  0.00     0.074 A 
ATOM     48  C   UNL A   1      48.883  26.228  26.516  1.00  0.00     0.031 C 
ATOM     49  C   UNL A   1      43.837  30.908  26.845  1.00  0.00     0.029 A 
ATOM     50  C   UNL A   1      45.197  31.438  26.761  1.00  0.00     0.049 A 
ATOM     51  H   UNL A   1      46.960  30.350  26.553  1.00  0.00     0.167 HD
ATOM     52  C   UNL A   1      50.620  27.978  26.296  1.00  0.00     0.037 A 
ATOM     53  C   UNL A   1      45.539  32.743  26.794  1.00  0.00     0.037 A 
ATOM     54  C   UNL A   1      51.066  29.345  26.234  1.00  0.00     0.049 A 
ATOM     55  C   UNL A   1      46.993  33.137  26.704  1.00  0.00     0.074 A 
ATOM     56  C   UNL A   1      52.353  29.824  26.064  1.00  0.00     0.029 A 
ATOM     57  N   UNL A   1      50.240  30.453  26.350  1.00  0.00    -0.354 N 
ATOM     58  N   UNL A   1      48.053  32.375  26.573  1.00  0.00    -0.248 NA
ATOM     59  C   UNL A   1      47.297  34.574  26.762  1.00  0.00     0.031 C 
ATOM     60  C   UNL A   1      52.315  31.220  26.139  1.00  0.00     0.029 A 
ATOM     61  C   UNL A   1      50.995  31.613  26.286  1.00  0.00     0.049 A 
ATOM     62  H   UNL A   1      49.263  30.419  26.464  1.00  0.00     0.167 HD
ATOM     63  C   UNL A   1      49.139  33.241  26.496  1.00  0.00     0.074 A 
ATOM     64  C   UNL A   1      48.610  34.584  26.582  1.00  0.00     0.031 C 
ATOM     65  C   UNL A   1      50.457  32.949  26.363  1.00  0.00     0.037 A 
BRANCH  52  66
ATOM     66  C   UNL A   1      51.650  26.888  26.220  1.00  0.00     0.057 A 
ATOM     67  C   UNL A   1      51.963  26.243  25.016  1.00  0.00     0.134 A 
ATOM     68  C   UNL A   1      52.362  26.499  27.363  1.00  0.00     0.134 A 
ATOM     69  F   UNL A   1      51.308  26.555  23.887  1.00  0.00    -0.206 F 
ATOM     70  C   UNL A   1      52.925  25.232  24.957  1.00  0.00     0.040 A 
ATOM     71  C   UNL A   1      53.348  25.513  27.310  1.00  0.00     0.040 A 
ATOM     72  F   UNL A   1      52.117  27.079  28.548  1.00  0.00    -0.206 F 
ATOM     73  C   UNL A   1      53.627  24.871  26.106  1.00  0.00     0.006 A 
ENDBRANCH  52  66
BRANCH  53  74
ATOM     74  C   UNL A   1      44.491  33.787  26.936  1.00  0.00     0.057 A 
ATOM     75  C   UNL A   1      44.088  34.247  28.196  1.00  0.00     0.134 A 
ATOM     76  C   UNL A   1      43.839  34.325  25.818  1.00  0.00     0.134 A 
ATOM     77  F   UNL A   1      44.654  33.753  29.307  1.00  0.00    -0.206 F 
ATOM     78  C   UNL A   1      43.062  35.184  28.342  1.00  0.00     0.040 A 
ATOM     79  C   UNL A   1      42.833  35.283  25.947  1.00  0.00     0.040 A 
ATOM     80  F   UNL A   1      44.174  33.926  24.583  1.00  0.00    -0.206 F 
ATOM     81  C   UNL A   1      42.436  35.709  27.213  1.00  0.00     0.006 A 
ENDBRANCH  53  74
BRANCH  65  82
ATOM     82  C   UNL A   1      51.418  34.101  26.249  1.00  0.00     0.057 A 
ATOM     83  C   UNL A   1      51.934  34.756  27.374  1.00  0.00     0.134 A 
ATOM     84  C   UNL A   1      51.858  34.537  24.992  1.00  0.00     0.134 A 
ATOM     85  F   UNL A   1      51.550  34.397  28.608  1.00  0.00    -0.206 F 
ATOM     86  C   UNL A   1      52.829  35.822  27.251  1.00  0.00     0.040 A 
ATOM     87  C   UNL A   1      52.776  35.580  24.858  1.00  0.00     0.040 A 
ATOM     88  F   UNL A   1      51.415  33.947  23.872  1.00  0.00    -0.206 F 
ATOM     89  C   UNL A   1      53.257  36.232  25.990  1.00  0.00     0.006 A 
ENDBRANCH  65  82
ENDBRANCH  39  40
ENDBRANCH  32  34
ENDBRANCH  31  32
ENDBRANCH  30  31
ENDBRANCH  29  30
ENDBRANCH  28  29
ENDBRANCH  27  28
ENDBRANCH   1  27
TORSDOF 22
ENDMDL
