MODEL 1
REMARK VINA RESULT:     -10.5      0.000      0.000
REMARK SMILES Cc1cc(F)ccc1S(=O)(=O)N1CCO[C@H](CC(=O)OCCOCCOCCOC(=O)c2ccc(-c3c4nc(c(-c5c(F)cccc5F)c5ccc([nH]5)c(-c5c(F)cccc5F)c5nc(c(-c6c(F)cccc6F)c6ccc3[nH]6)C=C5)C=C4)cc2)C1
REMARK SMILES IDX 24 1 23 2 22 3 21 4 20 5 18 6 19 7 17 8 16 9 12 10 13 11
REMARK SMILES IDX 86 12 14 13 15 14 9 15 10 16 11 17 8 18 1 19 2 20 3 21 4 22
REMARK SMILES IDX 7 23 5 24 6 25 25 26 26 27 27 28 28 29 29 30 30 31 31 32
REMARK SMILES IDX 32 33 33 34 85 35 34 36 84 37 35 38 36 39 37 40 78 41 38 42
REMARK SMILES IDX 83 43 77 44 79 45 39 46 82 47 76 48 75 49 40 51 66 52 49 53
REMARK SMILES IDX 65 54 50 55 53 56 64 57 80 58 51 59 52 60 63 62 81 63 54 64
REMARK SMILES IDX 41 65 42 66 47 67 43 68 44 69 46 70 48 71 45 72 67 73 68 74
REMARK SMILES IDX 73 75 69 76 70 77 72 78 74 79 71 80 55 81 56 82 61 83 57 84
REMARK SMILES IDX 58 85 60 86 62 87 59 88
REMARK H PARENT 79 50 53 61
REMARK Flexibility Score: inf
ROOT
ATOM      1  C   UNL A   1      41.032  20.270  26.281  1.00  0.00     0.188 C 
ENDROOT
BRANCH   1   2
ATOM      2  O   UNL A   1      39.683  20.254  25.850  1.00  0.00    -0.376 OA
BRANCH   2   3
ATOM      3  C   UNL A   1      38.894  21.433  26.014  1.00  0.00     0.202 C 
BRANCH   3   4
ATOM      4  C   UNL A   1      37.785  21.779  24.998  1.00  0.00     0.261 C 
BRANCH   4   5
ATOM      5  O   UNL A   1      36.928  22.905  25.329  1.00  0.00    -0.463 OA
BRANCH   5   6
ATOM      6  C   UNL A   1      35.689  22.594  25.775  1.00  0.00     0.308 C 
ATOM      7  O   UNL A   1      35.444  21.615  26.476  1.00  0.00    -0.252 OA
BRANCH   6   8
ATOM      8  C   UNL A   1      34.558  23.484  25.290  1.00  0.00     0.156 C 
BRANCH   8   9
ATOM      9  C   UNL A   1      34.694  24.456  24.103  1.00  0.00     0.144 C 
ATOM     10  N   UNL A   1      32.361  25.185  24.158  1.00  0.00    -0.193 NA
ATOM     11  C   UNL A   1      32.067  24.690  22.800  1.00  0.00     0.131 C 
ATOM     12  C   UNL A   1      33.753  25.674  24.268  1.00  0.00     0.135 C 
ATOM     13  C   UNL A   1      33.117  23.637  22.383  1.00  0.00     0.177 C 
ATOM     14  O   UNL A   1      34.472  23.847  22.808  1.00  0.00    -0.375 OA
BRANCH  10  15
ATOM     15  S   UNL A   1      31.132  25.731  25.161  1.00  0.00     0.243 S 
ATOM     16  O   UNL A   1      31.238  25.063  26.434  1.00  0.00    -0.207 OA
ATOM     17  O   UNL A   1      29.913  25.668  24.369  1.00  0.00    -0.207 OA
BRANCH  15  18
ATOM     18  C   UNL A   1      31.412  27.489  25.498  1.00  0.00     0.085 A 
ATOM     19  C   UNL A   1      31.170  28.410  23.091  1.00  0.00     0.046 C 
ATOM     20  C   UNL A   1      31.312  28.548  24.569  1.00  0.00    -0.028 A 
ATOM     21  C   UNL A   1      31.452  29.873  25.035  1.00  0.00     0.044 A 
ATOM     22  C   UNL A   1      31.774  30.136  26.357  1.00  0.00     0.123 A 
ATOM     23  C   UNL A   1      31.768  27.783  26.832  1.00  0.00     0.025 A 
ATOM     24  F   UNL A   1      31.932  31.405  26.755  1.00  0.00    -0.207 F 
ATOM     25  C   UNL A   1      31.968  29.101  27.253  1.00  0.00     0.040 A 
ENDBRANCH  15  18
ENDBRANCH  10  15
ENDBRANCH   8   9
ENDBRANCH   6   8
ENDBRANCH   5   6
ENDBRANCH   4   5
ENDBRANCH   3   4
ENDBRANCH   2   3
ENDBRANCH   1   2
BRANCH   1  26
ATOM     26  C   UNL A   1      41.814  21.572  26.124  1.00  0.00     0.188 C 
BRANCH  26  27
ATOM     27  O   UNL A   1      43.164  21.527  26.510  1.00  0.00    -0.376 OA
BRANCH  27  28
ATOM     28  C   UNL A   1      44.151  22.088  25.660  1.00  0.00     0.202 C 
BRANCH  28  29
ATOM     29  C   UNL A   1      43.777  22.941  24.433  1.00  0.00     0.261 C 
BRANCH  29  30
ATOM     30  O   UNL A   1      43.455  24.325  24.656  1.00  0.00    -0.460 OA
BRANCH  30  31
ATOM     31  C   UNL A   1      44.397  25.101  25.249  1.00  0.00     0.338 C 
ATOM     32  O   UNL A   1      45.504  25.361  24.824  1.00  0.00    -0.246 OA
BRANCH  31  33
ATOM     33  C   UNL A   1      43.734  25.799  26.381  1.00  0.00     0.060 A 
ATOM     34  C   UNL A   1      44.080  27.132  26.652  1.00  0.00     0.016 A 
ATOM     35  C   UNL A   1      42.745  25.165  27.132  1.00  0.00     0.016 A 
ATOM     36  C   UNL A   1      43.437  27.834  27.674  1.00  0.00     0.010 A 
ATOM     37  C   UNL A   1      42.128  25.857  28.180  1.00  0.00     0.010 A 
ATOM     38  C   UNL A   1      42.482  27.190  28.468  1.00  0.00    -0.014 A 
BRANCH  38  39
ATOM     39  C   UNL A   1      41.966  27.842  29.698  1.00  0.00     0.031 A 
ATOM     40  C   UNL A   1      40.731  28.694  29.595  1.00  0.00     0.074 A 
ATOM     41  C   UNL A   1      42.575  27.687  30.887  1.00  0.00     0.049 A 
ATOM     42  N   UNL A   1      40.163  29.453  30.496  1.00  0.00    -0.248 NA
ATOM     43  C   UNL A   1      40.048  28.690  28.292  1.00  0.00     0.031 C 
ATOM     44  C   UNL A   1      43.739  26.840  31.139  1.00  0.00     0.029 A 
ATOM     45  N   UNL A   1      42.301  28.256  32.107  1.00  0.00    -0.354 N 
ATOM     46  C   UNL A   1      39.065  30.026  29.868  1.00  0.00     0.074 A 
ATOM     47  C   UNL A   1      39.061  29.548  28.502  1.00  0.00     0.031 C 
ATOM     48  C   UNL A   1      44.093  26.962  32.431  1.00  0.00     0.029 A 
ATOM     49  C   UNL A   1      43.209  27.926  33.083  1.00  0.00     0.049 A 
ATOM     50  H   UNL A   1      41.528  28.844  32.266  1.00  0.00     0.167 HD
ATOM     51  C   UNL A   1      38.140  30.870  30.384  1.00  0.00     0.037 A 
ATOM     52  C   UNL A   1      43.330  28.377  34.347  1.00  0.00     0.037 A 
ATOM     53  C   UNL A   1      38.145  31.343  31.743  1.00  0.00     0.049 A 
ATOM     54  C   UNL A   1      42.349  29.396  34.871  1.00  0.00     0.074 A 
ATOM     55  C   UNL A   1      37.242  32.188  32.365  1.00  0.00     0.029 A 
ATOM     56  N   UNL A   1      39.107  31.022  32.689  1.00  0.00    -0.354 N 
ATOM     57  N   UNL A   1      41.307  29.925  34.276  1.00  0.00    -0.248 NA
ATOM     58  C   UNL A   1      42.565  29.884  36.241  1.00  0.00     0.031 C 
ATOM     59  C   UNL A   1      37.692  32.427  33.667  1.00  0.00     0.029 A 
ATOM     60  C   UNL A   1      38.841  31.682  33.878  1.00  0.00     0.049 A 
ATOM     61  H   UNL A   1      39.867  30.414  32.539  1.00  0.00     0.167 HD
ATOM     62  C   UNL A   1      40.732  30.786  35.204  1.00  0.00     0.074 A 
ATOM     63  C   UNL A   1      41.531  30.694  36.409  1.00  0.00     0.031 C 
ATOM     64  C   UNL A   1      39.643  31.583  35.071  1.00  0.00     0.037 A 
BRANCH  51  65
ATOM     65  C   UNL A   1      37.066  31.368  29.461  1.00  0.00     0.057 A 
ATOM     66  C   UNL A   1      37.127  32.632  28.860  1.00  0.00     0.134 A 
ATOM     67  C   UNL A   1      35.969  30.555  29.146  1.00  0.00     0.134 A 
ATOM     68  F   UNL A   1      38.142  33.466  29.131  1.00  0.00    -0.206 F 
ATOM     69  C   UNL A   1      36.123  33.078  27.999  1.00  0.00     0.040 A 
ATOM     70  C   UNL A   1      34.975  30.979  28.263  1.00  0.00     0.040 A 
ATOM     71  F   UNL A   1      35.850  29.331  29.683  1.00  0.00    -0.206 F 
ATOM     72  C   UNL A   1      35.047  32.248  27.693  1.00  0.00     0.006 A 
ENDBRANCH  51  65
BRANCH  52  73
ATOM     73  C   UNL A   1      44.448  27.903  35.206  1.00  0.00     0.057 A 
ATOM     74  C   UNL A   1      45.708  28.509  35.161  1.00  0.00     0.134 A 
ATOM     75  C   UNL A   1      44.292  26.810  36.068  1.00  0.00     0.134 A 
ATOM     76  F   UNL A   1      45.931  29.542  34.334  1.00  0.00    -0.206 F 
ATOM     77  C   UNL A   1      46.776  28.038  35.926  1.00  0.00     0.040 A 
ATOM     78  C   UNL A   1      45.342  26.345  36.861  1.00  0.00     0.040 A 
ATOM     79  F   UNL A   1      43.112  26.178  36.155  1.00  0.00    -0.206 F 
ATOM     80  C   UNL A   1      46.593  26.955  36.785  1.00  0.00     0.006 A 
ENDBRANCH  52  73
BRANCH  64  81
ATOM     81  C   UNL A   1      39.232  32.401  36.264  1.00  0.00     0.057 A 
ATOM     82  C   UNL A   1      39.746  33.684  36.496  1.00  0.00     0.134 A 
ATOM     83  C   UNL A   1      38.278  31.917  37.169  1.00  0.00     0.134 A 
ATOM     84  F   UNL A   1      40.672  34.204  35.675  1.00  0.00    -0.206 F 
ATOM     85  C   UNL A   1      39.344  34.444  37.597  1.00  0.00     0.040 A 
ATOM     86  C   UNL A   1      37.846  32.679  38.256  1.00  0.00     0.040 A 
ATOM     87  F   UNL A   1      37.735  30.701  37.002  1.00  0.00    -0.206 F 
ATOM     88  C   UNL A   1      38.386  33.943  38.476  1.00  0.00     0.006 A 
ENDBRANCH  64  81
ENDBRANCH  38  39
ENDBRANCH  31  33
ENDBRANCH  30  31
ENDBRANCH  29  30
ENDBRANCH  28  29
ENDBRANCH  27  28
ENDBRANCH  26  27
ENDBRANCH   1  26
TORSDOF 20
ENDMDL
MODEL 2
REMARK VINA RESULT:     -10.4      1.292      6.184
REMARK SMILES Cc1cc(F)ccc1S(=O)(=O)N1CCO[C@H](CC(=O)OCCOCCOCCOC(=O)c2ccc(-c3c4nc(c(-c5c(F)cccc5F)c5ccc([nH]5)c(-c5c(F)cccc5F)c5nc(c(-c6c(F)cccc6F)c6ccc3[nH]6)C=C5)C=C4)cc2)C1
REMARK SMILES IDX 24 1 23 2 22 3 21 4 20 5 18 6 19 7 17 8 16 9 12 10 13 11
REMARK SMILES IDX 86 12 14 13 15 14 9 15 10 16 11 17 8 18 1 19 2 20 3 21 4 22
REMARK SMILES IDX 7 23 5 24 6 25 25 26 26 27 27 28 28 29 29 30 30 31 31 32
REMARK SMILES IDX 32 33 33 34 85 35 34 36 84 37 35 38 36 39 37 40 78 41 38 42
REMARK SMILES IDX 83 43 77 44 79 45 39 46 82 47 76 48 75 49 40 51 66 52 49 53
REMARK SMILES IDX 65 54 50 55 53 56 64 57 80 58 51 59 52 60 63 62 81 63 54 64
REMARK SMILES IDX 41 65 42 66 47 67 43 68 44 69 46 70 48 71 45 72 67 73 68 74
REMARK SMILES IDX 73 75 69 76 70 77 72 78 74 79 71 80 55 81 56 82 61 83 57 84
REMARK SMILES IDX 58 85 60 86 62 87 59 88
REMARK H PARENT 79 50 53 61
REMARK Flexibility Score: inf
ROOT
ATOM      1  C   UNL A   1      39.550  22.183  26.481  1.00  0.00     0.188 C 
ENDROOT
BRANCH   1   2
ATOM      2  O   UNL A   1      38.353  21.589  26.012  1.00  0.00    -0.376 OA
BRANCH   2   3
ATOM      3  C   UNL A   1      37.447  22.381  25.243  1.00  0.00     0.202 C 
BRANCH   3   4
ATOM      4  C   UNL A   1      35.935  22.360  25.551  1.00  0.00     0.261 C 
BRANCH   4   5
ATOM      5  O   UNL A   1      35.339  21.058  25.798  1.00  0.00    -0.463 OA
BRANCH   5   6
ATOM      6  C   UNL A   1      34.349  20.691  24.954  1.00  0.00     0.308 C 
ATOM      7  O   UNL A   1      34.081  19.522  24.686  1.00  0.00    -0.252 OA
BRANCH   6   8
ATOM      8  C   UNL A   1      33.607  21.820  24.257  1.00  0.00     0.156 C 
BRANCH   8   9
ATOM      9  C   UNL A   1      32.146  22.192  24.570  1.00  0.00     0.144 C 
ATOM     10  N   UNL A   1      32.631  24.534  25.081  1.00  0.00    -0.193 NA
ATOM     11  C   UNL A   1      32.157  24.435  26.475  1.00  0.00     0.131 C 
ATOM     12  C   UNL A   1      31.848  23.660  24.179  1.00  0.00     0.135 C 
ATOM     13  C   UNL A   1      32.139  22.957  26.923  1.00  0.00     0.177 C 
ATOM     14  O   UNL A   1      31.759  21.973  25.949  1.00  0.00    -0.375 OA
BRANCH  10  15
ATOM     15  S   UNL A   1      33.431  25.904  24.538  1.00  0.00     0.243 S 
ATOM     16  O   UNL A   1      34.192  25.564  23.362  1.00  0.00    -0.207 OA
ATOM     17  O   UNL A   1      34.064  26.489  25.711  1.00  0.00    -0.207 OA
BRANCH  15  18
ATOM     18  C   UNL A   1      32.191  27.109  23.994  1.00  0.00     0.085 A 
ATOM     19  C   UNL A   1      31.677  26.137  21.650  1.00  0.00     0.046 C 
ATOM     20  C   UNL A   1      31.444  27.062  22.797  1.00  0.00    -0.028 A 
ATOM     21  C   UNL A   1      30.435  28.027  22.589  1.00  0.00     0.044 A 
ATOM     22  C   UNL A   1      30.238  29.061  23.492  1.00  0.00     0.123 A 
ATOM     23  C   UNL A   1      31.989  28.187  24.883  1.00  0.00     0.025 A 
ATOM     24  F   UNL A   1      29.294  29.978  23.244  1.00  0.00    -0.207 F 
ATOM     25  C   UNL A   1      31.030  29.170  24.620  1.00  0.00     0.040 A 
ENDBRANCH  15  18
ENDBRANCH  10  15
ENDBRANCH   8   9
ENDBRANCH   6   8
ENDBRANCH   5   6
ENDBRANCH   4   5
ENDBRANCH   3   4
ENDBRANCH   2   3
ENDBRANCH   1   2
BRANCH   1  26
ATOM     26  C   UNL A   1      40.527  21.300  27.253  1.00  0.00     0.188 C 
BRANCH  26  27
ATOM     27  O   UNL A   1      41.070  20.217  26.542  1.00  0.00    -0.376 OA
BRANCH  27  28
ATOM     28  C   UNL A   1      42.439  20.239  26.175  1.00  0.00     0.202 C 
BRANCH  28  29
ATOM     29  C   UNL A   1      43.067  21.447  25.453  1.00  0.00     0.261 C 
BRANCH  29  30
ATOM     30  O   UNL A   1      43.744  22.427  26.257  1.00  0.00    -0.460 OA
BRANCH  30  31
ATOM     31  C   UNL A   1      43.948  23.653  25.714  1.00  0.00     0.338 C 
ATOM     32  O   UNL A   1      44.321  23.901  24.586  1.00  0.00    -0.246 OA
BRANCH  31  33
ATOM     33  C   UNL A   1      43.372  24.648  26.657  1.00  0.00     0.060 A 
ATOM     34  C   UNL A   1      43.834  25.972  26.613  1.00  0.00     0.016 A 
ATOM     35  C   UNL A   1      42.350  24.291  27.537  1.00  0.00     0.016 A 
ATOM     36  C   UNL A   1      43.276  26.943  27.447  1.00  0.00     0.010 A 
ATOM     37  C   UNL A   1      41.818  25.255  28.400  1.00  0.00     0.010 A 
ATOM     38  C   UNL A   1      42.289  26.583  28.372  1.00  0.00    -0.014 A 
BRANCH  38  39
ATOM     39  C   UNL A   1      41.857  27.542  29.419  1.00  0.00     0.031 A 
ATOM     40  C   UNL A   1      42.577  27.536  30.739  1.00  0.00     0.074 A 
ATOM     41  C   UNL A   1      40.845  28.403  29.212  1.00  0.00     0.049 A 
ATOM     42  N   UNL A   1      42.309  28.192  31.839  1.00  0.00    -0.248 NA
ATOM     43  C   UNL A   1      43.761  26.667  30.828  1.00  0.00     0.031 C 
ATOM     44  C   UNL A   1      40.105  28.557  27.962  1.00  0.00     0.029 A 
ATOM     45  N   UNL A   1      40.256  29.304  30.066  1.00  0.00    -0.354 N 
ATOM     46  C   UNL A   1      43.281  27.806  32.753  1.00  0.00     0.074 A 
ATOM     47  C   UNL A   1      44.130  26.840  32.088  1.00  0.00     0.031 C 
ATOM     48  C   UNL A   1      39.145  29.482  28.136  1.00  0.00     0.029 A 
ATOM     49  C   UNL A   1      39.176  29.953  29.519  1.00  0.00     0.049 A 
ATOM     50  H   UNL A   1      40.577  29.468  30.981  1.00  0.00     0.167 HD
ATOM     51  C   UNL A   1      43.454  28.223  34.030  1.00  0.00     0.037 A 
ATOM     52  C   UNL A   1      38.294  30.802  30.083  1.00  0.00     0.037 A 
ATOM     53  C   UNL A   1      42.610  29.184  34.689  1.00  0.00     0.049 A 
ATOM     54  C   UNL A   1      38.445  31.174  31.537  1.00  0.00     0.074 A 
ATOM     55  C   UNL A   1      42.713  29.683  35.977  1.00  0.00     0.029 A 
ATOM     56  N   UNL A   1      41.499  29.785  34.117  1.00  0.00    -0.354 N 
ATOM     57  N   UNL A   1      39.371  30.816  32.393  1.00  0.00    -0.248 NA
ATOM     58  C   UNL A   1      37.423  32.067  32.104  1.00  0.00     0.031 C 
ATOM     59  C   UNL A   1      41.630  30.537  36.203  1.00  0.00     0.029 A 
ATOM     60  C   UNL A   1      40.886  30.620  35.037  1.00  0.00     0.049 A 
ATOM     61  H   UNL A   1      41.191  29.640  33.193  1.00  0.00     0.167 HD
ATOM     62  C   UNL A   1      39.059  31.455  33.587  1.00  0.00     0.074 A 
ATOM     63  C   UNL A   1      37.867  32.239  33.340  1.00  0.00     0.031 C 
ATOM     64  C   UNL A   1      39.699  31.396  34.781  1.00  0.00     0.037 A 
BRANCH  51  65
ATOM     65  C   UNL A   1      44.579  27.609  34.812  1.00  0.00     0.057 A 
ATOM     66  C   UNL A   1      45.845  28.204  34.888  1.00  0.00     0.134 A 
ATOM     67  C   UNL A   1      44.382  26.418  35.523  1.00  0.00     0.134 A 
ATOM     68  F   UNL A   1      46.106  29.337  34.219  1.00  0.00    -0.206 F 
ATOM     69  C   UNL A   1      46.880  27.623  35.624  1.00  0.00     0.040 A 
ATOM     70  C   UNL A   1      45.400  25.844  36.285  1.00  0.00     0.040 A 
ATOM     71  F   UNL A   1      43.192  25.798  35.496  1.00  0.00    -0.206 F 
ATOM     72  C   UNL A   1      46.656  26.444  36.331  1.00  0.00     0.006 A 
ENDBRANCH  51  65
BRANCH  52  73
ATOM     73  C   UNL A   1      37.157  31.337  29.287  1.00  0.00     0.057 A 
ATOM     74  C   UNL A   1      37.187  32.630  28.753  1.00  0.00     0.134 A 
ATOM     75  C   UNL A   1      36.000  30.579  29.069  1.00  0.00     0.134 A 
ATOM     76  F   UNL A   1      38.255  33.417  28.952  1.00  0.00    -0.206 F 
ATOM     77  C   UNL A   1      36.104  33.158  28.049  1.00  0.00     0.040 A 
ATOM     78  C   UNL A   1      34.920  31.082  28.341  1.00  0.00     0.040 A 
ATOM     79  F   UNL A   1      35.902  29.334  29.559  1.00  0.00    -0.206 F 
ATOM     80  C   UNL A   1      34.967  32.380  27.836  1.00  0.00     0.006 A 
ENDBRANCH  52  73
BRANCH  64  81
ATOM     81  C   UNL A   1      39.142  32.221  35.908  1.00  0.00     0.057 A 
ATOM     82  C   UNL A   1      39.514  33.559  36.100  1.00  0.00     0.134 A 
ATOM     83  C   UNL A   1      38.191  31.686  36.785  1.00  0.00     0.134 A 
ATOM     84  F   UNL A   1      40.429  34.132  35.303  1.00  0.00    -0.206 F 
ATOM     85  C   UNL A   1      38.978  34.324  37.139  1.00  0.00     0.040 A 
ATOM     86  C   UNL A   1      37.625  32.449  37.808  1.00  0.00     0.040 A 
ATOM     87  F   UNL A   1      37.780  30.415  36.653  1.00  0.00    -0.206 F 
ATOM     88  C   UNL A   1      38.026  33.770  37.992  1.00  0.00     0.006 A 
ENDBRANCH  64  81
ENDBRANCH  38  39
ENDBRANCH  31  33
ENDBRANCH  30  31
ENDBRANCH  29  30
ENDBRANCH  28  29
ENDBRANCH  27  28
ENDBRANCH  26  27
ENDBRANCH   1  26
TORSDOF 20
ENDMDL
MODEL 3
REMARK VINA RESULT:     -10.4      3.715      9.569
REMARK SMILES Cc1cc(F)ccc1S(=O)(=O)N1CCO[C@H](CC(=O)OCCOCCOCCOC(=O)c2ccc(-c3c4nc(c(-c5c(F)cccc5F)c5ccc([nH]5)c(-c5c(F)cccc5F)c5nc(c(-c6c(F)cccc6F)c6ccc3[nH]6)C=C5)C=C4)cc2)C1
REMARK SMILES IDX 24 1 23 2 22 3 21 4 20 5 18 6 19 7 17 8 16 9 12 10 13 11
REMARK SMILES IDX 86 12 14 13 15 14 9 15 10 16 11 17 8 18 1 19 2 20 3 21 4 22
REMARK SMILES IDX 7 23 5 24 6 25 25 26 26 27 27 28 28 29 29 30 30 31 31 32
REMARK SMILES IDX 32 33 33 34 85 35 34 36 84 37 35 38 36 39 37 40 78 41 38 42
REMARK SMILES IDX 83 43 77 44 79 45 39 46 82 47 76 48 75 49 40 51 66 52 49 53
REMARK SMILES IDX 65 54 50 55 53 56 64 57 80 58 51 59 52 60 63 62 81 63 54 64
REMARK SMILES IDX 41 65 42 66 47 67 43 68 44 69 46 70 48 71 45 72 67 73 68 74
REMARK SMILES IDX 73 75 69 76 70 77 72 78 74 79 71 80 55 81 56 82 61 83 57 84
REMARK SMILES IDX 58 85 60 86 62 87 59 88
REMARK H PARENT 79 50 53 61
REMARK Flexibility Score: inf
ROOT
ATOM      1  C   UNL A   1      34.642  32.587  27.877  1.00  0.00     0.188 C 
ENDROOT
BRANCH   1   2
ATOM      2  O   UNL A   1      33.847  31.417  27.809  1.00  0.00    -0.376 OA
BRANCH   2   3
ATOM      3  C   UNL A   1      32.688  31.419  26.974  1.00  0.00     0.202 C 
BRANCH   3   4
ATOM      4  C   UNL A   1      32.216  30.120  26.289  1.00  0.00     0.261 C 
BRANCH   4   5
ATOM      5  O   UNL A   1      32.760  28.876  26.807  1.00  0.00    -0.463 OA
BRANCH   5   6
ATOM      6  C   UNL A   1      31.907  27.827  26.844  1.00  0.00     0.308 C 
ATOM      7  O   UNL A   1      31.252  27.517  27.837  1.00  0.00    -0.252 OA
BRANCH   6   8
ATOM      8  C   UNL A   1      31.848  26.965  25.595  1.00  0.00     0.156 C 
BRANCH   8   9
ATOM      9  C   UNL A   1      30.536  26.624  24.863  1.00  0.00     0.144 C 
ATOM     10  N   UNL A   1      30.748  24.207  25.164  1.00  0.00    -0.193 NA
ATOM     11  C   UNL A   1      30.796  23.927  23.717  1.00  0.00     0.131 C 
ATOM     12  C   UNL A   1      29.872  25.362  25.465  1.00  0.00     0.135 C 
ATOM     13  C   UNL A   1      31.188  25.206  22.944  1.00  0.00     0.177 C 
ATOM     14  O   UNL A   1      30.680  26.457  23.431  1.00  0.00    -0.375 OA
BRANCH  10  15
ATOM     15  S   UNL A   1      31.066  23.002  26.286  1.00  0.00     0.243 S 
ATOM     16  O   UNL A   1      29.977  22.057  26.276  1.00  0.00    -0.207 OA
ATOM     17  O   UNL A   1      31.467  23.687  27.506  1.00  0.00    -0.207 OA
BRANCH  15  18
ATOM     18  C   UNL A   1      32.527  22.082  25.735  1.00  0.00     0.085 A 
ATOM     19  C   UNL A   1      34.273  23.991  25.832  1.00  0.00     0.046 C 
ATOM     20  C   UNL A   1      33.850  22.570  25.668  1.00  0.00    -0.028 A 
ATOM     21  C   UNL A   1      34.886  21.675  25.323  1.00  0.00     0.044 A 
ATOM     22  C   UNL A   1      34.609  20.366  24.961  1.00  0.00     0.123 A 
ATOM     23  C   UNL A   1      32.269  20.753  25.336  1.00  0.00     0.025 A 
ATOM     24  F   UNL A   1      35.614  19.555  24.607  1.00  0.00    -0.207 F 
ATOM     25  C   UNL A   1      33.305  19.906  24.931  1.00  0.00     0.040 A 
ENDBRANCH  15  18
ENDBRANCH  10  15
ENDBRANCH   8   9
ENDBRANCH   6   8
ENDBRANCH   5   6
ENDBRANCH   4   5
ENDBRANCH   3   4
ENDBRANCH   2   3
ENDBRANCH   1   2
BRANCH   1  26
ATOM     26  C   UNL A   1      34.899  33.194  29.254  1.00  0.00     0.188 C 
BRANCH  26  27
ATOM     27  O   UNL A   1      33.801  33.827  29.860  1.00  0.00    -0.376 OA
BRANCH  27  28
ATOM     28  C   UNL A   1      33.320  35.051  29.330  1.00  0.00     0.202 C 
BRANCH  28  29
ATOM     29  C   UNL A   1      32.646  36.112  30.219  1.00  0.00     0.261 C 
BRANCH  29  30
ATOM     30  O   UNL A   1      32.165  35.694  31.509  1.00  0.00    -0.460 OA
BRANCH  30  31
ATOM     31  C   UNL A   1      32.835  36.136  32.602  1.00  0.00     0.338 C 
ATOM     32  O   UNL A   1      32.448  36.943  33.422  1.00  0.00    -0.246 OA
BRANCH  31  33
ATOM     33  C   UNL A   1      34.020  35.254  32.770  1.00  0.00     0.060 A 
ATOM     34  C   UNL A   1      33.830  33.942  33.229  1.00  0.00     0.016 A 
ATOM     35  C   UNL A   1      35.297  35.700  32.429  1.00  0.00     0.016 A 
ATOM     36  C   UNL A   1      34.915  33.070  33.345  1.00  0.00     0.010 A 
ATOM     37  C   UNL A   1      36.389  34.838  32.582  1.00  0.00     0.010 A 
ATOM     38  C   UNL A   1      36.207  33.524  33.057  1.00  0.00    -0.014 A 
BRANCH  38  39
ATOM     39  C   UNL A   1      37.388  32.693  33.399  1.00  0.00     0.031 A 
ATOM     40  C   UNL A   1      38.114  32.971  34.686  1.00  0.00     0.074 A 
ATOM     41  C   UNL A   1      37.815  31.708  32.588  1.00  0.00     0.049 A 
ATOM     42  N   UNL A   1      39.230  32.462  35.142  1.00  0.00    -0.248 NA
ATOM     43  C   UNL A   1      37.494  33.963  35.579  1.00  0.00     0.031 C 
ATOM     44  C   UNL A   1      37.169  31.293  31.346  1.00  0.00     0.029 A 
ATOM     45  N   UNL A   1      38.913  30.888  32.689  1.00  0.00    -0.354 N 
ATOM     46  C   UNL A   1      39.453  33.080  36.365  1.00  0.00     0.074 A 
ATOM     47  C   UNL A   1      38.371  34.020  36.570  1.00  0.00     0.031 C 
ATOM     48  C   UNL A   1      37.895  30.308  30.786  1.00  0.00     0.029 A 
ATOM     49  C   UNL A   1      39.077  30.055  31.609  1.00  0.00     0.049 A 
ATOM     50  H   UNL A   1      39.524  30.897  33.460  1.00  0.00     0.167 HD
ATOM     51  C   UNL A   1      40.465  32.879  37.243  1.00  0.00     0.037 A 
ATOM     52  C   UNL A   1      40.083  29.212  31.304  1.00  0.00     0.037 A 
ATOM     53  C   UNL A   1      41.540  31.944  37.038  1.00  0.00     0.049 A 
ATOM     54  C   UNL A   1      41.253  29.079  32.247  1.00  0.00     0.074 A 
ATOM     55  C   UNL A   1      42.603  31.657  37.876  1.00  0.00     0.029 A 
ATOM     56  N   UNL A   1      41.694  31.151  35.912  1.00  0.00    -0.354 N 
ATOM     57  N   UNL A   1      41.453  29.657  33.407  1.00  0.00    -0.248 NA
ATOM     58  C   UNL A   1      42.340  28.179  31.834  1.00  0.00     0.031 C 
ATOM     59  C   UNL A   1      43.434  30.737  37.229  1.00  0.00     0.029 A 
ATOM     60  C   UNL A   1      42.856  30.403  36.015  1.00  0.00     0.049 A 
ATOM     61  H   UNL A   1      41.071  31.123  35.150  1.00  0.00     0.167 HD
ATOM     62  C   UNL A   1      42.670  29.173  33.872  1.00  0.00     0.074 A 
ATOM     63  C   UNL A   1      43.155  28.240  32.877  1.00  0.00     0.031 C 
ATOM     64  C   UNL A   1      43.330  29.477  35.017  1.00  0.00     0.037 A 
BRANCH  51  65
ATOM     65  C   UNL A   1      40.478  33.718  38.488  1.00  0.00     0.057 A 
ATOM     66  C   UNL A   1      39.749  33.366  39.631  1.00  0.00     0.134 A 
ATOM     67  C   UNL A   1      41.257  34.881  38.551  1.00  0.00     0.134 A 
ATOM     68  F   UNL A   1      38.971  32.274  39.632  1.00  0.00    -0.206 F 
ATOM     69  C   UNL A   1      39.776  34.154  40.784  1.00  0.00     0.040 A 
ATOM     70  C   UNL A   1      41.315  35.660  39.707  1.00  0.00     0.040 A 
ATOM     71  F   UNL A   1      41.983  35.274  37.493  1.00  0.00    -0.206 F 
ATOM     72  C   UNL A   1      40.567  35.301  40.826  1.00  0.00     0.006 A 
ENDBRANCH  51  65
BRANCH  52  73
ATOM     73  C   UNL A   1      40.058  28.447  30.029  1.00  0.00     0.057 A 
ATOM     74  C   UNL A   1      40.720  28.914  28.888  1.00  0.00     0.134 A 
ATOM     75  C   UNL A   1      39.342  27.249  29.911  1.00  0.00     0.134 A 
ATOM     76  F   UNL A   1      41.398  30.070  28.928  1.00  0.00    -0.206 F 
ATOM     77  C   UNL A   1      40.659  28.229  27.673  1.00  0.00     0.040 A 
ATOM     78  C   UNL A   1      39.296  26.537  28.711  1.00  0.00     0.040 A 
ATOM     79  F   UNL A   1      38.679  26.749  30.964  1.00  0.00    -0.206 F 
ATOM     80  C   UNL A   1      39.950  27.032  27.584  1.00  0.00     0.006 A 
ENDBRANCH  52  73
BRANCH  64  81
ATOM     81  C   UNL A   1      44.635  28.775  35.273  1.00  0.00     0.057 A 
ATOM     82  C   UNL A   1      44.698  27.560  35.968  1.00  0.00     0.134 A 
ATOM     83  C   UNL A   1      45.838  29.299  34.783  1.00  0.00     0.134 A 
ATOM     84  F   UNL A   1      43.585  27.007  36.475  1.00  0.00    -0.206 F 
ATOM     85  C   UNL A   1      45.913  26.906  36.186  1.00  0.00     0.040 A 
ATOM     86  C   UNL A   1      47.054  28.640  34.968  1.00  0.00     0.040 A 
ATOM     87  F   UNL A   1      45.850  30.454  34.099  1.00  0.00    -0.206 F 
ATOM     88  C   UNL A   1      47.094  27.443  35.678  1.00  0.00     0.006 A 
ENDBRANCH  64  81
ENDBRANCH  38  39
ENDBRANCH  31  33
ENDBRANCH  30  31
ENDBRANCH  29  30
ENDBRANCH  28  29
ENDBRANCH  27  28
ENDBRANCH  26  27
ENDBRANCH   1  26
TORSDOF 20
ENDMDL
