MODEL 1
REMARK VINA RESULT:      -8.7      0.000      0.000
REMARK SMILES CCC[N@@H+](CC1CC[NH2+]CC1)[C@@H](CC)C(=O)OCCOCCOCCOC(=O)c1ccc(-c2c3nc(c(-c4c(F)cccc4F)c4ccc([nH]4)c(-c4c(F)cccc4F)c4nc(c(-c5c(F)cccc5F)c5ccc2[nH]5)C=C4)C=C3)cc1
REMARK SMILES IDX 21 1 20 2 19 3 18 4 17 5 15 6 16 7 12 8 4 9 3 11 2 12 1 13
REMARK SMILES IDX 5 14 6 15 7 16 11 17 8 18 10 19 9 20 13 23 14 24 22 25 23 26
REMARK SMILES IDX 24 27 25 28 26 29 27 30 28 31 29 32 30 33 82 34 31 35 81 36
REMARK SMILES IDX 32 37 33 38 34 39 75 40 35 41 80 42 74 43 76 44 36 45 79 46
REMARK SMILES IDX 73 47 72 48 37 50 63 51 46 52 62 53 47 54 50 55 61 56 77 57
REMARK SMILES IDX 48 58 49 59 60 61 78 62 51 63 38 64 39 65 44 66 40 67 41 68
REMARK SMILES IDX 43 69 45 70 42 71 64 72 65 73 70 74 66 75 67 76 69 77 71 78
REMARK SMILES IDX 68 79 52 80 53 81 58 82 54 83 55 84 57 85 59 86 56 87
REMARK H PARENT 4 10 9 21 9 22 76 49 50 60
REMARK Flexibility Score: inf
ROOT
ATOM      1  C   UNL A   1      34.315  20.928  25.322  1.00  0.00     0.188 C 
ENDROOT
BRANCH   1   2
ATOM      2  O   UNL A   1      33.543  21.482  24.277  1.00  0.00    -0.376 OA
BRANCH   2   3
ATOM      3  C   UNL A   1      32.127  21.534  24.399  1.00  0.00     0.202 C 
BRANCH   3   4
ATOM      4  C   UNL A   1      31.476  22.455  25.425  1.00  0.00     0.261 C 
BRANCH   4   5
ATOM      5  O   UNL A   1      31.413  23.830  24.999  1.00  0.00    -0.459 OA
BRANCH   5   6
ATOM      6  C   UNL A   1      31.898  24.720  25.895  1.00  0.00     0.364 C 
ATOM      7  O   UNL A   1      31.418  24.858  27.023  1.00  0.00    -0.245 OA
BRANCH   6   8
ATOM      8  C   UNL A   1      33.092  25.584  25.456  1.00  0.00     0.294 C 
BRANCH   8   9
ATOM      9  N   UNL A   1      32.993  27.073  25.549  1.00  0.00    -0.323 N 
ATOM     10  H   UNL A   1      32.029  27.143  25.223  1.00  0.00     0.348 HD
BRANCH   9  11
ATOM     11  C   UNL A   1      32.864  27.812  26.817  1.00  0.00     0.262 C 
BRANCH  11  12
ATOM     12  C   UNL A   1      31.776  28.868  27.054  1.00  0.00     0.058 C 
ATOM     13  C   UNL A   1      32.163  30.318  26.871  1.00  0.00     0.010 C 
ENDBRANCH  11  12
ENDBRANCH   9  11
BRANCH   9  14
ATOM     14  C   UNL A   1      34.020  27.744  24.683  1.00  0.00     0.266 C 
BRANCH  14  15
ATOM     15  C   UNL A   1      33.490  28.248  23.314  1.00  0.00     0.055 C 
ATOM     16  C   UNL A   1      32.093  28.884  23.382  1.00  0.00     0.071 C 
ATOM     17  C   UNL A   1      33.588  27.173  22.218  1.00  0.00     0.071 C 
ATOM     18  C   UNL A   1      30.949  27.895  23.192  1.00  0.00     0.261 C 
ATOM     19  C   UNL A   1      32.365  26.271  22.136  1.00  0.00     0.261 C 
ATOM     20  N   UNL A   1      31.153  27.074  22.002  1.00  0.00    -0.346 N 
ATOM     21  H   UNL A   1      31.241  27.680  21.186  1.00  0.00     0.346 HD
ATOM     22  H   UNL A   1      30.355  26.449  21.892  1.00  0.00     0.346 HD
ENDBRANCH  14  15
ENDBRANCH   9  14
ENDBRANCH   8   9
BRANCH   8  23
ATOM     23  C   UNL A   1      34.397  24.811  25.748  1.00  0.00     0.074 C 
ATOM     24  C   UNL A   1      35.231  24.353  24.569  1.00  0.00     0.011 C 
ENDBRANCH   8  23
ENDBRANCH   6   8
ENDBRANCH   5   6
ENDBRANCH   4   5
ENDBRANCH   3   4
ENDBRANCH   2   3
ENDBRANCH   1   2
BRANCH   1  25
ATOM     25  C   UNL A   1      35.708  20.337  25.027  1.00  0.00     0.188 C 
BRANCH  25  26
ATOM     26  O   UNL A   1      36.820  21.102  24.610  1.00  0.00    -0.376 OA
BRANCH  26  27
ATOM     27  C   UNL A   1      38.072  20.983  25.247  1.00  0.00     0.202 C 
BRANCH  27  28
ATOM     28  C   UNL A   1      38.669  22.177  25.985  1.00  0.00     0.261 C 
BRANCH  28  29
ATOM     29  O   UNL A   1      39.853  21.875  26.729  1.00  0.00    -0.460 OA
BRANCH  29  30
ATOM     30  C   UNL A   1      40.973  22.516  26.325  1.00  0.00     0.338 C 
ATOM     31  O   UNL A   1      41.867  22.089  25.610  1.00  0.00    -0.246 OA
BRANCH  30  32
ATOM     32  C   UNL A   1      40.867  23.924  26.741  1.00  0.00     0.060 A 
ATOM     33  C   UNL A   1      40.888  24.930  25.761  1.00  0.00     0.016 A 
ATOM     34  C   UNL A   1      40.733  24.245  28.091  1.00  0.00     0.016 A 
ATOM     35  C   UNL A   1      40.776  26.267  26.130  1.00  0.00     0.010 A 
ATOM     36  C   UNL A   1      40.671  25.584  28.464  1.00  0.00     0.010 A 
ATOM     37  C   UNL A   1      40.723  26.597  27.488  1.00  0.00    -0.014 A 
BRANCH  37  38
ATOM     38  C   UNL A   1      41.011  27.977  27.928  1.00  0.00     0.031 A 
ATOM     39  C   UNL A   1      42.456  28.378  28.003  1.00  0.00     0.074 A 
ATOM     40  C   UNL A   1      40.036  28.825  28.292  1.00  0.00     0.049 A 
ATOM     41  N   UNL A   1      43.001  29.430  28.552  1.00  0.00    -0.248 NA
ATOM     42  C   UNL A   1      43.421  27.450  27.387  1.00  0.00     0.031 C 
ATOM     43  C   UNL A   1      38.602  28.568  28.191  1.00  0.00     0.029 A 
ATOM     44  N   UNL A   1      40.120  30.073  28.854  1.00  0.00    -0.354 N 
ATOM     45  C   UNL A   1      44.368  29.280  28.364  1.00  0.00     0.074 A 
ATOM     46  C   UNL A   1      44.575  28.028  27.673  1.00  0.00     0.031 C 
ATOM     47  C   UNL A   1      37.937  29.618  28.707  1.00  0.00     0.029 A 
ATOM     48  C   UNL A   1      38.902  30.592  29.218  1.00  0.00     0.049 A 
ATOM     49  H   UNL A   1      40.972  30.551  28.983  1.00  0.00     0.167 HD
ATOM     50  C   UNL A   1      45.363  30.117  28.736  1.00  0.00     0.037 A 
ATOM     51  C   UNL A   1      38.616  31.705  29.921  1.00  0.00     0.037 A 
ATOM     52  C   UNL A   1      45.144  31.352  29.436  1.00  0.00     0.049 A 
ATOM     53  C   UNL A   1      39.749  32.569  30.419  1.00  0.00     0.074 A 
ATOM     54  C   UNL A   1      46.079  32.268  29.881  1.00  0.00     0.029 A 
ATOM     55  N   UNL A   1      43.897  31.839  29.796  1.00  0.00    -0.354 N 
ATOM     56  N   UNL A   1      41.042  32.423  30.251  1.00  0.00    -0.248 NA
ATOM     57  C   UNL A   1      39.382  33.753  31.210  1.00  0.00     0.031 C 
ATOM     58  C   UNL A   1      45.399  33.289  30.550  1.00  0.00     0.029 A 
ATOM     59  C   UNL A   1      44.038  33.040  30.466  1.00  0.00     0.049 A 
ATOM     60  H   UNL A   1      43.039  31.396  29.603  1.00  0.00     0.167 HD
ATOM     61  C   UNL A   1      41.636  33.519  30.866  1.00  0.00     0.074 A 
ATOM     62  C   UNL A   1      40.562  34.321  31.414  1.00  0.00     0.031 C 
ATOM     63  C   UNL A   1      42.950  33.839  30.966  1.00  0.00     0.037 A 
BRANCH  50  64
ATOM     64  C   UNL A   1      46.768  29.703  28.417  1.00  0.00     0.057 A 
ATOM     65  C   UNL A   1      47.526  28.919  29.298  1.00  0.00     0.134 A 
ATOM     66  C   UNL A   1      47.364  30.073  27.206  1.00  0.00     0.134 A 
ATOM     67  F   UNL A   1      47.022  28.550  30.486  1.00  0.00    -0.206 F 
ATOM     68  C   UNL A   1      48.832  28.535  28.993  1.00  0.00     0.040 A 
ATOM     69  C   UNL A   1      48.658  29.670  26.875  1.00  0.00     0.040 A 
ATOM     70  F   UNL A   1      46.695  30.826  26.319  1.00  0.00    -0.206 F 
ATOM     71  C   UNL A   1      49.398  28.904  27.773  1.00  0.00     0.006 A 
ENDBRANCH  50  64
BRANCH  51  72
ATOM     72  C   UNL A   1      37.207  32.065  30.229  1.00  0.00     0.057 A 
ATOM     73  C   UNL A   1      36.462  32.871  29.359  1.00  0.00     0.134 A 
ATOM     74  C   UNL A   1      36.590  31.668  31.421  1.00  0.00     0.134 A 
ATOM     75  F   UNL A   1      37.006  33.306  28.212  1.00  0.00    -0.206 F 
ATOM     76  C   UNL A   1      35.170  33.293  29.675  1.00  0.00     0.040 A 
ATOM     77  C   UNL A   1      35.286  32.057  31.736  1.00  0.00     0.040 A 
ATOM     78  F   UNL A   1      37.245  30.897  32.301  1.00  0.00    -0.206 F 
ATOM     79  C   UNL A   1      34.577  32.884  30.867  1.00  0.00     0.006 A 
ENDBRANCH  51  72
BRANCH  63  80
ATOM     80  C   UNL A   1      43.302  35.149  31.611  1.00  0.00     0.057 A 
ATOM     81  C   UNL A   1      43.472  35.281  32.994  1.00  0.00     0.134 A 
ATOM     82  C   UNL A   1      43.545  36.279  30.818  1.00  0.00     0.134 A 
ATOM     83  F   UNL A   1      43.246  34.242  33.811  1.00  0.00    -0.206 F 
ATOM     84  C   UNL A   1      43.853  36.496  33.566  1.00  0.00     0.040 A 
ATOM     85  C   UNL A   1      43.955  37.490  31.374  1.00  0.00     0.040 A 
ATOM     86  F   UNL A   1      43.412  36.215  29.483  1.00  0.00    -0.206 F 
ATOM     87  C   UNL A   1      44.105  37.602  32.755  1.00  0.00     0.006 A 
ENDBRANCH  63  80
ENDBRANCH  37  38
ENDBRANCH  30  32
ENDBRANCH  29  30
ENDBRANCH  28  29
ENDBRANCH  27  28
ENDBRANCH  26  27
ENDBRANCH  25  26
ENDBRANCH   1  25
TORSDOF 23
ENDMDL
MODEL 2
REMARK VINA RESULT:      -7.9      4.049      7.318
REMARK SMILES CCC[N@@H+](CC1CC[NH2+]CC1)[C@@H](CC)C(=O)OCCOCCOCCOC(=O)c1ccc(-c2c3nc(c(-c4c(F)cccc4F)c4ccc([nH]4)c(-c4c(F)cccc4F)c4nc(c(-c5c(F)cccc5F)c5ccc2[nH]5)C=C4)C=C3)cc1
REMARK SMILES IDX 21 1 20 2 19 3 18 4 17 5 15 6 16 7 12 8 4 9 3 11 2 12 1 13
REMARK SMILES IDX 5 14 6 15 7 16 11 17 8 18 10 19 9 20 13 23 14 24 22 25 23 26
REMARK SMILES IDX 24 27 25 28 26 29 27 30 28 31 29 32 30 33 82 34 31 35 81 36
REMARK SMILES IDX 32 37 33 38 34 39 75 40 35 41 80 42 74 43 76 44 36 45 79 46
REMARK SMILES IDX 73 47 72 48 37 50 63 51 46 52 62 53 47 54 50 55 61 56 77 57
REMARK SMILES IDX 48 58 49 59 60 61 78 62 51 63 38 64 39 65 44 66 40 67 41 68
REMARK SMILES IDX 43 69 45 70 42 71 64 72 65 73 70 74 66 75 67 76 69 77 71 78
REMARK SMILES IDX 68 79 52 80 53 81 58 82 54 83 55 84 57 85 59 86 56 87
REMARK H PARENT 4 10 9 21 9 22 76 49 50 60
REMARK Flexibility Score: inf
ROOT
ATOM      1  C   UNL A   1      40.715  22.768  26.111  1.00  0.00     0.188 C 
ENDROOT
BRANCH   1   2
ATOM      2  O   UNL A   1      39.445  22.653  26.719  1.00  0.00    -0.376 OA
BRANCH   2   3
ATOM      3  C   UNL A   1      38.421  23.583  26.391  1.00  0.00     0.202 C 
BRANCH   3   4
ATOM      4  C   UNL A   1      37.322  23.204  25.403  1.00  0.00     0.261 C 
BRANCH   4   5
ATOM      5  O   UNL A   1      36.229  24.142  25.379  1.00  0.00    -0.459 OA
BRANCH   5   6
ATOM      6  C   UNL A   1      35.314  23.914  24.408  1.00  0.00     0.364 C 
ATOM      7  O   UNL A   1      35.628  23.706  23.233  1.00  0.00    -0.245 OA
BRANCH   6   8
ATOM      8  C   UNL A   1      33.833  23.929  24.817  1.00  0.00     0.294 C 
BRANCH   8   9
ATOM      9  N   UNL A   1      33.051  25.199  24.698  1.00  0.00    -0.323 N 
ATOM     10  H   UNL A   1      33.549  25.562  23.884  1.00  0.00     0.348 HD
BRANCH   9  11
ATOM     11  C   UNL A   1      31.674  25.271  24.178  1.00  0.00     0.262 C 
BRANCH  11  12
ATOM     12  C   UNL A   1      30.573  26.095  24.858  1.00  0.00     0.058 C 
ATOM     13  C   UNL A   1      29.237  26.187  24.154  1.00  0.00     0.010 C 
ENDBRANCH  11  12
ENDBRANCH   9  11
BRANCH   9  14
ATOM     14  C   UNL A   1      33.157  26.026  25.946  1.00  0.00     0.266 C 
BRANCH  14  15
ATOM     15  C   UNL A   1      34.016  27.310  25.806  1.00  0.00     0.055 C 
ATOM     16  C   UNL A   1      33.631  28.429  26.787  1.00  0.00     0.071 C 
ATOM     17  C   UNL A   1      34.087  27.810  24.352  1.00  0.00     0.071 C 
ATOM     18  C   UNL A   1      32.558  29.375  26.262  1.00  0.00     0.261 C 
ATOM     19  C   UNL A   1      32.959  28.761  23.978  1.00  0.00     0.261 C 
ATOM     20  N   UNL A   1      32.894  29.866  24.929  1.00  0.00    -0.346 N 
ATOM     21  H   UNL A   1      33.799  30.335  24.961  1.00  0.00     0.346 HD
ATOM     22  H   UNL A   1      32.170  30.518  24.626  1.00  0.00     0.346 HD
ENDBRANCH  14  15
ENDBRANCH   9  14
ENDBRANCH   8   9
BRANCH   8  23
ATOM     23  C   UNL A   1      33.223  22.540  24.525  1.00  0.00     0.074 C 
ATOM     24  C   UNL A   1      33.364  21.465  25.583  1.00  0.00     0.011 C 
ENDBRANCH   8  23
ENDBRANCH   6   8
ENDBRANCH   5   6
ENDBRANCH   4   5
ENDBRANCH   3   4
ENDBRANCH   2   3
ENDBRANCH   1   2
BRANCH   1  25
ATOM     25  C   UNL A   1      41.733  21.615  26.219  1.00  0.00     0.188 C 
BRANCH  25  26
ATOM     26  O   UNL A   1      42.875  21.491  25.398  1.00  0.00    -0.376 OA
BRANCH  26  27
ATOM     27  C   UNL A   1      43.316  22.557  24.588  1.00  0.00     0.202 C 
BRANCH  27  28
ATOM     28  C   UNL A   1      44.108  23.707  25.203  1.00  0.00     0.261 C 
BRANCH  28  29
ATOM     29  O   UNL A   1      43.418  24.960  25.204  1.00  0.00    -0.460 OA
BRANCH  29  30
ATOM     30  C   UNL A   1      44.175  26.041  25.503  1.00  0.00     0.338 C 
ATOM     31  O   UNL A   1      44.902  26.679  24.756  1.00  0.00    -0.246 OA
BRANCH  30  32
ATOM     32  C   UNL A   1      43.842  26.465  26.872  1.00  0.00     0.060 A 
ATOM     33  C   UNL A   1      42.849  25.771  27.581  1.00  0.00     0.016 A 
ATOM     34  C   UNL A   1      44.520  27.535  27.455  1.00  0.00     0.016 A 
ATOM     35  C   UNL A   1      42.527  26.147  28.882  1.00  0.00     0.010 A 
ATOM     36  C   UNL A   1      44.163  27.942  28.737  1.00  0.00     0.010 A 
ATOM     37  C   UNL A   1      43.147  27.269  29.440  1.00  0.00    -0.014 A 
BRANCH  37  38
ATOM     38  C   UNL A   1      42.559  27.931  30.622  1.00  0.00     0.031 A 
ATOM     39  C   UNL A   1      41.319  28.748  30.396  1.00  0.00     0.074 A 
ATOM     40  C   UNL A   1      43.125  27.851  31.836  1.00  0.00     0.049 A 
ATOM     41  N   UNL A   1      40.726  29.598  31.190  1.00  0.00    -0.248 NA
ATOM     42  C   UNL A   1      40.673  28.597  29.080  1.00  0.00     0.031 C 
ATOM     43  C   UNL A   1      44.283  27.032  32.185  1.00  0.00     0.029 A 
ATOM     44  N   UNL A   1      42.807  28.505  33.000  1.00  0.00    -0.354 N 
ATOM     45  C   UNL A   1      39.650  30.093  30.466  1.00  0.00     0.074 A 
ATOM     46  C   UNL A   1      39.684  29.471  29.162  1.00  0.00     0.031 C 
ATOM     47  C   UNL A   1      44.600  27.257  33.473  1.00  0.00     0.029 A 
ATOM     48  C   UNL A   1      43.698  28.272  34.018  1.00  0.00     0.049 A 
ATOM     49  H   UNL A   1      42.016  29.084  33.095  1.00  0.00     0.167 HD
ATOM     50  C   UNL A   1      38.716  30.990  30.857  1.00  0.00     0.037 A 
ATOM     51  C   UNL A   1      43.790  28.851  35.231  1.00  0.00     0.037 A 
ATOM     52  C   UNL A   1      38.704  31.612  32.151  1.00  0.00     0.049 A 
ATOM     53  C   UNL A   1      42.800  29.927  35.606  1.00  0.00     0.074 A 
ATOM     54  C   UNL A   1      37.818  32.550  32.648  1.00  0.00     0.029 A 
ATOM     55  N   UNL A   1      39.629  31.358  33.152  1.00  0.00    -0.354 N 
ATOM     56  N   UNL A   1      41.790  30.404  34.918  1.00  0.00    -0.248 NA
ATOM     57  C   UNL A   1      42.966  30.549  36.928  1.00  0.00     0.031 C 
ATOM     58  C   UNL A   1      38.233  32.897  33.936  1.00  0.00     0.029 A 
ATOM     59  C   UNL A   1      39.340  32.128  34.263  1.00  0.00     0.049 A 
ATOM     60  H   UNL A   1      40.378  30.723  33.083  1.00  0.00     0.167 HD
ATOM     61  C   UNL A   1      41.172  31.339  35.741  1.00  0.00     0.074 A 
ATOM     62  C   UNL A   1      41.923  31.365  36.978  1.00  0.00     0.031 C 
ATOM     63  C   UNL A   1      40.079  32.105  35.499  1.00  0.00     0.037 A 
BRANCH  50  64
ATOM     64  C   UNL A   1      37.660  31.365  29.861  1.00  0.00     0.057 A 
ATOM     65  C   UNL A   1      36.534  30.560  29.639  1.00  0.00     0.134 A 
ATOM     66  C   UNL A   1      37.757  32.556  29.132  1.00  0.00     0.134 A 
ATOM     67  F   UNL A   1      36.393  29.394  30.289  1.00  0.00    -0.206 F 
ATOM     68  C   UNL A   1      35.554  30.917  28.713  1.00  0.00     0.040 A 
ATOM     69  C   UNL A   1      36.768  32.939  28.225  1.00  0.00     0.040 A 
ATOM     70  F   UNL A   1      38.811  33.371  29.294  1.00  0.00    -0.206 F 
ATOM     71  C   UNL A   1      35.665  32.116  28.010  1.00  0.00     0.006 A 
ENDBRANCH  50  64
BRANCH  51  72
ATOM     72  C   UNL A   1      44.867  28.460  36.178  1.00  0.00     0.057 A 
ATOM     73  C   UNL A   1      46.123  29.078  36.138  1.00  0.00     0.134 A 
ATOM     74  C   UNL A   1      44.692  27.423  37.102  1.00  0.00     0.134 A 
ATOM     75  F   UNL A   1      46.362  30.062  35.257  1.00  0.00    -0.206 F 
ATOM     76  C   UNL A   1      47.172  28.662  36.958  1.00  0.00     0.040 A 
ATOM     77  C   UNL A   1      45.724  27.016  37.951  1.00  0.00     0.040 A 
ATOM     78  F   UNL A   1      43.516  26.786  37.193  1.00  0.00    -0.206 F 
ATOM     79  C   UNL A   1      46.973  27.628  37.870  1.00  0.00     0.006 A 
ENDBRANCH  51  72
BRANCH  63  80
ATOM     80  C   UNL A   1      39.571  32.969  36.617  1.00  0.00     0.057 A 
ATOM     81  C   UNL A   1      40.051  34.264  36.841  1.00  0.00     0.134 A 
ATOM     82  C   UNL A   1      38.529  32.513  37.437  1.00  0.00     0.134 A 
ATOM     83  F   UNL A   1      41.054  34.757  36.099  1.00  0.00    -0.206 F 
ATOM     84  C   UNL A   1      39.525  35.069  37.854  1.00  0.00     0.040 A 
ATOM     85  C   UNL A   1      37.975  33.318  38.432  1.00  0.00     0.040 A 
ATOM     86  F   UNL A   1      38.015  31.285  37.266  1.00  0.00    -0.206 F 
ATOM     87  C   UNL A   1      38.478  34.600  38.645  1.00  0.00     0.006 A 
ENDBRANCH  63  80
ENDBRANCH  37  38
ENDBRANCH  30  32
ENDBRANCH  29  30
ENDBRANCH  28  29
ENDBRANCH  27  28
ENDBRANCH  26  27
ENDBRANCH  25  26
ENDBRANCH   1  25
TORSDOF 23
ENDMDL
MODEL 3
REMARK VINA RESULT:      -7.9      3.336      8.169
REMARK SMILES CCC[N@@H+](CC1CC[NH2+]CC1)[C@@H](CC)C(=O)OCCOCCOCCOC(=O)c1ccc(-c2c3nc(c(-c4c(F)cccc4F)c4ccc([nH]4)c(-c4c(F)cccc4F)c4nc(c(-c5c(F)cccc5F)c5ccc2[nH]5)C=C4)C=C3)cc1
REMARK SMILES IDX 21 1 20 2 19 3 18 4 17 5 15 6 16 7 12 8 4 9 3 11 2 12 1 13
REMARK SMILES IDX 5 14 6 15 7 16 11 17 8 18 10 19 9 20 13 23 14 24 22 25 23 26
REMARK SMILES IDX 24 27 25 28 26 29 27 30 28 31 29 32 30 33 82 34 31 35 81 36
REMARK SMILES IDX 32 37 33 38 34 39 75 40 35 41 80 42 74 43 76 44 36 45 79 46
REMARK SMILES IDX 73 47 72 48 37 50 63 51 46 52 62 53 47 54 50 55 61 56 77 57
REMARK SMILES IDX 48 58 49 59 60 61 78 62 51 63 38 64 39 65 44 66 40 67 41 68
REMARK SMILES IDX 43 69 45 70 42 71 64 72 65 73 70 74 66 75 67 76 69 77 71 78
REMARK SMILES IDX 68 79 52 80 53 81 58 82 54 83 55 84 57 85 59 86 56 87
REMARK H PARENT 4 10 9 21 9 22 76 49 50 60
REMARK Flexibility Score: inf
ROOT
ATOM      1  C   UNL A   1      33.968  31.312  27.810  1.00  0.00     0.188 C 
ENDROOT
BRANCH   1   2
ATOM      2  O   UNL A   1      33.784  30.435  26.718  1.00  0.00    -0.376 OA
BRANCH   2   3
ATOM      3  C   UNL A   1      33.018  29.250  26.888  1.00  0.00     0.202 C 
BRANCH   3   4
ATOM      4  C   UNL A   1      32.737  28.336  25.700  1.00  0.00     0.261 C 
BRANCH   4   5
ATOM      5  O   UNL A   1      33.694  28.477  24.634  1.00  0.00    -0.459 OA
BRANCH   5   6
ATOM      6  C   UNL A   1      33.200  28.231  23.398  1.00  0.00     0.364 C 
ATOM      7  O   UNL A   1      33.206  29.076  22.499  1.00  0.00    -0.245 OA
BRANCH   6   8
ATOM      8  C   UNL A   1      32.609  26.836  23.138  1.00  0.00     0.294 C 
BRANCH   8   9
ATOM      9  N   UNL A   1      31.153  26.702  22.825  1.00  0.00    -0.323 N 
ATOM     10  H   UNL A   1      31.261  26.019  22.076  1.00  0.00     0.348 HD
BRANCH   9  11
ATOM     11  C   UNL A   1      30.193  25.970  23.670  1.00  0.00     0.262 C 
BRANCH  11  12
ATOM     12  C   UNL A   1      30.622  24.870  24.650  1.00  0.00     0.058 C 
ATOM     13  C   UNL A   1      30.618  25.210  26.123  1.00  0.00     0.010 C 
ENDBRANCH  11  12
ENDBRANCH   9  11
BRANCH   9  14
ATOM     14  C   UNL A   1      30.557  28.019  22.421  1.00  0.00     0.266 C 
BRANCH  14  15
ATOM     15  C   UNL A   1      29.531  28.607  23.426  1.00  0.00     0.055 C 
ATOM     16  C   UNL A   1      28.072  28.525  22.948  1.00  0.00     0.071 C 
ATOM     17  C   UNL A   1      29.913  30.023  23.890  1.00  0.00     0.071 C 
ATOM     18  C   UNL A   1      27.613  29.733  22.140  1.00  0.00     0.261 C 
ATOM     19  C   UNL A   1      29.369  31.127  22.994  1.00  0.00     0.261 C 
ATOM     20  N   UNL A   1      27.926  30.981  22.831  1.00  0.00    -0.346 N 
ATOM     21  H   UNL A   1      27.483  30.976  23.749  1.00  0.00     0.346 HD
ATOM     22  H   UNL A   1      27.577  31.761  22.275  1.00  0.00     0.346 HD
ENDBRANCH  14  15
ENDBRANCH   9  14
ENDBRANCH   8   9
BRANCH   8  23
ATOM     23  C   UNL A   1      33.691  25.953  22.478  1.00  0.00     0.074 C 
ATOM     24  C   UNL A   1      33.948  24.583  23.069  1.00  0.00     0.011 C 
ENDBRANCH   8  23
ENDBRANCH   6   8
ENDBRANCH   5   6
ENDBRANCH   4   5
ENDBRANCH   3   4
ENDBRANCH   2   3
ENDBRANCH   1   2
BRANCH   1  25
ATOM     25  C   UNL A   1      33.443  32.759  27.739  1.00  0.00     0.188 C 
BRANCH  25  26
ATOM     26  O   UNL A   1      33.355  33.624  28.852  1.00  0.00    -0.376 OA
BRANCH  26  27
ATOM     27  C   UNL A   1      34.488  33.933  29.632  1.00  0.00     0.202 C 
BRANCH  27  28
ATOM     28  C   UNL A   1      34.736  33.194  30.944  1.00  0.00     0.261 C 
BRANCH  28  29
ATOM     29  O   UNL A   1      35.955  33.556  31.600  1.00  0.00    -0.460 OA
BRANCH  29  30
ATOM     30  C   UNL A   1      36.478  32.613  32.416  1.00  0.00     0.338 C 
ATOM     31  O   UNL A   1      35.935  32.042  33.350  1.00  0.00    -0.246 OA
BRANCH  30  32
ATOM     32  C   UNL A   1      37.793  32.226  31.880  1.00  0.00     0.060 A 
ATOM     33  C   UNL A   1      38.075  32.458  30.524  1.00  0.00     0.016 A 
ATOM     34  C   UNL A   1      38.747  31.652  32.720  1.00  0.00     0.016 A 
ATOM     35  C   UNL A   1      39.317  32.112  29.999  1.00  0.00     0.010 A 
ATOM     36  C   UNL A   1      39.970  31.261  32.184  1.00  0.00     0.010 A 
ATOM     37  C   UNL A   1      40.245  31.462  30.818  1.00  0.00    -0.014 A 
BRANCH  37  38
ATOM     38  C   UNL A   1      41.378  30.729  30.219  1.00  0.00     0.031 A 
ATOM     39  C   UNL A   1      42.641  31.508  29.982  1.00  0.00     0.074 A 
ATOM     40  C   UNL A   1      41.279  29.441  29.854  1.00  0.00     0.049 A 
ATOM     41  N   UNL A   1      43.698  31.189  29.286  1.00  0.00    -0.248 NA
ATOM     42  C   UNL A   1      42.707  32.842  30.605  1.00  0.00     0.031 C 
ATOM     43  C   UNL A   1      40.132  28.571  30.100  1.00  0.00     0.029 A 
ATOM     44  N   UNL A   1      42.164  28.652  29.164  1.00  0.00    -0.354 N 
ATOM     45  C   UNL A   1      44.544  32.285  29.372  1.00  0.00     0.074 A 
ATOM     46  C   UNL A   1      43.872  33.288  30.166  1.00  0.00     0.031 C 
ATOM     47  C   UNL A   1      40.371  27.372  29.538  1.00  0.00     0.029 A 
ATOM     48  C   UNL A   1      41.662  27.412  28.853  1.00  0.00     0.049 A 
ATOM     49  H   UNL A   1      43.071  28.946  28.916  1.00  0.00     0.167 HD
ATOM     50  C   UNL A   1      45.775  32.440  28.835  1.00  0.00     0.037 A 
ATOM     51  C   UNL A   1      42.178  26.447  28.067  1.00  0.00     0.037 A 
ATOM     52  C   UNL A   1      46.426  31.441  28.035  1.00  0.00     0.049 A 
ATOM     53  C   UNL A   1      43.507  26.685  27.392  1.00  0.00     0.074 A 
ATOM     54  C   UNL A   1      47.664  31.498  27.423  1.00  0.00     0.029 A 
ATOM     55  N   UNL A   1      45.882  30.201  27.734  1.00  0.00    -0.354 N 
ATOM     56  N   UNL A   1      44.302  27.725  27.464  1.00  0.00    -0.248 NA
ATOM     57  C   UNL A   1      44.008  25.612  26.519  1.00  0.00     0.031 C 
ATOM     58  C   UNL A   1      47.851  30.309  26.713  1.00  0.00     0.029 A 
ATOM     59  C   UNL A   1      46.756  29.487  26.936  1.00  0.00     0.049 A 
ATOM     60  H   UNL A   1      45.004  29.878  28.042  1.00  0.00     0.167 HD
ATOM     61  C   UNL A   1      45.417  27.411  26.694  1.00  0.00     0.074 A 
ATOM     62  C   UNL A   1      45.193  26.085  26.159  1.00  0.00     0.031 C 
ATOM     63  C   UNL A   1      46.528  28.150  26.451  1.00  0.00     0.037 A 
BRANCH  50  64
ATOM     64  C   UNL A   1      46.474  33.745  29.075  1.00  0.00     0.057 A 
ATOM     65  C   UNL A   1      47.325  33.938  30.171  1.00  0.00     0.134 A 
ATOM     66  C   UNL A   1      46.311  34.815  28.187  1.00  0.00     0.134 A 
ATOM     67  F   UNL A   1      47.506  32.960  31.072  1.00  0.00    -0.206 F 
ATOM     68  C   UNL A   1      47.974  35.154  30.385  1.00  0.00     0.040 A 
ATOM     69  C   UNL A   1      46.978  36.026  28.373  1.00  0.00     0.040 A 
ATOM     70  F   UNL A   1      45.508  34.699  27.118  1.00  0.00    -0.206 F 
ATOM     71  C   UNL A   1      47.808  36.200  29.478  1.00  0.00     0.006 A 
ENDBRANCH  50  64
BRANCH  51  72
ATOM     72  C   UNL A   1      41.440  25.176  27.844  1.00  0.00     0.057 A 
ATOM     73  C   UNL A   1      41.808  24.002  28.512  1.00  0.00     0.134 A 
ATOM     74  C   UNL A   1      40.393  25.086  26.919  1.00  0.00     0.134 A 
ATOM     75  F   UNL A   1      42.820  24.016  29.392  1.00  0.00    -0.206 F 
ATOM     76  C   UNL A   1      41.185  22.781  28.248  1.00  0.00     0.040 A 
ATOM     77  C   UNL A   1      39.739  23.878  26.667  1.00  0.00     0.040 A 
ATOM     78  F   UNL A   1      39.989  26.172  26.243  1.00  0.00    -0.206 F 
ATOM     79  C   UNL A   1      40.145  22.718  27.323  1.00  0.00     0.006 A 
ENDBRANCH  51  72
BRANCH  63  80
ATOM     80  C   UNL A   1      47.628  27.515  25.650  1.00  0.00     0.057 A 
ATOM     81  C   UNL A   1      47.691  27.614  24.256  1.00  0.00     0.134 A 
ATOM     82  C   UNL A   1      48.678  26.854  26.302  1.00  0.00     0.134 A 
ATOM     83  F   UNL A   1      46.713  28.224  23.570  1.00  0.00    -0.206 F 
ATOM     84  C   UNL A   1      48.752  27.061  23.536  1.00  0.00     0.040 A 
ATOM     85  C   UNL A   1      49.758  26.325  25.597  1.00  0.00     0.040 A 
ATOM     86  F   UNL A   1      48.684  26.736  27.639  1.00  0.00    -0.206 F 
ATOM     87  C   UNL A   1      49.795  26.424  24.207  1.00  0.00     0.006 A 
ENDBRANCH  63  80
ENDBRANCH  37  38
ENDBRANCH  30  32
ENDBRANCH  29  30
ENDBRANCH  28  29
ENDBRANCH  27  28
ENDBRANCH  26  27
ENDBRANCH  25  26
ENDBRANCH   1  25
TORSDOF 23
ENDMDL
