MODEL 1
REMARK VINA RESULT:     -10.6      0.000      0.000
REMARK SMILES N#C/C(=C\c1cn(CC(=O)OCCOCCOCCOC(=O)c2ccc(-c3c4nc(c(-c5c(F)cccc5F)c5ccc([nH]5)c(-c5c(F)cccc5F)c5nc(c(-c6c(F)cccc6F)c6ccc3[nH]6)C=C5)C=C4)cc2)c2ccccc12)C(=O)N1CCCC[C@@H]1C#N
REMARK SMILES IDX 14 1 13 2 12 3 11 4 9 5 10 6 8 7 7 8 5 9 6 10 82 11 77 12
REMARK SMILES IDX 81 13 78 14 80 15 79 16 4 17 3 18 2 19 1 20 83 21 84 22
REMARK SMILES IDX 85 23 86 24 90 25 87 26 89 27 88 28 91 29 92 30 15 31 16 32
REMARK SMILES IDX 17 33 18 34 19 35 20 36 21 37 22 38 23 39 24 40 76 41 25 42
REMARK SMILES IDX 75 43 26 44 27 45 28 46 69 47 29 48 74 49 68 50 70 51 30 52
REMARK SMILES IDX 73 53 67 54 66 55 31 57 57 58 40 59 56 60 41 61 44 62 55 63
REMARK SMILES IDX 71 64 42 65 43 66 54 68 72 69 45 70 32 71 33 72 38 73 34 74
REMARK SMILES IDX 35 75 37 76 39 77 36 78 58 79 59 80 64 81 60 82 61 83 63 84
REMARK SMILES IDX 65 85 62 86 46 87 47 88 52 89 48 90 49 91 51 92 53 93 50 94
REMARK H PARENT 70 56 44 67
REMARK Flexibility Score: inf
ROOT
ATOM      1  O   UNL A   1      41.172  19.561  27.243  1.00  0.00    -0.376 OA
ENDROOT
BRANCH   1   2
ATOM      2  C   UNL A   1      41.614  20.866  27.544  1.00  0.00     0.202 C 
BRANCH   2   3
ATOM      3  C   UNL A   1      40.894  22.024  26.842  1.00  0.00     0.261 C 
BRANCH   3   4
ATOM      4  O   UNL A   1      40.016  21.641  25.739  1.00  0.00    -0.462 OA
BRANCH   4   5
ATOM      5  C   UNL A   1      38.743  22.073  25.876  1.00  0.00     0.326 C 
ATOM      6  O   UNL A   1      38.518  23.119  26.488  1.00  0.00    -0.250 OA
BRANCH   5   7
ATOM      7  C   UNL A   1      37.601  21.372  25.129  1.00  0.00     0.244 C 
BRANCH   7   8
ATOM      8  N   UNL A   1      36.310  21.941  24.728  1.00  0.00    -0.336 N 
ATOM      9  C   UNL A   1      35.072  22.844  23.230  1.00  0.00     0.002 A 
ATOM     10  C   UNL A   1      36.355  22.768  23.638  1.00  0.00     0.095 A 
ATOM     11  C   UNL A   1      34.244  21.849  23.759  1.00  0.00     0.007 A 
ATOM     12  C   UNL A   1      34.990  21.449  24.859  1.00  0.00     0.049 A 
ATOM     13  C   UNL A   1      32.839  21.568  23.647  1.00  0.00     0.011 A 
ATOM     14  C   UNL A   1      34.190  20.949  25.884  1.00  0.00     0.027 A 
ATOM     15  C   UNL A   1      32.173  20.818  24.606  1.00  0.00     0.001 A 
ATOM     16  C   UNL A   1      32.872  20.480  25.729  1.00  0.00     0.002 A 
BRANCH   9  17
ATOM     17  C   UNL A   1      34.575  23.986  22.665  1.00  0.00     0.035 C 
ATOM     18  C   UNL A   1      33.894  24.838  23.430  1.00  0.00     0.118 C 
BRANCH  18  19
ATOM     19  C   UNL A   1      34.189  25.185  24.880  1.00  0.00     0.105 C 
ATOM     20  N   UNL A   1      34.434  25.474  26.083  1.00  0.00    -0.192 NA
ENDBRANCH  18  19
BRANCH  18  21
ATOM     21  C   UNL A   1      33.219  25.875  22.551  1.00  0.00     0.265 C 
ATOM     22  O   UNL A   1      33.754  26.195  21.491  1.00  0.00    -0.268 OA
BRANCH  21  23
ATOM     23  N   UNL A   1      31.936  26.354  22.898  1.00  0.00    -0.322 N 
ATOM     24  C   UNL A   1      30.799  25.455  22.694  1.00  0.00     0.121 C 
ATOM     25  C   UNL A   1      31.577  27.688  23.476  1.00  0.00     0.189 C 
ATOM     26  C   UNL A   1      30.096  25.207  24.032  1.00  0.00     0.022 C 
ATOM     27  C   UNL A   1      30.775  27.529  24.795  1.00  0.00     0.041 C 
ATOM     28  C   UNL A   1      29.635  26.511  24.684  1.00  0.00     0.005 C 
BRANCH  25  29
ATOM     29  C   UNL A   1      30.786  28.508  22.533  1.00  0.00     0.087 C 
ATOM     30  N   UNL A   1      30.131  29.178  21.827  1.00  0.00    -0.196 NA
ENDBRANCH  25  29
ENDBRANCH  21  23
ENDBRANCH  18  21
ENDBRANCH   9  17
ENDBRANCH   7   8
ENDBRANCH   5   7
ENDBRANCH   4   5
ENDBRANCH   3   4
ENDBRANCH   2   3
ENDBRANCH   1   2
BRANCH   1  31
ATOM     31  C   UNL A   1      42.040  18.722  26.525  1.00  0.00     0.188 C 
BRANCH  31  32
ATOM     32  C   UNL A   1      43.109  19.302  25.596  1.00  0.00     0.188 C 
BRANCH  32  33
ATOM     33  O   UNL A   1      44.081  18.455  25.073  1.00  0.00    -0.376 OA
BRANCH  33  34
ATOM     34  C   UNL A   1      45.137  19.091  24.386  1.00  0.00     0.202 C 
BRANCH  34  35
ATOM     35  C   UNL A   1      46.202  19.979  25.126  1.00  0.00     0.261 C 
BRANCH  35  36
ATOM     36  O   UNL A   1      46.328  21.400  24.734  1.00  0.00    -0.460 OA
BRANCH  36  37
ATOM     37  C   UNL A   1      45.252  22.023  24.133  1.00  0.00     0.338 C 
ATOM     38  O   UNL A   1      44.747  21.618  23.091  1.00  0.00    -0.246 OA
BRANCH  37  39
ATOM     39  C   UNL A   1      44.446  22.932  25.092  1.00  0.00     0.060 A 
ATOM     40  C   UNL A   1      43.787  24.137  24.914  1.00  0.00     0.016 A 
ATOM     41  C   UNL A   1      44.613  22.591  26.425  1.00  0.00     0.016 A 
ATOM     42  C   UNL A   1      43.553  25.003  26.061  1.00  0.00     0.010 A 
ATOM     43  C   UNL A   1      44.279  23.344  27.557  1.00  0.00     0.010 A 
ATOM     44  C   UNL A   1      43.901  24.658  27.401  1.00  0.00    -0.014 A 
BRANCH  44  45
ATOM     45  C   UNL A   1      43.536  25.392  28.674  1.00  0.00     0.031 A 
ATOM     46  C   UNL A   1      42.180  25.888  28.444  1.00  0.00     0.074 A 
ATOM     47  C   UNL A   1      44.036  25.629  29.930  1.00  0.00     0.049 A 
ATOM     48  N   UNL A   1      41.984  26.956  27.751  1.00  0.00    -0.248 NA
ATOM     49  C   UNL A   1      40.996  25.049  28.638  1.00  0.00     0.031 C 
ATOM     50  C   UNL A   1      45.301  25.271  30.517  1.00  0.00     0.029 A 
ATOM     51  N   UNL A   1      43.499  26.323  31.012  1.00  0.00    -0.354 N 
ATOM     52  C   UNL A   1      40.623  27.100  27.731  1.00  0.00     0.074 A 
ATOM     53  C   UNL A   1      40.095  25.782  27.971  1.00  0.00     0.031 C 
ATOM     54  C   UNL A   1      45.359  25.400  31.861  1.00  0.00     0.029 A 
ATOM     55  C   UNL A   1      44.197  26.170  32.243  1.00  0.00     0.049 A 
ATOM     56  H   UNL A   1      42.691  26.881  30.930  1.00  0.00     0.167 HD
ATOM     57  C   UNL A   1      40.121  28.343  27.945  1.00  0.00     0.037 A 
ATOM     58  C   UNL A   1      44.169  26.896  33.405  1.00  0.00     0.037 A 
ATOM     59  C   UNL A   1      41.180  29.345  27.860  1.00  0.00     0.049 A 
ATOM     60  C   UNL A   1      43.630  28.227  33.077  1.00  0.00     0.074 A 
ATOM     61  C   UNL A   1      42.133  29.703  26.920  1.00  0.00     0.029 A 
ATOM     62  N   UNL A   1      41.633  29.863  29.049  1.00  0.00    -0.354 N 
ATOM     63  N   UNL A   1      44.294  29.120  32.401  1.00  0.00    -0.248 NA
ATOM     64  C   UNL A   1      42.187  28.327  33.026  1.00  0.00     0.031 C 
ATOM     65  C   UNL A   1      43.305  30.042  27.666  1.00  0.00     0.029 A 
ATOM     66  C   UNL A   1      42.998  29.975  29.023  1.00  0.00     0.049 A 
ATOM     67  H   UNL A   1      41.060  30.116  29.809  1.00  0.00     0.167 HD
ATOM     68  C   UNL A   1      43.391  29.541  31.441  1.00  0.00     0.074 A 
ATOM     69  C   UNL A   1      42.089  29.057  31.913  1.00  0.00     0.031 C 
ATOM     70  C   UNL A   1      43.820  29.966  30.215  1.00  0.00     0.037 A 
BRANCH  57  71
ATOM     71  C   UNL A   1      38.851  28.591  28.716  1.00  0.00     0.057 A 
ATOM     72  C   UNL A   1      38.635  28.280  30.076  1.00  0.00     0.134 A 
ATOM     73  C   UNL A   1      37.906  29.457  28.144  1.00  0.00     0.134 A 
ATOM     74  F   UNL A   1      39.454  27.510  30.798  1.00  0.00    -0.206 F 
ATOM     75  C   UNL A   1      37.597  28.833  30.822  1.00  0.00     0.040 A 
ATOM     76  C   UNL A   1      36.894  30.056  28.895  1.00  0.00     0.040 A 
ATOM     77  F   UNL A   1      38.003  29.824  26.856  1.00  0.00    -0.206 F 
ATOM     78  C   UNL A   1      36.744  29.755  30.242  1.00  0.00     0.006 A 
ENDBRANCH  57  71
BRANCH  58  79
ATOM     79  C   UNL A   1      44.340  26.465  34.826  1.00  0.00     0.057 A 
ATOM     80  C   UNL A   1      43.270  25.921  35.552  1.00  0.00     0.134 A 
ATOM     81  C   UNL A   1      45.458  26.849  35.596  1.00  0.00     0.134 A 
ATOM     82  F   UNL A   1      42.146  25.538  34.929  1.00  0.00    -0.206 F 
ATOM     83  C   UNL A   1      43.278  25.829  36.952  1.00  0.00     0.040 A 
ATOM     84  C   UNL A   1      45.480  26.758  36.999  1.00  0.00     0.040 A 
ATOM     85  F   UNL A   1      46.537  27.391  35.012  1.00  0.00    -0.206 F 
ATOM     86  C   UNL A   1      44.376  26.267  37.684  1.00  0.00     0.006 A 
ENDBRANCH  58  79
BRANCH  70  87
ATOM     87  C   UNL A   1      45.280  30.321  30.067  1.00  0.00     0.057 A 
ATOM     88  C   UNL A   1      45.659  31.646  30.317  1.00  0.00     0.134 A 
ATOM     89  C   UNL A   1      46.293  29.452  29.631  1.00  0.00     0.134 A 
ATOM     90  F   UNL A   1      44.740  32.548  30.697  1.00  0.00    -0.206 F 
ATOM     91  C   UNL A   1      46.974  32.088  30.161  1.00  0.00     0.040 A 
ATOM     92  C   UNL A   1      47.624  29.875  29.497  1.00  0.00     0.040 A 
ATOM     93  F   UNL A   1      46.024  28.185  29.292  1.00  0.00    -0.206 F 
ATOM     94  C   UNL A   1      47.967  31.198  29.763  1.00  0.00     0.006 A 
ENDBRANCH  70  87
ENDBRANCH  44  45
ENDBRANCH  37  39
ENDBRANCH  36  37
ENDBRANCH  35  36
ENDBRANCH  34  35
ENDBRANCH  33  34
ENDBRANCH  32  33
ENDBRANCH  31  32
ENDBRANCH   1  31
TORSDOF 23
ENDMDL
MODEL 2
REMARK VINA RESULT:     -10.1      1.772      5.272
REMARK SMILES N#C/C(=C\c1cn(CC(=O)OCCOCCOCCOC(=O)c2ccc(-c3c4nc(c(-c5c(F)cccc5F)c5ccc([nH]5)c(-c5c(F)cccc5F)c5nc(c(-c6c(F)cccc6F)c6ccc3[nH]6)C=C5)C=C4)cc2)c2ccccc12)C(=O)N1CCCC[C@@H]1C#N
REMARK SMILES IDX 14 1 13 2 12 3 11 4 9 5 10 6 8 7 7 8 5 9 6 10 82 11 77 12
REMARK SMILES IDX 81 13 78 14 80 15 79 16 4 17 3 18 2 19 1 20 83 21 84 22
REMARK SMILES IDX 85 23 86 24 90 25 87 26 89 27 88 28 91 29 92 30 15 31 16 32
REMARK SMILES IDX 17 33 18 34 19 35 20 36 21 37 22 38 23 39 24 40 76 41 25 42
REMARK SMILES IDX 75 43 26 44 27 45 28 46 69 47 29 48 74 49 68 50 70 51 30 52
REMARK SMILES IDX 73 53 67 54 66 55 31 57 57 58 40 59 56 60 41 61 44 62 55 63
REMARK SMILES IDX 71 64 42 65 43 66 54 68 72 69 45 70 32 71 33 72 38 73 34 74
REMARK SMILES IDX 35 75 37 76 39 77 36 78 58 79 59 80 64 81 60 82 61 83 63 84
REMARK SMILES IDX 65 85 62 86 46 87 47 88 52 89 48 90 49 91 51 92 53 93 50 94
REMARK H PARENT 70 56 44 67
REMARK Flexibility Score: inf
ROOT
ATOM      1  O   UNL A   1      41.255  20.454  28.030  1.00  0.00    -0.376 OA
ENDROOT
BRANCH   1   2
ATOM      2  C   UNL A   1      41.724  21.633  27.414  1.00  0.00     0.202 C 
BRANCH   2   3
ATOM      3  C   UNL A   1      40.772  22.336  26.440  1.00  0.00     0.261 C 
BRANCH   3   4
ATOM      4  O   UNL A   1      39.701  21.503  25.898  1.00  0.00    -0.462 OA
BRANCH   4   5
ATOM      5  C   UNL A   1      38.501  22.121  25.839  1.00  0.00     0.326 C 
ATOM      6  O   UNL A   1      38.418  23.317  26.127  1.00  0.00    -0.250 OA
BRANCH   5   7
ATOM      7  C   UNL A   1      37.284  21.398  25.248  1.00  0.00     0.244 C 
BRANCH   7   8
ATOM      8  N   UNL A   1      36.041  21.997  24.748  1.00  0.00    -0.336 N 
ATOM      9  C   UNL A   1      34.974  23.016  23.193  1.00  0.00     0.002 A 
ATOM     10  C   UNL A   1      36.203  22.909  23.739  1.00  0.00     0.095 A 
ATOM     11  C   UNL A   1      34.101  21.982  23.544  1.00  0.00     0.007 A 
ATOM     12  C   UNL A   1      34.720  21.496  24.687  1.00  0.00     0.049 A 
ATOM     13  C   UNL A   1      32.721  21.711  23.249  1.00  0.00     0.011 A 
ATOM     14  C   UNL A   1      33.813  20.915  25.570  1.00  0.00     0.027 A 
ATOM     15  C   UNL A   1      31.957  20.885  24.062  1.00  0.00     0.001 A 
ATOM     16  C   UNL A   1      32.525  20.459  25.228  1.00  0.00     0.002 A 
BRANCH   9  17
ATOM     17  C   UNL A   1      34.535  24.199  22.667  1.00  0.00     0.035 C 
ATOM     18  C   UNL A   1      33.767  24.990  23.416  1.00  0.00     0.118 C 
BRANCH  18  19
ATOM     19  C   UNL A   1      33.898  25.223  24.912  1.00  0.00     0.105 C 
ATOM     20  N   UNL A   1      34.007  25.416  26.154  1.00  0.00    -0.192 NA
ENDBRANCH  18  19
BRANCH  18  21
ATOM     21  C   UNL A   1      33.185  26.093  22.552  1.00  0.00     0.265 C 
ATOM     22  O   UNL A   1      33.803  26.451  21.550  1.00  0.00    -0.268 OA
BRANCH  21  23
ATOM     23  N   UNL A   1      31.895  26.595  22.835  1.00  0.00    -0.322 N 
ATOM     24  C   UNL A   1      30.751  25.738  22.518  1.00  0.00     0.121 C 
ATOM     25  C   UNL A   1      31.534  27.913  23.447  1.00  0.00     0.189 C 
ATOM     26  C   UNL A   1      29.954  25.454  23.795  1.00  0.00     0.022 C 
ATOM     27  C   UNL A   1      30.641  27.721  24.703  1.00  0.00     0.041 C 
ATOM     28  C   UNL A   1      29.486  26.742  24.473  1.00  0.00     0.005 C 
BRANCH  25  29
ATOM     29  C   UNL A   1      30.828  28.794  22.491  1.00  0.00     0.087 C 
ATOM     30  N   UNL A   1      30.235  29.452  21.723  1.00  0.00    -0.196 NA
ENDBRANCH  25  29
ENDBRANCH  21  23
ENDBRANCH  18  21
ENDBRANCH   9  17
ENDBRANCH   7   8
ENDBRANCH   5   7
ENDBRANCH   4   5
ENDBRANCH   3   4
ENDBRANCH   2   3
ENDBRANCH   1   2
BRANCH   1  31
ATOM     31  C   UNL A   1      41.876  19.241  27.688  1.00  0.00     0.188 C 
BRANCH  31  32
ATOM     32  C   UNL A   1      42.757  19.130  26.442  1.00  0.00     0.188 C 
BRANCH  32  33
ATOM     33  O   UNL A   1      43.637  18.058  26.330  1.00  0.00    -0.376 OA
BRANCH  33  34
ATOM     34  C   UNL A   1      44.614  18.175  25.319  1.00  0.00     0.202 C 
BRANCH  34  35
ATOM     35  C   UNL A   1      45.937  18.999  25.526  1.00  0.00     0.261 C 
BRANCH  35  36
ATOM     36  O   UNL A   1      46.408  19.863  24.422  1.00  0.00    -0.460 OA
BRANCH  36  37
ATOM     37  C   UNL A   1      45.523  20.758  23.853  1.00  0.00     0.338 C 
ATOM     38  O   UNL A   1      44.552  20.402  23.193  1.00  0.00    -0.246 OA
BRANCH  37  39
ATOM     39  C   UNL A   1      45.558  22.163  24.500  1.00  0.00     0.060 A 
ATOM     40  C   UNL A   1      46.447  22.778  25.366  1.00  0.00     0.016 A 
ATOM     41  C   UNL A   1      44.359  22.846  24.372  1.00  0.00     0.016 A 
ATOM     42  C   UNL A   1      45.992  23.884  26.196  1.00  0.00     0.010 A 
ATOM     43  C   UNL A   1      43.939  23.991  25.059  1.00  0.00     0.010 A 
ATOM     44  C   UNL A   1      44.679  24.440  26.129  1.00  0.00    -0.014 A 
BRANCH  44  45
ATOM     45  C   UNL A   1      44.167  25.695  26.802  1.00  0.00     0.031 A 
ATOM     46  C   UNL A   1      45.112  26.741  26.414  1.00  0.00     0.074 A 
ATOM     47  C   UNL A   1      43.093  26.128  27.541  1.00  0.00     0.049 A 
ATOM     48  N   UNL A   1      46.242  26.857  27.020  1.00  0.00    -0.248 NA
ATOM     49  C   UNL A   1      45.020  27.442  25.132  1.00  0.00     0.031 C 
ATOM     50  C   UNL A   1      41.967  25.402  28.069  1.00  0.00     0.029 A 
ATOM     51  N   UNL A   1      42.779  27.388  28.046  1.00  0.00    -0.354 N 
ATOM     52  C   UNL A   1      46.856  27.905  26.390  1.00  0.00     0.074 A 
ATOM     53  C   UNL A   1      46.246  27.980  25.088  1.00  0.00     0.031 C 
ATOM     54  C   UNL A   1      40.945  26.176  28.499  1.00  0.00     0.029 A 
ATOM     55  C   UNL A   1      41.463  27.524  28.572  1.00  0.00     0.049 A 
ATOM     56  H   UNL A   1      43.423  28.133  28.039  1.00  0.00     0.167 HD
ATOM     57  C   UNL A   1      47.474  28.830  27.168  1.00  0.00     0.037 A 
ATOM     58  C   UNL A   1      40.902  28.463  29.398  1.00  0.00     0.037 A 
ATOM     59  C   UNL A   1      47.605  28.341  28.538  1.00  0.00     0.049 A 
ATOM     60  C   UNL A   1      42.004  29.133  30.109  1.00  0.00     0.074 A 
ATOM     61  C   UNL A   1      48.146  27.217  29.142  1.00  0.00     0.029 A 
ATOM     62  N   UNL A   1      46.736  28.867  29.464  1.00  0.00    -0.354 N 
ATOM     63  N   UNL A   1      42.703  28.561  31.046  1.00  0.00    -0.248 NA
ATOM     64  C   UNL A   1      42.654  30.210  29.391  1.00  0.00     0.031 C 
ATOM     65  C   UNL A   1      47.262  26.893  30.218  1.00  0.00     0.029 A 
ATOM     66  C   UNL A   1      46.279  27.877  30.293  1.00  0.00     0.049 A 
ATOM     67  H   UNL A   1      46.480  29.816  29.522  1.00  0.00     0.167 HD
ATOM     68  C   UNL A   1      44.012  28.825  30.684  1.00  0.00     0.074 A 
ATOM     69  C   UNL A   1      43.917  29.896  29.686  1.00  0.00     0.031 C 
ATOM     70  C   UNL A   1      45.014  27.949  30.995  1.00  0.00     0.037 A 
BRANCH  57  71
ATOM     71  C   UNL A   1      47.479  30.301  26.844  1.00  0.00     0.057 A 
ATOM     72  C   UNL A   1      46.338  31.123  26.715  1.00  0.00     0.134 A 
ATOM     73  C   UNL A   1      48.697  30.986  26.966  1.00  0.00     0.134 A 
ATOM     74  F   UNL A   1      45.091  30.650  26.633  1.00  0.00    -0.206 F 
ATOM     75  C   UNL A   1      46.399  32.513  26.763  1.00  0.00     0.040 A 
ATOM     76  C   UNL A   1      48.763  32.377  27.067  1.00  0.00     0.040 A 
ATOM     77  F   UNL A   1      49.852  30.314  27.093  1.00  0.00    -0.206 F 
ATOM     78  C   UNL A   1      47.610  33.145  26.978  1.00  0.00     0.006 A 
ENDBRANCH  57  71
BRANCH  58  79
ATOM     79  C   UNL A   1      39.510  29.003  29.453  1.00  0.00     0.057 A 
ATOM     80  C   UNL A   1      38.724  28.863  30.607  1.00  0.00     0.134 A 
ATOM     81  C   UNL A   1      38.812  29.395  28.291  1.00  0.00     0.134 A 
ATOM     82  F   UNL A   1      39.274  28.475  31.766  1.00  0.00    -0.206 F 
ATOM     83  C   UNL A   1      37.331  29.031  30.595  1.00  0.00     0.040 A 
ATOM     84  C   UNL A   1      37.417  29.571  28.267  1.00  0.00     0.040 A 
ATOM     85  F   UNL A   1      39.456  29.551  27.125  1.00  0.00    -0.206 F 
ATOM     86  C   UNL A   1      36.668  29.366  29.420  1.00  0.00     0.006 A 
ENDBRANCH  58  79
BRANCH  70  87
ATOM     87  C   UNL A   1      44.731  26.903  32.046  1.00  0.00     0.057 A 
ATOM     88  C   UNL A   1      44.434  25.605  31.614  1.00  0.00     0.134 A 
ATOM     89  C   UNL A   1      44.670  27.131  33.431  1.00  0.00     0.134 A 
ATOM     90  F   UNL A   1      44.431  25.317  30.303  1.00  0.00    -0.206 F 
ATOM     91  C   UNL A   1      44.110  24.578  32.503  1.00  0.00     0.040 A 
ATOM     92  C   UNL A   1      44.373  26.103  34.337  1.00  0.00     0.040 A 
ATOM     93  F   UNL A   1      44.862  28.353  33.944  1.00  0.00    -0.206 F 
ATOM     94  C   UNL A   1      44.092  24.821  33.873  1.00  0.00     0.006 A 
ENDBRANCH  70  87
ENDBRANCH  44  45
ENDBRANCH  37  39
ENDBRANCH  36  37
ENDBRANCH  35  36
ENDBRANCH  34  35
ENDBRANCH  33  34
ENDBRANCH  32  33
ENDBRANCH  31  32
ENDBRANCH   1  31
TORSDOF 23
ENDMDL
MODEL 3
REMARK VINA RESULT:      -9.6      7.433     12.599
REMARK SMILES N#C/C(=C\c1cn(CC(=O)OCCOCCOCCOC(=O)c2ccc(-c3c4nc(c(-c5c(F)cccc5F)c5ccc([nH]5)c(-c5c(F)cccc5F)c5nc(c(-c6c(F)cccc6F)c6ccc3[nH]6)C=C5)C=C4)cc2)c2ccccc12)C(=O)N1CCCC[C@@H]1C#N
REMARK SMILES IDX 14 1 13 2 12 3 11 4 9 5 10 6 8 7 7 8 5 9 6 10 82 11 77 12
REMARK SMILES IDX 81 13 78 14 80 15 79 16 4 17 3 18 2 19 1 20 83 21 84 22
REMARK SMILES IDX 85 23 86 24 90 25 87 26 89 27 88 28 91 29 92 30 15 31 16 32
REMARK SMILES IDX 17 33 18 34 19 35 20 36 21 37 22 38 23 39 24 40 76 41 25 42
REMARK SMILES IDX 75 43 26 44 27 45 28 46 69 47 29 48 74 49 68 50 70 51 30 52
REMARK SMILES IDX 73 53 67 54 66 55 31 57 57 58 40 59 56 60 41 61 44 62 55 63
REMARK SMILES IDX 71 64 42 65 43 66 54 68 72 69 45 70 32 71 33 72 38 73 34 74
REMARK SMILES IDX 35 75 37 76 39 77 36 78 58 79 59 80 64 81 60 82 61 83 63 84
REMARK SMILES IDX 65 85 62 86 46 87 47 88 52 89 48 90 49 91 51 92 53 93 50 94
REMARK H PARENT 70 56 44 67
REMARK Flexibility Score: inf
ROOT
ATOM      1  O   UNL A   1      34.398  32.739  30.559  1.00  0.00    -0.376 OA
ENDROOT
BRANCH   1   2
ATOM      2  C   UNL A   1      34.502  33.369  29.302  1.00  0.00     0.202 C 
BRANCH   2   3
ATOM      3  C   UNL A   1      34.140  32.529  28.071  1.00  0.00     0.261 C 
BRANCH   3   4
ATOM      4  O   UNL A   1      34.159  31.082  28.271  1.00  0.00    -0.462 OA
BRANCH   4   5
ATOM      5  C   UNL A   1      34.199  30.370  27.122  1.00  0.00     0.326 C 
ATOM      6  O   UNL A   1      35.270  29.896  26.738  1.00  0.00    -0.250 OA
BRANCH   5   7
ATOM      7  C   UNL A   1      32.901  29.999  26.394  1.00  0.00     0.244 C 
BRANCH   7   8
ATOM      8  N   UNL A   1      32.619  28.776  25.634  1.00  0.00    -0.336 N 
ATOM      9  C   UNL A   1      32.565  26.636  25.525  1.00  0.00     0.002 A 
ATOM     10  C   UNL A   1      33.251  27.651  26.090  1.00  0.00     0.095 A 
ATOM     11  C   UNL A   1      31.316  27.005  25.015  1.00  0.00     0.007 A 
ATOM     12  C   UNL A   1      31.481  28.378  24.893  1.00  0.00     0.049 A 
ATOM     13  C   UNL A   1      30.289  26.294  24.306  1.00  0.00     0.011 A 
ATOM     14  C   UNL A   1      30.690  28.915  23.880  1.00  0.00     0.027 A 
ATOM     15  C   UNL A   1      29.362  26.959  23.516  1.00  0.00     0.001 A 
ATOM     16  C   UNL A   1      29.552  28.298  23.326  1.00  0.00     0.002 A 
BRANCH   9  17
ATOM     17  C   UNL A   1      33.190  25.475  25.164  1.00  0.00     0.035 C 
ATOM     18  C   UNL A   1      33.278  25.167  23.871  1.00  0.00     0.118 C 
BRANCH  18  19
ATOM     19  C   UNL A   1      33.511  26.137  22.725  1.00  0.00     0.105 C 
ATOM     20  N   UNL A   1      33.704  26.942  21.774  1.00  0.00    -0.192 NA
ENDBRANCH  18  19
BRANCH  18  21
ATOM     21  C   UNL A   1      33.756  23.734  23.726  1.00  0.00     0.265 C 
ATOM     22  O   UNL A   1      34.391  23.418  22.721  1.00  0.00    -0.268 OA
BRANCH  21  23
ATOM     23  N   UNL A   1      33.581  22.828  24.797  1.00  0.00    -0.322 N 
ATOM     24  C   UNL A   1      34.776  22.406  25.530  1.00  0.00     0.121 C 
ATOM     25  C   UNL A   1      32.301  22.240  25.304  1.00  0.00     0.189 C 
ATOM     26  C   UNL A   1      34.637  22.798  27.004  1.00  0.00     0.022 C 
ATOM     27  C   UNL A   1      32.123  22.510  26.822  1.00  0.00     0.041 C 
ATOM     28  C   UNL A   1      33.382  22.197  27.637  1.00  0.00     0.005 C 
BRANCH  25  29
ATOM     29  C   UNL A   1      32.228  20.781  25.068  1.00  0.00     0.087 C 
ATOM     30  N   UNL A   1      32.222  19.621  24.897  1.00  0.00    -0.196 NA
ENDBRANCH  25  29
ENDBRANCH  21  23
ENDBRANCH  18  21
ENDBRANCH   9  17
ENDBRANCH   7   8
ENDBRANCH   5   7
ENDBRANCH   4   5
ENDBRANCH   3   4
ENDBRANCH   2   3
ENDBRANCH   1   2
BRANCH   1  31
ATOM     31  C   UNL A   1      34.543  33.535  31.708  1.00  0.00     0.188 C 
BRANCH  31  32
ATOM     32  C   UNL A   1      35.430  33.085  32.872  1.00  0.00     0.188 C 
BRANCH  32  33
ATOM     33  O   UNL A   1      36.476  33.907  33.280  1.00  0.00    -0.376 OA
BRANCH  33  34
ATOM     34  C   UNL A   1      37.576  33.245  33.866  1.00  0.00     0.202 C 
BRANCH  34  35
ATOM     35  C   UNL A   1      39.045  33.436  33.340  1.00  0.00     0.261 C 
BRANCH  35  36
ATOM     36  O   UNL A   1      39.497  32.611  32.199  1.00  0.00    -0.460 OA
BRANCH  36  37
ATOM     37  C   UNL A   1      40.795  32.751  31.749  1.00  0.00     0.338 C 
ATOM     38  O   UNL A   1      41.586  31.814  31.699  1.00  0.00    -0.246 OA
BRANCH  37  39
ATOM     39  C   UNL A   1      41.018  34.011  30.878  1.00  0.00     0.060 A 
ATOM     40  C   UNL A   1      40.344  34.531  29.785  1.00  0.00     0.016 A 
ATOM     41  C   UNL A   1      42.255  34.600  31.088  1.00  0.00     0.016 A 
ATOM     42  C   UNL A   1      41.041  35.421  28.869  1.00  0.00     0.010 A 
ATOM     43  C   UNL A   1      42.901  35.557  30.298  1.00  0.00     0.010 A 
ATOM     44  C   UNL A   1      42.385  35.864  29.060  1.00  0.00    -0.014 A 
BRANCH  44  45
ATOM     45  C   UNL A   1      43.132  36.925  28.280  1.00  0.00     0.031 A 
ATOM     46  C   UNL A   1      44.363  36.270  27.840  1.00  0.00     0.074 A 
ATOM     47  C   UNL A   1      42.957  38.205  27.816  1.00  0.00     0.049 A 
ATOM     48  N   UNL A   1      45.358  36.139  28.648  1.00  0.00    -0.248 NA
ATOM     49  C   UNL A   1      44.414  35.419  26.650  1.00  0.00     0.031 C 
ATOM     50  C   UNL A   1      41.875  39.134  28.014  1.00  0.00     0.029 A 
ATOM     51  N   UNL A   1      43.786  39.019  27.047  1.00  0.00    -0.354 N 
ATOM     52  C   UNL A   1      46.304  35.478  27.913  1.00  0.00     0.074 A 
ATOM     53  C   UNL A   1      45.574  34.789  26.880  1.00  0.00     0.031 C 
ATOM     54  C   UNL A   1      41.881  40.198  27.182  1.00  0.00     0.029 A 
ATOM     55  C   UNL A   1      43.183  40.211  26.553  1.00  0.00     0.049 A 
ATOM     56  H   UNL A   1      44.724  38.787  26.857  1.00  0.00     0.167 HD
ATOM     57  C   UNL A   1      47.583  35.924  27.991  1.00  0.00     0.037 A 
ATOM     58  C   UNL A   1      43.722  41.365  26.045  1.00  0.00     0.037 A 
ATOM     59  C   UNL A   1      47.732  36.862  29.100  1.00  0.00     0.049 A 
ATOM     60  C   UNL A   1      45.118  41.437  26.510  1.00  0.00     0.074 A 
ATOM     61  C   UNL A   1      47.475  36.837  30.461  1.00  0.00     0.029 A 
ATOM     62  N   UNL A   1      47.811  38.194  28.772  1.00  0.00    -0.354 N 
ATOM     63  N   UNL A   1      45.448  41.691  27.743  1.00  0.00    -0.248 NA
ATOM     64  C   UNL A   1      46.080  40.689  25.729  1.00  0.00     0.031 C 
ATOM     65  C   UNL A   1      46.993  38.143  30.789  1.00  0.00     0.029 A 
ATOM     66  C   UNL A   1      47.067  38.939  29.648  1.00  0.00     0.049 A 
ATOM     67  H   UNL A   1      48.327  38.560  28.017  1.00  0.00     0.167 HD
ATOM     68  C   UNL A   1      46.375  40.708  28.042  1.00  0.00     0.074 A 
ATOM     69  C   UNL A   1      46.768  40.155  26.741  1.00  0.00     0.031 C 
ATOM     70  C   UNL A   1      46.504  40.231  29.316  1.00  0.00     0.037 A 
BRANCH  57  71
ATOM     71  C   UNL A   1      48.521  35.931  26.812  1.00  0.00     0.057 A 
ATOM     72  C   UNL A   1      48.353  36.678  25.626  1.00  0.00     0.134 A 
ATOM     73  C   UNL A   1      49.803  35.394  27.003  1.00  0.00     0.134 A 
ATOM     74  F   UNL A   1      47.217  37.301  25.298  1.00  0.00    -0.206 F 
ATOM     75  C   UNL A   1      49.393  36.921  24.733  1.00  0.00     0.040 A 
ATOM     76  C   UNL A   1      50.864  35.674  26.140  1.00  0.00     0.040 A 
ATOM     77  F   UNL A   1      50.085  34.662  28.092  1.00  0.00    -0.206 F 
ATOM     78  C   UNL A   1      50.664  36.451  25.007  1.00  0.00     0.006 A 
ENDBRANCH  57  71
BRANCH  58  79
ATOM     79  C   UNL A   1      43.212  42.295  24.992  1.00  0.00     0.057 A 
ATOM     80  C   UNL A   1      42.183  41.908  24.121  1.00  0.00     0.134 A 
ATOM     81  C   UNL A   1      43.916  43.458  24.616  1.00  0.00     0.134 A 
ATOM     82  F   UNL A   1      41.458  40.807  24.365  1.00  0.00    -0.206 F 
ATOM     83  C   UNL A   1      41.914  42.587  22.922  1.00  0.00     0.040 A 
ATOM     84  C   UNL A   1      43.654  44.150  23.420  1.00  0.00     0.040 A 
ATOM     85  F   UNL A   1      44.928  43.918  25.367  1.00  0.00    -0.206 F 
ATOM     86  C   UNL A   1      42.663  43.699  22.556  1.00  0.00     0.006 A 
ENDBRANCH  58  79
BRANCH  70  87
ATOM     87  C   UNL A   1      45.899  41.045  30.435  1.00  0.00     0.057 A 
ATOM     88  C   UNL A   1      46.760  41.831  31.211  1.00  0.00     0.134 A 
ATOM     89  C   UNL A   1      44.548  41.034  30.816  1.00  0.00     0.134 A 
ATOM     90  F   UNL A   1      48.074  41.862  30.935  1.00  0.00    -0.206 F 
ATOM     91  C   UNL A   1      46.309  42.582  32.298  1.00  0.00     0.040 A 
ATOM     92  C   UNL A   1      44.076  41.804  31.889  1.00  0.00     0.040 A 
ATOM     93  F   UNL A   1      43.655  40.258  30.190  1.00  0.00    -0.206 F 
ATOM     94  C   UNL A   1      44.959  42.582  32.633  1.00  0.00     0.006 A 
ENDBRANCH  70  87
ENDBRANCH  44  45
ENDBRANCH  37  39
ENDBRANCH  36  37
ENDBRANCH  35  36
ENDBRANCH  34  35
ENDBRANCH  33  34
ENDBRANCH  32  33
ENDBRANCH  31  32
ENDBRANCH   1  31
TORSDOF 23
ENDMDL
