MODEL 1
REMARK VINA RESULT:      -9.1      0.000      0.000
REMARK SMILES CC(C)[C@](C)(CC(=O)NC#N)C(=O)OCCOCCOCCOC(=O)c1ccc(-c2c3nc(c(-c4c(F)cccc4F)c4ccc([nH]4)c(-c4c(F)cccc4F)c4nc(c(-c5c(F)cccc5F)c5ccc2[nH]5)C=C4)C=C3)cc1
REMARK SMILES IDX 18 1 17 2 16 3 15 4 14 5 12 6 13 7 4 8 5 9 2 10 1 11 3 12
REMARK SMILES IDX 6 13 7 14 8 15 9 16 10 18 11 19 19 20 20 21 21 22 22 23
REMARK SMILES IDX 23 24 24 25 25 26 26 27 27 28 79 29 28 30 78 31 29 32 30 33
REMARK SMILES IDX 31 34 72 35 32 36 77 37 71 38 73 39 33 40 76 41 70 42 69 43
REMARK SMILES IDX 34 45 60 46 43 47 59 48 44 49 47 50 58 51 74 52 45 53 46 54
REMARK SMILES IDX 57 56 75 57 48 58 35 59 36 60 41 61 37 62 38 63 40 64 42 65
REMARK SMILES IDX 39 66 61 67 62 68 67 69 63 70 64 71 66 72 68 73 65 74 49 75
REMARK SMILES IDX 50 76 55 77 51 78 52 79 54 80 56 81 53 82
REMARK H PARENT 9 17 73 44 47 55
REMARK Flexibility Score: inf
ROOT
ATOM      1  C   UNL A   1      35.027  31.267  27.843  1.00  0.00     0.188 C 
ENDROOT
BRANCH   1   2
ATOM      2  O   UNL A   1      34.632  29.974  27.415  1.00  0.00    -0.376 OA
BRANCH   2   3
ATOM      3  C   UNL A   1      33.500  29.814  26.574  1.00  0.00     0.202 C 
BRANCH   3   4
ATOM      4  C   UNL A   1      33.479  28.711  25.490  1.00  0.00     0.261 C 
BRANCH   4   5
ATOM      5  O   UNL A   1      32.284  27.895  25.329  1.00  0.00    -0.463 OA
BRANCH   5   6
ATOM      6  C   UNL A   1      32.489  26.701  24.719  1.00  0.00     0.312 C 
ATOM      7  O   UNL A   1      33.482  26.014  24.950  1.00  0.00    -0.252 OA
BRANCH   6   8
ATOM      8  C   UNL A   1      31.430  26.259  23.659  1.00  0.00     0.076 C 
ATOM      9  C   UNL A   1      32.193  26.292  22.321  1.00  0.00     0.024 C 
BRANCH   8  10
ATOM     10  C   UNL A   1      30.316  27.395  23.654  1.00  0.00     0.000 C 
ATOM     11  C   UNL A   1      30.327  28.260  22.379  1.00  0.00     0.008 C 
ATOM     12  C   UNL A   1      28.882  26.890  23.866  1.00  0.00     0.008 C 
ENDBRANCH   8  10
BRANCH   8  13
ATOM     13  C   UNL A   1      30.663  24.894  23.789  1.00  0.00     0.119 C 
BRANCH  13  14
ATOM     14  C   UNL A   1      31.216  23.475  23.962  1.00  0.00     0.234 C 
ATOM     15  O   UNL A   1      31.416  22.774  22.962  1.00  0.00    -0.274 OA
ATOM     16  N   UNL A   1      31.637  22.945  25.133  1.00  0.00    -0.263 N 
ATOM     17  H   UNL A   1      32.029  22.053  24.993  1.00  0.00     0.182 HD
BRANCH  16  18
ATOM     18  C   UNL A   1      31.672  23.283  26.420  1.00  0.00     0.183 C 
ATOM     19  N   UNL A   1      31.602  23.573  27.541  1.00  0.00    -0.172 NA
ENDBRANCH  16  18
ENDBRANCH  13  14
ENDBRANCH   8  13
ENDBRANCH   6   8
ENDBRANCH   5   6
ENDBRANCH   4   5
ENDBRANCH   3   4
ENDBRANCH   2   3
ENDBRANCH   1   2
BRANCH   1  20
ATOM     20  C   UNL A   1      33.964  32.274  28.297  1.00  0.00     0.188 C 
BRANCH  20  21
ATOM     21  O   UNL A   1      34.414  33.587  28.483  1.00  0.00    -0.376 OA
BRANCH  21  22
ATOM     22  C   UNL A   1      33.907  34.317  29.578  1.00  0.00     0.202 C 
BRANCH  22  23
ATOM     23  C   UNL A   1      34.375  34.030  31.020  1.00  0.00     0.261 C 
BRANCH  23  24
ATOM     24  O   UNL A   1      35.780  33.805  31.254  1.00  0.00    -0.460 OA
BRANCH  24  25
ATOM     25  C   UNL A   1      36.121  32.806  32.103  1.00  0.00     0.338 C 
ATOM     26  O   UNL A   1      35.591  32.531  33.163  1.00  0.00    -0.246 OA
BRANCH  25  27
ATOM     27  C   UNL A   1      37.139  31.940  31.458  1.00  0.00     0.060 A 
ATOM     28  C   UNL A   1      37.991  31.167  32.261  1.00  0.00     0.016 A 
ATOM     29  C   UNL A   1      37.321  31.957  30.079  1.00  0.00     0.016 A 
ATOM     30  C   UNL A   1      39.046  30.444  31.706  1.00  0.00     0.010 A 
ATOM     31  C   UNL A   1      38.386  31.237  29.519  1.00  0.00     0.010 A 
ATOM     32  C   UNL A   1      39.277  30.505  30.331  1.00  0.00    -0.014 A 
BRANCH  32  33
ATOM     33  C   UNL A   1      40.524  29.935  29.757  1.00  0.00     0.031 A 
ATOM     34  C   UNL A   1      41.720  30.833  29.584  1.00  0.00     0.074 A 
ATOM     35  C   UNL A   1      40.611  28.636  29.418  1.00  0.00     0.049 A 
ATOM     36  N   UNL A   1      42.849  30.609  28.963  1.00  0.00    -0.248 NA
ATOM     37  C   UNL A   1      41.622  32.172  30.190  1.00  0.00     0.031 C 
ATOM     38  C   UNL A   1      39.563  27.636  29.618  1.00  0.00     0.029 A 
ATOM     39  N   UNL A   1      41.630  27.938  28.817  1.00  0.00    -0.354 N 
ATOM     40  C   UNL A   1      43.580  31.786  29.072  1.00  0.00     0.074 A 
ATOM     41  C   UNL A   1      42.758  32.729  29.798  1.00  0.00     0.031 C 
ATOM     42  C   UNL A   1      39.986  26.458  29.133  1.00  0.00     0.029 A 
ATOM     43  C   UNL A   1      41.306  26.633  28.531  1.00  0.00     0.049 A 
ATOM     44  H   UNL A   1      42.508  28.333  28.612  1.00  0.00     0.167 HD
ATOM     45  C   UNL A   1      44.825  32.054  28.610  1.00  0.00     0.037 A 
ATOM     46  C   UNL A   1      41.973  25.703  27.821  1.00  0.00     0.037 A 
ATOM     47  C   UNL A   1      45.639  31.104  27.896  1.00  0.00     0.049 A 
ATOM     48  C   UNL A   1      43.312  26.055  27.224  1.00  0.00     0.074 A 
ATOM     49  C   UNL A   1      46.913  31.275  27.383  1.00  0.00     0.029 A 
ATOM     50  N   UNL A   1      45.256  29.807  27.590  1.00  0.00    -0.354 N 
ATOM     51  N   UNL A   1      43.988  27.176  27.306  1.00  0.00    -0.248 NA
ATOM     52  C   UNL A   1      43.979  25.012  26.431  1.00  0.00     0.031 C 
ATOM     53  C   UNL A   1      47.271  30.106  26.705  1.00  0.00     0.029 A 
ATOM     54  C   UNL A   1      46.256  29.177  26.866  1.00  0.00     0.049 A 
ATOM     55  H   UNL A   1      44.400  29.393  27.849  1.00  0.00     0.167 HD
ATOM     56  C   UNL A   1      45.171  26.962  26.610  1.00  0.00     0.074 A 
ATOM     57  C   UNL A   1      45.126  25.599  26.122  1.00  0.00     0.031 C 
ATOM     58  C   UNL A   1      46.203  27.815  26.394  1.00  0.00     0.037 A 
BRANCH  45  59
ATOM     59  C   UNL A   1      45.360  33.444  28.817  1.00  0.00     0.057 A 
ATOM     60  C   UNL A   1      45.117  34.484  27.911  1.00  0.00     0.134 A 
ATOM     61  C   UNL A   1      46.114  33.749  29.959  1.00  0.00     0.134 A 
ATOM     62  F   UNL A   1      44.414  34.261  26.790  1.00  0.00    -0.206 F 
ATOM     63  C   UNL A   1      45.630  35.768  28.117  1.00  0.00     0.040 A 
ATOM     64  C   UNL A   1      46.603  35.035  30.192  1.00  0.00     0.040 A 
ATOM     65  F   UNL A   1      46.380  32.804  30.873  1.00  0.00    -0.206 F 
ATOM     66  C   UNL A   1      46.370  36.047  29.264  1.00  0.00     0.006 A 
ENDBRANCH  45  59
BRANCH  46  67
ATOM     67  C   UNL A   1      41.371  24.362  27.590  1.00  0.00     0.057 A 
ATOM     68  C   UNL A   1      40.346  24.174  26.657  1.00  0.00     0.134 A 
ATOM     69  C   UNL A   1      41.788  23.240  28.320  1.00  0.00     0.134 A 
ATOM     70  F   UNL A   1      39.882  25.211  25.946  1.00  0.00    -0.206 F 
ATOM     71  C   UNL A   1      39.740  22.928  26.474  1.00  0.00     0.040 A 
ATOM     72  C   UNL A   1      41.217  21.982  28.121  1.00  0.00     0.040 A 
ATOM     73  F   UNL A   1      42.765  23.349  29.233  1.00  0.00    -0.206 F 
ATOM     74  C   UNL A   1      40.182  21.827  27.203  1.00  0.00     0.006 A 
ENDBRANCH  46  67
BRANCH  58  75
ATOM     75  C   UNL A   1      47.396  27.286  25.647  1.00  0.00     0.057 A 
ATOM     76  C   UNL A   1      47.536  27.431  24.261  1.00  0.00     0.134 A 
ATOM     77  C   UNL A   1      48.441  26.656  26.336  1.00  0.00     0.134 A 
ATOM     78  F   UNL A   1      46.571  28.017  23.536  1.00  0.00    -0.206 F 
ATOM     79  C   UNL A   1      48.656  26.941  23.585  1.00  0.00     0.040 A 
ATOM     80  C   UNL A   1      49.582  26.195  25.677  1.00  0.00     0.040 A 
ATOM     81  F   UNL A   1      48.381  26.494  27.667  1.00  0.00    -0.206 F 
ATOM     82  C   UNL A   1      49.686  26.329  24.295  1.00  0.00     0.006 A 
ENDBRANCH  58  75
ENDBRANCH  32  33
ENDBRANCH  25  27
ENDBRANCH  24  25
ENDBRANCH  23  24
ENDBRANCH  22  23
ENDBRANCH  21  22
ENDBRANCH  20  21
ENDBRANCH   1  20
TORSDOF 21
ENDMDL
MODEL 2
REMARK VINA RESULT:      -9.0      1.551      2.680
REMARK SMILES CC(C)[C@](C)(CC(=O)NC#N)C(=O)OCCOCCOCCOC(=O)c1ccc(-c2c3nc(c(-c4c(F)cccc4F)c4ccc([nH]4)c(-c4c(F)cccc4F)c4nc(c(-c5c(F)cccc5F)c5ccc2[nH]5)C=C4)C=C3)cc1
REMARK SMILES IDX 18 1 17 2 16 3 15 4 14 5 12 6 13 7 4 8 5 9 2 10 1 11 3 12
REMARK SMILES IDX 6 13 7 14 8 15 9 16 10 18 11 19 19 20 20 21 21 22 22 23
REMARK SMILES IDX 23 24 24 25 25 26 26 27 27 28 79 29 28 30 78 31 29 32 30 33
REMARK SMILES IDX 31 34 72 35 32 36 77 37 71 38 73 39 33 40 76 41 70 42 69 43
REMARK SMILES IDX 34 45 60 46 43 47 59 48 44 49 47 50 58 51 74 52 45 53 46 54
REMARK SMILES IDX 57 56 75 57 48 58 35 59 36 60 41 61 37 62 38 63 40 64 42 65
REMARK SMILES IDX 39 66 61 67 62 68 67 69 63 70 64 71 66 72 68 73 65 74 49 75
REMARK SMILES IDX 50 76 55 77 51 78 52 79 54 80 56 81 53 82
REMARK H PARENT 9 17 73 44 47 55
REMARK Flexibility Score: inf
ROOT
ATOM      1  C   UNL A   1      34.630  29.099  26.705  1.00  0.00     0.188 C 
ENDROOT
BRANCH   1   2
ATOM      2  O   UNL A   1      33.824  28.260  25.893  1.00  0.00    -0.376 OA
BRANCH   2   3
ATOM      3  C   UNL A   1      32.872  27.391  26.488  1.00  0.00     0.202 C 
BRANCH   3   4
ATOM      4  C   UNL A   1      32.151  26.319  25.636  1.00  0.00     0.261 C 
BRANCH   4   5
ATOM      5  O   UNL A   1      32.534  24.922  25.780  1.00  0.00    -0.463 OA
BRANCH   5   6
ATOM      6  C   UNL A   1      33.366  24.458  24.815  1.00  0.00     0.312 C 
ATOM      7  O   UNL A   1      33.342  24.900  23.667  1.00  0.00    -0.252 OA
BRANCH   6   8
ATOM      8  C   UNL A   1      34.323  23.289  25.210  1.00  0.00     0.076 C 
ATOM      9  C   UNL A   1      34.258  23.247  26.749  1.00  0.00     0.024 C 
BRANCH   8  10
ATOM     10  C   UNL A   1      35.779  23.746  24.760  1.00  0.00     0.000 C 
ATOM     11  C   UNL A   1      36.811  23.723  25.905  1.00  0.00     0.008 C 
ATOM     12  C   UNL A   1      36.366  22.955  23.583  1.00  0.00     0.008 C 
ENDBRANCH   8  10
BRANCH   8  13
ATOM     13  C   UNL A   1      34.123  21.839  24.639  1.00  0.00     0.119 C 
BRANCH  13  14
ATOM     14  C   UNL A   1      32.952  21.256  23.841  1.00  0.00     0.234 C 
ATOM     15  O   UNL A   1      32.535  21.859  22.845  1.00  0.00    -0.274 OA
ATOM     16  N   UNL A   1      32.394  20.044  24.058  1.00  0.00    -0.263 N 
ATOM     17  H   UNL A   1      31.714  19.843  23.375  1.00  0.00     0.182 HD
BRANCH  16  18
ATOM     18  C   UNL A   1      32.499  19.044  24.931  1.00  0.00     0.183 C 
ATOM     19  N   UNL A   1      32.529  18.223  25.751  1.00  0.00    -0.172 NA
ENDBRANCH  16  18
ENDBRANCH  13  14
ENDBRANCH   8  13
ENDBRANCH   6   8
ENDBRANCH   5   6
ENDBRANCH   4   5
ENDBRANCH   3   4
ENDBRANCH   2   3
ENDBRANCH   1   2
BRANCH   1  20
ATOM     20  C   UNL A   1      33.968  30.148  27.605  1.00  0.00     0.188 C 
BRANCH  20  21
ATOM     21  O   UNL A   1      34.414  31.464  27.431  1.00  0.00    -0.376 OA
BRANCH  21  22
ATOM     22  C   UNL A   1      33.662  32.506  28.012  1.00  0.00     0.202 C 
BRANCH  22  23
ATOM     23  C   UNL A   1      34.104  33.178  29.328  1.00  0.00     0.261 C 
BRANCH  23  24
ATOM     24  O   UNL A   1      34.454  32.336  30.446  1.00  0.00    -0.460 OA
BRANCH  24  25
ATOM     25  C   UNL A   1      35.580  32.645  31.133  1.00  0.00     0.338 C 
ATOM     26  O   UNL A   1      35.677  33.405  32.079  1.00  0.00    -0.246 OA
BRANCH  25  27
ATOM     27  C   UNL A   1      36.685  31.759  30.690  1.00  0.00     0.060 A 
ATOM     28  C   UNL A   1      37.473  31.109  31.652  1.00  0.00     0.016 A 
ATOM     29  C   UNL A   1      37.007  31.640  29.341  1.00  0.00     0.016 A 
ATOM     30  C   UNL A   1      38.601  30.377  31.285  1.00  0.00     0.010 A 
ATOM     31  C   UNL A   1      38.145  30.910  28.970  1.00  0.00     0.010 A 
ATOM     32  C   UNL A   1      38.969  30.304  29.941  1.00  0.00    -0.014 A 
BRANCH  32  33
ATOM     33  C   UNL A   1      40.286  29.729  29.558  1.00  0.00     0.031 A 
ATOM     34  C   UNL A   1      41.485  30.637  29.500  1.00  0.00     0.074 A 
ATOM     35  C   UNL A   1      40.429  28.418  29.291  1.00  0.00     0.049 A 
ATOM     36  N   UNL A   1      42.688  30.404  29.040  1.00  0.00    -0.248 NA
ATOM     37  C   UNL A   1      41.297  31.999  30.028  1.00  0.00     0.031 C 
ATOM     38  C   UNL A   1      39.373  27.412  29.398  1.00  0.00     0.029 A 
ATOM     39  N   UNL A   1      41.524  27.711  28.857  1.00  0.00    -0.354 N 
ATOM     40  C   UNL A   1      43.387  31.596  29.190  1.00  0.00     0.074 A 
ATOM     41  C   UNL A   1      42.468  32.556  29.762  1.00  0.00     0.031 C 
ATOM     42  C   UNL A   1      39.867  26.220  29.024  1.00  0.00     0.029 A 
ATOM     43  C   UNL A   1      41.251  26.390  28.590  1.00  0.00     0.049 A 
ATOM     44  H   UNL A   1      42.417  28.110  28.750  1.00  0.00     0.167 HD
ATOM     45  C   UNL A   1      44.678  31.863  28.880  1.00  0.00     0.037 A 
ATOM     46  C   UNL A   1      42.014  25.441  28.013  1.00  0.00     0.037 A 
ATOM     47  C   UNL A   1      45.587  30.896  28.320  1.00  0.00     0.049 A 
ATOM     48  C   UNL A   1      43.415  25.788  27.579  1.00  0.00     0.074 A 
ATOM     49  C   UNL A   1      46.914  31.064  27.968  1.00  0.00     0.029 A 
ATOM     50  N   UNL A   1      45.259  29.581  28.025  1.00  0.00    -0.354 N 
ATOM     51  N   UNL A   1      44.064  26.921  27.698  1.00  0.00    -0.248 NA
ATOM     52  C   UNL A   1      44.189  24.723  26.925  1.00  0.00     0.031 C 
ATOM     53  C   UNL A   1      47.368  29.873  27.394  1.00  0.00     0.029 A 
ATOM     54  C   UNL A   1      46.350  28.936  27.465  1.00  0.00     0.049 A 
ATOM     55  H   UNL A   1      44.381  29.166  28.190  1.00  0.00     0.167 HD
ATOM     56  C   UNL A   1      45.329  26.696  27.169  1.00  0.00     0.074 A 
ATOM     57  C   UNL A   1      45.361  25.313  26.741  1.00  0.00     0.031 C 
ATOM     58  C   UNL A   1      46.372  27.555  27.050  1.00  0.00     0.037 A 
BRANCH  45  59
ATOM     59  C   UNL A   1      45.168  33.268  29.093  1.00  0.00     0.057 A 
ATOM     60  C   UNL A   1      45.049  34.261  28.111  1.00  0.00     0.134 A 
ATOM     61  C   UNL A   1      45.749  33.638  30.314  1.00  0.00     0.134 A 
ATOM     62  F   UNL A   1      44.515  33.975  26.915  1.00  0.00    -0.206 F 
ATOM     63  C   UNL A   1      45.519  35.560  28.324  1.00  0.00     0.040 A 
ATOM     64  C   UNL A   1      46.191  34.940  30.551  1.00  0.00     0.040 A 
ATOM     65  F   UNL A   1      45.889  32.742  31.302  1.00  0.00    -0.206 F 
ATOM     66  C   UNL A   1      46.086  35.903  29.550  1.00  0.00     0.006 A 
ENDBRANCH  45  59
BRANCH  46  67
ATOM     67  C   UNL A   1      41.460  24.083  27.767  1.00  0.00     0.057 A 
ATOM     68  C   UNL A   1      41.865  22.981  28.528  1.00  0.00     0.134 A 
ATOM     69  C   UNL A   1      40.532  23.848  26.743  1.00  0.00     0.134 A 
ATOM     70  F   UNL A   1      42.770  23.132  29.506  1.00  0.00    -0.206 F 
ATOM     71  C   UNL A   1      41.388  21.694  28.268  1.00  0.00     0.040 A 
ATOM     72  C   UNL A   1      40.020  22.573  26.494  1.00  0.00     0.040 A 
ATOM     73  F   UNL A   1      40.102  24.858  25.972  1.00  0.00    -0.206 F 
ATOM     74  C   UNL A   1      40.457  21.490  27.251  1.00  0.00     0.006 A 
ENDBRANCH  46  67
BRANCH  58  75
ATOM     75  C   UNL A   1      47.657  27.013  26.487  1.00  0.00     0.057 A 
ATOM     76  C   UNL A   1      48.637  26.422  27.294  1.00  0.00     0.134 A 
ATOM     77  C   UNL A   1      47.897  27.051  25.107  1.00  0.00     0.134 A 
ATOM     78  F   UNL A   1      48.478  26.360  28.625  1.00  0.00    -0.206 F 
ATOM     79  C   UNL A   1      49.821  25.915  26.752  1.00  0.00     0.040 A 
ATOM     80  C   UNL A   1      49.059  26.516  24.549  1.00  0.00     0.040 A 
ATOM     81  F   UNL A   1      46.996  27.591  24.272  1.00  0.00    -0.206 F 
ATOM     82  C   UNL A   1      50.029  25.954  25.375  1.00  0.00     0.006 A 
ENDBRANCH  58  75
ENDBRANCH  32  33
ENDBRANCH  25  27
ENDBRANCH  24  25
ENDBRANCH  23  24
ENDBRANCH  22  23
ENDBRANCH  21  22
ENDBRANCH  20  21
ENDBRANCH   1  20
TORSDOF 21
ENDMDL
MODEL 3
REMARK VINA RESULT:      -8.9      2.055      6.776
REMARK SMILES CC(C)[C@](C)(CC(=O)NC#N)C(=O)OCCOCCOCCOC(=O)c1ccc(-c2c3nc(c(-c4c(F)cccc4F)c4ccc([nH]4)c(-c4c(F)cccc4F)c4nc(c(-c5c(F)cccc5F)c5ccc2[nH]5)C=C4)C=C3)cc1
REMARK SMILES IDX 18 1 17 2 16 3 15 4 14 5 12 6 13 7 4 8 5 9 2 10 1 11 3 12
REMARK SMILES IDX 6 13 7 14 8 15 9 16 10 18 11 19 19 20 20 21 21 22 22 23
REMARK SMILES IDX 23 24 24 25 25 26 26 27 27 28 79 29 28 30 78 31 29 32 30 33
REMARK SMILES IDX 31 34 72 35 32 36 77 37 71 38 73 39 33 40 76 41 70 42 69 43
REMARK SMILES IDX 34 45 60 46 43 47 59 48 44 49 47 50 58 51 74 52 45 53 46 54
REMARK SMILES IDX 57 56 75 57 48 58 35 59 36 60 41 61 37 62 38 63 40 64 42 65
REMARK SMILES IDX 39 66 61 67 62 68 67 69 63 70 64 71 66 72 68 73 65 74 49 75
REMARK SMILES IDX 50 76 55 77 51 78 52 79 54 80 56 81 53 82
REMARK H PARENT 9 17 73 44 47 55
REMARK Flexibility Score: inf
ROOT
ATOM      1  C   UNL A   1      34.404  32.795  28.181  1.00  0.00     0.188 C 
ENDROOT
BRANCH   1   2
ATOM      2  O   UNL A   1      34.582  31.441  28.563  1.00  0.00    -0.376 OA
BRANCH   2   3
ATOM      3  C   UNL A   1      34.378  30.399  27.621  1.00  0.00     0.202 C 
BRANCH   3   4
ATOM      4  C   UNL A   1      33.151  30.425  26.678  1.00  0.00     0.261 C 
BRANCH   4   5
ATOM      5  O   UNL A   1      32.221  29.306  26.690  1.00  0.00    -0.463 OA
BRANCH   5   6
ATOM      6  C   UNL A   1      31.650  29.028  25.492  1.00  0.00     0.312 C 
ATOM      7  O   UNL A   1      31.149  29.905  24.790  1.00  0.00    -0.252 OA
BRANCH   6   8
ATOM      8  C   UNL A   1      31.603  27.526  25.063  1.00  0.00     0.076 C 
ATOM      9  C   UNL A   1      31.184  26.778  26.344  1.00  0.00     0.024 C 
BRANCH   8  10
ATOM     10  C   UNL A   1      33.098  27.130  24.691  1.00  0.00     0.000 C 
ATOM     11  C   UNL A   1      33.890  28.276  24.030  1.00  0.00     0.008 C 
ATOM     12  C   UNL A   1      33.932  26.597  25.863  1.00  0.00     0.008 C 
ENDBRANCH   8  10
BRANCH   8  13
ATOM     13  C   UNL A   1      30.710  27.045  23.863  1.00  0.00     0.119 C 
BRANCH  13  14
ATOM     14  C   UNL A   1      30.757  27.454  22.386  1.00  0.00     0.234 C 
ATOM     15  O   UNL A   1      30.059  28.397  21.994  1.00  0.00    -0.274 OA
ATOM     16  N   UNL A   1      31.608  26.944  21.468  1.00  0.00    -0.263 N 
ATOM     17  H   UNL A   1      31.516  27.411  20.607  1.00  0.00     0.182 HD
BRANCH  16  18
ATOM     18  C   UNL A   1      32.534  25.990  21.394  1.00  0.00     0.183 C 
ATOM     19  N   UNL A   1      33.403  25.222  21.376  1.00  0.00    -0.172 NA
ENDBRANCH  16  18
ENDBRANCH  13  14
ENDBRANCH   8  13
ENDBRANCH   6   8
ENDBRANCH   5   6
ENDBRANCH   4   5
ENDBRANCH   3   4
ENDBRANCH   2   3
ENDBRANCH   1   2
BRANCH   1  20
ATOM     20  C   UNL A   1      35.155  33.900  28.932  1.00  0.00     0.188 C 
BRANCH  20  21
ATOM     21  O   UNL A   1      34.795  34.072  30.274  1.00  0.00    -0.376 OA
BRANCH  21  22
ATOM     22  C   UNL A   1      35.664  33.572  31.266  1.00  0.00     0.202 C 
BRANCH  22  23
ATOM     23  C   UNL A   1      35.581  32.107  31.742  1.00  0.00     0.261 C 
BRANCH  23  24
ATOM     24  O   UNL A   1      36.810  31.385  31.962  1.00  0.00    -0.460 OA
BRANCH  24  25
ATOM     25  C   UNL A   1      36.983  30.224  31.288  1.00  0.00     0.338 C 
ATOM     26  O   UNL A   1      36.130  29.398  31.018  1.00  0.00    -0.246 OA
BRANCH  25  27
ATOM     27  C   UNL A   1      38.359  30.177  30.734  1.00  0.00     0.060 A 
ATOM     28  C   UNL A   1      38.547  30.302  29.350  1.00  0.00     0.016 A 
ATOM     29  C   UNL A   1      39.451  29.917  31.557  1.00  0.00     0.016 A 
ATOM     30  C   UNL A   1      39.805  30.131  28.775  1.00  0.00     0.010 A 
ATOM     31  C   UNL A   1      40.716  29.736  30.980  1.00  0.00     0.010 A 
ATOM     32  C   UNL A   1      40.896  29.807  29.583  1.00  0.00    -0.014 A 
BRANCH  32  33
ATOM     33  C   UNL A   1      42.185  29.394  28.968  1.00  0.00     0.031 A 
ATOM     34  C   UNL A   1      42.342  27.973  28.495  1.00  0.00     0.074 A 
ATOM     35  C   UNL A   1      43.195  30.266  28.804  1.00  0.00     0.049 A 
ATOM     36  N   UNL A   1      43.411  27.344  28.083  1.00  0.00    -0.248 NA
ATOM     37  C   UNL A   1      41.122  27.148  28.496  1.00  0.00     0.031 C 
ATOM     38  C   UNL A   1      43.146  31.691  29.131  1.00  0.00     0.029 A 
ATOM     39  N   UNL A   1      44.471  30.075  28.331  1.00  0.00    -0.354 N 
ATOM     40  C   UNL A   1      43.003  26.044  27.809  1.00  0.00     0.074 A 
ATOM     41  C   UNL A   1      41.593  25.968  28.125  1.00  0.00     0.031 C 
ATOM     42  C   UNL A   1      44.342  32.241  28.865  1.00  0.00     0.029 A 
ATOM     43  C   UNL A   1      45.259  31.198  28.411  1.00  0.00     0.049 A 
ATOM     44  H   UNL A   1      44.790  29.217  27.968  1.00  0.00     0.167 HD
ATOM     45  C   UNL A   1      43.738  25.008  27.337  1.00  0.00     0.037 A 
ATOM     46  C   UNL A   1      46.580  31.355  28.195  1.00  0.00     0.037 A 
ATOM     47  C   UNL A   1      45.139  25.098  27.017  1.00  0.00     0.049 A 
ATOM     48  C   UNL A   1      47.401  30.165  27.771  1.00  0.00     0.074 A 
ATOM     49  C   UNL A   1      45.977  24.108  26.534  1.00  0.00     0.029 A 
ATOM     50  N   UNL A   1      45.910  26.243  27.153  1.00  0.00    -0.354 N 
ATOM     51  N   UNL A   1      47.018  28.932  27.539  1.00  0.00    -0.248 NA
ATOM     52  C   UNL A   1      48.842  30.388  27.581  1.00  0.00     0.031 C 
ATOM     53  C   UNL A   1      47.270  24.635  26.446  1.00  0.00     0.029 A 
ATOM     54  C   UNL A   1      47.222  25.975  26.795  1.00  0.00     0.049 A 
ATOM     55  H   UNL A   1      45.576  27.117  27.459  1.00  0.00     0.167 HD
ATOM     56  C   UNL A   1      48.159  28.244  27.143  1.00  0.00     0.074 A 
ATOM     57  C   UNL A   1      49.246  29.201  27.154  1.00  0.00     0.031 C 
ATOM     58  C   UNL A   1      48.294  26.939  26.800  1.00  0.00     0.037 A 
BRANCH  45  59
ATOM     59  C   UNL A   1      43.052  23.679  27.187  1.00  0.00     0.057 A 
ATOM     60  C   UNL A   1      42.614  23.197  25.947  1.00  0.00     0.134 A 
ATOM     61  C   UNL A   1      42.849  22.857  28.304  1.00  0.00     0.134 A 
ATOM     62  F   UNL A   1      42.763  23.935  24.837  1.00  0.00    -0.206 F 
ATOM     63  C   UNL A   1      41.970  21.962  25.829  1.00  0.00     0.040 A 
ATOM     64  C   UNL A   1      42.239  21.607  28.194  1.00  0.00     0.040 A 
ATOM     65  F   UNL A   1      43.250  23.251  29.522  1.00  0.00    -0.206 F 
ATOM     66  C   UNL A   1      41.788  21.161  26.954  1.00  0.00     0.006 A 
ENDBRANCH  45  59
BRANCH  46  67
ATOM     67  C   UNL A   1      47.223  32.677  28.419  1.00  0.00     0.057 A 
ATOM     68  C   UNL A   1      47.347  33.613  27.387  1.00  0.00     0.134 A 
ATOM     69  C   UNL A   1      47.757  33.026  29.668  1.00  0.00     0.134 A 
ATOM     70  F   UNL A   1      46.881  33.331  26.161  1.00  0.00    -0.206 F 
ATOM     71  C   UNL A   1      47.997  34.835  27.578  1.00  0.00     0.040 A 
ATOM     72  C   UNL A   1      48.377  34.258  29.882  1.00  0.00     0.040 A 
ATOM     73  F   UNL A   1      47.676  32.176  30.702  1.00  0.00    -0.206 F 
ATOM     74  C   UNL A   1      48.508  35.162  28.832  1.00  0.00     0.006 A 
ENDBRANCH  46  67
BRANCH  58  75
ATOM     75  C   UNL A   1      49.653  26.477  26.351  1.00  0.00     0.057 A 
ATOM     76  C   UNL A   1      50.127  26.700  25.052  1.00  0.00     0.134 A 
ATOM     77  C   UNL A   1      50.516  25.833  27.248  1.00  0.00     0.134 A 
ATOM     78  F   UNL A   1      49.352  27.302  24.137  1.00  0.00    -0.206 F 
ATOM     79  C   UNL A   1      51.396  26.271  24.654  1.00  0.00     0.040 A 
ATOM     80  C   UNL A   1      51.799  25.433  26.874  1.00  0.00     0.040 A 
ATOM     81  F   UNL A   1      50.133  25.598  28.513  1.00  0.00    -0.206 F 
ATOM     82  C   UNL A   1      52.238  25.644  25.570  1.00  0.00     0.006 A 
ENDBRANCH  58  75
ENDBRANCH  32  33
ENDBRANCH  25  27
ENDBRANCH  24  25
ENDBRANCH  23  24
ENDBRANCH  22  23
ENDBRANCH  21  22
ENDBRANCH  20  21
ENDBRANCH   1  20
TORSDOF 21
ENDMDL
