MODEL 1
REMARK VINA RESULT:     -11.3      0.000      0.000
REMARK SMILES CCS(=O)(=O)Nc1ccc(N2CC[NH+](C)CC2)cc1C(=O)OCCOCCOCCOC(=O)c1ccc(-c2c3nc(c(-c4c(F)cccc4F)c4ccc([nH]4)c(-c4c(F)cccc4F)c4nc(c(-c5c(F)cccc5F)c5ccc2[nH]5)C=C4)C=C3)cc1
REMARK SMILES IDX 26 1 25 2 24 3 23 4 22 5 20 6 21 7 19 8 7 9 8 10 9 11 18 12
REMARK SMILES IDX 10 13 6 14 3 16 4 17 5 18 2 19 1 20 11 21 12 22 17 23 13 24
REMARK SMILES IDX 16 25 14 26 15 27 27 29 28 30 29 31 30 32 31 33 32 34 33 35
REMARK SMILES IDX 34 36 35 37 87 38 36 39 86 40 37 41 38 42 39 43 80 44 40 45
REMARK SMILES IDX 85 46 79 47 81 48 41 49 84 50 78 51 77 52 42 54 68 55 51 56
REMARK SMILES IDX 67 57 52 58 55 59 66 60 82 61 53 62 54 63 65 65 83 66 56 67
REMARK SMILES IDX 43 68 44 69 49 70 45 71 46 72 48 73 50 74 47 75 69 76 70 77
REMARK SMILES IDX 75 78 71 79 72 80 74 81 76 82 73 83 57 84 58 85 63 86 59 87
REMARK SMILES IDX 60 88 62 89 64 90 61 91
REMARK H PARENT 6 15 14 28 81 53 55 64
REMARK Flexibility Score: inf
ROOT
ATOM      1  C   UNL A   1      34.228  33.612  28.372  1.00  0.00     0.188 C 
ENDROOT
BRANCH   1   2
ATOM      2  O   UNL A   1      33.939  32.235  28.535  1.00  0.00    -0.376 OA
BRANCH   2   3
ATOM      3  C   UNL A   1      34.526  31.376  27.573  1.00  0.00     0.202 C 
BRANCH   3   4
ATOM      4  C   UNL A   1      33.786  30.065  27.321  1.00  0.00     0.261 C 
BRANCH   4   5
ATOM      5  O   UNL A   1      33.271  29.831  25.995  1.00  0.00    -0.460 OA
BRANCH   5   6
ATOM      6  C   UNL A   1      31.985  30.070  25.669  1.00  0.00     0.340 C 
ATOM      7  O   UNL A   1      31.365  31.100  25.879  1.00  0.00    -0.246 OA
BRANCH   6   8
ATOM      8  C   UNL A   1      31.406  28.875  24.991  1.00  0.00     0.086 A 
ATOM      9  C   UNL A   1      30.457  28.961  23.958  1.00  0.00     0.063 A 
ATOM     10  C   UNL A   1      29.977  27.782  23.385  1.00  0.00     0.030 A 
ATOM     11  C   UNL A   1      30.458  26.535  23.809  1.00  0.00     0.028 A 
ATOM     12  C   UNL A   1      31.867  27.615  25.417  1.00  0.00     0.043 A 
ATOM     13  C   UNL A   1      31.408  26.427  24.832  1.00  0.00     0.038 A 
BRANCH   9  14
ATOM     14  N   UNL A   1      29.766  30.161  23.636  1.00  0.00    -0.283 N 
ATOM     15  H   UNL A   1      29.938  30.923  24.235  1.00  0.00     0.180 HD
BRANCH  14  16
ATOM     16  S   UNL A   1      28.717  30.456  22.397  1.00  0.00     0.232 S 
ATOM     17  O   UNL A   1      27.418  30.108  22.942  1.00  0.00    -0.207 OA
ATOM     18  O   UNL A   1      29.220  29.704  21.264  1.00  0.00    -0.207 OA
BRANCH  16  19
ATOM     19  C   UNL A   1      28.609  32.157  21.842  1.00  0.00     0.156 C 
ATOM     20  C   UNL A   1      28.028  32.533  20.509  1.00  0.00     0.023 C 
ENDBRANCH  16  19
ENDBRANCH  14  16
ENDBRANCH   9  14
BRANCH  13  21
ATOM     21  N   UNL A   1      31.900  25.208  25.232  1.00  0.00    -0.360 N 
ATOM     22  C   UNL A   1      33.168  24.656  24.741  1.00  0.00     0.178 C 
ATOM     23  C   UNL A   1      31.217  24.400  26.247  1.00  0.00     0.178 C 
ATOM     24  C   UNL A   1      32.978  23.193  24.279  1.00  0.00     0.283 C 
ATOM     25  C   UNL A   1      31.064  22.944  25.737  1.00  0.00     0.283 C 
ATOM     26  N   UNL A   1      32.351  22.342  25.317  1.00  0.00    -0.334 N 
ATOM     27  C   UNL A   1      32.156  20.983  24.815  1.00  0.00     0.332 C 
ATOM     28  H   UNL A   1      32.967  22.289  26.128  1.00  0.00     0.347 HD
ENDBRANCH  13  21
ENDBRANCH   6   8
ENDBRANCH   5   6
ENDBRANCH   4   5
ENDBRANCH   3   4
ENDBRANCH   2   3
ENDBRANCH   1   2
BRANCH   1  29
ATOM     29  C   UNL A   1      33.060  34.556  28.741  1.00  0.00     0.188 C 
BRANCH  29  30
ATOM     30  O   UNL A   1      32.816  34.901  30.095  1.00  0.00    -0.376 OA
BRANCH  30  31
ATOM     31  C   UNL A   1      33.929  35.136  30.944  1.00  0.00     0.202 C 
BRANCH  31  32
ATOM     32  C   UNL A   1      34.169  34.235  32.176  1.00  0.00     0.261 C 
BRANCH  32  33
ATOM     33  O   UNL A   1      34.662  32.905  31.918  1.00  0.00    -0.460 OA
BRANCH  33  34
ATOM     34  C   UNL A   1      35.645  32.453  32.742  1.00  0.00     0.338 C 
ATOM     35  O   UNL A   1      35.689  32.554  33.952  1.00  0.00    -0.246 OA
BRANCH  34  36
ATOM     36  C   UNL A   1      36.574  31.571  31.980  1.00  0.00     0.060 A 
ATOM     37  C   UNL A   1      37.469  30.763  32.705  1.00  0.00     0.016 A 
ATOM     38  C   UNL A   1      36.582  31.536  30.586  1.00  0.00     0.016 A 
ATOM     39  C   UNL A   1      38.392  29.949  32.045  1.00  0.00     0.010 A 
ATOM     40  C   UNL A   1      37.538  30.752  29.922  1.00  0.00     0.010 A 
ATOM     41  C   UNL A   1      38.475  29.990  30.651  1.00  0.00    -0.014 A 
BRANCH  41  42
ATOM     42  C   UNL A   1      39.716  29.505  29.994  1.00  0.00     0.031 A 
ATOM     43  C   UNL A   1      40.852  30.486  29.852  1.00  0.00     0.074 A 
ATOM     44  C   UNL A   1      39.876  28.234  29.583  1.00  0.00     0.049 A 
ATOM     45  N   UNL A   1      42.011  30.346  29.263  1.00  0.00    -0.248 NA
ATOM     46  C   UNL A   1      40.640  31.809  30.460  1.00  0.00     0.031 C 
ATOM     47  C   UNL A   1      38.897  27.161  29.731  1.00  0.00     0.029 A 
ATOM     48  N   UNL A   1      40.937  27.640  28.944  1.00  0.00    -0.354 N 
ATOM     49  C   UNL A   1      42.659  31.566  29.419  1.00  0.00     0.074 A 
ATOM     50  C   UNL A   1      41.752  32.443  30.125  1.00  0.00     0.031 C 
ATOM     51  C   UNL A   1      39.399  26.039  29.182  1.00  0.00     0.029 A 
ATOM     52  C   UNL A   1      40.716  26.325  28.612  1.00  0.00     0.049 A 
ATOM     53  H   UNL A   1      41.777  28.112  28.743  1.00  0.00     0.167 HD
ATOM     54  C   UNL A   1      43.902  31.928  29.021  1.00  0.00     0.037 A 
ATOM     55  C   UNL A   1      41.479  25.467  27.906  1.00  0.00     0.037 A 
ATOM     56  C   UNL A   1      44.802  31.065  28.306  1.00  0.00     0.049 A 
ATOM     57  C   UNL A   1      42.813  25.924  27.365  1.00  0.00     0.074 A 
ATOM     58  C   UNL A   1      46.077  31.339  27.844  1.00  0.00     0.029 A 
ATOM     59  N   UNL A   1      44.516  29.758  27.941  1.00  0.00    -0.354 N 
ATOM     60  N   UNL A   1      43.416  27.081  27.508  1.00  0.00    -0.248 NA
ATOM     61  C   UNL A   1      43.571  24.951  26.563  1.00  0.00     0.031 C 
ATOM     62  C   UNL A   1      46.540  30.217  27.149  1.00  0.00     0.029 A 
ATOM     63  C   UNL A   1      45.581  29.220  27.238  1.00  0.00     0.049 A 
ATOM     64  H   UNL A   1      43.679  29.283  28.150  1.00  0.00     0.167 HD
ATOM     65  C   UNL A   1      44.639  26.960  26.854  1.00  0.00     0.074 A 
ATOM     66  C   UNL A   1      44.691  25.617  26.315  1.00  0.00     0.031 C 
ATOM     67  C   UNL A   1      45.631  27.875  26.720  1.00  0.00     0.037 A 
BRANCH  54  68
ATOM     68  C   UNL A   1      44.328  33.339  29.315  1.00  0.00     0.057 A 
ATOM     69  C   UNL A   1      44.995  33.684  30.498  1.00  0.00     0.134 A 
ATOM     70  C   UNL A   1      44.047  34.370  28.409  1.00  0.00     0.134 A 
ATOM     71  F   UNL A   1      45.277  32.749  31.418  1.00  0.00    -0.206 F 
ATOM     72  C   UNL A   1      45.333  35.008  30.786  1.00  0.00     0.040 A 
ATOM     73  C   UNL A   1      44.409  35.691  28.671  1.00  0.00     0.040 A 
ATOM     74  F   UNL A   1      43.412  34.110  27.256  1.00  0.00    -0.206 F 
ATOM     75  C   UNL A   1      45.043  36.016  29.869  1.00  0.00     0.006 A 
ENDBRANCH  54  68
BRANCH  55  76
ATOM     76  C   UNL A   1      41.006  24.082  27.651  1.00  0.00     0.057 A 
ATOM     77  C   UNL A   1      41.591  22.987  28.301  1.00  0.00     0.134 A 
ATOM     78  C   UNL A   1      39.984  23.813  26.733  1.00  0.00     0.134 A 
ATOM     79  F   UNL A   1      42.590  23.177  29.174  1.00  0.00    -0.206 F 
ATOM     80  C   UNL A   1      41.189  21.677  28.034  1.00  0.00     0.040 A 
ATOM     81  C   UNL A   1      39.552  22.510  26.478  1.00  0.00     0.040 A 
ATOM     82  F   UNL A   1      39.385  24.816  26.073  1.00  0.00    -0.206 F 
ATOM     83  C   UNL A   1      40.161  21.436  27.125  1.00  0.00     0.006 A 
ENDBRANCH  55  76
BRANCH  67  84
ATOM     84  C   UNL A   1      46.890  27.443  26.019  1.00  0.00     0.057 A 
ATOM     85  C   UNL A   1      47.044  27.529  24.630  1.00  0.00     0.134 A 
ATOM     86  C   UNL A   1      47.986  26.977  26.761  1.00  0.00     0.134 A 
ATOM     87  F   UNL A   1      46.032  27.957  23.859  1.00  0.00    -0.206 F 
ATOM     88  C   UNL A   1      48.229  27.143  24.002  1.00  0.00     0.040 A 
ATOM     89  C   UNL A   1      49.187  26.618  26.146  1.00  0.00     0.040 A 
ATOM     90  F   UNL A   1      47.914  26.881  28.097  1.00  0.00    -0.206 F 
ATOM     91  C   UNL A   1      49.308  26.693  24.761  1.00  0.00     0.006 A 
ENDBRANCH  67  84
ENDBRANCH  41  42
ENDBRANCH  34  36
ENDBRANCH  33  34
ENDBRANCH  32  33
ENDBRANCH  31  32
ENDBRANCH  30  31
ENDBRANCH  29  30
ENDBRANCH   1  29
TORSDOF 21
ENDMDL
MODEL 2
REMARK VINA RESULT:     -11.0      1.725      3.774
REMARK SMILES CCS(=O)(=O)Nc1ccc(N2CC[NH+](C)CC2)cc1C(=O)OCCOCCOCCOC(=O)c1ccc(-c2c3nc(c(-c4c(F)cccc4F)c4ccc([nH]4)c(-c4c(F)cccc4F)c4nc(c(-c5c(F)cccc5F)c5ccc2[nH]5)C=C4)C=C3)cc1
REMARK SMILES IDX 26 1 25 2 24 3 23 4 22 5 20 6 21 7 19 8 7 9 8 10 9 11 18 12
REMARK SMILES IDX 10 13 6 14 3 16 4 17 5 18 2 19 1 20 11 21 12 22 17 23 13 24
REMARK SMILES IDX 16 25 14 26 15 27 27 29 28 30 29 31 30 32 31 33 32 34 33 35
REMARK SMILES IDX 34 36 35 37 87 38 36 39 86 40 37 41 38 42 39 43 80 44 40 45
REMARK SMILES IDX 85 46 79 47 81 48 41 49 84 50 78 51 77 52 42 54 68 55 51 56
REMARK SMILES IDX 67 57 52 58 55 59 66 60 82 61 53 62 54 63 65 65 83 66 56 67
REMARK SMILES IDX 43 68 44 69 49 70 45 71 46 72 48 73 50 74 47 75 69 76 70 77
REMARK SMILES IDX 75 78 71 79 72 80 74 81 76 82 73 83 57 84 58 85 63 86 59 87
REMARK SMILES IDX 60 88 62 89 64 90 61 91
REMARK H PARENT 6 15 14 28 81 53 55 64
REMARK Flexibility Score: inf
ROOT
ATOM      1  C   UNL A   1      34.087  32.658  27.966  1.00  0.00     0.188 C 
ENDROOT
BRANCH   1   2
ATOM      2  O   UNL A   1      33.302  31.490  27.805  1.00  0.00    -0.376 OA
BRANCH   2   3
ATOM      3  C   UNL A   1      33.828  30.527  26.908  1.00  0.00     0.202 C 
BRANCH   3   4
ATOM      4  C   UNL A   1      33.992  29.119  27.474  1.00  0.00     0.261 C 
BRANCH   4   5
ATOM      5  O   UNL A   1      32.989  28.140  27.136  1.00  0.00    -0.460 OA
BRANCH   5   6
ATOM      6  C   UNL A   1      33.093  27.349  26.050  1.00  0.00     0.340 C 
ATOM      7  O   UNL A   1      34.128  26.991  25.512  1.00  0.00    -0.246 OA
BRANCH   6   8
ATOM      8  C   UNL A   1      31.734  26.951  25.583  1.00  0.00     0.086 A 
ATOM      9  C   UNL A   1      31.026  25.860  26.114  1.00  0.00     0.063 A 
ATOM     10  C   UNL A   1      29.756  25.571  25.611  1.00  0.00     0.030 A 
ATOM     11  C   UNL A   1      29.184  26.376  24.615  1.00  0.00     0.028 A 
ATOM     12  C   UNL A   1      31.152  27.740  24.572  1.00  0.00     0.043 A 
ATOM     13  C   UNL A   1      29.869  27.472  24.077  1.00  0.00     0.038 A 
BRANCH   9  14
ATOM     14  N   UNL A   1      31.625  24.879  26.952  1.00  0.00    -0.283 N 
ATOM     15  H   UNL A   1      32.213  25.228  27.660  1.00  0.00     0.180 HD
BRANCH  14  16
ATOM     16  S   UNL A   1      31.471  23.237  26.904  1.00  0.00     0.232 S 
ATOM     17  O   UNL A   1      30.233  22.976  27.615  1.00  0.00    -0.207 OA
ATOM     18  O   UNL A   1      32.708  22.708  27.444  1.00  0.00    -0.207 OA
BRANCH  16  19
ATOM     19  C   UNL A   1      31.300  22.507  25.275  1.00  0.00     0.156 C 
ATOM     20  C   UNL A   1      32.270  22.785  24.163  1.00  0.00     0.023 C 
ENDBRANCH  16  19
ENDBRANCH  14  16
ENDBRANCH   9  14
BRANCH  13  21
ATOM     21  N   UNL A   1      29.300  28.277  23.120  1.00  0.00    -0.360 N 
ATOM     22  C   UNL A   1      30.059  28.855  22.005  1.00  0.00     0.178 C 
ATOM     23  C   UNL A   1      27.860  28.555  23.107  1.00  0.00     0.178 C 
ATOM     24  C   UNL A   1      29.768  30.368  21.878  1.00  0.00     0.283 C 
ATOM     25  C   UNL A   1      27.626  30.081  22.966  1.00  0.00     0.283 C 
ATOM     26  N   UNL A   1      28.319  30.666  21.794  1.00  0.00    -0.334 N 
ATOM     27  C   UNL A   1      28.097  32.108  21.719  1.00  0.00     0.332 C 
ATOM     28  H   UNL A   1      27.937  30.247  20.946  1.00  0.00     0.347 HD
ENDBRANCH  13  21
ENDBRANCH   6   8
ENDBRANCH   5   6
ENDBRANCH   4   5
ENDBRANCH   3   4
ENDBRANCH   2   3
ENDBRANCH   1   2
BRANCH   1  29
ATOM     29  C   UNL A   1      33.268  33.963  28.098  1.00  0.00     0.188 C 
BRANCH  29  30
ATOM     30  O   UNL A   1      33.121  34.593  29.359  1.00  0.00    -0.376 OA
BRANCH  30  31
ATOM     31  C   UNL A   1      34.243  34.637  30.228  1.00  0.00     0.202 C 
BRANCH  31  32
ATOM     32  C   UNL A   1      34.142  34.056  31.656  1.00  0.00     0.261 C 
BRANCH  32  33
ATOM     33  O   UNL A   1      34.473  32.661  31.811  1.00  0.00    -0.460 OA
BRANCH  33  34
ATOM     34  C   UNL A   1      35.533  32.375  32.614  1.00  0.00     0.338 C 
ATOM     35  O   UNL A   1      35.632  32.606  33.802  1.00  0.00    -0.246 OA
BRANCH  34  36
ATOM     36  C   UNL A   1      36.491  31.494  31.887  1.00  0.00     0.060 A 
ATOM     37  C   UNL A   1      37.442  30.782  32.641  1.00  0.00     0.016 A 
ATOM     38  C   UNL A   1      36.472  31.369  30.498  1.00  0.00     0.016 A 
ATOM     39  C   UNL A   1      38.392  29.975  32.012  1.00  0.00     0.010 A 
ATOM     40  C   UNL A   1      37.454  30.594  29.864  1.00  0.00     0.010 A 
ATOM     41  C   UNL A   1      38.444  29.929  30.616  1.00  0.00    -0.014 A 
BRANCH  41  42
ATOM     42  C   UNL A   1      39.695  29.466  29.962  1.00  0.00     0.031 A 
ATOM     43  C   UNL A   1      40.821  30.461  29.842  1.00  0.00     0.074 A 
ATOM     44  C   UNL A   1      39.872  28.203  29.536  1.00  0.00     0.049 A 
ATOM     45  N   UNL A   1      41.987  30.341  29.260  1.00  0.00    -0.248 NA
ATOM     46  C   UNL A   1      40.591  31.774  30.467  1.00  0.00     0.031 C 
ATOM     47  C   UNL A   1      38.903  27.118  29.661  1.00  0.00     0.029 A 
ATOM     48  N   UNL A   1      40.943  27.628  28.896  1.00  0.00    -0.354 N 
ATOM     49  C   UNL A   1      42.620  31.566  29.438  1.00  0.00     0.074 A 
ATOM     50  C   UNL A   1      41.698  32.424  30.149  1.00  0.00     0.031 C 
ATOM     51  C   UNL A   1      39.421  26.009  29.101  1.00  0.00     0.029 A 
ATOM     52  C   UNL A   1      40.739  26.317  28.545  1.00  0.00     0.049 A 
ATOM     53  H   UNL A   1      41.780  28.112  28.708  1.00  0.00     0.167 HD
ATOM     54  C   UNL A   1      43.862  31.947  29.054  1.00  0.00     0.037 A 
ATOM     55  C   UNL A   1      41.516  25.476  27.833  1.00  0.00     0.037 A 
ATOM     56  C   UNL A   1      44.777  31.103  28.335  1.00  0.00     0.049 A 
ATOM     57  C   UNL A   1      42.849  25.954  27.309  1.00  0.00     0.074 A 
ATOM     58  C   UNL A   1      46.052  31.397  27.886  1.00  0.00     0.029 A 
ATOM     59  N   UNL A   1      44.508  29.798  27.949  1.00  0.00    -0.354 N 
ATOM     60  N   UNL A   1      43.439  27.115  27.472  1.00  0.00    -0.248 NA
ATOM     61  C   UNL A   1      43.624  25.001  26.499  1.00  0.00     0.031 C 
ATOM     62  C   UNL A   1      46.532  30.289  27.179  1.00  0.00     0.029 A 
ATOM     63  C   UNL A   1      45.583  29.281  27.247  1.00  0.00     0.049 A 
ATOM     64  H   UNL A   1      43.674  29.311  28.146  1.00  0.00     0.167 HD
ATOM     65  C   UNL A   1      44.668  27.017  26.826  1.00  0.00     0.074 A 
ATOM     66  C   UNL A   1      44.739  25.682  26.269  1.00  0.00     0.031 C 
ATOM     67  C   UNL A   1      45.651  27.944  26.711  1.00  0.00     0.037 A 
BRANCH  54  68
ATOM     68  C   UNL A   1      44.271  33.357  29.370  1.00  0.00     0.057 A 
ATOM     69  C   UNL A   1      44.889  33.700  30.581  1.00  0.00     0.134 A 
ATOM     70  C   UNL A   1      44.023  34.391  28.458  1.00  0.00     0.134 A 
ATOM     71  F   UNL A   1      45.138  32.762  31.508  1.00  0.00    -0.206 F 
ATOM     72  C   UNL A   1      45.210  35.024  30.887  1.00  0.00     0.040 A 
ATOM     73  C   UNL A   1      44.369  35.713  28.740  1.00  0.00     0.040 A 
ATOM     74  F   UNL A   1      43.435  34.134  27.280  1.00  0.00    -0.206 F 
ATOM     75  C   UNL A   1      44.954  36.035  29.964  1.00  0.00     0.006 A 
ENDBRANCH  54  68
BRANCH  55  76
ATOM     76  C   UNL A   1      41.060  24.090  27.556  1.00  0.00     0.057 A 
ATOM     77  C   UNL A   1      40.040  23.836  26.631  1.00  0.00     0.134 A 
ATOM     78  C   UNL A   1      41.607  22.990  28.228  1.00  0.00     0.134 A 
ATOM     79  F   UNL A   1      39.459  24.848  25.972  1.00  0.00    -0.206 F 
ATOM     80  C   UNL A   1      39.568  22.542  26.397  1.00  0.00     0.040 A 
ATOM     81  C   UNL A   1      41.165  21.688  27.983  1.00  0.00     0.040 A 
ATOM     82  F   UNL A   1      42.584  23.165  29.130  1.00  0.00    -0.206 F 
ATOM     83  C   UNL A   1      40.137  21.463  27.069  1.00  0.00     0.006 A 
ENDBRANCH  55  76
BRANCH  67  84
ATOM     84  C   UNL A   1      46.920  27.535  26.014  1.00  0.00     0.057 A 
ATOM     85  C   UNL A   1      48.000  26.962  26.695  1.00  0.00     0.134 A 
ATOM     86  C   UNL A   1      47.037  27.676  24.623  1.00  0.00     0.134 A 
ATOM     87  F   UNL A   1      47.959  26.807  28.028  1.00  0.00    -0.206 F 
ATOM     88  C   UNL A   1      49.161  26.569  26.026  1.00  0.00     0.040 A 
ATOM     89  C   UNL A   1      48.179  27.257  23.939  1.00  0.00     0.040 A 
ATOM     90  F   UNL A   1      46.036  28.204  23.904  1.00  0.00    -0.206 F 
ATOM     91  C   UNL A   1      49.250  26.709  24.642  1.00  0.00     0.006 A 
ENDBRANCH  67  84
ENDBRANCH  41  42
ENDBRANCH  34  36
ENDBRANCH  33  34
ENDBRANCH  32  33
ENDBRANCH  31  32
ENDBRANCH  30  31
ENDBRANCH  29  30
ENDBRANCH   1  29
TORSDOF 21
ENDMDL
MODEL 3
REMARK VINA RESULT:     -10.8      4.669      9.826
REMARK SMILES CCS(=O)(=O)Nc1ccc(N2CC[NH+](C)CC2)cc1C(=O)OCCOCCOCCOC(=O)c1ccc(-c2c3nc(c(-c4c(F)cccc4F)c4ccc([nH]4)c(-c4c(F)cccc4F)c4nc(c(-c5c(F)cccc5F)c5ccc2[nH]5)C=C4)C=C3)cc1
REMARK SMILES IDX 26 1 25 2 24 3 23 4 22 5 20 6 21 7 19 8 7 9 8 10 9 11 18 12
REMARK SMILES IDX 10 13 6 14 3 16 4 17 5 18 2 19 1 20 11 21 12 22 17 23 13 24
REMARK SMILES IDX 16 25 14 26 15 27 27 29 28 30 29 31 30 32 31 33 32 34 33 35
REMARK SMILES IDX 34 36 35 37 87 38 36 39 86 40 37 41 38 42 39 43 80 44 40 45
REMARK SMILES IDX 85 46 79 47 81 48 41 49 84 50 78 51 77 52 42 54 68 55 51 56
REMARK SMILES IDX 67 57 52 58 55 59 66 60 82 61 53 62 54 63 65 65 83 66 56 67
REMARK SMILES IDX 43 68 44 69 49 70 45 71 46 72 48 73 50 74 47 75 69 76 70 77
REMARK SMILES IDX 75 78 71 79 72 80 74 81 76 82 73 83 57 84 58 85 63 86 59 87
REMARK SMILES IDX 60 88 62 89 64 90 61 91
REMARK H PARENT 6 15 14 28 81 53 55 64
REMARK Flexibility Score: inf
ROOT
ATOM      1  C   UNL A   1      40.399  21.537  27.243  1.00  0.00     0.188 C 
ENDROOT
BRANCH   1   2
ATOM      2  O   UNL A   1      39.913  21.820  25.943  1.00  0.00    -0.376 OA
BRANCH   2   3
ATOM      3  C   UNL A   1      38.551  21.498  25.724  1.00  0.00     0.202 C 
BRANCH   3   4
ATOM      4  C   UNL A   1      37.638  22.678  25.403  1.00  0.00     0.261 C 
BRANCH   4   5
ATOM      5  O   UNL A   1      36.214  22.467  25.488  1.00  0.00    -0.460 OA
BRANCH   5   6
ATOM      6  C   UNL A   1      35.325  23.435  25.192  1.00  0.00     0.340 C 
ATOM      7  O   UNL A   1      35.359  24.592  25.579  1.00  0.00    -0.246 OA
BRANCH   6   8
ATOM      8  C   UNL A   1      34.265  22.890  24.297  1.00  0.00     0.086 A 
ATOM      9  C   UNL A   1      33.697  23.623  23.241  1.00  0.00     0.063 A 
ATOM     10  C   UNL A   1      32.712  23.020  22.456  1.00  0.00     0.030 A 
ATOM     11  C   UNL A   1      32.319  21.695  22.696  1.00  0.00     0.028 A 
ATOM     12  C   UNL A   1      33.849  21.566  24.535  1.00  0.00     0.043 A 
ATOM     13  C   UNL A   1      32.877  20.945  23.738  1.00  0.00     0.038 A 
BRANCH   9  14
ATOM     14  N   UNL A   1      33.879  25.024  23.082  1.00  0.00    -0.283 N 
ATOM     15  H   UNL A   1      34.666  25.291  22.553  1.00  0.00     0.180 HD
BRANCH  14  16
ATOM     16  S   UNL A   1      32.957  26.264  23.658  1.00  0.00     0.232 S 
ATOM     17  O   UNL A   1      33.924  27.278  24.038  1.00  0.00    -0.207 OA
ATOM     18  O   UNL A   1      32.114  25.686  24.687  1.00  0.00    -0.207 OA
BRANCH  16  19
ATOM     19  C   UNL A   1      31.837  27.028  22.485  1.00  0.00     0.156 C 
ATOM     20  C   UNL A   1      31.309  28.422  22.667  1.00  0.00     0.023 C 
ENDBRANCH  16  19
ENDBRANCH  14  16
ENDBRANCH   9  14
BRANCH  13  21
ATOM     21  N   UNL A   1      32.513  19.640  23.960  1.00  0.00    -0.360 N 
ATOM     22  C   UNL A   1      32.137  19.126  25.283  1.00  0.00     0.178 C 
ATOM     23  C   UNL A   1      32.401  18.675  22.860  1.00  0.00     0.178 C 
ATOM     24  C   UNL A   1      32.895  17.814  25.590  1.00  0.00     0.283 C 
ATOM     25  C   UNL A   1      33.167  17.378  23.225  1.00  0.00     0.283 C 
ATOM     26  N   UNL A   1      32.739  16.800  24.521  1.00  0.00    -0.334 N 
ATOM     27  C   UNL A   1      33.508  15.598  24.839  1.00  0.00     0.332 C 
ATOM     28  H   UNL A   1      31.757  16.532  24.450  1.00  0.00     0.347 HD
ENDBRANCH  13  21
ENDBRANCH   6   8
ENDBRANCH   5   6
ENDBRANCH   4   5
ENDBRANCH   3   4
ENDBRANCH   2   3
ENDBRANCH   1   2
BRANCH   1  29
ATOM     29  C   UNL A   1      41.821  20.930  27.274  1.00  0.00     0.188 C 
BRANCH  29  30
ATOM     30  O   UNL A   1      42.950  21.757  27.502  1.00  0.00    -0.376 OA
BRANCH  30  31
ATOM     31  C   UNL A   1      43.959  21.814  26.505  1.00  0.00     0.202 C 
BRANCH  31  32
ATOM     32  C   UNL A   1      43.577  22.044  25.026  1.00  0.00     0.261 C 
BRANCH  32  33
ATOM     33  O   UNL A   1      43.076  23.352  24.684  1.00  0.00    -0.460 OA
BRANCH  33  34
ATOM     34  C   UNL A   1      43.828  24.413  25.084  1.00  0.00     0.338 C 
ATOM     35  O   UNL A   1      44.939  24.709  24.692  1.00  0.00    -0.246 OA
BRANCH  34  36
ATOM     36  C   UNL A   1      42.998  25.337  25.907  1.00  0.00     0.060 A 
ATOM     37  C   UNL A   1      43.381  26.689  25.981  1.00  0.00     0.016 A 
ATOM     38  C   UNL A   1      41.872  24.897  26.602  1.00  0.00     0.016 A 
ATOM     39  C   UNL A   1      42.667  27.591  26.770  1.00  0.00     0.010 A 
ATOM     40  C   UNL A   1      41.180  25.793  27.431  1.00  0.00     0.010 A 
ATOM     41  C   UNL A   1      41.603  27.134  27.551  1.00  0.00    -0.014 A 
BRANCH  41  42
ATOM     42  C   UNL A   1      41.155  27.957  28.705  1.00  0.00     0.031 A 
ATOM     43  C   UNL A   1      41.945  27.842  29.984  1.00  0.00     0.074 A 
ATOM     44  C   UNL A   1      40.129  28.823  28.629  1.00  0.00     0.049 A 
ATOM     45  N   UNL A   1      41.734  28.393  31.151  1.00  0.00    -0.248 NA
ATOM     46  C   UNL A   1      43.138  26.982  29.929  1.00  0.00     0.031 C 
ATOM     47  C   UNL A   1      39.331  29.097  27.438  1.00  0.00     0.029 A 
ATOM     48  N   UNL A   1      39.580  29.629  29.597  1.00  0.00    -0.354 N 
ATOM     49  C   UNL A   1      42.758  27.934  31.971  1.00  0.00     0.074 A 
ATOM     50  C   UNL A   1      43.568  27.035  31.179  1.00  0.00     0.031 C 
ATOM     51  C   UNL A   1      38.382  29.999  27.750  1.00  0.00     0.029 A 
ATOM     52  C   UNL A   1      38.484  30.337  29.170  1.00  0.00     0.049 A 
ATOM     53  H   UNL A   1      39.941  29.694  30.511  1.00  0.00     0.167 HD
ATOM     54  C   UNL A   1      43.014  28.237  33.266  1.00  0.00     0.037 A 
ATOM     55  C   UNL A   1      37.646  31.139  29.857  1.00  0.00     0.037 A 
ATOM     56  C   UNL A   1      42.204  29.118  34.062  1.00  0.00     0.049 A 
ATOM     57  C   UNL A   1      37.875  31.372  31.332  1.00  0.00     0.074 A 
ATOM     58  C   UNL A   1      42.368  29.480  35.387  1.00  0.00     0.029 A 
ATOM     59  N   UNL A   1      41.068  29.771  33.606  1.00  0.00    -0.354 N 
ATOM     60  N   UNL A   1      38.840  30.929  32.103  1.00  0.00    -0.248 NA
ATOM     61  C   UNL A   1      36.895  32.219  32.029  1.00  0.00     0.031 C 
ATOM     62  C   UNL A   1      41.298  30.306  35.749  1.00  0.00     0.029 A 
ATOM     63  C   UNL A   1      40.507  30.514  34.631  1.00  0.00     0.049 A 
ATOM     64  H   UNL A   1      40.714  29.714  32.689  1.00  0.00     0.167 HD
ATOM     65  C   UNL A   1      38.608  31.477  33.361  1.00  0.00     0.074 A 
ATOM     66  C   UNL A   1      37.413  32.286  33.249  1.00  0.00     0.031 C 
ATOM     67  C   UNL A   1      39.325  31.331  34.504  1.00  0.00     0.037 A 
BRANCH  54  68
ATOM     68  C   UNL A   1      44.196  27.563  33.903  1.00  0.00     0.057 A 
ATOM     69  C   UNL A   1      45.485  28.110  33.847  1.00  0.00     0.134 A 
ATOM     70  C   UNL A   1      44.044  26.337  34.566  1.00  0.00     0.134 A 
ATOM     71  F   UNL A   1      45.704  29.271  33.211  1.00  0.00    -0.206 F 
ATOM     72  C   UNL A   1      46.585  27.445  34.392  1.00  0.00     0.040 A 
ATOM     73  C   UNL A   1      45.130  25.680  35.142  1.00  0.00     0.040 A 
ATOM     74  F   UNL A   1      42.838  25.758  34.658  1.00  0.00    -0.206 F 
ATOM     75  C   UNL A   1      46.409  26.227  35.045  1.00  0.00     0.006 A 
ENDBRANCH  54  68
BRANCH  55  76
ATOM     76  C   UNL A   1      36.495  31.782  29.171  1.00  0.00     0.057 A 
ATOM     77  C   UNL A   1      35.366  31.040  28.804  1.00  0.00     0.134 A 
ATOM     78  C   UNL A   1      36.508  33.141  28.837  1.00  0.00     0.134 A 
ATOM     79  F   UNL A   1      35.303  29.729  29.075  1.00  0.00    -0.206 F 
ATOM     80  C   UNL A   1      34.299  31.622  28.116  1.00  0.00     0.040 A 
ATOM     81  C   UNL A   1      35.436  33.743  28.174  1.00  0.00     0.040 A 
ATOM     82  F   UNL A   1      37.562  33.907  29.155  1.00  0.00    -0.206 F 
ATOM     83  C   UNL A   1      34.330  32.980  27.805  1.00  0.00     0.006 A 
ENDBRANCH  55  76
BRANCH  67  84
ATOM     84  C   UNL A   1      38.882  32.110  35.712  1.00  0.00     0.057 A 
ATOM     85  C   UNL A   1      38.149  31.528  36.753  1.00  0.00     0.134 A 
ATOM     86  C   UNL A   1      39.240  33.459  35.852  1.00  0.00     0.134 A 
ATOM     87  F   UNL A   1      37.765  30.244  36.679  1.00  0.00    -0.206 F 
ATOM     88  C   UNL A   1      37.766  32.263  37.876  1.00  0.00     0.040 A 
ATOM     89  C   UNL A   1      38.890  34.195  36.985  1.00  0.00     0.040 A 
ATOM     90  F   UNL A   1      39.954  34.078  34.900  1.00  0.00    -0.206 F 
ATOM     91  C   UNL A   1      38.143  33.599  37.998  1.00  0.00     0.006 A 
ENDBRANCH  67  84
ENDBRANCH  41  42
ENDBRANCH  34  36
ENDBRANCH  33  34
ENDBRANCH  32  33
ENDBRANCH  31  32
ENDBRANCH  30  31
ENDBRANCH  29  30
ENDBRANCH   1  29
TORSDOF 21
ENDMDL
