MODEL 1
REMARK VINA RESULT:     -11.0      0.000      0.000
REMARK SMILES CCCn1ncc(C(=O)N2CCC(C(=O)OCCOCCOCCOC(=O)c3ccc(-c4c5nc(c(-c6c(F)cccc6F)c6ccc([nH]6)c(-c6c(F)cccc6F)c6nc(c(-c7c(F)cccc7F)c7ccc4[nH]7)C=C6)C=C5)cc3)CC2)c1C
REMARK SMILES IDX 20 1 19 2 18 3 17 4 16 5 14 6 15 7 13 8 8 9 9 10 10 11 11 12
REMARK SMILES IDX 83 13 12 14 82 15 7 16 4 17 5 18 84 19 6 20 85 21 3 22 2 23
REMARK SMILES IDX 1 24 21 25 22 26 23 27 24 28 25 29 26 30 27 31 28 32 29 33
REMARK SMILES IDX 81 34 30 35 80 36 31 37 32 38 33 39 74 40 34 41 79 42 73 43
REMARK SMILES IDX 75 44 35 45 78 46 72 47 71 48 36 50 62 51 45 52 61 53 46 54
REMARK SMILES IDX 49 55 60 56 76 57 47 58 48 59 59 61 77 62 50 63 37 64 38 65
REMARK SMILES IDX 43 66 39 67 40 68 42 69 44 70 41 71 63 72 64 73 69 74 65 75
REMARK SMILES IDX 66 76 68 77 70 78 67 79 51 80 52 81 57 82 53 83 54 84 56 85
REMARK SMILES IDX 58 86 55 87
REMARK H PARENT 75 49 49 60
REMARK Flexibility Score: inf
ROOT
ATOM      1  C   UNL A   1      39.459  22.190  26.264  1.00  0.00     0.188 C 
ENDROOT
BRANCH   1   2
ATOM      2  O   UNL A   1      38.206  22.181  25.581  1.00  0.00    -0.376 OA
BRANCH   2   3
ATOM      3  C   UNL A   1      37.815  20.944  24.990  1.00  0.00     0.202 C 
BRANCH   3   4
ATOM      4  C   UNL A   1      36.318  20.612  25.049  1.00  0.00     0.261 C 
BRANCH   4   5
ATOM      5  O   UNL A   1      35.609  21.295  26.099  1.00  0.00    -0.463 OA
BRANCH   5   6
ATOM      6  C   UNL A   1      34.302  21.559  25.860  1.00  0.00     0.309 C 
ATOM      7  O   UNL A   1      33.371  21.150  26.548  1.00  0.00    -0.252 OA
BRANCH   6   8
ATOM      8  C   UNL A   1      34.066  22.469  24.666  1.00  0.00     0.103 C 
ATOM      9  C   UNL A   1      31.287  24.848  23.079  1.00  0.00     0.257 C 
ATOM     10  O   UNL A   1      30.347  24.053  23.056  1.00  0.00    -0.269 OA
ATOM     11  N   UNL A   1      32.598  24.387  23.106  1.00  0.00    -0.338 N 
ATOM     12  C   UNL A   1      32.858  23.071  22.547  1.00  0.00     0.120 C 
ATOM     13  C   UNL A   1      33.594  24.873  24.054  1.00  0.00     0.120 C 
ATOM     14  C   UNL A   1      33.004  22.027  23.648  1.00  0.00     0.037 C 
ATOM     15  C   UNL A   1      33.760  23.874  25.194  1.00  0.00     0.037 C 
BRANCH   9  16
ATOM     16  C   UNL A   1      31.073  26.293  22.991  1.00  0.00     0.080 A 
ATOM     17  N   UNL A   1      30.212  28.322  23.242  1.00  0.00    -0.269 N 
ATOM     18  N   UNL A   1      31.296  28.496  22.447  1.00  0.00    -0.180 NA
ATOM     19  C   UNL A   1      29.984  26.992  23.517  1.00  0.00     0.048 A 
ATOM     20  C   UNL A   1      31.789  27.274  22.283  1.00  0.00     0.149 A 
ATOM     21  C   UNL A   1      28.810  26.407  24.222  1.00  0.00     0.067 C 
BRANCH  17  22
ATOM     22  C   UNL A   1      29.541  29.558  23.610  1.00  0.00     0.144 C 
BRANCH  22  23
ATOM     23  C   UNL A   1      28.423  30.149  22.759  1.00  0.00     0.020 C 
ATOM     24  C   UNL A   1      27.729  31.340  23.404  1.00  0.00     0.006 C 
ENDBRANCH  22  23
ENDBRANCH  17  22
ENDBRANCH   9  16
ENDBRANCH   6   8
ENDBRANCH   5   6
ENDBRANCH   4   5
ENDBRANCH   3   4
ENDBRANCH   2   3
ENDBRANCH   1   2
BRANCH   1  25
ATOM     25  C   UNL A   1      40.052  20.809  26.547  1.00  0.00     0.188 C 
BRANCH  25  26
ATOM     26  O   UNL A   1      41.299  20.827  27.223  1.00  0.00    -0.376 OA
BRANCH  26  27
ATOM     27  C   UNL A   1      42.186  19.706  27.229  1.00  0.00     0.202 C 
BRANCH  27  28
ATOM     28  C   UNL A   1      42.642  18.917  25.990  1.00  0.00     0.261 C 
BRANCH  28  29
ATOM     29  O   UNL A   1      43.218  19.668  24.949  1.00  0.00    -0.460 OA
BRANCH  29  30
ATOM     30  C   UNL A   1      44.554  19.856  25.014  1.00  0.00     0.338 C 
ATOM     31  O   UNL A   1      45.418  19.027  25.115  1.00  0.00    -0.246 OA
BRANCH  30  32
ATOM     32  C   UNL A   1      44.743  21.318  24.893  1.00  0.00     0.060 A 
ATOM     33  C   UNL A   1      45.960  21.835  25.326  1.00  0.00     0.016 A 
ATOM     34  C   UNL A   1      43.666  22.149  24.523  1.00  0.00     0.016 A 
ATOM     35  C   UNL A   1      45.978  23.148  25.723  1.00  0.00     0.010 A 
ATOM     36  C   UNL A   1      43.682  23.456  24.911  1.00  0.00     0.010 A 
ATOM     37  C   UNL A   1      44.785  23.871  25.642  1.00  0.00    -0.014 A 
BRANCH  37  38
ATOM     38  C   UNL A   1      44.639  25.024  26.492  1.00  0.00     0.031 A 
ATOM     39  C   UNL A   1      45.755  25.972  26.387  1.00  0.00     0.074 A 
ATOM     40  C   UNL A   1      43.513  25.186  27.213  1.00  0.00     0.049 A 
ATOM     41  N   UNL A   1      46.660  26.224  27.269  1.00  0.00    -0.248 NA
ATOM     42  C   UNL A   1      46.002  26.572  25.067  1.00  0.00     0.031 C 
ATOM     43  C   UNL A   1      42.264  24.415  27.133  1.00  0.00     0.029 A 
ATOM     44  N   UNL A   1      43.212  26.153  28.115  1.00  0.00    -0.354 N 
ATOM     45  C   UNL A   1      47.451  27.209  26.693  1.00  0.00     0.074 A 
ATOM     46  C   UNL A   1      47.157  27.201  25.286  1.00  0.00     0.031 C 
ATOM     47  C   UNL A   1      41.284  25.082  27.783  1.00  0.00     0.029 A 
ATOM     48  C   UNL A   1      41.862  26.246  28.427  1.00  0.00     0.049 A 
ATOM     49  H   UNL A   1      43.894  26.741  28.515  1.00  0.00     0.167 HD
ATOM     50  C   UNL A   1      48.018  28.172  27.465  1.00  0.00     0.037 A 
ATOM     51  C   UNL A   1      41.278  27.274  29.091  1.00  0.00     0.037 A 
ATOM     52  C   UNL A   1      48.104  27.752  28.844  1.00  0.00     0.049 A 
ATOM     53  C   UNL A   1      42.357  28.005  29.804  1.00  0.00     0.074 A 
ATOM     54  C   UNL A   1      48.699  26.696  29.507  1.00  0.00     0.029 A 
ATOM     55  N   UNL A   1      47.194  28.281  29.728  1.00  0.00    -0.354 N 
ATOM     56  N   UNL A   1      43.032  27.508  30.805  1.00  0.00    -0.248 NA
ATOM     57  C   UNL A   1      43.006  29.105  29.104  1.00  0.00     0.031 C 
ATOM     58  C   UNL A   1      47.806  26.368  30.570  1.00  0.00     0.029 A 
ATOM     59  C   UNL A   1      46.739  27.265  30.526  1.00  0.00     0.049 A 
ATOM     60  H   UNL A   1      46.919  29.225  29.780  1.00  0.00     0.167 HD
ATOM     61  C   UNL A   1      44.338  27.935  30.604  1.00  0.00     0.074 A 
ATOM     62  C   UNL A   1      44.243  28.985  29.593  1.00  0.00     0.031 C 
ATOM     63  C   UNL A   1      45.395  27.198  31.056  1.00  0.00     0.037 A 
BRANCH  50  64
ATOM     64  C   UNL A   1      48.065  29.625  27.056  1.00  0.00     0.057 A 
ATOM     65  C   UNL A   1      49.281  30.317  27.182  1.00  0.00     0.134 A 
ATOM     66  C   UNL A   1      46.932  30.444  26.839  1.00  0.00     0.134 A 
ATOM     67  F   UNL A   1      50.428  29.656  27.394  1.00  0.00    -0.206 F 
ATOM     68  C   UNL A   1      49.349  31.715  27.191  1.00  0.00     0.040 A 
ATOM     69  C   UNL A   1      46.999  31.836  26.792  1.00  0.00     0.040 A 
ATOM     70  F   UNL A   1      45.687  29.963  26.761  1.00  0.00    -0.206 F 
ATOM     71  C   UNL A   1      48.203  32.480  27.007  1.00  0.00     0.006 A 
ENDBRANCH  50  64
BRANCH  51  72
ATOM     72  C   UNL A   1      39.943  27.865  28.842  1.00  0.00     0.057 A 
ATOM     73  C   UNL A   1      38.965  27.897  29.845  1.00  0.00     0.134 A 
ATOM     74  C   UNL A   1      39.685  28.653  27.705  1.00  0.00     0.134 A 
ATOM     75  F   UNL A   1      39.141  27.216  30.987  1.00  0.00    -0.206 F 
ATOM     76  C   UNL A   1      37.807  28.679  29.733  1.00  0.00     0.040 A 
ATOM     77  C   UNL A   1      38.531  29.433  27.577  1.00  0.00     0.040 A 
ATOM     78  F   UNL A   1      40.585  28.767  26.718  1.00  0.00    -0.206 F 
ATOM     79  C   UNL A   1      37.592  29.458  28.599  1.00  0.00     0.006 A 
ENDBRANCH  51  72
BRANCH  63  80
ATOM     80  C   UNL A   1      45.097  26.059  31.993  1.00  0.00     0.057 A 
ATOM     81  C   UNL A   1      44.965  26.206  33.383  1.00  0.00     0.134 A 
ATOM     82  C   UNL A   1      44.781  24.807  31.457  1.00  0.00     0.134 A 
ATOM     83  F   UNL A   1      45.152  27.393  33.972  1.00  0.00    -0.206 F 
ATOM     84  C   UNL A   1      44.573  25.145  34.204  1.00  0.00     0.040 A 
ATOM     85  C   UNL A   1      44.357  23.747  32.261  1.00  0.00     0.040 A 
ATOM     86  F   UNL A   1      44.828  24.610  30.130  1.00  0.00    -0.206 F 
ATOM     87  C   UNL A   1      44.261  23.910  33.642  1.00  0.00     0.006 A 
ENDBRANCH  63  80
ENDBRANCH  37  38
ENDBRANCH  30  32
ENDBRANCH  29  30
ENDBRANCH  28  29
ENDBRANCH  27  28
ENDBRANCH  26  27
ENDBRANCH  25  26
ENDBRANCH   1  25
TORSDOF 20
ENDMDL
MODEL 2
REMARK VINA RESULT:     -10.7      5.807     10.576
REMARK SMILES CCCn1ncc(C(=O)N2CCC(C(=O)OCCOCCOCCOC(=O)c3ccc(-c4c5nc(c(-c6c(F)cccc6F)c6ccc([nH]6)c(-c6c(F)cccc6F)c6nc(c(-c7c(F)cccc7F)c7ccc4[nH]7)C=C6)C=C5)cc3)CC2)c1C
REMARK SMILES IDX 20 1 19 2 18 3 17 4 16 5 14 6 15 7 13 8 8 9 9 10 10 11 11 12
REMARK SMILES IDX 83 13 12 14 82 15 7 16 4 17 5 18 84 19 6 20 85 21 3 22 2 23
REMARK SMILES IDX 1 24 21 25 22 26 23 27 24 28 25 29 26 30 27 31 28 32 29 33
REMARK SMILES IDX 81 34 30 35 80 36 31 37 32 38 33 39 74 40 34 41 79 42 73 43
REMARK SMILES IDX 75 44 35 45 78 46 72 47 71 48 36 50 62 51 45 52 61 53 46 54
REMARK SMILES IDX 49 55 60 56 76 57 47 58 48 59 59 61 77 62 50 63 37 64 38 65
REMARK SMILES IDX 43 66 39 67 40 68 42 69 44 70 41 71 63 72 64 73 69 74 65 75
REMARK SMILES IDX 66 76 68 77 70 78 67 79 51 80 52 81 57 82 53 83 54 84 56 85
REMARK SMILES IDX 58 86 55 87
REMARK H PARENT 75 49 49 60
REMARK Flexibility Score: inf
ROOT
ATOM      1  C   UNL A   1      33.040  35.223  29.492  1.00  0.00     0.188 C 
ENDROOT
BRANCH   1   2
ATOM      2  O   UNL A   1      32.684  36.529  29.945  1.00  0.00    -0.376 OA
BRANCH   2   3
ATOM      3  C   UNL A   1      32.986  36.833  31.304  1.00  0.00     0.202 C 
BRANCH   3   4
ATOM      4  C   UNL A   1      33.143  35.631  32.245  1.00  0.00     0.261 C 
BRANCH   4   5
ATOM      5  O   UNL A   1      34.489  35.130  32.334  1.00  0.00    -0.463 OA
BRANCH   5   6
ATOM      6  C   UNL A   1      34.639  33.930  32.943  1.00  0.00     0.309 C 
ATOM      7  O   UNL A   1      33.743  33.104  33.088  1.00  0.00    -0.252 OA
BRANCH   6   8
ATOM      8  C   UNL A   1      36.058  33.649  33.410  1.00  0.00     0.103 C 
ATOM      9  C   UNL A   1      39.619  32.521  32.012  1.00  0.00     0.257 C 
ATOM     10  O   UNL A   1      39.275  31.495  31.425  1.00  0.00    -0.269 OA
ATOM     11  N   UNL A   1      38.843  33.032  33.046  1.00  0.00    -0.338 N 
ATOM     12  C   UNL A   1      38.002  32.100  33.778  1.00  0.00     0.120 C 
ATOM     13  C   UNL A   1      38.442  34.432  33.123  1.00  0.00     0.120 C 
ATOM     14  C   UNL A   1      36.550  32.197  33.321  1.00  0.00     0.037 C 
ATOM     15  C   UNL A   1      37.000  34.588  32.651  1.00  0.00     0.037 C 
BRANCH   9  16
ATOM     16  C   UNL A   1      40.884  33.190  31.713  1.00  0.00     0.080 A 
ATOM     17  N   UNL A   1      42.407  34.528  30.812  1.00  0.00    -0.269 N 
ATOM     18  N   UNL A   1      43.086  33.785  31.719  1.00  0.00    -0.180 NA
ATOM     19  C   UNL A   1      41.091  34.136  30.706  1.00  0.00     0.048 A 
ATOM     20  C   UNL A   1      42.171  32.972  32.235  1.00  0.00     0.149 A 
ATOM     21  C   UNL A   1      40.088  34.610  29.713  1.00  0.00     0.067 C 
BRANCH  17  22
ATOM     22  C   UNL A   1      43.212  35.548  30.158  1.00  0.00     0.144 C 
BRANCH  22  23
ATOM     23  C   UNL A   1      43.474  35.524  28.657  1.00  0.00     0.020 C 
ATOM     24  C   UNL A   1      43.669  34.125  28.092  1.00  0.00     0.006 C 
ENDBRANCH  22  23
ENDBRANCH  17  22
ENDBRANCH   9  16
ENDBRANCH   6   8
ENDBRANCH   5   6
ENDBRANCH   4   5
ENDBRANCH   3   4
ENDBRANCH   2   3
ENDBRANCH   1   2
BRANCH   1  25
ATOM     25  C   UNL A   1      34.152  35.184  28.442  1.00  0.00     0.188 C 
BRANCH  25  26
ATOM     26  O   UNL A   1      35.160  34.215  28.683  1.00  0.00    -0.376 OA
BRANCH  26  27
ATOM     27  C   UNL A   1      34.870  32.822  28.822  1.00  0.00     0.202 C 
BRANCH  27  28
ATOM     28  C   UNL A   1      35.627  31.677  28.128  1.00  0.00     0.261 C 
BRANCH  28  29
ATOM     29  O   UNL A   1      36.881  31.338  28.670  1.00  0.00    -0.460 OA
BRANCH  29  30
ATOM     30  C   UNL A   1      36.904  30.283  29.514  1.00  0.00     0.338 C 
ATOM     31  O   UNL A   1      36.299  30.141  30.542  1.00  0.00    -0.246 OA
BRANCH  30  32
ATOM     32  C   UNL A   1      37.812  29.303  28.880  1.00  0.00     0.060 A 
ATOM     33  C   UNL A   1      38.149  28.180  29.628  1.00  0.00     0.016 A 
ATOM     34  C   UNL A   1      38.435  29.598  27.650  1.00  0.00     0.016 A 
ATOM     35  C   UNL A   1      39.336  27.560  29.329  1.00  0.00     0.010 A 
ATOM     36  C   UNL A   1      39.612  28.980  27.346  1.00  0.00     0.010 A 
ATOM     37  C   UNL A   1      40.103  28.086  28.286  1.00  0.00    -0.014 A 
BRANCH  37  38
ATOM     38  C   UNL A   1      41.516  27.809  28.285  1.00  0.00     0.031 A 
ATOM     39  C   UNL A   1      41.863  26.547  27.621  1.00  0.00     0.074 A 
ATOM     40  C   UNL A   1      42.376  28.718  28.783  1.00  0.00     0.049 A 
ATOM     41  N   UNL A   1      42.294  25.462  28.167  1.00  0.00    -0.248 NA
ATOM     42  C   UNL A   1      41.507  26.417  26.200  1.00  0.00     0.031 C 
ATOM     43  C   UNL A   1      42.099  30.102  29.195  1.00  0.00     0.029 A 
ATOM     44  N   UNL A   1      43.720  28.622  28.937  1.00  0.00    -0.354 N 
ATOM     45  C   UNL A   1      42.497  24.589  27.107  1.00  0.00     0.074 A 
ATOM     46  C   UNL A   1      41.780  25.131  25.986  1.00  0.00     0.031 C 
ATOM     47  C   UNL A   1      43.266  30.769  29.334  1.00  0.00     0.029 A 
ATOM     48  C   UNL A   1      44.361  29.835  29.151  1.00  0.00     0.049 A 
ATOM     49  H   UNL A   1      44.201  27.763  28.900  1.00  0.00     0.167 HD
ATOM     50  C   UNL A   1      43.512  23.687  27.147  1.00  0.00     0.037 A 
ATOM     51  C   UNL A   1      45.699  30.041  29.081  1.00  0.00     0.037 A 
ATOM     52  C   UNL A   1      43.945  23.447  28.504  1.00  0.00     0.049 A 
ATOM     53  C   UNL A   1      46.353  28.712  29.203  1.00  0.00     0.074 A 
ATOM     54  C   UNL A   1      43.332  22.994  29.657  1.00  0.00     0.029 A 
ATOM     55  N   UNL A   1      45.117  24.036  28.912  1.00  0.00    -0.354 N 
ATOM     56  N   UNL A   1      46.340  27.995  30.295  1.00  0.00    -0.248 NA
ATOM     57  C   UNL A   1      46.616  27.971  27.977  1.00  0.00     0.031 C 
ATOM     58  C   UNL A   1      43.940  23.728  30.719  1.00  0.00     0.029 A 
ATOM     59  C   UNL A   1      44.917  24.555  30.164  1.00  0.00     0.049 A 
ATOM     60  H   UNL A   1      45.954  24.076  28.396  1.00  0.00     0.167 HD
ATOM     61  C   UNL A   1      46.176  26.686  29.861  1.00  0.00     0.074 A 
ATOM     62  C   UNL A   1      46.442  26.725  28.426  1.00  0.00     0.031 C 
ATOM     63  C   UNL A   1      45.557  25.757  30.648  1.00  0.00     0.037 A 
BRANCH  50  64
ATOM     64  C   UNL A   1      44.388  23.389  25.953  1.00  0.00     0.057 A 
ATOM     65  C   UNL A   1      44.554  22.051  25.562  1.00  0.00     0.134 A 
ATOM     66  C   UNL A   1      45.299  24.299  25.368  1.00  0.00     0.134 A 
ATOM     67  F   UNL A   1      43.756  21.089  26.049  1.00  0.00    -0.206 F 
ATOM     68  C   UNL A   1      45.605  21.638  24.735  1.00  0.00     0.040 A 
ATOM     69  C   UNL A   1      46.316  23.904  24.500  1.00  0.00     0.040 A 
ATOM     70  F   UNL A   1      45.331  25.600  25.674  1.00  0.00    -0.206 F 
ATOM     71  C   UNL A   1      46.497  22.564  24.210  1.00  0.00     0.006 A 
ENDBRANCH  50  64
BRANCH  51  72
ATOM     72  C   UNL A   1      46.402  31.230  28.547  1.00  0.00     0.057 A 
ATOM     73  C   UNL A   1      46.360  31.545  27.183  1.00  0.00     0.134 A 
ATOM     74  C   UNL A   1      46.907  32.232  29.396  1.00  0.00     0.134 A 
ATOM     75  F   UNL A   1      45.853  30.674  26.299  1.00  0.00    -0.206 F 
ATOM     76  C   UNL A   1      46.779  32.790  26.692  1.00  0.00     0.040 A 
ATOM     77  C   UNL A   1      47.334  33.475  28.920  1.00  0.00     0.040 A 
ATOM     78  F   UNL A   1      46.918  32.075  30.727  1.00  0.00    -0.206 F 
ATOM     79  C   UNL A   1      47.259  33.764  27.564  1.00  0.00     0.006 A 
ENDBRANCH  51  72
BRANCH  63  80
ATOM     80  C   UNL A   1      45.295  26.128  32.083  1.00  0.00     0.057 A 
ATOM     81  C   UNL A   1      44.120  26.756  32.525  1.00  0.00     0.134 A 
ATOM     82  C   UNL A   1      46.189  25.697  33.067  1.00  0.00     0.134 A 
ATOM     83  F   UNL A   1      43.162  27.115  31.661  1.00  0.00    -0.206 F 
ATOM     84  C   UNL A   1      43.866  26.978  33.881  1.00  0.00     0.040 A 
ATOM     85  C   UNL A   1      45.934  25.884  34.428  1.00  0.00     0.040 A 
ATOM     86  F   UNL A   1      47.306  25.038  32.722  1.00  0.00    -0.206 F 
ATOM     87  C   UNL A   1      44.773  26.535  34.839  1.00  0.00     0.006 A 
ENDBRANCH  63  80
ENDBRANCH  37  38
ENDBRANCH  30  32
ENDBRANCH  29  30
ENDBRANCH  28  29
ENDBRANCH  27  28
ENDBRANCH  26  27
ENDBRANCH  25  26
ENDBRANCH   1  25
TORSDOF 20
ENDMDL
MODEL 3
REMARK VINA RESULT:     -10.7      5.854     11.867
REMARK SMILES CCCn1ncc(C(=O)N2CCC(C(=O)OCCOCCOCCOC(=O)c3ccc(-c4c5nc(c(-c6c(F)cccc6F)c6ccc([nH]6)c(-c6c(F)cccc6F)c6nc(c(-c7c(F)cccc7F)c7ccc4[nH]7)C=C6)C=C5)cc3)CC2)c1C
REMARK SMILES IDX 20 1 19 2 18 3 17 4 16 5 14 6 15 7 13 8 8 9 9 10 10 11 11 12
REMARK SMILES IDX 83 13 12 14 82 15 7 16 4 17 5 18 84 19 6 20 85 21 3 22 2 23
REMARK SMILES IDX 1 24 21 25 22 26 23 27 24 28 25 29 26 30 27 31 28 32 29 33
REMARK SMILES IDX 81 34 30 35 80 36 31 37 32 38 33 39 74 40 34 41 79 42 73 43
REMARK SMILES IDX 75 44 35 45 78 46 72 47 71 48 36 50 62 51 45 52 61 53 46 54
REMARK SMILES IDX 49 55 60 56 76 57 47 58 48 59 59 61 77 62 50 63 37 64 38 65
REMARK SMILES IDX 43 66 39 67 40 68 42 69 44 70 41 71 63 72 64 73 69 74 65 75
REMARK SMILES IDX 66 76 68 77 70 78 67 79 51 80 52 81 57 82 53 83 54 84 56 85
REMARK SMILES IDX 58 86 55 87
REMARK H PARENT 75 49 49 60
REMARK Flexibility Score: inf
ROOT
ATOM      1  C   UNL A   1      32.884  36.522  30.620  1.00  0.00     0.188 C 
ENDROOT
BRANCH   1   2
ATOM      2  O   UNL A   1      32.958  37.679  31.451  1.00  0.00    -0.376 OA
BRANCH   2   3
ATOM      3  C   UNL A   1      33.959  37.668  32.466  1.00  0.00     0.202 C 
BRANCH   3   4
ATOM      4  C   UNL A   1      33.919  36.482  33.439  1.00  0.00     0.261 C 
BRANCH   4   5
ATOM      5  O   UNL A   1      34.898  35.465  33.159  1.00  0.00    -0.463 OA
BRANCH   5   6
ATOM      6  C   UNL A   1      34.449  34.187  33.170  1.00  0.00     0.309 C 
ATOM      7  O   UNL A   1      33.350  33.830  32.756  1.00  0.00    -0.252 OA
BRANCH   6   8
ATOM      8  C   UNL A   1      35.458  33.185  33.708  1.00  0.00     0.103 C 
ATOM      9  C   UNL A   1      39.378  32.457  33.771  1.00  0.00     0.257 C 
ATOM     10  O   UNL A   1      39.599  32.503  32.560  1.00  0.00    -0.269 OA
ATOM     11  N   UNL A   1      38.099  32.184  34.242  1.00  0.00    -0.338 N 
ATOM     12  C   UNL A   1      37.215  31.420  33.379  1.00  0.00     0.120 C 
ATOM     13  C   UNL A   1      37.438  32.988  35.263  1.00  0.00     0.120 C 
ATOM     14  C   UNL A   1      36.212  32.330  32.679  1.00  0.00     0.037 C 
ATOM     15  C   UNL A   1      36.439  33.938  34.611  1.00  0.00     0.037 C 
BRANCH   9  16
ATOM     16  C   UNL A   1      40.452  32.599  34.753  1.00  0.00     0.080 A 
ATOM     17  N   UNL A   1      42.191  33.382  35.886  1.00  0.00    -0.269 N 
ATOM     18  N   UNL A   1      41.883  32.206  36.485  1.00  0.00    -0.180 NA
ATOM     19  C   UNL A   1      41.413  33.613  34.774  1.00  0.00     0.048 A 
ATOM     20  C   UNL A   1      40.858  31.735  35.785  1.00  0.00     0.149 A 
ATOM     21  C   UNL A   1      41.564  34.714  33.782  1.00  0.00     0.067 C 
BRANCH  17  22
ATOM     22  C   UNL A   1      43.265  34.116  36.537  1.00  0.00     0.144 C 
BRANCH  22  23
ATOM     23  C   UNL A   1      42.985  35.191  37.581  1.00  0.00     0.020 C 
ATOM     24  C   UNL A   1      41.539  35.222  38.053  1.00  0.00     0.006 C 
ENDBRANCH  22  23
ENDBRANCH  17  22
ENDBRANCH   9  16
ENDBRANCH   6   8
ENDBRANCH   5   6
ENDBRANCH   4   5
ENDBRANCH   3   4
ENDBRANCH   2   3
ENDBRANCH   1   2
BRANCH   1  25
ATOM     25  C   UNL A   1      33.278  36.748  29.159  1.00  0.00     0.188 C 
BRANCH  25  26
ATOM     26  O   UNL A   1      33.927  35.646  28.543  1.00  0.00    -0.376 OA
BRANCH  26  27
ATOM     27  C   UNL A   1      33.681  34.294  28.932  1.00  0.00     0.202 C 
BRANCH  27  28
ATOM     28  C   UNL A   1      33.896  33.054  28.047  1.00  0.00     0.261 C 
BRANCH  28  29
ATOM     29  O   UNL A   1      35.214  32.569  27.961  1.00  0.00    -0.460 OA
BRANCH  29  30
ATOM     30  C   UNL A   1      35.357  31.226  27.923  1.00  0.00     0.338 C 
ATOM     31  O   UNL A   1      34.806  30.440  27.200  1.00  0.00    -0.246 OA
BRANCH  30  32
ATOM     32  C   UNL A   1      36.382  30.919  28.944  1.00  0.00     0.060 A 
ATOM     33  C   UNL A   1      37.446  31.808  29.057  1.00  0.00     0.016 A 
ATOM     34  C   UNL A   1      36.356  29.691  29.635  1.00  0.00     0.016 A 
ATOM     35  C   UNL A   1      38.622  31.316  29.565  1.00  0.00     0.010 A 
ATOM     36  C   UNL A   1      37.521  29.201  30.147  1.00  0.00     0.010 A 
ATOM     37  C   UNL A   1      38.656  29.973  29.952  1.00  0.00    -0.014 A 
BRANCH  37  38
ATOM     38  C   UNL A   1      39.938  29.318  29.992  1.00  0.00     0.031 A 
ATOM     39  C   UNL A   1      40.511  29.239  31.341  1.00  0.00     0.074 A 
ATOM     40  C   UNL A   1      40.447  28.775  28.870  1.00  0.00     0.049 A 
ATOM     41  N   UNL A   1      41.532  29.877  31.801  1.00  0.00    -0.248 NA
ATOM     42  C   UNL A   1      39.740  28.505  32.355  1.00  0.00     0.031 C 
ATOM     43  C   UNL A   1      39.785  28.585  27.571  1.00  0.00     0.029 A 
ATOM     44  N   UNL A   1      41.653  28.184  28.683  1.00  0.00    -0.354 N 
ATOM     45  C   UNL A   1      41.673  29.424  33.106  1.00  0.00     0.074 A 
ATOM     46  C   UNL A   1      40.431  28.791  33.458  1.00  0.00     0.031 C 
ATOM     47  C   UNL A   1      40.515  27.732  26.818  1.00  0.00     0.029 A 
ATOM     48  C   UNL A   1      41.745  27.425  27.523  1.00  0.00     0.049 A 
ATOM     49  H   UNL A   1      42.401  28.283  29.317  1.00  0.00     0.167 HD
ATOM     50  C   UNL A   1      42.908  29.303  33.660  1.00  0.00     0.037 A 
ATOM     51  C   UNL A   1      42.734  26.543  27.238  1.00  0.00     0.037 A 
ATOM     52  C   UNL A   1      43.875  30.119  32.965  1.00  0.00     0.049 A 
ATOM     53  C   UNL A   1      43.884  26.873  28.121  1.00  0.00     0.074 A 
ATOM     54  C   UNL A   1      43.994  31.468  32.691  1.00  0.00     0.029 A 
ATOM     55  N   UNL A   1      44.743  29.487  32.109  1.00  0.00    -0.354 N 
ATOM     56  N   UNL A   1      44.588  27.968  28.016  1.00  0.00    -0.248 NA
ATOM     57  C   UNL A   1      43.956  26.211  29.415  1.00  0.00     0.031 C 
ATOM     58  C   UNL A   1      44.582  31.538  31.393  1.00  0.00     0.029 A 
ATOM     59  C   UNL A   1      44.828  30.234  30.963  1.00  0.00     0.049 A 
ATOM     60  H   UNL A   1      45.222  28.646  32.287  1.00  0.00     0.167 HD
ATOM     61  C   UNL A   1      44.846  28.354  29.325  1.00  0.00     0.074 A 
ATOM     62  C   UNL A   1      44.510  27.189  30.138  1.00  0.00     0.031 C 
ATOM     63  C   UNL A   1      45.025  29.669  29.647  1.00  0.00     0.037 A 
BRANCH  50  64
ATOM     64  C   UNL A   1      43.308  28.122  34.513  1.00  0.00     0.057 A 
ATOM     65  C   UNL A   1      43.787  28.365  35.810  1.00  0.00     0.134 A 
ATOM     66  C   UNL A   1      43.530  26.811  34.030  1.00  0.00     0.134 A 
ATOM     67  F   UNL A   1      43.643  29.570  36.381  1.00  0.00    -0.206 F 
ATOM     68  C   UNL A   1      44.517  27.412  36.529  1.00  0.00     0.040 A 
ATOM     69  C   UNL A   1      44.209  25.837  34.762  1.00  0.00     0.040 A 
ATOM     70  F   UNL A   1      43.200  26.421  32.795  1.00  0.00    -0.206 F 
ATOM     71  C   UNL A   1      44.741  26.146  36.000  1.00  0.00     0.006 A 
ENDBRANCH  50  64
BRANCH  51  72
ATOM     72  C   UNL A   1      42.609  25.239  26.547  1.00  0.00     0.057 A 
ATOM     73  C   UNL A   1      43.408  24.925  25.440  1.00  0.00     0.134 A 
ATOM     74  C   UNL A   1      41.895  24.168  27.115  1.00  0.00     0.134 A 
ATOM     75  F   UNL A   1      44.162  25.869  24.857  1.00  0.00    -0.206 F 
ATOM     76  C   UNL A   1      43.507  23.620  24.937  1.00  0.00     0.040 A 
ATOM     77  C   UNL A   1      41.979  22.863  26.620  1.00  0.00     0.040 A 
ATOM     78  F   UNL A   1      41.163  24.331  28.226  1.00  0.00    -0.206 F 
ATOM     79  C   UNL A   1      42.798  22.581  25.534  1.00  0.00     0.006 A 
ENDBRANCH  51  72
BRANCH  63  80
ATOM     80  C   UNL A   1      45.190  30.645  28.514  1.00  0.00     0.057 A 
ATOM     81  C   UNL A   1      46.414  30.899  27.875  1.00  0.00     0.134 A 
ATOM     82  C   UNL A   1      44.051  31.227  27.950  1.00  0.00     0.134 A 
ATOM     83  F   UNL A   1      47.543  30.308  28.285  1.00  0.00    -0.206 F 
ATOM     84  C   UNL A   1      46.503  31.726  26.751  1.00  0.00     0.040 A 
ATOM     85  C   UNL A   1      44.121  32.029  26.809  1.00  0.00     0.040 A 
ATOM     86  F   UNL A   1      42.839  30.981  28.473  1.00  0.00    -0.206 F 
ATOM     87  C   UNL A   1      45.351  32.289  26.210  1.00  0.00     0.006 A 
ENDBRANCH  63  80
ENDBRANCH  37  38
ENDBRANCH  30  32
ENDBRANCH  29  30
ENDBRANCH  28  29
ENDBRANCH  27  28
ENDBRANCH  26  27
ENDBRANCH  25  26
ENDBRANCH   1  25
TORSDOF 20
ENDMDL
