MODEL 1
REMARK VINA RESULT:     -11.0      0.000      0.000
REMARK SMILES O=C(OCCOCCOCCOC(=O)c1cccc(OS(=O)(=O)c2cccc([N+](=O)[O-])c2)c1)c1ccc(-c2c3nc(c(-c4c(F)cccc4F)c4ccc([nH]4)c(-c4c(F)cccc4F)c4nc(c(-c5c(F)cccc5F)c5ccc2[nH]5)C=C4)C=C3)cc1
REMARK SMILES IDX 8 1 7 2 6 3 5 4 4 5 3 6 2 7 1 8 34 9 35 10 87 11 36 12 86 13
REMARK SMILES IDX 37 14 38 15 39 16 80 17 40 18 85 19 79 20 81 21 41 22 84 23
REMARK SMILES IDX 78 24 77 25 42 27 68 28 51 29 67 30 52 31 55 32 66 33 82 34
REMARK SMILES IDX 53 35 54 36 65 38 83 39 56 40 43 41 44 42 49 43 45 44 46 45
REMARK SMILES IDX 48 46 50 47 47 48 69 49 70 50 75 51 71 52 72 53 74 54 76 55
REMARK SMILES IDX 73 56 57 57 58 58 63 59 59 60 60 61 62 62 64 63 61 64 9 65
REMARK SMILES IDX 10 66 11 67 12 68 13 69 14 70 15 71 16 72 33 73 17 74 19 75
REMARK SMILES IDX 18 76 20 77 21 78 22 79 23 80 24 81 25 82 32 83 26 84 28 85
REMARK SMILES IDX 27 86 29 87 30 88 31 89
REMARK H PARENT 81 26 55 37
REMARK Flexibility Score: inf
ROOT
ATOM      1  C   UNL A   1      40.580  21.260  27.170  1.00  0.00     0.188 C 
ENDROOT
BRANCH   1   2
ATOM      2  C   UNL A   1      42.038  20.820  27.055  1.00  0.00     0.188 C 
BRANCH   2   3
ATOM      3  O   UNL A   1      42.396  20.562  25.691  1.00  0.00    -0.376 OA
BRANCH   3   4
ATOM      4  C   UNL A   1      43.809  20.479  25.483  1.00  0.00     0.202 C 
BRANCH   4   5
ATOM      5  C   UNL A   1      44.380  21.575  24.573  1.00  0.00     0.261 C 
BRANCH   5   6
ATOM      6  O   UNL A   1      43.625  22.796  24.644  1.00  0.00    -0.460 OA
BRANCH   6   7
ATOM      7  C   UNL A   1      44.089  24.051  24.873  1.00  0.00     0.338 C 
ATOM      8  O   UNL A   1      45.072  24.444  24.248  1.00  0.00    -0.246 OA
BRANCH   7   9
ATOM      9  C   UNL A   1      43.426  25.016  25.802  1.00  0.00     0.060 A 
ATOM     10  C   UNL A   1      43.752  26.368  25.912  1.00  0.00     0.016 A 
ATOM     11  C   UNL A   1      42.364  24.530  26.583  1.00  0.00     0.016 A 
ATOM     12  C   UNL A   1      43.154  27.177  26.874  1.00  0.00     0.010 A 
ATOM     13  C   UNL A   1      41.709  25.356  27.505  1.00  0.00     0.010 A 
ATOM     14  C   UNL A   1      42.141  26.675  27.690  1.00  0.00    -0.014 A 
BRANCH  14  15
ATOM     15  C   UNL A   1      41.652  27.513  28.807  1.00  0.00     0.031 A 
ATOM     16  C   UNL A   1      42.417  27.518  30.102  1.00  0.00     0.074 A 
ATOM     17  C   UNL A   1      40.618  28.355  28.626  1.00  0.00     0.049 A 
ATOM     18  N   UNL A   1      42.163  28.160  31.213  1.00  0.00    -0.248 NA
ATOM     19  C   UNL A   1      43.636  26.695  30.149  1.00  0.00     0.031 C 
ATOM     20  C   UNL A   1      39.840  28.502  27.392  1.00  0.00     0.029 A 
ATOM     21  N   UNL A   1      40.062  29.270  29.479  1.00  0.00    -0.354 N 
ATOM     22  C   UNL A   1      43.174  27.801  32.095  1.00  0.00     0.074 A 
ATOM     23  C   UNL A   1      44.039  26.875  31.397  1.00  0.00     0.031 C 
ATOM     24  C   UNL A   1      38.916  29.462  27.570  1.00  0.00     0.029 A 
ATOM     25  C   UNL A   1      39.011  29.962  28.932  1.00  0.00     0.049 A 
ATOM     26  H   UNL A   1      40.385  29.417  30.398  1.00  0.00     0.167 HD
ATOM     27  C   UNL A   1      43.365  28.204  33.373  1.00  0.00     0.037 A 
ATOM     28  C   UNL A   1      38.201  30.876  29.489  1.00  0.00     0.037 A 
ATOM     29  C   UNL A   1      42.513  29.134  34.062  1.00  0.00     0.049 A 
ATOM     30  C   UNL A   1      38.399  31.253  30.928  1.00  0.00     0.074 A 
ATOM     31  C   UNL A   1      42.601  29.587  35.367  1.00  0.00     0.029 A 
ATOM     32  N   UNL A   1      41.415  29.756  33.494  1.00  0.00    -0.354 N 
ATOM     33  N   UNL A   1      39.311  30.846  31.775  1.00  0.00    -0.248 NA
ATOM     34  C   UNL A   1      37.431  32.208  31.492  1.00  0.00     0.031 C 
ATOM     35  C   UNL A   1      41.531  30.460  35.598  1.00  0.00     0.029 A 
ATOM     36  C   UNL A   1      40.804  30.578  34.426  1.00  0.00     0.049 A 
ATOM     37  H   UNL A   1      41.112  29.633  32.565  1.00  0.00     0.167 HD
ATOM     38  C   UNL A   1      39.019  31.485  32.972  1.00  0.00     0.074 A 
ATOM     39  C   UNL A   1      37.868  32.329  32.735  1.00  0.00     0.031 C 
ATOM     40  C   UNL A   1      39.642  31.380  34.168  1.00  0.00     0.037 A 
BRANCH  27  41
ATOM     41  C   UNL A   1      44.515  27.593  34.114  1.00  0.00     0.057 A 
ATOM     42  C   UNL A   1      45.775  28.200  34.165  1.00  0.00     0.134 A 
ATOM     43  C   UNL A   1      44.354  26.371  34.778  1.00  0.00     0.134 A 
ATOM     44  F   UNL A   1      45.999  29.359  33.527  1.00  0.00    -0.206 F 
ATOM     45  C   UNL A   1      46.845  27.598  34.830  1.00  0.00     0.040 A 
ATOM     46  C   UNL A   1      45.409  25.771  35.465  1.00  0.00     0.040 A 
ATOM     47  F   UNL A   1      43.171  25.738  34.764  1.00  0.00    -0.206 F 
ATOM     48  C   UNL A   1      46.661  26.381  35.486  1.00  0.00     0.006 A 
ENDBRANCH  27  41
BRANCH  28  49
ATOM     49  C   UNL A   1      37.027  31.427  28.777  1.00  0.00     0.057 A 
ATOM     50  C   UNL A   1      36.961  32.779  28.421  1.00  0.00     0.134 A 
ATOM     51  C   UNL A   1      35.859  30.665  28.689  1.00  0.00     0.134 A 
ATOM     52  F   UNL A   1      38.046  33.560  28.529  1.00  0.00    -0.206 F 
ATOM     53  C   UNL A   1      35.749  33.371  28.068  1.00  0.00     0.040 A 
ATOM     54  C   UNL A   1      34.640  31.248  28.348  1.00  0.00     0.040 A 
ATOM     55  F   UNL A   1      35.872  29.363  29.007  1.00  0.00    -0.206 F 
ATOM     56  C   UNL A   1      34.580  32.611  28.062  1.00  0.00     0.006 A 
ENDBRANCH  28  49
BRANCH  40  57
ATOM     57  C   UNL A   1      39.078  32.203  35.282  1.00  0.00     0.057 A 
ATOM     58  C   UNL A   1      39.386  33.563  35.416  1.00  0.00     0.134 A 
ATOM     59  C   UNL A   1      38.245  31.622  36.244  1.00  0.00     0.134 A 
ATOM     60  F   UNL A   1      40.206  34.164  34.541  1.00  0.00    -0.206 F 
ATOM     61  C   UNL A   1      38.901  34.313  36.486  1.00  0.00     0.040 A 
ATOM     62  C   UNL A   1      37.737  32.368  37.306  1.00  0.00     0.040 A 
ATOM     63  F   UNL A   1      37.925  30.321  36.171  1.00  0.00    -0.206 F 
ATOM     64  C   UNL A   1      38.070  33.715  37.433  1.00  0.00     0.006 A 
ENDBRANCH  40  57
ENDBRANCH  14  15
ENDBRANCH   7   9
ENDBRANCH   6   7
ENDBRANCH   5   6
ENDBRANCH   4   5
ENDBRANCH   3   4
ENDBRANCH   2   3
ENDBRANCH   1   2
BRANCH   1  65
ATOM     65  O   UNL A   1      39.699  20.757  26.167  1.00  0.00    -0.376 OA
BRANCH  65  66
ATOM     66  C   UNL A   1      38.662  21.613  25.699  1.00  0.00     0.202 C 
BRANCH  66  67
ATOM     67  C   UNL A   1      38.669  23.063  26.196  1.00  0.00     0.261 C 
BRANCH  67  68
ATOM     68  O   UNL A   1      37.375  23.647  26.413  1.00  0.00    -0.460 OA
BRANCH  68  69
ATOM     69  C   UNL A   1      36.513  23.462  25.387  1.00  0.00     0.338 C 
ATOM     70  O   UNL A   1      36.612  23.867  24.241  1.00  0.00    -0.246 OA
BRANCH  69  71
ATOM     71  C   UNL A   1      35.314  22.755  25.847  1.00  0.00     0.063 A 
ATOM     72  C   UNL A   1      35.028  21.460  25.419  1.00  0.00     0.016 A 
ATOM     73  C   UNL A   1      34.344  23.540  26.467  1.00  0.00     0.064 A 
ATOM     74  C   UNL A   1      33.743  20.952  25.611  1.00  0.00     0.005 A 
ATOM     75  C   UNL A   1      33.035  23.078  26.547  1.00  0.00     0.143 A 
ATOM     76  C   UNL A   1      32.742  21.769  26.152  1.00  0.00     0.048 A 
BRANCH  75  77
ATOM     77  O   UNL A   1      31.967  23.860  26.926  1.00  0.00    -0.379 OA
BRANCH  77  78
ATOM     78  S   UNL A   1      31.107  24.717  25.829  1.00  0.00     0.339 S 
ATOM     79  O   UNL A   1      30.889  23.890  24.669  1.00  0.00    -0.181 OA
ATOM     80  O   UNL A   1      30.006  25.396  26.500  1.00  0.00    -0.181 OA
BRANCH  78  81
ATOM     81  C   UNL A   1      32.177  26.030  25.304  1.00  0.00     0.112 A 
ATOM     82  C   UNL A   1      32.624  26.995  26.206  1.00  0.00     0.024 A 
ATOM     83  C   UNL A   1      32.518  26.088  23.948  1.00  0.00     0.109 A 
ATOM     84  C   UNL A   1      33.465  28.013  25.751  1.00  0.00     0.009 A 
ATOM     85  C   UNL A   1      33.352  27.116  23.507  1.00  0.00     0.270 A 
ATOM     86  C   UNL A   1      33.842  28.073  24.406  1.00  0.00     0.086 A 
BRANCH  85  87
ATOM     87  N   UNL A   1      33.710  27.200  22.087  1.00  0.00     0.062 N 
ATOM     88  O   UNL A   1      34.317  28.210  21.708  1.00  0.00    -0.258 OA
ATOM     89  O   UNL A   1      33.386  26.253  21.357  1.00  0.00    -0.258 OA
ENDBRANCH  85  87
ENDBRANCH  78  81
ENDBRANCH  77  78
ENDBRANCH  75  77
ENDBRANCH  69  71
ENDBRANCH  68  69
ENDBRANCH  67  68
ENDBRANCH  66  67
ENDBRANCH  65  66
ENDBRANCH   1  65
TORSDOF 21
ENDMDL
MODEL 2
REMARK VINA RESULT:     -10.3      1.424      6.325
REMARK SMILES O=C(OCCOCCOCCOC(=O)c1cccc(OS(=O)(=O)c2cccc([N+](=O)[O-])c2)c1)c1ccc(-c2c3nc(c(-c4c(F)cccc4F)c4ccc([nH]4)c(-c4c(F)cccc4F)c4nc(c(-c5c(F)cccc5F)c5ccc2[nH]5)C=C4)C=C3)cc1
REMARK SMILES IDX 8 1 7 2 6 3 5 4 4 5 3 6 2 7 1 8 34 9 35 10 87 11 36 12 86 13
REMARK SMILES IDX 37 14 38 15 39 16 80 17 40 18 85 19 79 20 81 21 41 22 84 23
REMARK SMILES IDX 78 24 77 25 42 27 68 28 51 29 67 30 52 31 55 32 66 33 82 34
REMARK SMILES IDX 53 35 54 36 65 38 83 39 56 40 43 41 44 42 49 43 45 44 46 45
REMARK SMILES IDX 48 46 50 47 47 48 69 49 70 50 75 51 71 52 72 53 74 54 76 55
REMARK SMILES IDX 73 56 57 57 58 58 63 59 59 60 60 61 62 62 64 63 61 64 9 65
REMARK SMILES IDX 10 66 11 67 12 68 13 69 14 70 15 71 16 72 33 73 17 74 19 75
REMARK SMILES IDX 18 76 20 77 21 78 22 79 23 80 24 81 25 82 32 83 26 84 28 85
REMARK SMILES IDX 27 86 29 87 30 88 31 89
REMARK H PARENT 81 26 55 37
REMARK Flexibility Score: inf
ROOT
ATOM      1  C   UNL A   1      42.423  18.739  25.885  1.00  0.00     0.188 C 
ENDROOT
BRANCH   1   2
ATOM      2  C   UNL A   1      43.747  19.502  25.852  1.00  0.00     0.188 C 
BRANCH   2   3
ATOM      3  O   UNL A   1      43.800  20.401  24.737  1.00  0.00    -0.376 OA
BRANCH   3   4
ATOM      4  C   UNL A   1      44.380  21.668  25.059  1.00  0.00     0.202 C 
BRANCH   4   5
ATOM      5  C   UNL A   1      44.242  22.725  23.956  1.00  0.00     0.261 C 
BRANCH   5   6
ATOM      6  O   UNL A   1      43.839  24.006  24.469  1.00  0.00    -0.460 OA
BRANCH   6   7
ATOM      7  C   UNL A   1      44.491  24.786  25.368  1.00  0.00     0.338 C 
ATOM      8  O   UNL A   1      45.717  24.859  25.313  1.00  0.00    -0.246 OA
BRANCH   7   9
ATOM      9  C   UNL A   1      43.793  25.624  26.390  1.00  0.00     0.060 A 
ATOM     10  C   UNL A   1      43.808  27.019  26.423  1.00  0.00     0.016 A 
ATOM     11  C   UNL A   1      43.024  24.953  27.355  1.00  0.00     0.016 A 
ATOM     12  C   UNL A   1      43.214  27.722  27.467  1.00  0.00     0.010 A 
ATOM     13  C   UNL A   1      42.363  25.657  28.370  1.00  0.00     0.010 A 
ATOM     14  C   UNL A   1      42.502  27.047  28.459  1.00  0.00    -0.014 A 
BRANCH  14  15
ATOM     15  C   UNL A   1      42.033  27.811  29.634  1.00  0.00     0.031 A 
ATOM     16  C   UNL A   1      40.770  28.621  29.521  1.00  0.00     0.074 A 
ATOM     17  C   UNL A   1      42.652  27.682  30.823  1.00  0.00     0.049 A 
ATOM     18  N   UNL A   1      40.186  29.376  30.413  1.00  0.00    -0.248 NA
ATOM     19  C   UNL A   1      40.067  28.563  28.228  1.00  0.00     0.031 C 
ATOM     20  C   UNL A   1      43.841  26.867  31.084  1.00  0.00     0.029 A 
ATOM     21  N   UNL A   1      42.342  28.218  32.045  1.00  0.00    -0.354 N 
ATOM     22  C   UNL A   1      39.064  29.901  29.785  1.00  0.00     0.074 A 
ATOM     23  C   UNL A   1      39.054  29.389  28.433  1.00  0.00     0.031 C 
ATOM     24  C   UNL A   1      44.150  26.950  32.391  1.00  0.00     0.029 A 
ATOM     25  C   UNL A   1      43.211  27.850  33.040  1.00  0.00     0.049 A 
ATOM     26  H   UNL A   1      41.570  28.811  32.193  1.00  0.00     0.167 HD
ATOM     27  C   UNL A   1      38.125  30.737  30.289  1.00  0.00     0.037 A 
ATOM     28  C   UNL A   1      43.254  28.230  34.327  1.00  0.00     0.037 A 
ATOM     29  C   UNL A   1      38.127  31.236  31.637  1.00  0.00     0.049 A 
ATOM     30  C   UNL A   1      42.236  29.208  34.838  1.00  0.00     0.074 A 
ATOM     31  C   UNL A   1      37.240  32.110  32.240  1.00  0.00     0.029 A 
ATOM     32  N   UNL A   1      39.069  30.896  32.593  1.00  0.00    -0.354 N 
ATOM     33  N   UNL A   1      41.227  29.760  34.213  1.00  0.00    -0.248 NA
ATOM     34  C   UNL A   1      42.386  29.633  36.240  1.00  0.00     0.031 C 
ATOM     35  C   UNL A   1      37.667  32.326  33.556  1.00  0.00     0.029 A 
ATOM     36  C   UNL A   1      38.795  31.556  33.780  1.00  0.00     0.049 A 
ATOM     37  H   UNL A   1      39.821  30.277  32.453  1.00  0.00     0.167 HD
ATOM     38  C   UNL A   1      40.630  30.602  35.139  1.00  0.00     0.074 A 
ATOM     39  C   UNL A   1      41.368  30.467  36.376  1.00  0.00     0.031 C 
ATOM     40  C   UNL A   1      39.567  31.425  34.983  1.00  0.00     0.037 A 
BRANCH  27  41
ATOM     41  C   UNL A   1      37.051  31.199  29.352  1.00  0.00     0.057 A 
ATOM     42  C   UNL A   1      37.069  32.471  28.770  1.00  0.00     0.134 A 
ATOM     43  C   UNL A   1      35.978  30.355  29.040  1.00  0.00     0.134 A 
ATOM     44  F   UNL A   1      38.057  33.335  29.049  1.00  0.00    -0.206 F 
ATOM     45  C   UNL A   1      36.041  32.899  27.927  1.00  0.00     0.040 A 
ATOM     46  C   UNL A   1      34.957  30.763  28.183  1.00  0.00     0.040 A 
ATOM     47  F   UNL A   1      35.903  29.124  29.569  1.00  0.00    -0.206 F 
ATOM     48  C   UNL A   1      34.983  32.041  27.629  1.00  0.00     0.006 A 
ENDBRANCH  27  41
BRANCH  28  49
ATOM     49  C   UNL A   1      44.351  27.826  35.233  1.00  0.00     0.057 A 
ATOM     50  C   UNL A   1      45.596  28.464  35.197  1.00  0.00     0.134 A 
ATOM     51  C   UNL A   1      44.244  26.629  35.948  1.00  0.00     0.134 A 
ATOM     52  F   UNL A   1      45.758  29.592  34.491  1.00  0.00    -0.206 F 
ATOM     53  C   UNL A   1      46.719  27.884  35.787  1.00  0.00     0.040 A 
ATOM     54  C   UNL A   1      45.361  26.035  36.531  1.00  0.00     0.040 A 
ATOM     55  F   UNL A   1      43.071  25.986  36.023  1.00  0.00    -0.206 F 
ATOM     56  C   UNL A   1      46.607  26.651  36.429  1.00  0.00     0.006 A 
ENDBRANCH  28  49
BRANCH  40  57
ATOM     57  C   UNL A   1      39.164  32.219  36.183  1.00  0.00     0.057 A 
ATOM     58  C   UNL A   1      38.188  31.756  37.074  1.00  0.00     0.134 A 
ATOM     59  C   UNL A   1      39.735  33.472  36.432  1.00  0.00     0.134 A 
ATOM     60  F   UNL A   1      37.582  30.577  36.866  1.00  0.00    -0.206 F 
ATOM     61  C   UNL A   1      37.776  32.525  38.162  1.00  0.00     0.040 A 
ATOM     62  C   UNL A   1      39.348  34.239  37.529  1.00  0.00     0.040 A 
ATOM     63  F   UNL A   1      40.669  33.970  35.607  1.00  0.00    -0.206 F 
ATOM     64  C   UNL A   1      38.361  33.769  38.393  1.00  0.00     0.006 A 
ENDBRANCH  40  57
ENDBRANCH  14  15
ENDBRANCH   7   9
ENDBRANCH   6   7
ENDBRANCH   5   6
ENDBRANCH   4   5
ENDBRANCH   3   4
ENDBRANCH   2   3
ENDBRANCH   1   2
BRANCH   1  65
ATOM     65  O   UNL A   1      41.246  19.542  25.928  1.00  0.00    -0.376 OA
BRANCH  65  66
ATOM     66  C   UNL A   1      41.344  20.842  26.502  1.00  0.00     0.202 C 
BRANCH  66  67
ATOM     67  C   UNL A   1      40.037  21.538  26.895  1.00  0.00     0.261 C 
BRANCH  67  68
ATOM     68  O   UNL A   1      39.114  21.770  25.820  1.00  0.00    -0.460 OA
BRANCH  68  69
ATOM     69  C   UNL A   1      38.350  22.874  25.984  1.00  0.00     0.338 C 
ATOM     70  O   UNL A   1      38.664  23.935  26.498  1.00  0.00    -0.246 OA
BRANCH  69  71
ATOM     71  C   UNL A   1      36.978  22.619  25.535  1.00  0.00     0.063 A 
ATOM     72  C   UNL A   1      36.305  21.451  25.889  1.00  0.00     0.016 A 
ATOM     73  C   UNL A   1      36.512  23.436  24.507  1.00  0.00     0.064 A 
ATOM     74  C   UNL A   1      35.150  21.097  25.191  1.00  0.00     0.005 A 
ATOM     75  C   UNL A   1      35.433  23.020  23.734  1.00  0.00     0.143 A 
ATOM     76  C   UNL A   1      34.729  21.868  24.099  1.00  0.00     0.048 A 
BRANCH  75  77
ATOM     77  O   UNL A   1      35.045  23.633  22.565  1.00  0.00    -0.379 OA
BRANCH  77  78
ATOM     78  S   UNL A   1      33.553  24.284  22.399  1.00  0.00     0.339 S 
ATOM     79  O   UNL A   1      33.641  25.409  21.500  1.00  0.00    -0.181 OA
ATOM     80  O   UNL A   1      32.578  23.220  22.196  1.00  0.00    -0.181 OA
BRANCH  78  81
ATOM     81  C   UNL A   1      33.145  24.956  23.989  1.00  0.00     0.112 A 
ATOM     82  C   UNL A   1      33.827  26.060  24.497  1.00  0.00     0.024 A 
ATOM     83  C   UNL A   1      32.147  24.312  24.730  1.00  0.00     0.109 A 
ATOM     84  C   UNL A   1      33.475  26.558  25.754  1.00  0.00     0.009 A 
ATOM     85  C   UNL A   1      31.813  24.816  25.988  1.00  0.00     0.270 A 
ATOM     86  C   UNL A   1      32.462  25.948  26.499  1.00  0.00     0.086 A 
BRANCH  85  87
ATOM     87  N   UNL A   1      30.778  24.147  26.784  1.00  0.00     0.062 N 
ATOM     88  O   UNL A   1      31.076  23.074  27.324  1.00  0.00    -0.258 OA
ATOM     89  O   UNL A   1      29.673  24.699  26.868  1.00  0.00    -0.258 OA
ENDBRANCH  85  87
ENDBRANCH  78  81
ENDBRANCH  77  78
ENDBRANCH  75  77
ENDBRANCH  69  71
ENDBRANCH  68  69
ENDBRANCH  67  68
ENDBRANCH  66  67
ENDBRANCH  65  66
ENDBRANCH   1  65
TORSDOF 21
ENDMDL
MODEL 3
REMARK VINA RESULT:     -10.2      1.338      2.136
REMARK SMILES O=C(OCCOCCOCCOC(=O)c1cccc(OS(=O)(=O)c2cccc([N+](=O)[O-])c2)c1)c1ccc(-c2c3nc(c(-c4c(F)cccc4F)c4ccc([nH]4)c(-c4c(F)cccc4F)c4nc(c(-c5c(F)cccc5F)c5ccc2[nH]5)C=C4)C=C3)cc1
REMARK SMILES IDX 8 1 7 2 6 3 5 4 4 5 3 6 2 7 1 8 34 9 35 10 87 11 36 12 86 13
REMARK SMILES IDX 37 14 38 15 39 16 80 17 40 18 85 19 79 20 81 21 41 22 84 23
REMARK SMILES IDX 78 24 77 25 42 27 68 28 51 29 67 30 52 31 55 32 66 33 82 34
REMARK SMILES IDX 53 35 54 36 65 38 83 39 56 40 43 41 44 42 49 43 45 44 46 45
REMARK SMILES IDX 48 46 50 47 47 48 69 49 70 50 75 51 71 52 72 53 74 54 76 55
REMARK SMILES IDX 73 56 57 57 58 58 63 59 59 60 60 61 62 62 64 63 61 64 9 65
REMARK SMILES IDX 10 66 11 67 12 68 13 69 14 70 15 71 16 72 33 73 17 74 19 75
REMARK SMILES IDX 18 76 20 77 21 78 22 79 23 80 24 81 25 82 32 83 26 84 28 85
REMARK SMILES IDX 27 86 29 87 30 88 31 89
REMARK H PARENT 81 26 55 37
REMARK Flexibility Score: inf
ROOT
ATOM      1  C   UNL A   1      39.925  21.352  26.113  1.00  0.00     0.188 C 
ENDROOT
BRANCH   1   2
ATOM      2  C   UNL A   1      40.853  20.236  26.588  1.00  0.00     0.188 C 
BRANCH   2   3
ATOM      3  O   UNL A   1      41.689  19.768  25.522  1.00  0.00    -0.376 OA
BRANCH   3   4
ATOM      4  C   UNL A   1      43.077  20.052  25.724  1.00  0.00     0.202 C 
BRANCH   4   5
ATOM      5  C   UNL A   1      43.349  21.280  26.603  1.00  0.00     0.261 C 
BRANCH   5   6
ATOM      6  O   UNL A   1      44.143  22.272  25.930  1.00  0.00    -0.460 OA
BRANCH   6   7
ATOM      7  C   UNL A   1      43.747  23.485  25.469  1.00  0.00     0.338 C 
ATOM      8  O   UNL A   1      43.806  23.711  24.262  1.00  0.00    -0.246 OA
BRANCH   7   9
ATOM      9  C   UNL A   1      43.173  24.551  26.346  1.00  0.00     0.060 A 
ATOM     10  C   UNL A   1      43.689  25.841  26.475  1.00  0.00     0.016 A 
ATOM     11  C   UNL A   1      41.999  24.239  27.052  1.00  0.00     0.016 A 
ATOM     12  C   UNL A   1      43.154  26.743  27.389  1.00  0.00     0.010 A 
ATOM     13  C   UNL A   1      41.412  25.167  27.922  1.00  0.00     0.010 A 
ATOM     14  C   UNL A   1      42.023  26.408  28.134  1.00  0.00    -0.014 A 
BRANCH  14  15
ATOM     15  C   UNL A   1      41.589  27.325  29.211  1.00  0.00     0.031 A 
ATOM     16  C   UNL A   1      42.365  27.354  30.499  1.00  0.00     0.074 A 
ATOM     17  C   UNL A   1      40.598  28.210  28.995  1.00  0.00     0.049 A 
ATOM     18  N   UNL A   1      42.154  28.062  31.578  1.00  0.00    -0.248 NA
ATOM     19  C   UNL A   1      43.540  26.471  30.579  1.00  0.00     0.031 C 
ATOM     20  C   UNL A   1      39.817  28.336  27.761  1.00  0.00     0.029 A 
ATOM     21  N   UNL A   1      40.098  29.194  29.805  1.00  0.00    -0.354 N 
ATOM     22  C   UNL A   1      43.154  27.694  32.470  1.00  0.00     0.074 A 
ATOM     23  C   UNL A   1      43.963  26.691  31.813  1.00  0.00     0.031 C 
ATOM     24  C   UNL A   1      38.946  29.352  27.897  1.00  0.00     0.029 A 
ATOM     25  C   UNL A   1      39.080  29.912  29.231  1.00  0.00     0.049 A 
ATOM     26  H   UNL A   1      40.437  29.369  30.713  1.00  0.00     0.167 HD
ATOM     27  C   UNL A   1      43.378  28.149  33.725  1.00  0.00     0.037 A 
ATOM     28  C   UNL A   1      38.323  30.893  29.748  1.00  0.00     0.037 A 
ATOM     29  C   UNL A   1      42.582  29.155  34.373  1.00  0.00     0.049 A 
ATOM     30  C   UNL A   1      38.554  31.330  31.166  1.00  0.00     0.074 A 
ATOM     31  C   UNL A   1      42.705  29.667  35.653  1.00  0.00     0.029 A 
ATOM     32  N   UNL A   1      41.512  29.805  33.782  1.00  0.00    -0.354 N 
ATOM     33  N   UNL A   1      39.451  30.918  32.026  1.00  0.00    -0.248 NA
ATOM     34  C   UNL A   1      37.643  32.361  31.688  1.00  0.00     0.031 C 
ATOM     35  C   UNL A   1      41.684  30.605  35.848  1.00  0.00     0.029 A 
ATOM     36  C   UNL A   1      40.953  30.703  34.677  1.00  0.00     0.049 A 
ATOM     37  H   UNL A   1      41.194  29.653  32.863  1.00  0.00     0.167 HD
ATOM     38  C   UNL A   1      39.204  31.629  33.191  1.00  0.00     0.074 A 
ATOM     39  C   UNL A   1      38.097  32.520  32.920  1.00  0.00     0.031 C 
ATOM     40  C   UNL A   1      39.832  31.551  34.387  1.00  0.00     0.037 A 
BRANCH  27  41
ATOM     41  C   UNL A   1      44.501  27.516  34.488  1.00  0.00     0.057 A 
ATOM     42  C   UNL A   1      45.794  28.051  34.490  1.00  0.00     0.134 A 
ATOM     43  C   UNL A   1      44.280  26.345  35.223  1.00  0.00     0.134 A 
ATOM     44  F   UNL A   1      46.074  29.158  33.786  1.00  0.00    -0.206 F 
ATOM     45  C   UNL A   1      46.837  27.428  35.178  1.00  0.00     0.040 A 
ATOM     46  C   UNL A   1      45.309  25.725  35.931  1.00  0.00     0.040 A 
ATOM     47  F   UNL A   1      43.063  25.782  35.257  1.00  0.00    -0.206 F 
ATOM     48  C   UNL A   1      46.594  26.263  35.904  1.00  0.00     0.006 A 
ENDBRANCH  27  41
BRANCH  28  49
ATOM     49  C   UNL A   1      37.173  31.470  29.018  1.00  0.00     0.057 A 
ATOM     50  C   UNL A   1      37.177  32.802  28.590  1.00  0.00     0.134 A 
ATOM     51  C   UNL A   1      35.964  30.769  28.980  1.00  0.00     0.134 A 
ATOM     52  F   UNL A   1      38.303  33.527  28.646  1.00  0.00    -0.206 F 
ATOM     53  C   UNL A   1      35.995  33.441  28.216  1.00  0.00     0.040 A 
ATOM     54  C   UNL A   1      34.775  31.399  28.620  1.00  0.00     0.040 A 
ATOM     55  F   UNL A   1      35.910  29.487  29.368  1.00  0.00    -0.206 F 
ATOM     56  C   UNL A   1      34.787  32.746  28.261  1.00  0.00     0.006 A 
ENDBRANCH  28  49
BRANCH  40  57
ATOM     57  C   UNL A   1      39.322  32.456  35.462  1.00  0.00     0.057 A 
ATOM     58  C   UNL A   1      38.344  32.034  36.372  1.00  0.00     0.134 A 
ATOM     59  C   UNL A   1      39.792  33.770  35.568  1.00  0.00     0.134 A 
ATOM     60  F   UNL A   1      37.834  30.796  36.295  1.00  0.00    -0.206 F 
ATOM     61  C   UNL A   1      37.833  32.899  37.338  1.00  0.00     0.040 A 
ATOM     62  C   UNL A   1      39.304  34.636  36.545  1.00  0.00     0.040 A 
ATOM     63  F   UNL A   1      40.722  34.231  34.718  1.00  0.00    -0.206 F 
ATOM     64  C   UNL A   1      38.317  34.204  37.429  1.00  0.00     0.006 A 
ENDBRANCH  40  57
ENDBRANCH  14  15
ENDBRANCH   7   9
ENDBRANCH   6   7
ENDBRANCH   5   6
ENDBRANCH   4   5
ENDBRANCH   3   4
ENDBRANCH   2   3
ENDBRANCH   1   2
BRANCH   1  65
ATOM     65  O   UNL A   1      38.694  20.929  25.530  1.00  0.00    -0.376 OA
BRANCH  65  66
ATOM     66  C   UNL A   1      37.655  21.893  25.391  1.00  0.00     0.202 C 
BRANCH  66  67
ATOM     67  C   UNL A   1      36.219  21.419  25.634  1.00  0.00     0.261 C 
BRANCH  67  68
ATOM     68  O   UNL A   1      35.340  22.391  26.221  1.00  0.00    -0.460 OA
BRANCH  68  69
ATOM     69  C   UNL A   1      34.108  21.911  26.509  1.00  0.00     0.338 C 
ATOM     70  O   UNL A   1      33.703  21.473  27.573  1.00  0.00    -0.246 OA
BRANCH  69  71
ATOM     71  C   UNL A   1      33.276  21.879  25.303  1.00  0.00     0.063 A 
ATOM     72  C   UNL A   1      32.841  20.674  24.754  1.00  0.00     0.016 A 
ATOM     73  C   UNL A   1      33.206  23.068  24.580  1.00  0.00     0.064 A 
ATOM     74  C   UNL A   1      32.339  20.666  23.452  1.00  0.00     0.005 A 
ATOM     75  C   UNL A   1      32.821  23.037  23.243  1.00  0.00     0.143 A 
ATOM     76  C   UNL A   1      32.352  21.842  22.690  1.00  0.00     0.048 A 
BRANCH  75  77
ATOM     77  O   UNL A   1      32.940  24.106  22.385  1.00  0.00    -0.379 OA
BRANCH  77  78
ATOM     78  S   UNL A   1      31.847  25.324  22.384  1.00  0.00     0.339 S 
ATOM     79  O   UNL A   1      31.771  25.871  21.051  1.00  0.00    -0.181 OA
ATOM     80  O   UNL A   1      30.652  24.904  23.106  1.00  0.00    -0.181 OA
BRANCH  78  81
ATOM     81  C   UNL A   1      32.548  26.597  23.399  1.00  0.00     0.112 A 
ATOM     82  C   UNL A   1      33.542  27.441  22.906  1.00  0.00     0.024 A 
ATOM     83  C   UNL A   1      32.100  26.696  24.721  1.00  0.00     0.109 A 
ATOM     84  C   UNL A   1      34.069  28.431  23.738  1.00  0.00     0.009 A 
ATOM     85  C   UNL A   1      32.642  27.685  25.543  1.00  0.00     0.270 A 
ATOM     86  C   UNL A   1      33.615  28.565  25.054  1.00  0.00     0.086 A 
BRANCH  85  87
ATOM     87  N   UNL A   1      32.193  27.795  26.936  1.00  0.00     0.062 N 
ATOM     88  O   UNL A   1      31.151  27.205  27.249  1.00  0.00    -0.258 OA
ATOM     89  O   UNL A   1      32.885  28.469  27.710  1.00  0.00    -0.258 OA
ENDBRANCH  85  87
ENDBRANCH  78  81
ENDBRANCH  77  78
ENDBRANCH  75  77
ENDBRANCH  69  71
ENDBRANCH  68  69
ENDBRANCH  67  68
ENDBRANCH  66  67
ENDBRANCH  65  66
ENDBRANCH   1  65
TORSDOF 21
ENDMDL
