MODEL 1
REMARK VINA RESULT:      -9.5      0.000      0.000
REMARK SMILES Cc1cc(C(=O)OCCOCCOCCOC(=O)c2ccc(-c3c4nc(c(-c5c(F)cccc5F)c5ccc([nH]5)c(-c5c(F)cccc5F)c5nc(c(-c6c(F)cccc6F)c6ccc3[nH]6)C=C5)C=C4)cc2)ccc1-c1ccc(/C=N/NC(=O)c2cccc(N(C)C)c2)o1
REMARK SMILES IDX 10 1 9 2 8 3 7 4 5 5 6 6 4 7 1 8 2 9 3 10 75 11 74 12 73 13
REMARK SMILES IDX 76 14 77 15 94 16 78 17 79 18 80 19 81 20 82 21 83 22 84 24
REMARK SMILES IDX 85 25 86 26 93 27 87 28 89 29 88 30 90 31 91 32 92 33 11 34
REMARK SMILES IDX 12 35 13 36 14 37 15 38 16 39 17 40 18 41 19 42 20 43 72 44
REMARK SMILES IDX 21 45 71 46 22 47 23 48 24 49 65 50 25 51 70 52 64 53 66 54
REMARK SMILES IDX 26 55 69 56 63 57 62 58 27 60 53 61 36 62 52 63 37 64 40 65
REMARK SMILES IDX 51 66 67 67 38 68 39 69 50 71 68 72 41 73 28 74 29 75 34 76
REMARK SMILES IDX 30 77 31 78 33 79 35 80 32 81 54 82 55 83 60 84 56 85 57 86
REMARK SMILES IDX 59 87 61 88 58 89 42 90 43 91 48 92 44 93 45 94 47 95 49 96
REMARK SMILES IDX 46 97
REMARK H PARENT 82 23 66 59 40 70
REMARK Flexibility Score: inf
ROOT
ATOM      1  O   UNL A   1      33.935  31.076  28.015  1.00  0.00    -0.376 OA
ENDROOT
BRANCH   1   2
ATOM      2  C   UNL A   1      32.967  31.679  27.165  1.00  0.00     0.202 C 
BRANCH   2   3
ATOM      3  C   UNL A   1      31.773  30.821  26.273  1.00  0.00     0.261 C 
BRANCH   3   4
ATOM      4  O   UNL A   1      31.433  29.218  26.268  1.00  0.00    -0.460 OA
BRANCH   4   5
ATOM      5  C   UNL A   1      31.548  28.029  26.961  1.00  0.00     0.338 C 
ATOM      6  O   UNL A   1      31.365  27.829  28.151  1.00  0.00    -0.246 OA
BRANCH   5   7
ATOM      7  C   UNL A   1      32.077  26.804  26.257  1.00  0.00     0.060 A 
ATOM      8  C   UNL A   1      31.855  22.930  26.334  1.00  0.00     0.045 C 
ATOM      9  C   UNL A   1      32.399  24.322  26.082  1.00  0.00    -0.039 A 
ATOM     10  C   UNL A   1      31.654  25.463  26.501  1.00  0.00     0.019 A 
ATOM     11  C   UNL A   1      33.646  24.542  25.481  1.00  0.00     0.020 A 
ATOM     12  C   UNL A   1      34.099  25.866  25.316  1.00  0.00     0.013 A 
ATOM     13  C   UNL A   1      33.329  26.974  25.685  1.00  0.00     0.016 A 
BRANCH  11  14
ATOM     14  C   UNL A   1      34.567  23.477  25.112  1.00  0.00     0.135 A 
ATOM     15  C   UNL A   1      34.597  22.481  24.158  1.00  0.00     0.051 A 
ATOM     16  O   UNL A   1      35.714  23.447  25.848  1.00  0.00    -0.455 OA
ATOM     17  C   UNL A   1      35.842  21.815  24.318  1.00  0.00     0.053 A 
ATOM     18  C   UNL A   1      36.485  22.431  25.373  1.00  0.00     0.147 A 
BRANCH  18  19
ATOM     19  C   UNL A   1      37.744  22.205  26.023  1.00  0.00     0.180 C 
ATOM     20  N   UNL A   1      38.766  22.952  25.751  1.00  0.00    -0.177 NA
BRANCH  20  21
ATOM     21  N   UNL A   1      39.943  22.666  26.381  1.00  0.00    -0.243 N 
ATOM     22  C   UNL A   1      40.963  23.488  26.827  1.00  0.00     0.271 C 
ATOM     23  H   UNL A   1      40.092  21.707  26.545  1.00  0.00     0.194 HD
ATOM     24  O   UNL A   1      42.018  22.963  27.193  1.00  0.00    -0.267 OA
BRANCH  22  25
ATOM     25  C   UNL A   1      40.837  24.970  26.919  1.00  0.00     0.043 A 
ATOM     26  C   UNL A   1      41.235  25.717  25.807  1.00  0.00     0.014 A 
ATOM     27  C   UNL A   1      40.428  25.642  28.084  1.00  0.00     0.039 A 
ATOM     28  C   UNL A   1      41.187  27.104  25.851  1.00  0.00     0.003 A 
ATOM     29  C   UNL A   1      40.323  27.048  28.150  1.00  0.00     0.037 A 
ATOM     30  C   UNL A   1      40.726  27.752  27.002  1.00  0.00     0.026 A 
BRANCH  29  31
ATOM     31  N   UNL A   1      39.868  27.696  29.296  1.00  0.00    -0.378 N 
ATOM     32  C   UNL A   1      38.903  27.076  30.199  1.00  0.00     0.143 C 
ATOM     33  C   UNL A   1      40.636  28.809  29.851  1.00  0.00     0.143 C 
ENDBRANCH  29  31
ENDBRANCH  22  25
ENDBRANCH  20  21
ENDBRANCH  18  19
ENDBRANCH  11  14
ENDBRANCH   5   7
ENDBRANCH   4   5
ENDBRANCH   3   4
ENDBRANCH   2   3
ENDBRANCH   1   2
BRANCH   1  34
ATOM     34  C   UNL A   1      35.017  31.666  28.734  1.00  0.00     0.188 C 
BRANCH  34  35
ATOM     35  C   UNL A   1      34.872  32.998  29.439  1.00  0.00     0.188 C 
BRANCH  35  36
ATOM     36  O   UNL A   1      35.726  33.028  30.565  1.00  0.00    -0.376 OA
BRANCH  36  37
ATOM     37  C   UNL A   1      35.503  31.969  31.486  1.00  0.00     0.202 C 
BRANCH  37  38
ATOM     38  C   UNL A   1      35.901  32.330  32.930  1.00  0.00     0.261 C 
BRANCH  38  39
ATOM     39  O   UNL A   1      37.011  31.505  33.357  1.00  0.00    -0.460 OA
BRANCH  39  40
ATOM     40  C   UNL A   1      37.499  31.691  34.635  1.00  0.00     0.338 C 
ATOM     41  O   UNL A   1      37.045  32.441  35.450  1.00  0.00    -0.246 OA
BRANCH  40  42
ATOM     42  C   UNL A   1      38.858  31.025  34.743  1.00  0.00     0.060 A 
ATOM     43  C   UNL A   1      39.944  31.580  35.432  1.00  0.00     0.016 A 
ATOM     44  C   UNL A   1      39.181  30.121  33.788  1.00  0.00     0.016 A 
ATOM     45  C   UNL A   1      41.320  31.363  34.997  1.00  0.00     0.010 A 
ATOM     46  C   UNL A   1      40.473  30.275  33.265  1.00  0.00     0.010 A 
ATOM     47  C   UNL A   1      41.660  30.768  33.780  1.00  0.00    -0.014 A 
BRANCH  47  48
ATOM     48  C   UNL A   1      43.007  30.951  32.938  1.00  0.00     0.031 A 
ATOM     49  C   UNL A   1      43.375  31.633  31.546  1.00  0.00     0.074 A 
ATOM     50  C   UNL A   1      44.127  30.433  33.494  1.00  0.00     0.049 A 
ATOM     51  N   UNL A   1      43.873  31.004  30.494  1.00  0.00    -0.248 NA
ATOM     52  C   UNL A   1      43.387  33.081  31.253  1.00  0.00     0.031 C 
ATOM     53  C   UNL A   1      45.499  30.483  32.988  1.00  0.00     0.029 A 
ATOM     54  N   UNL A   1      44.205  29.574  34.594  1.00  0.00    -0.354 N 
ATOM     55  C   UNL A   1      44.166  31.957  29.492  1.00  0.00     0.074 A 
ATOM     56  C   UNL A   1      43.703  33.206  29.968  1.00  0.00     0.031 C 
ATOM     57  C   UNL A   1      46.170  29.445  33.516  1.00  0.00     0.029 A 
ATOM     58  C   UNL A   1      45.228  28.668  34.306  1.00  0.00     0.049 A 
ATOM     59  H   UNL A   1      43.651  29.602  35.407  1.00  0.00     0.167 HD
ATOM     60  C   UNL A   1      44.990  31.821  28.411  1.00  0.00     0.037 A 
ATOM     61  C   UNL A   1      44.949  27.342  34.181  1.00  0.00     0.037 A 
ATOM     62  C   UNL A   1      45.896  30.737  28.648  1.00  0.00     0.049 A 
ATOM     63  C   UNL A   1      45.313  26.800  32.822  1.00  0.00     0.074 A 
ATOM     64  C   UNL A   1      47.125  30.726  29.286  1.00  0.00     0.029 A 
ATOM     65  N   UNL A   1      45.426  29.446  28.624  1.00  0.00    -0.354 N 
ATOM     66  N   UNL A   1      45.560  27.540  31.776  1.00  0.00    -0.248 NA
ATOM     67  C   UNL A   1      45.413  25.373  32.532  1.00  0.00     0.031 C 
ATOM     68  C   UNL A   1      47.332  29.415  29.772  1.00  0.00     0.029 A 
ATOM     69  C   UNL A   1      46.276  28.632  29.341  1.00  0.00     0.049 A 
ATOM     70  H   UNL A   1      44.606  29.148  28.166  1.00  0.00     0.167 HD
ATOM     71  C   UNL A   1      45.786  26.732  30.694  1.00  0.00     0.074 A 
ATOM     72  C   UNL A   1      45.717  25.386  31.224  1.00  0.00     0.031 C 
ATOM     73  C   UNL A   1      45.989  27.219  29.439  1.00  0.00     0.037 A 
BRANCH  60  74
ATOM     74  C   UNL A   1      45.206  32.941  27.395  1.00  0.00     0.057 A 
ATOM     75  C   UNL A   1      44.506  33.032  26.180  1.00  0.00     0.134 A 
ATOM     76  C   UNL A   1      46.152  33.969  27.599  1.00  0.00     0.134 A 
ATOM     77  F   UNL A   1      43.496  32.199  25.892  1.00  0.00    -0.206 F 
ATOM     78  C   UNL A   1      44.823  33.979  25.187  1.00  0.00     0.040 A 
ATOM     79  C   UNL A   1      46.507  34.897  26.602  1.00  0.00     0.040 A 
ATOM     80  F   UNL A   1      46.792  34.087  28.772  1.00  0.00    -0.206 F 
ATOM     81  C   UNL A   1      45.857  34.887  25.377  1.00  0.00     0.006 A 
ENDBRANCH  60  74
BRANCH  61  82
ATOM     82  C   UNL A   1      43.849  26.847  35.071  1.00  0.00     0.057 A 
ATOM     83  C   UNL A   1      42.541  26.783  34.544  1.00  0.00     0.134 A 
ATOM     84  C   UNL A   1      44.061  26.175  36.280  1.00  0.00     0.134 A 
ATOM     85  F   UNL A   1      42.251  27.395  33.383  1.00  0.00    -0.206 F 
ATOM     86  C   UNL A   1      41.528  26.013  35.126  1.00  0.00     0.040 A 
ATOM     87  C   UNL A   1      43.045  25.409  36.885  1.00  0.00     0.040 A 
ATOM     88  F   UNL A   1      45.285  26.115  36.825  1.00  0.00    -0.206 F 
ATOM     89  C   UNL A   1      41.783  25.310  36.295  1.00  0.00     0.006 A 
ENDBRANCH  61  82
BRANCH  73  90
ATOM     90  C   UNL A   1      45.965  26.419  28.168  1.00  0.00     0.057 A 
ATOM     91  C   UNL A   1      44.783  25.976  27.561  1.00  0.00     0.134 A 
ATOM     92  C   UNL A   1      47.144  26.244  27.410  1.00  0.00     0.134 A 
ATOM     93  F   UNL A   1      43.587  26.179  28.128  1.00  0.00    -0.206 F 
ATOM     94  C   UNL A   1      44.779  25.357  26.307  1.00  0.00     0.040 A 
ATOM     95  C   UNL A   1      47.143  25.683  26.132  1.00  0.00     0.040 A 
ATOM     96  F   UNL A   1      48.341  26.644  27.866  1.00  0.00    -0.206 F 
ATOM     97  C   UNL A   1      45.957  25.223  25.581  1.00  0.00     0.006 A 
ENDBRANCH  73  90
ENDBRANCH  47  48
ENDBRANCH  40  42
ENDBRANCH  39  40
ENDBRANCH  38  39
ENDBRANCH  37  38
ENDBRANCH  36  37
ENDBRANCH  35  36
ENDBRANCH  34  35
ENDBRANCH   1  34
TORSDOF 22
ENDMDL
MODEL 2
REMARK VINA RESULT:      -9.2      3.236      9.100
REMARK SMILES Cc1cc(C(=O)OCCOCCOCCOC(=O)c2ccc(-c3c4nc(c(-c5c(F)cccc5F)c5ccc([nH]5)c(-c5c(F)cccc5F)c5nc(c(-c6c(F)cccc6F)c6ccc3[nH]6)C=C5)C=C4)cc2)ccc1-c1ccc(/C=N/NC(=O)c2cccc(N(C)C)c2)o1
REMARK SMILES IDX 10 1 9 2 8 3 7 4 5 5 6 6 4 7 1 8 2 9 3 10 75 11 74 12 73 13
REMARK SMILES IDX 76 14 77 15 94 16 78 17 79 18 80 19 81 20 82 21 83 22 84 24
REMARK SMILES IDX 85 25 86 26 93 27 87 28 89 29 88 30 90 31 91 32 92 33 11 34
REMARK SMILES IDX 12 35 13 36 14 37 15 38 16 39 17 40 18 41 19 42 20 43 72 44
REMARK SMILES IDX 21 45 71 46 22 47 23 48 24 49 65 50 25 51 70 52 64 53 66 54
REMARK SMILES IDX 26 55 69 56 63 57 62 58 27 60 53 61 36 62 52 63 37 64 40 65
REMARK SMILES IDX 51 66 67 67 38 68 39 69 50 71 68 72 41 73 28 74 29 75 34 76
REMARK SMILES IDX 30 77 31 78 33 79 35 80 32 81 54 82 55 83 60 84 56 85 57 86
REMARK SMILES IDX 59 87 61 88 58 89 42 90 43 91 48 92 44 93 45 94 47 95 49 96
REMARK SMILES IDX 46 97
REMARK H PARENT 82 23 66 59 40 70
REMARK Flexibility Score: inf
ROOT
ATOM      1  O   UNL A   1      37.165  22.282  25.787  1.00  0.00    -0.376 OA
ENDROOT
BRANCH   1   2
ATOM      2  C   UNL A   1      36.248  21.195  25.770  1.00  0.00     0.202 C 
BRANCH   2   3
ATOM      3  C   UNL A   1      34.899  21.064  24.713  1.00  0.00     0.261 C 
BRANCH   3   4
ATOM      4  O   UNL A   1      33.678  22.126  24.450  1.00  0.00    -0.460 OA
BRANCH   4   5
ATOM      5  C   UNL A   1      32.459  22.591  24.901  1.00  0.00     0.338 C 
ATOM      6  O   UNL A   1      31.475  21.942  25.217  1.00  0.00    -0.246 OA
BRANCH   5   7
ATOM      7  C   UNL A   1      32.188  24.075  24.922  1.00  0.00     0.060 A 
ATOM      8  C   UNL A   1      33.108  27.351  23.055  1.00  0.00     0.045 C 
ATOM      9  C   UNL A   1      32.665  26.419  24.164  1.00  0.00    -0.039 A 
ATOM     10  C   UNL A   1      32.639  25.011  23.943  1.00  0.00     0.019 A 
ATOM     11  C   UNL A   1      32.312  26.885  25.439  1.00  0.00     0.020 A 
ATOM     12  C   UNL A   1      31.947  25.952  26.430  1.00  0.00     0.013 A 
ATOM     13  C   UNL A   1      31.875  24.578  26.175  1.00  0.00     0.016 A 
BRANCH  11  14
ATOM     14  C   UNL A   1      32.406  28.279  25.846  1.00  0.00     0.135 A 
ATOM     15  C   UNL A   1      31.561  29.369  25.849  1.00  0.00     0.051 A 
ATOM     16  O   UNL A   1      33.604  28.622  26.401  1.00  0.00    -0.455 OA
ATOM     17  C   UNL A   1      32.285  30.432  26.452  1.00  0.00     0.053 A 
ATOM     18  C   UNL A   1      33.534  29.933  26.761  1.00  0.00     0.147 A 
BRANCH  18  19
ATOM     19  C   UNL A   1      34.705  30.512  27.354  1.00  0.00     0.180 C 
ATOM     20  N   UNL A   1      34.609  31.233  28.426  1.00  0.00    -0.177 NA
BRANCH  20  21
ATOM     21  N   UNL A   1      35.755  31.781  28.923  1.00  0.00    -0.243 N 
ATOM     22  C   UNL A   1      36.062  33.079  29.292  1.00  0.00     0.271 C 
ATOM     23  H   UNL A   1      36.494  31.140  29.040  1.00  0.00     0.194 HD
ATOM     24  O   UNL A   1      37.240  33.356  29.531  1.00  0.00    -0.267 OA
BRANCH  22  25
ATOM     25  C   UNL A   1      35.036  34.149  29.447  1.00  0.00     0.043 A 
ATOM     26  C   UNL A   1      34.582  34.774  28.282  1.00  0.00     0.014 A 
ATOM     27  C   UNL A   1      34.578  34.609  30.693  1.00  0.00     0.039 A 
ATOM     28  C   UNL A   1      33.662  35.811  28.365  1.00  0.00     0.003 A 
ATOM     29  C   UNL A   1      33.609  35.629  30.814  1.00  0.00     0.037 A 
ATOM     30  C   UNL A   1      33.179  36.219  29.614  1.00  0.00     0.026 A 
BRANCH  29  31
ATOM     31  N   UNL A   1      33.130  36.040  32.056  1.00  0.00    -0.378 N 
ATOM     32  C   UNL A   1      33.738  37.146  32.788  1.00  0.00     0.143 C 
ATOM     33  C   UNL A   1      31.777  35.671  32.468  1.00  0.00     0.143 C 
ENDBRANCH  29  31
ENDBRANCH  22  25
ENDBRANCH  20  21
ENDBRANCH  18  19
ENDBRANCH  11  14
ENDBRANCH   5   7
ENDBRANCH   4   5
ENDBRANCH   3   4
ENDBRANCH   2   3
ENDBRANCH   1   2
BRANCH   1  34
ATOM     34  C   UNL A   1      38.589  22.279  25.867  1.00  0.00     0.188 C 
BRANCH  34  35
ATOM     35  C   UNL A   1      39.384  20.990  25.867  1.00  0.00     0.188 C 
BRANCH  35  36
ATOM     36  O   UNL A   1      40.487  21.119  26.742  1.00  0.00    -0.376 OA
BRANCH  36  37
ATOM     37  C   UNL A   1      41.748  20.983  26.104  1.00  0.00     0.202 C 
BRANCH  37  38
ATOM     38  C   UNL A   1      42.794  21.997  26.609  1.00  0.00     0.261 C 
BRANCH  38  39
ATOM     39  O   UNL A   1      42.174  23.292  26.797  1.00  0.00    -0.460 OA
BRANCH  39  40
ATOM     40  C   UNL A   1      42.173  23.826  28.070  1.00  0.00     0.338 C 
ATOM     41  O   UNL A   1      42.033  23.207  29.084  1.00  0.00    -0.246 OA
BRANCH  40  42
ATOM     42  C   UNL A   1      42.083  25.338  27.967  1.00  0.00     0.060 A 
ATOM     43  C   UNL A   1      43.199  26.182  27.911  1.00  0.00     0.016 A 
ATOM     44  C   UNL A   1      40.940  25.919  28.402  1.00  0.00     0.016 A 
ATOM     45  C   UNL A   1      43.176  27.522  28.488  1.00  0.00     0.010 A 
ATOM     46  C   UNL A   1      41.141  27.044  29.215  1.00  0.00     0.010 A 
ATOM     47  C   UNL A   1      42.142  27.996  29.298  1.00  0.00    -0.014 A 
BRANCH  47  48
ATOM     48  C   UNL A   1      42.209  29.146  30.407  1.00  0.00     0.031 A 
ATOM     49  C   UNL A   1      41.136  30.090  31.112  1.00  0.00     0.074 A 
ATOM     50  C   UNL A   1      43.439  29.417  30.905  1.00  0.00     0.049 A 
ATOM     51  N   UNL A   1      41.116  31.411  31.043  1.00  0.00    -0.248 NA
ATOM     52  C   UNL A   1      40.103  29.672  32.083  1.00  0.00     0.031 C 
ATOM     53  C   UNL A   1      43.807  30.373  31.949  1.00  0.00     0.029 A 
ATOM     54  N   UNL A   1      44.668  28.972  30.409  1.00  0.00    -0.354 N 
ATOM     55  C   UNL A   1      40.084  31.893  31.879  1.00  0.00     0.074 A 
ATOM     56  C   UNL A   1      39.399  30.761  32.378  1.00  0.00     0.031 C 
ATOM     57  C   UNL A   1      45.094  30.710  31.764  1.00  0.00     0.029 A 
ATOM     58  C   UNL A   1      45.556  30.039  30.559  1.00  0.00     0.049 A 
ATOM     59  H   UNL A   1      44.867  28.085  30.030  1.00  0.00     0.167 HD
ATOM     60  C   UNL A   1      39.923  33.154  32.381  1.00  0.00     0.037 A 
ATOM     61  C   UNL A   1      46.120  30.616  29.462  1.00  0.00     0.037 A 
ATOM     62  C   UNL A   1      41.180  33.838  32.336  1.00  0.00     0.049 A 
ATOM     63  C   UNL A   1      45.790  32.082  29.347  1.00  0.00     0.074 A 
ATOM     64  C   UNL A   1      42.216  33.863  33.254  1.00  0.00     0.029 A 
ATOM     65  N   UNL A   1      41.687  34.239  31.123  1.00  0.00    -0.354 N 
ATOM     66  N   UNL A   1      44.832  32.676  30.006  1.00  0.00    -0.248 NA
ATOM     67  C   UNL A   1      46.507  32.996  28.463  1.00  0.00     0.031 C 
ATOM     68  C   UNL A   1      43.400  34.158  32.541  1.00  0.00     0.029 A 
ATOM     69  C   UNL A   1      43.052  34.402  31.224  1.00  0.00     0.049 A 
ATOM     70  H   UNL A   1      41.157  34.386  30.306  1.00  0.00     0.167 HD
ATOM     71  C   UNL A   1      44.760  33.987  29.615  1.00  0.00     0.074 A 
ATOM     72  C   UNL A   1      45.848  34.146  28.674  1.00  0.00     0.031 C 
ATOM     73  C   UNL A   1      43.800  34.840  30.068  1.00  0.00     0.037 A 
BRANCH  60  74
ATOM     74  C   UNL A   1      38.743  33.540  33.272  1.00  0.00     0.057 A 
ATOM     75  C   UNL A   1      38.568  33.055  34.580  1.00  0.00     0.134 A 
ATOM     76  C   UNL A   1      37.720  34.407  32.832  1.00  0.00     0.134 A 
ATOM     77  F   UNL A   1      39.509  32.315  35.182  1.00  0.00    -0.206 F 
ATOM     78  C   UNL A   1      37.401  33.295  35.331  1.00  0.00     0.040 A 
ATOM     79  C   UNL A   1      36.532  34.625  33.554  1.00  0.00     0.040 A 
ATOM     80  F   UNL A   1      37.827  35.052  31.661  1.00  0.00    -0.206 F 
ATOM     81  C   UNL A   1      36.358  34.045  34.802  1.00  0.00     0.006 A 
ENDBRANCH  60  74
BRANCH  61  82
ATOM     82  C   UNL A   1      46.394  29.674  28.330  1.00  0.00     0.057 A 
ATOM     83  C   UNL A   1      45.559  29.734  27.193  1.00  0.00     0.134 A 
ATOM     84  C   UNL A   1      47.578  28.942  28.188  1.00  0.00     0.134 A 
ATOM     85  F   UNL A   1      44.405  30.422  27.240  1.00  0.00    -0.206 F 
ATOM     86  C   UNL A   1      45.924  29.191  25.957  1.00  0.00     0.040 A 
ATOM     87  C   UNL A   1      47.950  28.376  26.953  1.00  0.00     0.040 A 
ATOM     88  F   UNL A   1      48.472  28.885  29.186  1.00  0.00    -0.206 F 
ATOM     89  C   UNL A   1      47.133  28.520  25.830  1.00  0.00     0.006 A 
ENDBRANCH  61  82
BRANCH  73  90
ATOM     90  C   UNL A   1      43.477  36.189  29.492  1.00  0.00     0.057 A 
ATOM     91  C   UNL A   1      42.499  36.392  28.512  1.00  0.00     0.134 A 
ATOM     92  C   UNL A   1      44.017  37.361  30.068  1.00  0.00     0.134 A 
ATOM     93  F   UNL A   1      41.834  35.365  27.964  1.00  0.00    -0.206 F 
ATOM     94  C   UNL A   1      42.118  37.671  28.096  1.00  0.00     0.040 A 
ATOM     95  C   UNL A   1      43.600  38.642  29.703  1.00  0.00     0.040 A 
ATOM     96  F   UNL A   1      44.947  37.308  31.035  1.00  0.00    -0.206 F 
ATOM     97  C   UNL A   1      42.656  38.801  28.702  1.00  0.00     0.006 A 
ENDBRANCH  73  90
ENDBRANCH  47  48
ENDBRANCH  40  42
ENDBRANCH  39  40
ENDBRANCH  38  39
ENDBRANCH  37  38
ENDBRANCH  36  37
ENDBRANCH  35  36
ENDBRANCH  34  35
ENDBRANCH   1  34
TORSDOF 22
ENDMDL
MODEL 3
REMARK VINA RESULT:      -9.2      2.728      6.165
REMARK SMILES Cc1cc(C(=O)OCCOCCOCCOC(=O)c2ccc(-c3c4nc(c(-c5c(F)cccc5F)c5ccc([nH]5)c(-c5c(F)cccc5F)c5nc(c(-c6c(F)cccc6F)c6ccc3[nH]6)C=C5)C=C4)cc2)ccc1-c1ccc(/C=N/NC(=O)c2cccc(N(C)C)c2)o1
REMARK SMILES IDX 10 1 9 2 8 3 7 4 5 5 6 6 4 7 1 8 2 9 3 10 75 11 74 12 73 13
REMARK SMILES IDX 76 14 77 15 94 16 78 17 79 18 80 19 81 20 82 21 83 22 84 24
REMARK SMILES IDX 85 25 86 26 93 27 87 28 89 29 88 30 90 31 91 32 92 33 11 34
REMARK SMILES IDX 12 35 13 36 14 37 15 38 16 39 17 40 18 41 19 42 20 43 72 44
REMARK SMILES IDX 21 45 71 46 22 47 23 48 24 49 65 50 25 51 70 52 64 53 66 54
REMARK SMILES IDX 26 55 69 56 63 57 62 58 27 60 53 61 36 62 52 63 37 64 40 65
REMARK SMILES IDX 51 66 67 67 38 68 39 69 50 71 68 72 41 73 28 74 29 75 34 76
REMARK SMILES IDX 30 77 31 78 33 79 35 80 32 81 54 82 55 83 60 84 56 85 57 86
REMARK SMILES IDX 59 87 61 88 58 89 42 90 43 91 48 92 44 93 45 94 47 95 49 96
REMARK SMILES IDX 46 97
REMARK H PARENT 82 23 66 59 40 70
REMARK Flexibility Score: inf
ROOT
ATOM      1  O   UNL A   1      35.352  32.838  28.863  1.00  0.00    -0.376 OA
ENDROOT
BRANCH   1   2
ATOM      2  C   UNL A   1      35.998  31.655  29.314  1.00  0.00     0.202 C 
BRANCH   2   3
ATOM      3  C   UNL A   1      37.675  31.321  29.135  1.00  0.00     0.261 C 
BRANCH   3   4
ATOM      4  O   UNL A   1      38.448  29.876  29.091  1.00  0.00    -0.460 OA
BRANCH   4   5
ATOM      5  C   UNL A   1      39.320  29.033  29.751  1.00  0.00     0.338 C 
ATOM      6  O   UNL A   1      39.927  29.238  30.789  1.00  0.00    -0.246 OA
BRANCH   5   7
ATOM      7  C   UNL A   1      39.717  27.724  29.114  1.00  0.00     0.060 A 
ATOM      8  C   UNL A   1      40.967  26.245  25.750  1.00  0.00     0.045 C 
ATOM      9  C   UNL A   1      40.312  26.330  27.114  1.00  0.00    -0.039 A 
ATOM     10  C   UNL A   1      40.272  27.575  27.808  1.00  0.00     0.019 A 
ATOM     11  C   UNL A   1      39.693  25.228  27.719  1.00  0.00     0.020 A 
ATOM     12  C   UNL A   1      39.072  25.396  28.973  1.00  0.00     0.013 A 
ATOM     13  C   UNL A   1      39.092  26.614  29.661  1.00  0.00     0.016 A 
BRANCH  11  14
ATOM     14  C   UNL A   1      39.550  23.928  27.079  1.00  0.00     0.135 A 
ATOM     15  C   UNL A   1      40.245  22.737  27.091  1.00  0.00     0.051 A 
ATOM     16  O   UNL A   1      38.443  23.809  26.292  1.00  0.00    -0.455 OA
ATOM     17  C   UNL A   1      39.510  21.839  26.271  1.00  0.00     0.053 A 
ATOM     18  C   UNL A   1      38.423  22.543  25.792  1.00  0.00     0.147 A 
BRANCH  18  19
ATOM     19  C   UNL A   1      37.342  22.203  24.913  1.00  0.00     0.180 C 
ATOM     20  N   UNL A   1      36.151  22.661  25.130  1.00  0.00    -0.177 NA
BRANCH  20  21
ATOM     21  N   UNL A   1      35.160  22.276  24.274  1.00  0.00    -0.243 N 
ATOM     22  C   UNL A   1      33.905  22.807  24.031  1.00  0.00     0.271 C 
ATOM     23  H   UNL A   1      35.375  21.479  23.736  1.00  0.00     0.194 HD
ATOM     24  O   UNL A   1      33.117  22.153  23.343  1.00  0.00    -0.267 OA
BRANCH  22  25
ATOM     25  C   UNL A   1      33.473  24.143  24.530  1.00  0.00     0.043 A 
ATOM     26  C   UNL A   1      33.022  24.218  25.851  1.00  0.00     0.014 A 
ATOM     27  C   UNL A   1      33.416  25.291  23.722  1.00  0.00     0.039 A 
ATOM     28  C   UNL A   1      32.560  25.426  26.358  1.00  0.00     0.003 A 
ATOM     29  C   UNL A   1      32.996  26.545  24.216  1.00  0.00     0.037 A 
ATOM     30  C   UNL A   1      32.561  26.569  25.552  1.00  0.00     0.026 A 
BRANCH  29  31
ATOM     31  N   UNL A   1      32.992  27.684  23.414  1.00  0.00    -0.378 N 
ATOM     32  C   UNL A   1      32.523  28.974  23.911  1.00  0.00     0.143 C 
ATOM     33  C   UNL A   1      33.828  27.729  22.216  1.00  0.00     0.143 C 
ENDBRANCH  29  31
ENDBRANCH  22  25
ENDBRANCH  20  21
ENDBRANCH  18  19
ENDBRANCH  11  14
ENDBRANCH   5   7
ENDBRANCH   4   5
ENDBRANCH   3   4
ENDBRANCH   2   3
ENDBRANCH   1   2
BRANCH   1  34
ATOM     34  C   UNL A   1      34.893  33.970  29.600  1.00  0.00     0.188 C 
BRANCH  34  35
ATOM     35  C   UNL A   1      34.442  33.852  31.040  1.00  0.00     0.188 C 
BRANCH  35  36
ATOM     36  O   UNL A   1      34.378  35.141  31.618  1.00  0.00    -0.376 OA
BRANCH  36  37
ATOM     37  C   UNL A   1      35.181  35.292  32.780  1.00  0.00     0.202 C 
BRANCH  37  38
ATOM     38  C   UNL A   1      35.789  33.963  33.272  1.00  0.00     0.261 C 
BRANCH  38  39
ATOM     39  O   UNL A   1      37.128  33.808  32.745  1.00  0.00    -0.460 OA
BRANCH  39  40
ATOM     40  C   UNL A   1      37.694  32.550  32.785  1.00  0.00     0.338 C 
ATOM     41  O   UNL A   1      37.097  31.523  32.933  1.00  0.00    -0.246 OA
BRANCH  40  42
ATOM     42  C   UNL A   1      39.200  32.693  32.906  1.00  0.00     0.060 A 
ATOM     43  C   UNL A   1      40.011  33.248  31.910  1.00  0.00     0.016 A 
ATOM     44  C   UNL A   1      39.831  31.863  33.770  1.00  0.00     0.016 A 
ATOM     45  C   UNL A   1      41.380  32.789  31.691  1.00  0.00     0.010 A 
ATOM     46  C   UNL A   1      40.990  31.268  33.252  1.00  0.00     0.010 A 
ATOM     47  C   UNL A   1      41.920  31.656  32.302  1.00  0.00    -0.014 A 
BRANCH  47  48
ATOM     48  C   UNL A   1      43.124  30.739  31.784  1.00  0.00     0.031 A 
ATOM     49  C   UNL A   1      43.269  29.596  30.683  1.00  0.00     0.074 A 
ATOM     50  C   UNL A   1      44.323  30.944  32.378  1.00  0.00     0.049 A 
ATOM     51  N   UNL A   1      43.615  28.342  30.924  1.00  0.00    -0.248 NA
ATOM     52  C   UNL A   1      43.214  29.776  29.218  1.00  0.00     0.031 C 
ATOM     53  C   UNL A   1      45.603  30.298  32.089  1.00  0.00     0.029 A 
ATOM     54  N   UNL A   1      44.578  31.696  33.529  1.00  0.00    -0.354 N 
ATOM     55  C   UNL A   1      43.739  27.661  29.692  1.00  0.00     0.074 A 
ATOM     56  C   UNL A   1      43.333  28.565  28.682  1.00  0.00     0.031 C 
ATOM     57  C   UNL A   1      46.361  30.375  33.195  1.00  0.00     0.029 A 
ATOM     58  C   UNL A   1      45.561  31.001  34.236  1.00  0.00     0.049 A 
ATOM     59  H   UNL A   1      44.151  32.545  33.788  1.00  0.00     0.167 HD
ATOM     60  C   UNL A   1      44.395  26.490  29.435  1.00  0.00     0.037 A 
ATOM     61  C   UNL A   1      45.287  30.503  35.473  1.00  0.00     0.037 A 
ATOM     62  C   UNL A   1      45.344  26.248  30.480  1.00  0.00     0.049 A 
ATOM     63  C   UNL A   1      45.453  29.007  35.544  1.00  0.00     0.074 A 
ATOM     64  C   UNL A   1      46.655  26.675  30.612  1.00  0.00     0.029 A 
ATOM     65  N   UNL A   1      44.896  25.883  31.727  1.00  0.00    -0.354 N 
ATOM     66  N   UNL A   1      45.529  28.224  34.503  1.00  0.00    -0.248 NA
ATOM     67  C   UNL A   1      45.532  28.271  36.802  1.00  0.00     0.031 C 
ATOM     68  C   UNL A   1      46.952  26.691  31.993  1.00  0.00     0.029 A 
ATOM     69  C   UNL A   1      45.857  26.183  32.669  1.00  0.00     0.049 A 
ATOM     70  H   UNL A   1      44.022  25.471  31.919  1.00  0.00     0.167 HD
ATOM     71  C   UNL A   1      45.605  26.922  34.921  1.00  0.00     0.074 A 
ATOM     72  C   UNL A   1      45.637  27.005  36.366  1.00  0.00     0.031 C 
ATOM     73  C   UNL A   1      45.610  25.869  34.057  1.00  0.00     0.037 A 
BRANCH  60  74
ATOM     74  C   UNL A   1      44.439  25.860  28.044  1.00  0.00     0.057 A 
ATOM     75  C   UNL A   1      43.676  24.739  27.676  1.00  0.00     0.134 A 
ATOM     76  C   UNL A   1      45.277  26.354  27.020  1.00  0.00     0.134 A 
ATOM     77  F   UNL A   1      42.750  24.225  28.497  1.00  0.00    -0.206 F 
ATOM     78  C   UNL A   1      43.840  24.076  26.445  1.00  0.00     0.040 A 
ATOM     79  C   UNL A   1      45.481  25.681  25.801  1.00  0.00     0.040 A 
ATOM     80  F   UNL A   1      45.956  27.499  27.185  1.00  0.00    -0.206 F 
ATOM     81  C   UNL A   1      44.777  24.519  25.520  1.00  0.00     0.006 A 
ENDBRANCH  60  74
BRANCH  61  82
ATOM     82  C   UNL A   1      44.341  31.333  36.286  1.00  0.00     0.057 A 
ATOM     83  C   UNL A   1      44.796  32.576  36.780  1.00  0.00     0.134 A 
ATOM     84  C   UNL A   1      42.961  31.111  36.353  1.00  0.00     0.134 A 
ATOM     85  F   UNL A   1      46.106  32.874  36.748  1.00  0.00    -0.206 F 
ATOM     86  C   UNL A   1      43.927  33.580  37.217  1.00  0.00     0.040 A 
ATOM     87  C   UNL A   1      42.076  32.109  36.807  1.00  0.00     0.040 A 
ATOM     88  F   UNL A   1      42.422  29.994  35.844  1.00  0.00    -0.206 F 
ATOM     89  C   UNL A   1      42.557  33.353  37.217  1.00  0.00     0.006 A 
ENDBRANCH  61  82
BRANCH  73  90
ATOM     90  C   UNL A   1      45.410  24.427  34.426  1.00  0.00     0.057 A 
ATOM     91  C   UNL A   1      44.147  23.843  34.587  1.00  0.00     0.134 A 
ATOM     92  C   UNL A   1      46.502  23.530  34.430  1.00  0.00     0.134 A 
ATOM     93  F   UNL A   1      43.024  24.568  34.496  1.00  0.00    -0.206 F 
ATOM     94  C   UNL A   1      43.985  22.469  34.789  1.00  0.00     0.040 A 
ATOM     95  C   UNL A   1      46.345  22.151  34.569  1.00  0.00     0.040 A 
ATOM     96  F   UNL A   1      47.764  23.956  34.263  1.00  0.00    -0.206 F 
ATOM     97  C   UNL A   1      45.082  21.616  34.765  1.00  0.00     0.006 A 
ENDBRANCH  73  90
ENDBRANCH  47  48
ENDBRANCH  40  42
ENDBRANCH  39  40
ENDBRANCH  38  39
ENDBRANCH  37  38
ENDBRANCH  36  37
ENDBRANCH  35  36
ENDBRANCH  34  35
ENDBRANCH   1  34
TORSDOF 22
ENDMDL
