MODEL 1
REMARK VINA RESULT:     -10.5      0.000      0.000
REMARK SMILES O=C(OCCOCCOCCOC(=O)c1ccc(-n2cccc2/C=N/NC(=O)c2cccs2)cc1)c1ccc(-c2c3nc(c(-c4c(F)cccc4F)c4ccc([nH]4)c(-c4c(F)cccc4F)c4nc(c(-c5c(F)cccc5F)c5ccc2[nH]5)C=C4)C=C3)cc1
REMARK SMILES IDX 8 1 7 2 6 3 5 4 4 5 3 6 2 7 1 8 36 9 37 10 89 11 38 12 88 13
REMARK SMILES IDX 39 14 40 15 41 16 82 17 42 18 87 19 81 20 83 21 43 22 86 23
REMARK SMILES IDX 80 24 79 25 44 27 70 28 53 29 69 30 54 31 57 32 68 33 84 34
REMARK SMILES IDX 55 35 56 36 67 38 85 39 58 40 45 41 46 42 51 43 47 44 48 45
REMARK SMILES IDX 50 46 52 47 49 48 71 49 72 50 77 51 73 52 74 53 76 54 78 55
REMARK SMILES IDX 75 56 59 57 60 58 65 59 61 60 62 61 64 62 66 63 63 64 9 65
REMARK SMILES IDX 10 66 11 67 12 68 13 69 14 70 15 71 16 72 35 73 17 74 34 75
REMARK SMILES IDX 18 76 19 77 20 78 23 79 21 80 22 81 24 82 25 83 26 84 27 85
REMARK SMILES IDX 28 87 29 88 30 89 33 90 31 91 32 92
REMARK H PARENT 83 26 57 37 26 86
REMARK Flexibility Score: inf
ROOT
ATOM      1  C   UNL A   1      33.455  25.300  25.589  1.00  0.00     0.188 C 
ENDROOT
BRANCH   1   2
ATOM      2  C   UNL A   1      33.891  26.736  25.329  1.00  0.00     0.188 C 
BRANCH   2   3
ATOM      3  O   UNL A   1      33.113  27.736  26.002  1.00  0.00    -0.376 OA
BRANCH   3   4
ATOM      4  C   UNL A   1      32.619  28.800  25.185  1.00  0.00     0.202 C 
BRANCH   4   5
ATOM      5  C   UNL A   1      31.821  29.960  25.819  1.00  0.00     0.261 C 
BRANCH   5   6
ATOM      6  O   UNL A   1      32.263  30.423  27.103  1.00  0.00    -0.460 OA
BRANCH   6   7
ATOM      7  C   UNL A   1      33.178  31.369  27.412  1.00  0.00     0.338 C 
ATOM      8  O   UNL A   1      32.798  32.530  27.556  1.00  0.00    -0.246 OA
BRANCH   7   9
ATOM      9  C   UNL A   1      34.597  31.047  27.703  1.00  0.00     0.060 A 
ATOM     10  C   UNL A   1      35.080  29.789  28.052  1.00  0.00     0.016 A 
ATOM     11  C   UNL A   1      35.477  32.145  27.731  1.00  0.00     0.016 A 
ATOM     12  C   UNL A   1      36.307  29.666  28.672  1.00  0.00     0.010 A 
ATOM     13  C   UNL A   1      36.738  32.022  28.296  1.00  0.00     0.010 A 
ATOM     14  C   UNL A   1      37.097  30.798  28.855  1.00  0.00    -0.014 A 
BRANCH  14  15
ATOM     15  C   UNL A   1      38.303  30.634  29.681  1.00  0.00     0.031 A 
ATOM     16  C   UNL A   1      39.337  29.736  29.034  1.00  0.00     0.074 A 
ATOM     17  C   UNL A   1      38.245  31.209  30.914  1.00  0.00     0.049 A 
ATOM     18  N   UNL A   1      40.199  28.928  29.569  1.00  0.00    -0.248 NA
ATOM     19  C   UNL A   1      39.338  29.643  27.554  1.00  0.00     0.031 C 
ATOM     20  C   UNL A   1      37.104  32.012  31.394  1.00  0.00     0.029 A 
ATOM     21  N   UNL A   1      39.085  31.238  32.007  1.00  0.00    -0.354 N 
ATOM     22  C   UNL A   1      40.978  28.421  28.512  1.00  0.00     0.074 A 
ATOM     23  C   UNL A   1      40.281  28.737  27.304  1.00  0.00     0.031 C 
ATOM     24  C   UNL A   1      37.292  32.396  32.667  1.00  0.00     0.029 A 
ATOM     25  C   UNL A   1      38.564  31.900  33.147  1.00  0.00     0.049 A 
ATOM     26  H   UNL A   1      39.980  30.828  31.997  1.00  0.00     0.167 HD
ATOM     27  C   UNL A   1      42.248  27.952  28.670  1.00  0.00     0.037 A 
ATOM     28  C   UNL A   1      39.098  32.018  34.401  1.00  0.00     0.037 A 
ATOM     29  C   UNL A   1      42.629  27.982  30.044  1.00  0.00     0.049 A 
ATOM     30  C   UNL A   1      40.452  31.437  34.314  1.00  0.00     0.074 A 
ATOM     31  C   UNL A   1      42.299  27.218  31.131  1.00  0.00     0.029 A 
ATOM     32  N   UNL A   1      43.260  29.120  30.482  1.00  0.00    -0.354 N 
ATOM     33  N   UNL A   1      41.447  31.977  33.675  1.00  0.00    -0.248 NA
ATOM     34  C   UNL A   1      40.704  30.112  34.894  1.00  0.00     0.031 C 
ATOM     35  C   UNL A   1      42.415  28.097  32.232  1.00  0.00     0.029 A 
ATOM     36  C   UNL A   1      42.883  29.337  31.787  1.00  0.00     0.049 A 
ATOM     37  H   UNL A   1      43.874  29.682  29.956  1.00  0.00     0.167 HD
ATOM     38  C   UNL A   1      42.306  30.918  33.492  1.00  0.00     0.074 A 
ATOM     39  C   UNL A   1      41.958  29.931  34.487  1.00  0.00     0.031 C 
ATOM     40  C   UNL A   1      42.860  30.705  32.268  1.00  0.00     0.037 A 
BRANCH  27  41
ATOM     41  C   UNL A   1      43.324  27.708  27.648  1.00  0.00     0.057 A 
ATOM     42  C   UNL A   1      43.867  26.407  27.545  1.00  0.00     0.134 A 
ATOM     43  C   UNL A   1      44.047  28.718  26.998  1.00  0.00     0.134 A 
ATOM     44  F   UNL A   1      43.246  25.354  28.097  1.00  0.00    -0.206 F 
ATOM     45  C   UNL A   1      45.098  26.150  26.935  1.00  0.00     0.040 A 
ATOM     46  C   UNL A   1      45.257  28.462  26.341  1.00  0.00     0.040 A 
ATOM     47  F   UNL A   1      43.668  30.000  27.044  1.00  0.00    -0.206 F 
ATOM     48  C   UNL A   1      45.806  27.185  26.342  1.00  0.00     0.006 A 
ENDBRANCH  27  41
BRANCH  28  49
ATOM     49  C   UNL A   1      38.634  32.504  35.758  1.00  0.00     0.057 A 
ATOM     50  C   UNL A   1      38.131  31.715  36.800  1.00  0.00     0.134 A 
ATOM     51  C   UNL A   1      38.765  33.875  36.107  1.00  0.00     0.134 A 
ATOM     52  F   UNL A   1      37.837  30.424  36.638  1.00  0.00    -0.206 F 
ATOM     53  C   UNL A   1      37.881  32.217  38.092  1.00  0.00     0.040 A 
ATOM     54  C   UNL A   1      38.552  34.384  37.393  1.00  0.00     0.040 A 
ATOM     55  F   UNL A   1      39.119  34.803  35.206  1.00  0.00    -0.206 F 
ATOM     56  C   UNL A   1      38.122  33.547  38.403  1.00  0.00     0.006 A 
ENDBRANCH  28  49
BRANCH  40  57
ATOM     57  C   UNL A   1      42.933  31.960  31.412  1.00  0.00     0.057 A 
ATOM     58  C   UNL A   1      43.810  33.002  31.743  1.00  0.00     0.134 A 
ATOM     59  C   UNL A   1      42.058  32.230  30.351  1.00  0.00     0.134 A 
ATOM     60  F   UNL A   1      44.706  32.841  32.728  1.00  0.00    -0.206 F 
ATOM     61  C   UNL A   1      43.785  34.238  31.081  1.00  0.00     0.040 A 
ATOM     62  C   UNL A   1      42.022  33.452  29.672  1.00  0.00     0.040 A 
ATOM     63  F   UNL A   1      41.202  31.305  29.928  1.00  0.00    -0.206 F 
ATOM     64  C   UNL A   1      42.882  34.471  30.047  1.00  0.00     0.006 A 
ENDBRANCH  40  57
ENDBRANCH  14  15
ENDBRANCH   7   9
ENDBRANCH   6   7
ENDBRANCH   5   6
ENDBRANCH   4   5
ENDBRANCH   3   4
ENDBRANCH   2   3
ENDBRANCH   1   2
BRANCH   1  65
ATOM     65  O   UNL A   1      32.261  24.895  24.926  1.00  0.00    -0.376 OA
BRANCH  65  66
ATOM     66  C   UNL A   1      31.487  23.902  25.577  1.00  0.00     0.202 C 
BRANCH  66  67
ATOM     67  C   UNL A   1      31.496  22.510  24.941  1.00  0.00     0.261 C 
BRANCH  67  68
ATOM     68  O   UNL A   1      32.754  21.818  25.021  1.00  0.00    -0.460 OA
BRANCH  68  69
ATOM     69  C   UNL A   1      33.577  22.047  23.965  1.00  0.00     0.338 C 
ATOM     70  O   UNL A   1      33.271  22.160  22.792  1.00  0.00    -0.246 OA
BRANCH  69  71
ATOM     71  C   UNL A   1      34.973  22.147  24.420  1.00  0.00     0.060 A 
ATOM     72  C   UNL A   1      35.388  21.480  25.582  1.00  0.00     0.018 A 
ATOM     73  C   UNL A   1      35.801  23.083  23.803  1.00  0.00     0.018 A 
ATOM     74  C   UNL A   1      36.633  21.768  26.152  1.00  0.00     0.027 A 
ATOM     75  C   UNL A   1      37.021  23.406  24.396  1.00  0.00     0.027 A 
ATOM     76  C   UNL A   1      37.429  22.764  25.578  1.00  0.00     0.046 A 
BRANCH  76  77
ATOM     77  N   UNL A   1      38.566  23.270  26.261  1.00  0.00    -0.316 N 
ATOM     78  C   UNL A   1      38.688  24.601  26.618  1.00  0.00     0.092 A 
ATOM     79  C   UNL A   1      39.720  22.609  26.659  1.00  0.00     0.066 A 
ATOM     80  C   UNL A   1      39.884  24.792  27.264  1.00  0.00     0.021 A 
ATOM     81  C   UNL A   1      40.544  23.549  27.266  1.00  0.00     0.030 A 
BRANCH  79  82
ATOM     82  C   UNL A   1      40.055  21.235  26.393  1.00  0.00     0.160 C 
ATOM     83  N   UNL A   1      41.004  20.662  27.068  1.00  0.00    -0.179 NA
BRANCH  83  84
ATOM     84  N   UNL A   1      41.333  19.365  26.771  1.00  0.00    -0.242 N 
ATOM     85  C   UNL A   1      42.365  18.854  25.997  1.00  0.00     0.281 C 
ATOM     86  H   UNL A   1      40.742  18.688  27.172  1.00  0.00     0.194 HD
ATOM     87  O   UNL A   1      42.297  17.674  25.646  1.00  0.00    -0.266 OA
BRANCH  85  88
ATOM     88  C   UNL A   1      43.489  19.715  25.668  1.00  0.00     0.094 A 
ATOM     89  C   UNL A   1      43.560  21.096  25.653  1.00  0.00     0.026 A 
ATOM     90  S   UNL A   1      44.985  19.004  25.224  1.00  0.00    -0.139 S 
ATOM     91  C   UNL A   1      44.841  21.566  25.239  1.00  0.00     0.012 A 
ATOM     92  C   UNL A   1      45.709  20.531  24.973  1.00  0.00     0.065 A 
ENDBRANCH  85  88
ENDBRANCH  83  84
ENDBRANCH  79  82
ENDBRANCH  76  77
ENDBRANCH  69  71
ENDBRANCH  68  69
ENDBRANCH  67  68
ENDBRANCH  66  67
ENDBRANCH  65  66
ENDBRANCH   1  65
TORSDOF 21
ENDMDL
MODEL 2
REMARK VINA RESULT:     -10.2      4.056      8.312
REMARK SMILES O=C(OCCOCCOCCOC(=O)c1ccc(-n2cccc2/C=N/NC(=O)c2cccs2)cc1)c1ccc(-c2c3nc(c(-c4c(F)cccc4F)c4ccc([nH]4)c(-c4c(F)cccc4F)c4nc(c(-c5c(F)cccc5F)c5ccc2[nH]5)C=C4)C=C3)cc1
REMARK SMILES IDX 8 1 7 2 6 3 5 4 4 5 3 6 2 7 1 8 36 9 37 10 89 11 38 12 88 13
REMARK SMILES IDX 39 14 40 15 41 16 82 17 42 18 87 19 81 20 83 21 43 22 86 23
REMARK SMILES IDX 80 24 79 25 44 27 70 28 53 29 69 30 54 31 57 32 68 33 84 34
REMARK SMILES IDX 55 35 56 36 67 38 85 39 58 40 45 41 46 42 51 43 47 44 48 45
REMARK SMILES IDX 50 46 52 47 49 48 71 49 72 50 77 51 73 52 74 53 76 54 78 55
REMARK SMILES IDX 75 56 59 57 60 58 65 59 61 60 62 61 64 62 66 63 63 64 9 65
REMARK SMILES IDX 10 66 11 67 12 68 13 69 14 70 15 71 16 72 35 73 17 74 34 75
REMARK SMILES IDX 18 76 19 77 20 78 23 79 21 80 22 81 24 82 25 83 26 84 27 85
REMARK SMILES IDX 28 87 29 88 30 89 33 90 31 91 32 92
REMARK H PARENT 83 26 57 37 26 86
REMARK Flexibility Score: inf
ROOT
ATOM      1  C   UNL A   1      34.372  33.412  28.362  1.00  0.00     0.188 C 
ENDROOT
BRANCH   1   2
ATOM      2  C   UNL A   1      33.825  34.306  29.466  1.00  0.00     0.188 C 
BRANCH   2   3
ATOM      3  O   UNL A   1      34.068  33.838  30.800  1.00  0.00    -0.376 OA
BRANCH   3   4
ATOM      4  C   UNL A   1      34.793  32.611  30.912  1.00  0.00     0.202 C 
BRANCH   4   5
ATOM      5  C   UNL A   1      35.360  32.165  32.277  1.00  0.00     0.261 C 
BRANCH   5   6
ATOM      6  O   UNL A   1      35.641  33.201  33.229  1.00  0.00    -0.460 OA
BRANCH   6   7
ATOM      7  C   UNL A   1      36.492  34.247  33.140  1.00  0.00     0.338 C 
ATOM      8  O   UNL A   1      36.210  35.289  33.731  1.00  0.00    -0.246 OA
BRANCH   7   9
ATOM      9  C   UNL A   1      37.810  34.155  32.462  1.00  0.00     0.060 A 
ATOM     10  C   UNL A   1      38.045  34.451  31.122  1.00  0.00     0.016 A 
ATOM     11  C   UNL A   1      38.855  33.614  33.233  1.00  0.00     0.016 A 
ATOM     12  C   UNL A   1      39.179  33.974  30.496  1.00  0.00     0.010 A 
ATOM     13  C   UNL A   1      40.026  33.185  32.627  1.00  0.00     0.010 A 
ATOM     14  C   UNL A   1      40.130  33.280  31.241  1.00  0.00    -0.014 A 
BRANCH  14  15
ATOM     15  C   UNL A   1      41.219  32.641  30.487  1.00  0.00     0.031 A 
ATOM     16  C   UNL A   1      42.262  33.632  30.013  1.00  0.00     0.074 A 
ATOM     17  C   UNL A   1      41.056  31.310  30.246  1.00  0.00     0.049 A 
ATOM     18  N   UNL A   1      43.003  33.625  28.949  1.00  0.00    -0.248 NA
ATOM     19  C   UNL A   1      42.427  34.882  30.793  1.00  0.00     0.031 C 
ATOM     20  C   UNL A   1      39.920  30.516  30.753  1.00  0.00     0.029 A 
ATOM     21  N   UNL A   1      41.764  30.363  29.538  1.00  0.00    -0.354 N 
ATOM     22  C   UNL A   1      43.865  34.732  29.058  1.00  0.00     0.074 A 
ATOM     23  C   UNL A   1      43.333  35.562  30.094  1.00  0.00     0.031 C 
ATOM     24  C   UNL A   1      39.984  29.251  30.304  1.00  0.00     0.029 A 
ATOM     25  C   UNL A   1      41.158  29.083  29.476  1.00  0.00     0.049 A 
ATOM     26  H   UNL A   1      42.626  30.561  29.106  1.00  0.00     0.167 HD
ATOM     27  C   UNL A   1      45.076  34.808  28.437  1.00  0.00     0.037 A 
ATOM     28  C   UNL A   1      41.550  27.970  28.782  1.00  0.00     0.037 A 
ATOM     29  C   UNL A   1      45.296  33.659  27.622  1.00  0.00     0.049 A 
ATOM     30  C   UNL A   1      42.865  28.306  28.202  1.00  0.00     0.074 A 
ATOM     31  C   UNL A   1      44.795  33.247  26.416  1.00  0.00     0.029 A 
ATOM     32  N   UNL A   1      45.944  32.601  28.212  1.00  0.00    -0.354 N 
ATOM     33  N   UNL A   1      43.960  28.448  28.889  1.00  0.00    -0.248 NA
ATOM     34  C   UNL A   1      42.964  28.600  26.768  1.00  0.00     0.031 C 
ATOM     35  C   UNL A   1      44.839  31.836  26.475  1.00  0.00     0.029 A 
ATOM     36  C   UNL A   1      45.434  31.442  27.678  1.00  0.00     0.049 A 
ATOM     37  H   UNL A   1      46.649  32.663  28.897  1.00  0.00     0.167 HD
ATOM     38  C   UNL A   1      44.765  29.169  28.038  1.00  0.00     0.074 A 
ATOM     39  C   UNL A   1      44.242  28.963  26.707  1.00  0.00     0.031 C 
ATOM     40  C   UNL A   1      45.442  30.251  28.507  1.00  0.00     0.037 A 
BRANCH  27  41
ATOM     41  C   UNL A   1      46.245  35.716  28.702  1.00  0.00     0.057 A 
ATOM     42  C   UNL A   1      46.792  36.437  27.617  1.00  0.00     0.134 A 
ATOM     43  C   UNL A   1      47.029  35.683  29.863  1.00  0.00     0.134 A 
ATOM     44  F   UNL A   1      46.117  36.568  26.464  1.00  0.00    -0.206 F 
ATOM     45  C   UNL A   1      48.075  36.990  27.650  1.00  0.00     0.040 A 
ATOM     46  C   UNL A   1      48.297  36.276  29.922  1.00  0.00     0.040 A 
ATOM     47  F   UNL A   1      46.652  35.007  30.953  1.00  0.00    -0.206 F 
ATOM     48  C   UNL A   1      48.840  36.897  28.803  1.00  0.00     0.006 A 
ENDBRANCH  27  41
BRANCH  28  49
ATOM     49  C   UNL A   1      40.965  26.615  28.445  1.00  0.00     0.057 A 
ATOM     50  C   UNL A   1      39.685  26.362  27.938  1.00  0.00     0.134 A 
ATOM     51  C   UNL A   1      41.765  25.446  28.559  1.00  0.00     0.134 A 
ATOM     52  F   UNL A   1      38.750  27.310  27.855  1.00  0.00    -0.206 F 
ATOM     53  C   UNL A   1      39.274  25.091  27.490  1.00  0.00     0.040 A 
ATOM     54  C   UNL A   1      41.383  24.184  28.089  1.00  0.00     0.040 A 
ATOM     55  F   UNL A   1      42.976  25.470  29.133  1.00  0.00    -0.206 F 
ATOM     56  C   UNL A   1      40.133  24.004  27.532  1.00  0.00     0.006 A 
ENDBRANCH  28  49
BRANCH  40  57
ATOM     57  C   UNL A   1      45.693  30.202  30.006  1.00  0.00     0.057 A 
ATOM     58  C   UNL A   1      46.555  29.245  30.557  1.00  0.00     0.134 A 
ATOM     59  C   UNL A   1      44.995  30.985  30.938  1.00  0.00     0.134 A 
ATOM     60  F   UNL A   1      47.290  28.459  29.755  1.00  0.00    -0.206 F 
ATOM     61  C   UNL A   1      46.681  29.059  31.941  1.00  0.00     0.040 A 
ATOM     62  C   UNL A   1      45.111  30.822  32.322  1.00  0.00     0.040 A 
ATOM     63  F   UNL A   1      44.173  31.946  30.532  1.00  0.00    -0.206 F 
ATOM     64  C   UNL A   1      45.949  29.843  32.831  1.00  0.00     0.006 A 
ENDBRANCH  40  57
ENDBRANCH  14  15
ENDBRANCH   7   9
ENDBRANCH   6   7
ENDBRANCH   5   6
ENDBRANCH   4   5
ENDBRANCH   3   4
ENDBRANCH   2   3
ENDBRANCH   1   2
BRANCH   1  65
ATOM     65  O   UNL A   1      33.405  32.610  27.690  1.00  0.00    -0.376 OA
BRANCH  65  66
ATOM     66  C   UNL A   1      33.674  31.220  27.630  1.00  0.00     0.202 C 
BRANCH  66  67
ATOM     67  C   UNL A   1      32.563  30.339  27.053  1.00  0.00     0.261 C 
BRANCH  67  68
ATOM     68  O   UNL A   1      32.951  28.982  26.779  1.00  0.00    -0.460 OA
BRANCH  68  69
ATOM     69  C   UNL A   1      32.040  28.057  27.177  1.00  0.00     0.338 C 
ATOM     70  O   UNL A   1      31.160  28.188  28.008  1.00  0.00    -0.246 OA
BRANCH  69  71
ATOM     71  C   UNL A   1      32.246  26.792  26.453  1.00  0.00     0.060 A 
ATOM     72  C   UNL A   1      31.179  25.902  26.266  1.00  0.00     0.018 A 
ATOM     73  C   UNL A   1      33.553  26.407  26.161  1.00  0.00     0.018 A 
ATOM     74  C   UNL A   1      31.419  24.602  25.805  1.00  0.00     0.027 A 
ATOM     75  C   UNL A   1      33.800  25.099  25.748  1.00  0.00     0.027 A 
ATOM     76  C   UNL A   1      32.737  24.192  25.587  1.00  0.00     0.046 A 
BRANCH  76  77
ATOM     77  N   UNL A   1      33.047  22.822  25.376  1.00  0.00    -0.316 N 
ATOM     78  C   UNL A   1      33.031  21.890  26.398  1.00  0.00     0.092 A 
ATOM     79  C   UNL A   1      33.433  22.178  24.209  1.00  0.00     0.066 A 
ATOM     80  C   UNL A   1      33.368  20.658  25.895  1.00  0.00     0.021 A 
ATOM     81  C   UNL A   1      33.647  20.842  24.528  1.00  0.00     0.030 A 
BRANCH  79  82
ATOM     82  C   UNL A   1      33.679  22.793  22.931  1.00  0.00     0.160 C 
ATOM     83  N   UNL A   1      32.771  23.550  22.397  1.00  0.00    -0.179 NA
BRANCH  83  84
ATOM     84  N   UNL A   1      33.010  24.094  21.162  1.00  0.00    -0.242 N 
ATOM     85  C   UNL A   1      32.833  25.391  20.701  1.00  0.00     0.281 C 
ATOM     86  H   UNL A   1      33.364  23.463  20.494  1.00  0.00     0.194 HD
ATOM     87  O   UNL A   1      32.851  25.581  19.483  1.00  0.00    -0.266 OA
BRANCH  85  88
ATOM     88  C   UNL A   1      32.674  26.464  21.668  1.00  0.00     0.094 A 
ATOM     89  C   UNL A   1      33.629  27.304  22.211  1.00  0.00     0.026 A 
ATOM     90  S   UNL A   1      31.110  26.812  22.280  1.00  0.00    -0.139 S 
ATOM     91  C   UNL A   1      33.074  28.211  23.160  1.00  0.00     0.012 A 
ATOM     92  C   UNL A   1      31.713  28.048  23.295  1.00  0.00     0.065 A 
ENDBRANCH  85  88
ENDBRANCH  83  84
ENDBRANCH  79  82
ENDBRANCH  76  77
ENDBRANCH  69  71
ENDBRANCH  68  69
ENDBRANCH  67  68
ENDBRANCH  66  67
ENDBRANCH  65  66
ENDBRANCH   1  65
TORSDOF 21
ENDMDL
MODEL 3
REMARK VINA RESULT:     -10.2      3.239      5.711
REMARK SMILES O=C(OCCOCCOCCOC(=O)c1ccc(-n2cccc2/C=N/NC(=O)c2cccs2)cc1)c1ccc(-c2c3nc(c(-c4c(F)cccc4F)c4ccc([nH]4)c(-c4c(F)cccc4F)c4nc(c(-c5c(F)cccc5F)c5ccc2[nH]5)C=C4)C=C3)cc1
REMARK SMILES IDX 8 1 7 2 6 3 5 4 4 5 3 6 2 7 1 8 36 9 37 10 89 11 38 12 88 13
REMARK SMILES IDX 39 14 40 15 41 16 82 17 42 18 87 19 81 20 83 21 43 22 86 23
REMARK SMILES IDX 80 24 79 25 44 27 70 28 53 29 69 30 54 31 57 32 68 33 84 34
REMARK SMILES IDX 55 35 56 36 67 38 85 39 58 40 45 41 46 42 51 43 47 44 48 45
REMARK SMILES IDX 50 46 52 47 49 48 71 49 72 50 77 51 73 52 74 53 76 54 78 55
REMARK SMILES IDX 75 56 59 57 60 58 65 59 61 60 62 61 64 62 66 63 63 64 9 65
REMARK SMILES IDX 10 66 11 67 12 68 13 69 14 70 15 71 16 72 35 73 17 74 34 75
REMARK SMILES IDX 18 76 19 77 20 78 23 79 21 80 22 81 24 82 25 83 26 84 27 85
REMARK SMILES IDX 28 87 29 88 30 89 33 90 31 91 32 92
REMARK H PARENT 83 26 57 37 26 86
REMARK Flexibility Score: inf
ROOT
ATOM      1  C   UNL A   1      31.024  28.899  24.355  1.00  0.00     0.188 C 
ENDROOT
BRANCH   1   2
ATOM      2  C   UNL A   1      31.814  29.501  25.508  1.00  0.00     0.188 C 
BRANCH   2   3
ATOM      3  O   UNL A   1      33.227  29.250  25.470  1.00  0.00    -0.376 OA
BRANCH   3   4
ATOM      4  C   UNL A   1      33.928  29.426  26.704  1.00  0.00     0.202 C 
BRANCH   4   5
ATOM      5  C   UNL A   1      34.123  30.841  27.291  1.00  0.00     0.261 C 
BRANCH   5   6
ATOM      6  O   UNL A   1      35.467  31.228  27.610  1.00  0.00    -0.460 OA
BRANCH   6   7
ATOM      7  C   UNL A   1      36.206  30.955  28.708  1.00  0.00     0.338 C 
ATOM      8  O   UNL A   1      35.951  31.552  29.753  1.00  0.00    -0.246 OA
BRANCH   7   9
ATOM      9  C   UNL A   1      37.230  29.881  28.739  1.00  0.00     0.060 A 
ATOM     10  C   UNL A   1      37.302  28.869  29.692  1.00  0.00     0.016 A 
ATOM     11  C   UNL A   1      38.257  29.990  27.783  1.00  0.00     0.016 A 
ATOM     12  C   UNL A   1      38.478  28.167  29.869  1.00  0.00     0.010 A 
ATOM     13  C   UNL A   1      39.421  29.248  27.913  1.00  0.00     0.010 A 
ATOM     14  C   UNL A   1      39.556  28.415  29.022  1.00  0.00    -0.014 A 
BRANCH  14  15
ATOM     15  C   UNL A   1      40.832  27.775  29.375  1.00  0.00     0.031 A 
ATOM     16  C   UNL A   1      41.110  26.533  28.554  1.00  0.00     0.074 A 
ATOM     17  C   UNL A   1      41.484  28.325  30.438  1.00  0.00     0.049 A 
ATOM     18  N   UNL A   1      41.743  25.444  28.867  1.00  0.00    -0.248 NA
ATOM     19  C   UNL A   1      40.494  26.446  27.209  1.00  0.00     0.031 C 
ATOM     20  C   UNL A   1      41.014  29.524  31.159  1.00  0.00     0.029 A 
ATOM     21  N   UNL A   1      42.630  28.011  31.136  1.00  0.00    -0.354 N 
ATOM     22  C   UNL A   1      41.791  24.663  27.697  1.00  0.00     0.074 A 
ATOM     23  C   UNL A   1      40.848  25.234  26.786  1.00  0.00     0.031 C 
ATOM     24  C   UNL A   1      41.817  29.799  32.200  1.00  0.00     0.029 A 
ATOM     25  C   UNL A   1      42.888  28.829  32.264  1.00  0.00     0.049 A 
ATOM     26  H   UNL A   1      43.224  27.272  30.871  1.00  0.00     0.167 HD
ATOM     27  C   UNL A   1      42.744  23.718  27.462  1.00  0.00     0.037 A 
ATOM     28  C   UNL A   1      43.874  28.720  33.207  1.00  0.00     0.037 A 
ATOM     29  C   UNL A   1      43.616  23.592  28.584  1.00  0.00     0.049 A 
ATOM     30  C   UNL A   1      44.760  27.638  32.734  1.00  0.00     0.074 A 
ATOM     31  C   UNL A   1      43.481  23.030  29.825  1.00  0.00     0.029 A 
ATOM     32  N   UNL A   1      44.745  24.375  28.577  1.00  0.00    -0.354 N 
ATOM     33  N   UNL A   1      45.546  27.726  31.703  1.00  0.00    -0.248 NA
ATOM     34  C   UNL A   1      44.704  26.327  33.390  1.00  0.00     0.031 C 
ATOM     35  C   UNL A   1      44.340  23.787  30.654  1.00  0.00     0.029 A 
ATOM     36  C   UNL A   1      45.022  24.728  29.876  1.00  0.00     0.049 A 
ATOM     37  H   UNL A   1      45.263  24.638  27.782  1.00  0.00     0.167 HD
ATOM     38  C   UNL A   1      45.799  26.409  31.396  1.00  0.00     0.074 A 
ATOM     39  C   UNL A   1      45.530  25.650  32.596  1.00  0.00     0.031 C 
ATOM     40  C   UNL A   1      45.704  25.987  30.107  1.00  0.00     0.037 A 
BRANCH  27  41
ATOM     41  C   UNL A   1      43.155  23.056  26.175  1.00  0.00     0.057 A 
ATOM     42  C   UNL A   1      43.239  21.645  26.146  1.00  0.00     0.134 A 
ATOM     43  C   UNL A   1      43.751  23.720  25.095  1.00  0.00     0.134 A 
ATOM     44  F   UNL A   1      42.675  20.900  27.109  1.00  0.00    -0.206 F 
ATOM     45  C   UNL A   1      43.960  20.953  25.169  1.00  0.00     0.040 A 
ATOM     46  C   UNL A   1      44.435  23.032  24.084  1.00  0.00     0.040 A 
ATOM     47  F   UNL A   1      43.779  25.054  25.013  1.00  0.00    -0.206 F 
ATOM     48  C   UNL A   1      44.576  21.650  24.140  1.00  0.00     0.006 A 
ENDBRANCH  27  41
BRANCH  28  49
ATOM     49  C   UNL A   1      44.201  29.355  34.543  1.00  0.00     0.057 A 
ATOM     50  C   UNL A   1      43.372  29.397  35.670  1.00  0.00     0.134 A 
ATOM     51  C   UNL A   1      45.487  29.913  34.770  1.00  0.00     0.134 A 
ATOM     52  F   UNL A   1      42.093  29.019  35.630  1.00  0.00    -0.206 F 
ATOM     53  C   UNL A   1      43.811  29.854  36.928  1.00  0.00     0.040 A 
ATOM     54  C   UNL A   1      45.949  30.341  36.021  1.00  0.00     0.040 A 
ATOM     55  F   UNL A   1      46.377  30.068  33.779  1.00  0.00    -0.206 F 
ATOM     56  C   UNL A   1      45.111  30.297  37.117  1.00  0.00     0.006 A 
ENDBRANCH  28  49
BRANCH  40  57
ATOM     57  C   UNL A   1      45.898  27.103  29.092  1.00  0.00     0.057 A 
ATOM     58  C   UNL A   1      47.144  27.726  28.942  1.00  0.00     0.134 A 
ATOM     59  C   UNL A   1      44.850  27.677  28.357  1.00  0.00     0.134 A 
ATOM     60  F   UNL A   1      48.220  27.242  29.581  1.00  0.00    -0.206 F 
ATOM     61  C   UNL A   1      47.319  28.865  28.143  1.00  0.00     0.040 A 
ATOM     62  C   UNL A   1      45.005  28.807  27.548  1.00  0.00     0.040 A 
ATOM     63  F   UNL A   1      43.630  27.153  28.396  1.00  0.00    -0.206 F 
ATOM     64  C   UNL A   1      46.245  29.417  27.449  1.00  0.00     0.006 A 
ENDBRANCH  40  57
ENDBRANCH  14  15
ENDBRANCH   7   9
ENDBRANCH   6   7
ENDBRANCH   5   6
ENDBRANCH   4   5
ENDBRANCH   3   4
ENDBRANCH   2   3
ENDBRANCH   1   2
BRANCH   1  65
ATOM     65  O   UNL A   1      30.548  27.573  24.566  1.00  0.00    -0.376 OA
BRANCH  65  66
ATOM     66  C   UNL A   1      30.432  26.756  23.413  1.00  0.00     0.202 C 
BRANCH  66  67
ATOM     67  C   UNL A   1      30.320  25.249  23.659  1.00  0.00     0.261 C 
BRANCH  67  68
ATOM     68  O   UNL A   1      31.479  24.649  24.259  1.00  0.00    -0.460 OA
BRANCH  68  69
ATOM     69  C   UNL A   1      31.193  23.647  25.130  1.00  0.00     0.338 C 
ATOM     70  O   UNL A   1      30.376  23.655  26.032  1.00  0.00    -0.246 OA
BRANCH  69  71
ATOM     71  C   UNL A   1      32.036  22.473  24.852  1.00  0.00     0.060 A 
ATOM     72  C   UNL A   1      32.181  22.002  23.538  1.00  0.00     0.018 A 
ATOM     73  C   UNL A   1      32.496  21.721  25.932  1.00  0.00     0.018 A 
ATOM     74  C   UNL A   1      32.770  20.755  23.299  1.00  0.00     0.027 A 
ATOM     75  C   UNL A   1      33.038  20.458  25.699  1.00  0.00     0.027 A 
ATOM     76  C   UNL A   1      33.158  19.967  24.387  1.00  0.00     0.046 A 
BRANCH  76  77
ATOM     77  N   UNL A   1      33.512  18.604  24.208  1.00  0.00    -0.316 N 
ATOM     78  C   UNL A   1      32.604  17.648  23.788  1.00  0.00     0.092 A 
ATOM     79  C   UNL A   1      34.730  17.975  24.427  1.00  0.00     0.066 A 
ATOM     80  C   UNL A   1      33.231  16.430  23.705  1.00  0.00     0.021 A 
ATOM     81  C   UNL A   1      34.557  16.629  24.132  1.00  0.00     0.030 A 
BRANCH  79  82
ATOM     82  C   UNL A   1      35.921  18.577  24.968  1.00  0.00     0.160 C 
ATOM     83  N   UNL A   1      36.184  19.822  24.715  1.00  0.00    -0.179 NA
BRANCH  83  84
ATOM     84  N   UNL A   1      37.342  20.364  25.208  1.00  0.00    -0.242 N 
ATOM     85  C   UNL A   1      37.757  21.686  25.279  1.00  0.00     0.281 C 
ATOM     86  H   UNL A   1      37.983  19.710  25.569  1.00  0.00     0.194 HD
ATOM     87  O   UNL A   1      38.949  21.909  25.505  1.00  0.00    -0.266 OA
BRANCH  85  88
ATOM     88  C   UNL A   1      36.770  22.741  25.123  1.00  0.00     0.094 A 
ATOM     89  C   UNL A   1      36.137  23.499  26.091  1.00  0.00     0.026 A 
ATOM     90  S   UNL A   1      36.254  23.177  23.546  1.00  0.00    -0.139 S 
ATOM     91  C   UNL A   1      35.200  24.416  25.531  1.00  0.00     0.012 A 
ATOM     92  C   UNL A   1      35.163  24.342  24.156  1.00  0.00     0.065 A 
ENDBRANCH  85  88
ENDBRANCH  83  84
ENDBRANCH  79  82
ENDBRANCH  76  77
ENDBRANCH  69  71
ENDBRANCH  68  69
ENDBRANCH  67  68
ENDBRANCH  66  67
ENDBRANCH  65  66
ENDBRANCH   1  65
TORSDOF 21
ENDMDL
