MODEL 1
REMARK VINA RESULT:     -10.5      0.000      0.000
REMARK SMILES CC(C)N1C(=O)C[C@@H]([N@@H+]2CC[C@H](C(=O)OCCOCCOCCOC(=O)c3ccc(-c4c5nc(c(-c6c(F)cccc6F)c6ccc([nH]6)c(-c6c(F)cccc6F)c6nc(c(-c7c(F)cccc7F)c7ccc4[nH]7)C=C6)C=C5)cc3)[C@@H]2C)C1=O
REMARK SMILES IDX 19 1 18 2 17 3 16 4 15 5 13 6 14 7 12 8 9 9 10 10 81 11
REMARK SMILES IDX 11 13 82 14 8 15 4 16 5 17 83 18 6 19 7 20 84 21 2 22 1 23
REMARK SMILES IDX 3 24 20 25 21 26 22 27 23 28 24 29 25 30 26 31 27 32 28 33
REMARK SMILES IDX 80 34 29 35 79 36 30 37 31 38 32 39 73 40 33 41 78 42 72 43
REMARK SMILES IDX 74 44 34 45 77 46 71 47 70 48 35 50 61 51 44 52 60 53 45 54
REMARK SMILES IDX 48 55 59 56 75 57 46 58 47 59 58 61 76 62 49 63 36 64 37 65
REMARK SMILES IDX 42 66 38 67 39 68 41 69 43 70 40 71 62 72 63 73 68 74 64 75
REMARK SMILES IDX 65 76 67 77 69 78 66 79 50 80 51 81 56 82 52 83 53 84 55 85
REMARK SMILES IDX 57 86 54 87
REMARK H PARENT 9 12 74 49 48 60
REMARK Flexibility Score: inf
ROOT
ATOM      1  C   UNL A   1      42.946  19.621  26.143  1.00  0.00     0.188 C 
ENDROOT
BRANCH   1   2
ATOM      2  O   UNL A   1      41.634  20.130  26.001  1.00  0.00    -0.376 OA
BRANCH   2   3
ATOM      3  C   UNL A   1      41.417  21.511  26.214  1.00  0.00     0.202 C 
BRANCH   3   4
ATOM      4  C   UNL A   1      40.059  21.943  26.774  1.00  0.00     0.261 C 
BRANCH   4   5
ATOM      5  O   UNL A   1      38.908  21.334  26.149  1.00  0.00    -0.463 OA
BRANCH   5   6
ATOM      6  C   UNL A   1      38.001  22.203  25.618  1.00  0.00     0.315 C 
ATOM      7  O   UNL A   1      37.981  23.399  25.879  1.00  0.00    -0.252 OA
BRANCH   6   8
ATOM      8  C   UNL A   1      36.951  21.491  24.767  1.00  0.00     0.162 C 
ATOM      9  N   UNL A   1      35.020  22.895  24.512  1.00  0.00    -0.321 N 
ATOM     10  C   UNL A   1      34.910  22.233  25.813  1.00  0.00     0.264 C 
ATOM     11  C   UNL A   1      36.097  22.262  23.751  1.00  0.00     0.196 C 
ATOM     12  H   UNL A   1      34.166  22.727  23.980  1.00  0.00     0.349 HD
ATOM     13  C   UNL A   1      35.838  21.019  25.716  1.00  0.00     0.083 C 
ATOM     14  C   UNL A   1      36.733  23.078  22.646  1.00  0.00     0.076 C 
BRANCH   9  15
ATOM     15  C   UNL A   1      34.851  24.353  24.470  1.00  0.00     0.284 C 
ATOM     16  N   UNL A   1      32.767  25.396  24.207  1.00  0.00    -0.275 N 
ATOM     17  C   UNL A   1      33.083  25.557  25.525  1.00  0.00     0.236 C 
ATOM     18  C   UNL A   1      33.728  24.713  23.517  1.00  0.00     0.288 C 
ATOM     19  O   UNL A   1      32.376  26.039  26.399  1.00  0.00    -0.274 OA
ATOM     20  C   UNL A   1      34.477  25.072  25.761  1.00  0.00     0.176 C 
ATOM     21  O   UNL A   1      33.702  24.411  22.330  1.00  0.00    -0.267 OA
BRANCH  16  22
ATOM     22  C   UNL A   1      31.503  25.824  23.625  1.00  0.00     0.087 C 
ATOM     23  C   UNL A   1      31.719  26.698  22.390  1.00  0.00     0.031 C 
ATOM     24  C   UNL A   1      30.615  24.625  23.309  1.00  0.00     0.031 C 
ENDBRANCH  16  22
ENDBRANCH   9  15
ENDBRANCH   6   8
ENDBRANCH   5   6
ENDBRANCH   4   5
ENDBRANCH   3   4
ENDBRANCH   2   3
ENDBRANCH   1   2
BRANCH   1  25
ATOM     25  C   UNL A   1      43.751  19.170  24.907  1.00  0.00     0.188 C 
BRANCH  25  26
ATOM     26  O   UNL A   1      44.533  20.083  24.167  1.00  0.00    -0.376 OA
BRANCH  26  27
ATOM     27  C   UNL A   1      44.955  21.274  24.799  1.00  0.00     0.202 C 
BRANCH  27  28
ATOM     28  C   UNL A   1      44.854  22.589  24.014  1.00  0.00     0.261 C 
BRANCH  28  29
ATOM     29  O   UNL A   1      43.954  23.569  24.575  1.00  0.00    -0.460 OA
BRANCH  29  30
ATOM     30  C   UNL A   1      44.522  24.707  25.043  1.00  0.00     0.338 C 
ATOM     31  O   UNL A   1      45.600  25.177  24.690  1.00  0.00    -0.246 OA
BRANCH  30  32
ATOM     32  C   UNL A   1      43.632  25.426  25.990  1.00  0.00     0.060 A 
ATOM     33  C   UNL A   1      43.886  26.781  26.241  1.00  0.00     0.016 A 
ATOM     34  C   UNL A   1      42.623  24.773  26.707  1.00  0.00     0.016 A 
ATOM     35  C   UNL A   1      43.159  27.470  27.220  1.00  0.00     0.010 A 
ATOM     36  C   UNL A   1      41.913  25.459  27.708  1.00  0.00     0.010 A 
ATOM     37  C   UNL A   1      42.190  26.807  27.991  1.00  0.00    -0.014 A 
BRANCH  37  38
ATOM     38  C   UNL A   1      41.636  27.489  29.198  1.00  0.00     0.031 A 
ATOM     39  C   UNL A   1      42.467  27.499  30.454  1.00  0.00     0.074 A 
ATOM     40  C   UNL A   1      40.445  28.121  29.191  1.00  0.00     0.049 A 
ATOM     41  N   UNL A   1      42.283  28.154  31.570  1.00  0.00    -0.248 NA
ATOM     42  C   UNL A   1      43.654  26.627  30.455  1.00  0.00     0.031 C 
ATOM     43  C   UNL A   1      39.522  28.151  28.066  1.00  0.00     0.029 A 
ATOM     44  N   UNL A   1      39.837  28.919  30.139  1.00  0.00    -0.354 N 
ATOM     45  C   UNL A   1      43.291  27.729  32.427  1.00  0.00     0.074 A 
ATOM     46  C   UNL A   1      44.118  26.805  31.682  1.00  0.00     0.031 C 
ATOM     47  C   UNL A   1      38.529  29.018  28.336  1.00  0.00     0.029 A 
ATOM     48  C   UNL A   1      38.736  29.602  29.659  1.00  0.00     0.049 A 
ATOM     49  H   UNL A   1      40.156  28.993  31.068  1.00  0.00     0.167 HD
ATOM     50  C   UNL A   1      43.475  28.034  33.732  1.00  0.00     0.037 A 
ATOM     51  C   UNL A   1      38.040  30.630  30.197  1.00  0.00     0.037 A 
ATOM     52  C   UNL A   1      42.642  28.936  34.482  1.00  0.00     0.049 A 
ATOM     53  C   UNL A   1      38.373  31.075  31.605  1.00  0.00     0.074 A 
ATOM     54  C   UNL A   1      42.717  29.267  35.824  1.00  0.00     0.029 A 
ATOM     55  N   UNL A   1      41.578  29.650  33.954  1.00  0.00    -0.354 N 
ATOM     56  N   UNL A   1      39.357  30.701  32.387  1.00  0.00    -0.248 NA
ATOM     57  C   UNL A   1      37.477  32.075  32.212  1.00  0.00     0.031 C 
ATOM     58  C   UNL A   1      41.664  30.136  36.121  1.00  0.00     0.029 A 
ATOM     59  C   UNL A   1      40.978  30.404  34.948  1.00  0.00     0.049 A 
ATOM     60  H   UNL A   1      41.292  29.624  33.012  1.00  0.00     0.167 HD
ATOM     61  C   UNL A   1      39.187  31.409  33.574  1.00  0.00     0.074 A 
ATOM     62  C   UNL A   1      38.065  32.298  33.377  1.00  0.00     0.031 C 
ATOM     63  C   UNL A   1      39.869  31.296  34.741  1.00  0.00     0.037 A 
BRANCH  50  64
ATOM     64  C   UNL A   1      44.554  27.298  34.468  1.00  0.00     0.057 A 
ATOM     65  C   UNL A   1      45.843  27.814  34.633  1.00  0.00     0.134 A 
ATOM     66  C   UNL A   1      44.273  26.054  35.051  1.00  0.00     0.134 A 
ATOM     67  F   UNL A   1      46.182  28.987  34.079  1.00  0.00    -0.206 F 
ATOM     68  C   UNL A   1      46.820  27.113  35.344  1.00  0.00     0.040 A 
ATOM     69  C   UNL A   1      45.231  25.357  35.785  1.00  0.00     0.040 A 
ATOM     70  F   UNL A   1      43.056  25.502  34.925  1.00  0.00    -0.206 F 
ATOM     71  C   UNL A   1      46.511  25.886  35.931  1.00  0.00     0.006 A 
ENDBRANCH  50  64
BRANCH  51  72
ATOM     72  C   UNL A   1      37.022  31.402  29.414  1.00  0.00     0.057 A 
ATOM     73  C   UNL A   1      35.785  30.817  29.081  1.00  0.00     0.134 A 
ATOM     74  C   UNL A   1      37.257  32.687  28.915  1.00  0.00     0.134 A 
ATOM     75  F   UNL A   1      35.493  29.573  29.489  1.00  0.00    -0.206 F 
ATOM     76  C   UNL A   1      34.847  31.458  28.270  1.00  0.00     0.040 A 
ATOM     77  C   UNL A   1      36.309  33.357  28.131  1.00  0.00     0.040 A 
ATOM     78  F   UNL A   1      38.416  33.312  29.165  1.00  0.00    -0.206 F 
ATOM     79  C   UNL A   1      35.107  32.737  27.795  1.00  0.00     0.006 A 
ENDBRANCH  51  72
BRANCH  63  80
ATOM     80  C   UNL A   1      39.414  32.138  35.901  1.00  0.00     0.057 A 
ATOM     81  C   UNL A   1      39.946  33.414  36.139  1.00  0.00     0.134 A 
ATOM     82  C   UNL A   1      38.398  31.696  36.757  1.00  0.00     0.134 A 
ATOM     83  F   UNL A   1      40.921  33.903  35.358  1.00  0.00    -0.206 F 
ATOM     84  C   UNL A   1      39.508  34.202  37.206  1.00  0.00     0.040 A 
ATOM     85  C   UNL A   1      37.928  32.489  37.806  1.00  0.00     0.040 A 
ATOM     86  F   UNL A   1      37.830  30.494  36.578  1.00  0.00    -0.206 F 
ATOM     87  C   UNL A   1      38.491  33.743  38.038  1.00  0.00     0.006 A 
ENDBRANCH  63  80
ENDBRANCH  37  38
ENDBRANCH  30  32
ENDBRANCH  29  30
ENDBRANCH  28  29
ENDBRANCH  27  28
ENDBRANCH  26  27
ENDBRANCH  25  26
ENDBRANCH   1  25
TORSDOF 19
ENDMDL
MODEL 2
REMARK VINA RESULT:     -10.3      1.102      2.185
REMARK SMILES CC(C)N1C(=O)C[C@@H]([N@@H+]2CC[C@H](C(=O)OCCOCCOCCOC(=O)c3ccc(-c4c5nc(c(-c6c(F)cccc6F)c6ccc([nH]6)c(-c6c(F)cccc6F)c6nc(c(-c7c(F)cccc7F)c7ccc4[nH]7)C=C6)C=C5)cc3)[C@@H]2C)C1=O
REMARK SMILES IDX 19 1 18 2 17 3 16 4 15 5 13 6 14 7 12 8 9 9 10 10 81 11
REMARK SMILES IDX 11 13 82 14 8 15 4 16 5 17 83 18 6 19 7 20 84 21 2 22 1 23
REMARK SMILES IDX 3 24 20 25 21 26 22 27 23 28 24 29 25 30 26 31 27 32 28 33
REMARK SMILES IDX 80 34 29 35 79 36 30 37 31 38 32 39 73 40 33 41 78 42 72 43
REMARK SMILES IDX 74 44 34 45 77 46 71 47 70 48 35 50 61 51 44 52 60 53 45 54
REMARK SMILES IDX 48 55 59 56 75 57 46 58 47 59 58 61 76 62 49 63 36 64 37 65
REMARK SMILES IDX 42 66 38 67 39 68 41 69 43 70 40 71 62 72 63 73 68 74 64 75
REMARK SMILES IDX 65 76 67 77 69 78 66 79 50 80 51 81 56 82 52 83 53 84 55 85
REMARK SMILES IDX 57 86 54 87
REMARK H PARENT 9 12 74 49 48 60
REMARK Flexibility Score: inf
ROOT
ATOM      1  C   UNL A   1      40.811  20.163  26.354  1.00  0.00     0.188 C 
ENDROOT
BRANCH   1   2
ATOM      2  O   UNL A   1      39.577  20.599  25.816  1.00  0.00    -0.376 OA
BRANCH   2   3
ATOM      3  C   UNL A   1      39.219  21.960  25.958  1.00  0.00     0.202 C 
BRANCH   3   4
ATOM      4  C   UNL A   1      37.744  22.332  25.790  1.00  0.00     0.261 C 
BRANCH   4   5
ATOM      5  O   UNL A   1      37.080  21.739  24.653  1.00  0.00    -0.463 OA
BRANCH   5   6
ATOM      6  C   UNL A   1      35.988  22.413  24.193  1.00  0.00     0.315 C 
ATOM      7  O   UNL A   1      36.056  23.345  23.402  1.00  0.00    -0.252 OA
BRANCH   6   8
ATOM      8  C   UNL A   1      34.699  21.952  24.869  1.00  0.00     0.162 C 
ATOM      9  N   UNL A   1      33.099  23.743  24.880  1.00  0.00    -0.321 N 
ATOM     10  C   UNL A   1      34.012  23.966  26.002  1.00  0.00     0.264 C 
ATOM     11  C   UNL A   1      33.326  22.399  24.348  1.00  0.00     0.196 C 
ATOM     12  H   UNL A   1      32.139  23.748  25.225  1.00  0.00     0.349 HD
ATOM     13  C   UNL A   1      34.656  22.601  26.261  1.00  0.00     0.083 C 
ATOM     14  C   UNL A   1      32.905  22.143  22.916  1.00  0.00     0.076 C 
BRANCH   9  15
ATOM     15  C   UNL A   1      32.857  24.863  23.962  1.00  0.00     0.284 C 
ATOM     16  N   UNL A   1      32.059  26.953  24.670  1.00  0.00    -0.275 N 
ATOM     17  C   UNL A   1      33.386  27.144  24.416  1.00  0.00     0.236 C 
ATOM     18  C   UNL A   1      31.660  25.666  24.436  1.00  0.00     0.288 C 
ATOM     19  O   UNL A   1      34.038  28.157  24.626  1.00  0.00    -0.274 OA
ATOM     20  C   UNL A   1      33.953  25.908  23.796  1.00  0.00     0.176 C 
ATOM     21  O   UNL A   1      30.536  25.208  24.594  1.00  0.00    -0.267 OA
BRANCH  16  22
ATOM     22  C   UNL A   1      31.188  27.982  25.218  1.00  0.00     0.087 C 
ATOM     23  C   UNL A   1      31.822  28.670  26.427  1.00  0.00     0.031 C 
ATOM     24  C   UNL A   1      30.799  28.994  24.145  1.00  0.00     0.031 C 
ENDBRANCH  16  22
ENDBRANCH   9  15
ENDBRANCH   6   8
ENDBRANCH   5   6
ENDBRANCH   4   5
ENDBRANCH   3   4
ENDBRANCH   2   3
ENDBRANCH   1   2
BRANCH   1  25
ATOM     25  C   UNL A   1      42.085  21.017  26.189  1.00  0.00     0.188 C 
BRANCH  25  26
ATOM     26  O   UNL A   1      43.116  20.634  25.306  1.00  0.00    -0.376 OA
BRANCH  26  27
ATOM     27  C   UNL A   1      44.344  21.333  25.362  1.00  0.00     0.202 C 
BRANCH  27  28
ATOM     28  C   UNL A   1      44.635  22.378  24.277  1.00  0.00     0.261 C 
BRANCH  28  29
ATOM     29  O   UNL A   1      43.855  23.590  24.369  1.00  0.00    -0.460 OA
BRANCH  29  30
ATOM     30  C   UNL A   1      44.458  24.649  24.962  1.00  0.00     0.338 C 
ATOM     31  O   UNL A   1      45.589  25.063  24.728  1.00  0.00    -0.246 OA
BRANCH  30  32
ATOM     32  C   UNL A   1      43.544  25.361  25.892  1.00  0.00     0.060 A 
ATOM     33  C   UNL A   1      43.746  26.732  26.100  1.00  0.00     0.016 A 
ATOM     34  C   UNL A   1      42.565  24.691  26.634  1.00  0.00     0.016 A 
ATOM     35  C   UNL A   1      42.997  27.422  27.061  1.00  0.00     0.010 A 
ATOM     36  C   UNL A   1      41.833  25.380  27.618  1.00  0.00     0.010 A 
ATOM     37  C   UNL A   1      42.058  26.746  27.857  1.00  0.00    -0.014 A 
BRANCH  37  38
ATOM     38  C   UNL A   1      41.483  27.443  29.046  1.00  0.00     0.031 A 
ATOM     39  C   UNL A   1      42.295  27.473  30.314  1.00  0.00     0.074 A 
ATOM     40  C   UNL A   1      40.290  28.070  29.011  1.00  0.00     0.049 A 
ATOM     41  N   UNL A   1      42.091  28.144  31.418  1.00  0.00    -0.248 NA
ATOM     42  C   UNL A   1      43.485  26.607  30.346  1.00  0.00     0.031 C 
ATOM     43  C   UNL A   1      39.384  28.080  27.872  1.00  0.00     0.029 A 
ATOM     44  N   UNL A   1      39.664  28.879  29.939  1.00  0.00    -0.354 N 
ATOM     45  C   UNL A   1      43.087  27.735  32.296  1.00  0.00     0.074 A 
ATOM     46  C   UNL A   1      43.929  26.803  31.577  1.00  0.00     0.031 C 
ATOM     47  C   UNL A   1      38.384  28.947  28.115  1.00  0.00     0.029 A 
ATOM     48  C   UNL A   1      38.568  29.551  29.432  1.00  0.00     0.049 A 
ATOM     49  H   UNL A   1      39.969  28.967  30.871  1.00  0.00     0.167 HD
ATOM     50  C   UNL A   1      43.250  28.059  33.600  1.00  0.00     0.037 A 
ATOM     51  C   UNL A   1      37.861  30.583  29.945  1.00  0.00     0.037 A 
ATOM     52  C   UNL A   1      42.402  28.969  34.324  1.00  0.00     0.049 A 
ATOM     53  C   UNL A   1      38.170  31.050  31.351  1.00  0.00     0.074 A 
ATOM     54  C   UNL A   1      42.455  29.318  35.662  1.00  0.00     0.029 A 
ATOM     55  N   UNL A   1      41.344  29.670  33.769  1.00  0.00    -0.354 N 
ATOM     56  N   UNL A   1      39.143  30.690  32.154  1.00  0.00    -0.248 NA
ATOM     57  C   UNL A   1      37.261  32.054  31.930  1.00  0.00     0.031 C 
ATOM     58  C   UNL A   1      41.395  30.188  35.930  1.00  0.00     0.029 A 
ATOM     59  C   UNL A   1      40.726  30.436  34.744  1.00  0.00     0.049 A 
ATOM     60  H   UNL A   1      41.072  29.630  32.824  1.00  0.00     0.167 HD
ATOM     61  C   UNL A   1      38.953  31.414  33.327  1.00  0.00     0.074 A 
ATOM     62  C   UNL A   1      37.831  32.296  33.101  1.00  0.00     0.031 C 
ATOM     63  C   UNL A   1      39.617  31.320  34.507  1.00  0.00     0.037 A 
BRANCH  50  64
ATOM     64  C   UNL A   1      44.320  27.338  34.362  1.00  0.00     0.057 A 
ATOM     65  C   UNL A   1      44.116  26.087  34.953  1.00  0.00     0.134 A 
ATOM     66  C   UNL A   1      45.597  27.907  34.474  1.00  0.00     0.134 A 
ATOM     67  F   UNL A   1      42.911  25.500  34.904  1.00  0.00    -0.206 F 
ATOM     68  C   UNL A   1      45.141  25.431  35.637  1.00  0.00     0.040 A 
ATOM     69  C   UNL A   1      46.636  27.250  35.131  1.00  0.00     0.040 A 
ATOM     70  F   UNL A   1      45.857  29.107  33.932  1.00  0.00    -0.206 F 
ATOM     71  C   UNL A   1      46.408  26.009  35.719  1.00  0.00     0.006 A 
ENDBRANCH  50  64
BRANCH  51  72
ATOM     72  C   UNL A   1      36.852  31.340  29.136  1.00  0.00     0.057 A 
ATOM     73  C   UNL A   1      37.107  32.668  28.741  1.00  0.00     0.134 A 
ATOM     74  C   UNL A   1      35.601  30.819  28.793  1.00  0.00     0.134 A 
ATOM     75  F   UNL A   1      38.268  33.258  29.060  1.00  0.00    -0.206 F 
ATOM     76  C   UNL A   1      36.160  33.447  28.074  1.00  0.00     0.040 A 
ATOM     77  C   UNL A   1      34.655  31.575  28.090  1.00  0.00     0.040 A 
ATOM     78  F   UNL A   1      35.265  29.570  29.145  1.00  0.00    -0.206 F 
ATOM     79  C   UNL A   1      34.928  32.898  27.741  1.00  0.00     0.006 A 
ENDBRANCH  51  72
BRANCH  63  80
ATOM     80  C   UNL A   1      39.141  32.177  35.648  1.00  0.00     0.057 A 
ATOM     81  C   UNL A   1      38.262  31.683  36.623  1.00  0.00     0.134 A 
ATOM     82  C   UNL A   1      39.607  33.487  35.808  1.00  0.00     0.134 A 
ATOM     83  F   UNL A   1      37.776  30.436  36.535  1.00  0.00    -0.206 F 
ATOM     84  C   UNL A   1      37.836  32.474  37.693  1.00  0.00     0.040 A 
ATOM     85  C   UNL A   1      39.216  34.276  36.892  1.00  0.00     0.040 A 
ATOM     86  F   UNL A   1      40.466  34.019  34.925  1.00  0.00    -0.206 F 
ATOM     87  C   UNL A   1      38.320  33.772  37.833  1.00  0.00     0.006 A 
ENDBRANCH  63  80
ENDBRANCH  37  38
ENDBRANCH  30  32
ENDBRANCH  29  30
ENDBRANCH  28  29
ENDBRANCH  27  28
ENDBRANCH  26  27
ENDBRANCH  25  26
ENDBRANCH   1  25
TORSDOF 19
ENDMDL
MODEL 3
REMARK VINA RESULT:     -10.3      0.650      6.082
REMARK SMILES CC(C)N1C(=O)C[C@@H]([N@@H+]2CC[C@H](C(=O)OCCOCCOCCOC(=O)c3ccc(-c4c5nc(c(-c6c(F)cccc6F)c6ccc([nH]6)c(-c6c(F)cccc6F)c6nc(c(-c7c(F)cccc7F)c7ccc4[nH]7)C=C6)C=C5)cc3)[C@@H]2C)C1=O
REMARK SMILES IDX 19 1 18 2 17 3 16 4 15 5 13 6 14 7 12 8 9 9 10 10 81 11
REMARK SMILES IDX 11 13 82 14 8 15 4 16 5 17 83 18 6 19 7 20 84 21 2 22 1 23
REMARK SMILES IDX 3 24 20 25 21 26 22 27 23 28 24 29 25 30 26 31 27 32 28 33
REMARK SMILES IDX 80 34 29 35 79 36 30 37 31 38 32 39 73 40 33 41 78 42 72 43
REMARK SMILES IDX 74 44 34 45 77 46 71 47 70 48 35 50 61 51 44 52 60 53 45 54
REMARK SMILES IDX 48 55 59 56 75 57 46 58 47 59 58 61 76 62 49 63 36 64 37 65
REMARK SMILES IDX 42 66 38 67 39 68 41 69 43 70 40 71 62 72 63 73 68 74 64 75
REMARK SMILES IDX 65 76 67 77 69 78 66 79 50 80 51 81 56 82 52 83 53 84 55 85
REMARK SMILES IDX 57 86 54 87
REMARK H PARENT 9 12 74 49 48 60
REMARK Flexibility Score: inf
ROOT
ATOM      1  C   UNL A   1      42.490  19.130  26.115  1.00  0.00     0.188 C 
ENDROOT
BRANCH   1   2
ATOM      2  O   UNL A   1      41.667  20.266  25.928  1.00  0.00    -0.376 OA
BRANCH   2   3
ATOM      3  C   UNL A   1      40.368  20.260  26.489  1.00  0.00     0.202 C 
BRANCH   3   4
ATOM      4  C   UNL A   1      39.275  21.054  25.768  1.00  0.00     0.261 C 
BRANCH   4   5
ATOM      5  O   UNL A   1      38.703  22.146  26.521  1.00  0.00    -0.463 OA
BRANCH   5   6
ATOM      6  C   UNL A   1      37.728  22.853  25.881  1.00  0.00     0.315 C 
ATOM      7  O   UNL A   1      37.646  24.073  25.918  1.00  0.00    -0.252 OA
BRANCH   6   8
ATOM      8  C   UNL A   1      36.694  21.941  25.222  1.00  0.00     0.162 C 
ATOM      9  N   UNL A   1      34.726  23.204  24.676  1.00  0.00    -0.321 N 
ATOM     10  C   UNL A   1      34.639  22.851  26.094  1.00  0.00     0.264 C 
ATOM     11  C   UNL A   1      35.817  22.442  24.067  1.00  0.00     0.196 C 
ATOM     12  H   UNL A   1      33.875  22.899  24.203  1.00  0.00     0.349 HD
ATOM     13  C   UNL A   1      35.597  21.669  26.264  1.00  0.00     0.083 C 
ATOM     14  C   UNL A   1      36.427  23.003  22.800  1.00  0.00     0.076 C 
BRANCH   9  15
ATOM     15  C   UNL A   1      34.519  24.610  24.308  1.00  0.00     0.284 C 
ATOM     16  N   UNL A   1      32.395  25.582  24.094  1.00  0.00    -0.275 N 
ATOM     17  C   UNL A   1      32.887  26.054  25.276  1.00  0.00     0.236 C 
ATOM     18  C   UNL A   1      33.267  24.741  23.462  1.00  0.00     0.288 C 
ATOM     19  O   UNL A   1      32.296  26.740  26.099  1.00  0.00    -0.274 OA
ATOM     20  C   UNL A   1      34.310  25.624  25.425  1.00  0.00     0.176 C 
ATOM     21  O   UNL A   1      33.085  24.162  22.399  1.00  0.00    -0.267 OA
BRANCH  16  22
ATOM     22  C   UNL A   1      31.054  25.871  23.609  1.00  0.00     0.087 C 
ATOM     23  C   UNL A   1      31.081  26.816  22.408  1.00  0.00     0.031 C 
ATOM     24  C   UNL A   1      30.303  24.583  23.284  1.00  0.00     0.031 C 
ENDBRANCH  16  22
ENDBRANCH   9  15
ENDBRANCH   6   8
ENDBRANCH   5   6
ENDBRANCH   4   5
ENDBRANCH   3   4
ENDBRANCH   2   3
ENDBRANCH   1   2
BRANCH   1  25
ATOM     25  C   UNL A   1      43.914  19.088  25.525  1.00  0.00     0.188 C 
BRANCH  25  26
ATOM     26  O   UNL A   1      44.337  20.024  24.558  1.00  0.00    -0.376 OA
BRANCH  26  27
ATOM     27  C   UNL A   1      45.309  20.982  24.928  1.00  0.00     0.202 C 
BRANCH  27  28
ATOM     28  C   UNL A   1      44.968  21.967  26.054  1.00  0.00     0.261 C 
BRANCH  28  29
ATOM     29  O   UNL A   1      44.629  23.301  25.618  1.00  0.00    -0.460 OA
BRANCH  29  30
ATOM     30  C   UNL A   1      43.323  23.528  25.337  1.00  0.00     0.338 C 
ATOM     31  O   UNL A   1      42.651  22.943  24.493  1.00  0.00    -0.246 OA
BRANCH  30  32
ATOM     32  C   UNL A   1      42.720  24.524  26.260  1.00  0.00     0.060 A 
ATOM     33  C   UNL A   1      43.199  25.841  26.218  1.00  0.00     0.016 A 
ATOM     34  C   UNL A   1      41.773  24.168  27.226  1.00  0.00     0.016 A 
ATOM     35  C   UNL A   1      42.758  26.786  27.153  1.00  0.00     0.010 A 
ATOM     36  C   UNL A   1      41.352  25.112  28.181  1.00  0.00     0.010 A 
ATOM     37  C   UNL A   1      41.857  26.422  28.168  1.00  0.00    -0.014 A 
BRANCH  37  38
ATOM     38  C   UNL A   1      41.624  27.369  29.300  1.00  0.00     0.031 A 
ATOM     39  C   UNL A   1      40.372  28.205  29.279  1.00  0.00     0.074 A 
ATOM     40  C   UNL A   1      42.469  27.471  30.345  1.00  0.00     0.049 A 
ATOM     41  N   UNL A   1      39.866  28.972  30.211  1.00  0.00    -0.248 NA
ATOM     42  C   UNL A   1      39.600  28.192  28.025  1.00  0.00     0.031 C 
ATOM     43  C   UNL A   1      43.733  26.761  30.470  1.00  0.00     0.029 A 
ATOM     44  N   UNL A   1      42.358  28.164  31.534  1.00  0.00    -0.354 N 
ATOM     45  C   UNL A   1      38.756  29.580  29.637  1.00  0.00     0.074 A 
ATOM     46  C   UNL A   1      38.628  29.048  28.297  1.00  0.00     0.031 C 
ATOM     47  C   UNL A   1      44.222  26.952  31.709  1.00  0.00     0.029 A 
ATOM     48  C   UNL A   1      43.314  27.808  32.468  1.00  0.00     0.049 A 
ATOM     49  H   UNL A   1      41.667  28.845  31.701  1.00  0.00     0.167 HD
ATOM     50  C   UNL A   1      37.955  30.538  30.156  1.00  0.00     0.037 A 
ATOM     51  C   UNL A   1      43.388  28.080  33.791  1.00  0.00     0.037 A 
ATOM     52  C   UNL A   1      38.093  31.084  31.480  1.00  0.00     0.049 A 
ATOM     53  C   UNL A   1      42.375  29.027  34.397  1.00  0.00     0.074 A 
ATOM     54  C   UNL A   1      37.361  32.097  32.076  1.00  0.00     0.029 A 
ATOM     55  N   UNL A   1      39.027  30.664  32.412  1.00  0.00    -0.354 N 
ATOM     56  N   UNL A   1      41.303  29.558  33.859  1.00  0.00    -0.248 NA
ATOM     57  C   UNL A   1      42.600  29.430  35.796  1.00  0.00     0.031 C 
ATOM     58  C   UNL A   1      37.890  32.329  33.349  1.00  0.00     0.029 A 
ATOM     59  C   UNL A   1      38.903  31.411  33.572  1.00  0.00     0.049 A 
ATOM     60  H   UNL A   1      39.683  29.943  32.271  1.00  0.00     0.167 HD
ATOM     61  C   UNL A   1      40.741  30.360  34.847  1.00  0.00     0.074 A 
ATOM     62  C   UNL A   1      41.534  30.176  36.040  1.00  0.00     0.031 C 
ATOM     63  C   UNL A   1      39.689  31.213  34.760  1.00  0.00     0.037 A 
BRANCH  50  64
ATOM     64  C   UNL A   1      36.924  31.142  29.250  1.00  0.00     0.057 A 
ATOM     65  C   UNL A   1      35.743  30.481  28.902  1.00  0.00     0.134 A 
ATOM     66  C   UNL A   1      37.117  32.436  28.745  1.00  0.00     0.134 A 
ATOM     67  F   UNL A   1      35.510  29.232  29.332  1.00  0.00    -0.206 F 
ATOM     68  C   UNL A   1      34.792  31.081  28.075  1.00  0.00     0.040 A 
ATOM     69  C   UNL A   1      36.163  33.056  27.939  1.00  0.00     0.040 A 
ATOM     70  F   UNL A   1      38.232  33.123  29.038  1.00  0.00    -0.206 F 
ATOM     71  C   UNL A   1      34.996  32.376  27.599  1.00  0.00     0.006 A 
ENDBRANCH  50  64
BRANCH  51  72
ATOM     72  C   UNL A   1      44.376  27.402  34.690  1.00  0.00     0.057 A 
ATOM     73  C   UNL A   1      44.046  26.189  35.325  1.00  0.00     0.134 A 
ATOM     74  C   UNL A   1      45.623  27.950  35.007  1.00  0.00     0.134 A 
ATOM     75  F   UNL A   1      42.855  25.612  35.105  1.00  0.00    -0.206 F 
ATOM     76  C   UNL A   1      44.891  25.571  36.248  1.00  0.00     0.040 A 
ATOM     77  C   UNL A   1      46.497  27.323  35.903  1.00  0.00     0.040 A 
ATOM     78  F   UNL A   1      46.011  29.113  34.466  1.00  0.00    -0.206 F 
ATOM     79  C   UNL A   1      46.126  26.137  36.537  1.00  0.00     0.006 A 
ENDBRANCH  51  72
BRANCH  63  80
ATOM     80  C   UNL A   1      39.345  32.026  35.977  1.00  0.00     0.057 A 
ATOM     81  C   UNL A   1      39.913  33.288  36.206  1.00  0.00     0.134 A 
ATOM     82  C   UNL A   1      38.396  31.572  36.901  1.00  0.00     0.134 A 
ATOM     83  F   UNL A   1      40.827  33.788  35.361  1.00  0.00    -0.206 F 
ATOM     84  C   UNL A   1      39.577  34.050  37.327  1.00  0.00     0.040 A 
ATOM     85  C   UNL A   1      38.026  32.340  38.008  1.00  0.00     0.040 A 
ATOM     86  F   UNL A   1      37.797  30.383  36.737  1.00  0.00    -0.206 F 
ATOM     87  C   UNL A   1      38.626  33.579  38.228  1.00  0.00     0.006 A 
ENDBRANCH  63  80
ENDBRANCH  37  38
ENDBRANCH  30  32
ENDBRANCH  29  30
ENDBRANCH  28  29
ENDBRANCH  27  28
ENDBRANCH  26  27
ENDBRANCH  25  26
ENDBRANCH   1  25
TORSDOF 19
ENDMDL
