MODEL 1
REMARK VINA RESULT:     -11.3      0.000      0.000
REMARK SMILES O=C(OCCOCCOCCOC(=O)c1cc(/C=C/c2cc(O)cc(O)c2)ccc1O)c1ccc(-c2c3nc(c(-c4c(F)cccc4F)c4ccc([nH]4)c(-c4c(F)cccc4F)c4nc(c(-c5c(F)cccc5F)c5ccc2[nH]5)C=C4)C=C3)cc1
REMARK SMILES IDX 8 1 7 2 6 3 5 4 4 5 3 6 2 7 1 8 32 9 33 10 85 11 34 12 84 13
REMARK SMILES IDX 35 14 36 15 37 16 78 17 38 18 83 19 77 20 79 21 39 22 82 23
REMARK SMILES IDX 76 24 75 25 40 27 66 28 49 29 65 30 50 31 53 32 64 33 80 34
REMARK SMILES IDX 51 35 52 36 63 38 81 39 54 40 41 41 42 42 47 43 43 44 44 45
REMARK SMILES IDX 46 46 48 47 45 48 67 49 68 50 73 51 69 52 70 53 72 54 74 55
REMARK SMILES IDX 71 56 55 57 56 58 61 59 57 60 58 61 60 62 62 63 59 64 9 65
REMARK SMILES IDX 10 66 11 67 12 68 13 69 14 70 15 71 16 72 30 73 17 74 29 75
REMARK SMILES IDX 28 76 31 77 18 79 19 80 20 81 21 82 27 83 22 84 25 85 24 86
REMARK SMILES IDX 23 87 26 89
REMARK H PARENT 79 26 53 37 31 78 23 88 26 90
REMARK Flexibility Score: inf
ROOT
ATOM      1  C   UNL A   1      39.025  21.687  26.156  1.00  0.00     0.188 C 
ENDROOT
BRANCH   1   2
ATOM      2  C   UNL A   1      40.351  21.366  26.851  1.00  0.00     0.188 C 
BRANCH   2   3
ATOM      3  O   UNL A   1      41.247  20.698  25.952  1.00  0.00    -0.376 OA
BRANCH   3   4
ATOM      4  C   UNL A   1      42.605  20.683  26.404  1.00  0.00     0.202 C 
BRANCH   4   5
ATOM      5  C   UNL A   1      43.582  21.374  25.446  1.00  0.00     0.261 C 
BRANCH   5   6
ATOM      6  O   UNL A   1      43.069  22.628  24.969  1.00  0.00    -0.460 OA
BRANCH   6   7
ATOM      7  C   UNL A   1      43.619  23.860  25.117  1.00  0.00     0.338 C 
ATOM      8  O   UNL A   1      44.563  24.176  24.392  1.00  0.00    -0.246 OA
BRANCH   7   9
ATOM      9  C   UNL A   1      43.109  24.893  26.070  1.00  0.00     0.060 A 
ATOM     10  C   UNL A   1      43.520  26.226  26.127  1.00  0.00     0.016 A 
ATOM     11  C   UNL A   1      42.086  24.486  26.944  1.00  0.00     0.016 A 
ATOM     12  C   UNL A   1      43.027  27.093  27.098  1.00  0.00     0.010 A 
ATOM     13  C   UNL A   1      41.527  25.372  27.867  1.00  0.00     0.010 A 
ATOM     14  C   UNL A   1      42.036  26.669  27.981  1.00  0.00    -0.014 A 
BRANCH  14  15
ATOM     15  C   UNL A   1      41.628  27.545  29.098  1.00  0.00     0.031 A 
ATOM     16  C   UNL A   1      42.390  27.470  30.384  1.00  0.00     0.074 A 
ATOM     17  C   UNL A   1      40.641  28.442  28.940  1.00  0.00     0.049 A 
ATOM     18  N   UNL A   1      42.167  28.086  31.514  1.00  0.00    -0.248 NA
ATOM     19  C   UNL A   1      43.577  26.600  30.391  1.00  0.00     0.031 C 
ATOM     20  C   UNL A   1      39.918  28.682  27.694  1.00  0.00     0.029 A 
ATOM     21  N   UNL A   1      40.079  29.320  29.829  1.00  0.00    -0.354 N 
ATOM     22  C   UNL A   1      43.180  27.672  32.368  1.00  0.00     0.074 A 
ATOM     23  C   UNL A   1      43.999  26.731  31.638  1.00  0.00     0.031 C 
ATOM     24  C   UNL A   1      38.994  29.630  27.904  1.00  0.00     0.029 A 
ATOM     25  C   UNL A   1      39.013  30.009  29.307  1.00  0.00     0.049 A 
ATOM     26  H   UNL A   1      40.407  29.444  30.748  1.00  0.00     0.167 HD
ATOM     27  C   UNL A   1      43.409  28.057  33.644  1.00  0.00     0.037 A 
ATOM     28  C   UNL A   1      38.119  30.819  29.904  1.00  0.00     0.037 A 
ATOM     29  C   UNL A   1      42.581  28.991  34.356  1.00  0.00     0.049 A 
ATOM     30  C   UNL A   1      38.305  31.132  31.358  1.00  0.00     0.074 A 
ATOM     31  C   UNL A   1      42.699  29.438  35.658  1.00  0.00     0.029 A 
ATOM     32  N   UNL A   1      41.466  29.617  33.814  1.00  0.00    -0.354 N 
ATOM     33  N   UNL A   1      39.250  30.719  32.168  1.00  0.00    -0.248 NA
ATOM     34  C   UNL A   1      37.321  32.025  31.979  1.00  0.00     0.031 C 
ATOM     35  C   UNL A   1      41.631  30.306  35.915  1.00  0.00     0.029 A 
ATOM     36  C   UNL A   1      40.870  30.428  34.763  1.00  0.00     0.049 A 
ATOM     37  H   UNL A   1      41.146  29.500  32.890  1.00  0.00     0.167 HD
ATOM     38  C   UNL A   1      38.992  31.319  33.390  1.00  0.00     0.074 A 
ATOM     39  C   UNL A   1      37.800  32.127  33.212  1.00  0.00     0.031 C 
ATOM     40  C   UNL A   1      39.683  31.219  34.551  1.00  0.00     0.037 A 
BRANCH  27  41
ATOM     41  C   UNL A   1      44.572  27.415  34.335  1.00  0.00     0.057 A 
ATOM     42  C   UNL A   1      44.442  26.212  35.044  1.00  0.00     0.134 A 
ATOM     43  C   UNL A   1      45.823  28.043  34.350  1.00  0.00     0.134 A 
ATOM     44  F   UNL A   1      43.260  25.578  35.095  1.00  0.00    -0.206 F 
ATOM     45  C   UNL A   1      45.506  25.678  35.773  1.00  0.00     0.040 A 
ATOM     46  C   UNL A   1      46.899  27.507  35.057  1.00  0.00     0.040 A 
ATOM     47  F   UNL A   1      46.011  29.200  33.699  1.00  0.00    -0.206 F 
ATOM     48  C   UNL A   1      46.738  26.326  35.781  1.00  0.00     0.006 A 
ENDBRANCH  27  41
BRANCH  28  49
ATOM     49  C   UNL A   1      36.959  31.327  29.129  1.00  0.00     0.057 A 
ATOM     50  C   UNL A   1      35.842  30.529  28.868  1.00  0.00     0.134 A 
ATOM     51  C   UNL A   1      36.929  32.650  28.664  1.00  0.00     0.134 A 
ATOM     52  F   UNL A   1      35.813  29.253  29.278  1.00  0.00    -0.206 F 
ATOM     53  C   UNL A   1      34.738  31.024  28.168  1.00  0.00     0.040 A 
ATOM     54  C   UNL A   1      35.827  33.164  27.980  1.00  0.00     0.040 A 
ATOM     55  F   UNL A   1      37.961  33.475  28.897  1.00  0.00    -0.206 F 
ATOM     56  C   UNL A   1      34.726  32.348  27.727  1.00  0.00     0.006 A 
ENDBRANCH  28  49
BRANCH  40  57
ATOM     57  C   UNL A   1      39.178  32.024  35.708  1.00  0.00     0.057 A 
ATOM     58  C   UNL A   1      39.530  33.368  35.874  1.00  0.00     0.134 A 
ATOM     59  C   UNL A   1      38.292  31.459  36.633  1.00  0.00     0.134 A 
ATOM     60  F   UNL A   1      40.389  33.955  35.027  1.00  0.00    -0.206 F 
ATOM     61  C   UNL A   1      39.021  34.124  36.929  1.00  0.00     0.040 A 
ATOM     62  C   UNL A   1      37.761  32.210  37.680  1.00  0.00     0.040 A 
ATOM     63  F   UNL A   1      37.918  30.175  36.521  1.00  0.00    -0.206 F 
ATOM     64  C   UNL A   1      38.128  33.547  37.831  1.00  0.00     0.006 A 
ENDBRANCH  40  57
ENDBRANCH  14  15
ENDBRANCH   7   9
ENDBRANCH   6   7
ENDBRANCH   5   6
ENDBRANCH   4   5
ENDBRANCH   3   4
ENDBRANCH   2   3
ENDBRANCH   1   2
BRANCH   1  65
ATOM     65  O   UNL A   1      38.614  23.052  26.243  1.00  0.00    -0.376 OA
BRANCH  65  66
ATOM     66  C   UNL A   1      37.424  23.416  25.550  1.00  0.00     0.202 C 
BRANCH  66  67
ATOM     67  C   UNL A   1      36.165  22.595  25.856  1.00  0.00     0.261 C 
BRANCH  67  68
ATOM     68  O   UNL A   1      35.121  23.303  26.547  1.00  0.00    -0.460 OA
BRANCH  68  69
ATOM     69  C   UNL A   1      33.943  22.634  26.606  1.00  0.00     0.342 C 
ATOM     70  O   UNL A   1      33.487  22.018  27.562  1.00  0.00    -0.246 OA
BRANCH  69  71
ATOM     71  C   UNL A   1      33.230  22.707  25.325  1.00  0.00     0.102 A 
ATOM     72  C   UNL A   1      32.606  23.903  24.927  1.00  0.00     0.027 A 
ATOM     73  C   UNL A   1      33.020  21.524  24.613  1.00  0.00     0.130 A 
ATOM     74  C   UNL A   1      31.755  23.915  23.813  1.00  0.00    -0.025 A 
ATOM     75  C   UNL A   1      32.152  21.516  23.530  1.00  0.00     0.048 A 
ATOM     76  C   UNL A   1      31.531  22.704  23.133  1.00  0.00     0.012 A 
BRANCH  73  77
ATOM     77  O   UNL A   1      33.666  20.378  24.980  1.00  0.00    -0.507 OA
ATOM     78  H   UNL A   1      34.169  20.356  25.771  1.00  0.00     0.293 HD
ENDBRANCH  73  77
BRANCH  74  79
ATOM     79  C   UNL A   1      31.019  25.099  23.331  1.00  0.00     0.009 C 
ATOM     80  C   UNL A   1      30.762  26.240  23.991  1.00  0.00     0.009 C 
BRANCH  80  81
ATOM     81  C   UNL A   1      29.977  27.333  23.385  1.00  0.00    -0.018 A 
ATOM     82  C   UNL A   1      30.576  28.317  22.580  1.00  0.00     0.054 A 
ATOM     83  C   UNL A   1      28.590  27.375  23.578  1.00  0.00     0.054 A 
ATOM     84  C   UNL A   1      29.805  29.340  22.030  1.00  0.00     0.119 A 
ATOM     85  C   UNL A   1      27.838  28.415  23.031  1.00  0.00     0.119 A 
ATOM     86  C   UNL A   1      28.438  29.404  22.263  1.00  0.00     0.092 A 
BRANCH  84  87
ATOM     87  O   UNL A   1      30.363  30.306  21.244  1.00  0.00    -0.508 OA
ATOM     88  H   UNL A   1      30.429  31.186  21.560  1.00  0.00     0.293 HD
ENDBRANCH  84  87
BRANCH  85  89
ATOM     89  O   UNL A   1      26.490  28.495  23.230  1.00  0.00    -0.508 OA
ATOM     90  H   UNL A   1      25.978  27.713  23.293  1.00  0.00     0.293 HD
ENDBRANCH  85  89
ENDBRANCH  80  81
ENDBRANCH  74  79
ENDBRANCH  69  71
ENDBRANCH  68  69
ENDBRANCH  67  68
ENDBRANCH  66  67
ENDBRANCH  65  66
ENDBRANCH   1  65
TORSDOF 22
ENDMDL
MODEL 2
REMARK VINA RESULT:     -11.0      0.708      6.145
REMARK SMILES O=C(OCCOCCOCCOC(=O)c1cc(/C=C/c2cc(O)cc(O)c2)ccc1O)c1ccc(-c2c3nc(c(-c4c(F)cccc4F)c4ccc([nH]4)c(-c4c(F)cccc4F)c4nc(c(-c5c(F)cccc5F)c5ccc2[nH]5)C=C4)C=C3)cc1
REMARK SMILES IDX 8 1 7 2 6 3 5 4 4 5 3 6 2 7 1 8 32 9 33 10 85 11 34 12 84 13
REMARK SMILES IDX 35 14 36 15 37 16 78 17 38 18 83 19 77 20 79 21 39 22 82 23
REMARK SMILES IDX 76 24 75 25 40 27 66 28 49 29 65 30 50 31 53 32 64 33 80 34
REMARK SMILES IDX 51 35 52 36 63 38 81 39 54 40 41 41 42 42 47 43 43 44 44 45
REMARK SMILES IDX 46 46 48 47 45 48 67 49 68 50 73 51 69 52 70 53 72 54 74 55
REMARK SMILES IDX 71 56 55 57 56 58 61 59 57 60 58 61 60 62 62 63 59 64 9 65
REMARK SMILES IDX 10 66 11 67 12 68 13 69 14 70 15 71 16 72 30 73 17 74 29 75
REMARK SMILES IDX 28 76 31 77 18 79 19 80 20 81 21 82 27 83 22 84 25 85 24 86
REMARK SMILES IDX 23 87 26 89
REMARK H PARENT 79 26 53 37 31 78 23 88 26 90
REMARK Flexibility Score: inf
ROOT
ATOM      1  C   UNL A   1      40.186  21.188  26.361  1.00  0.00     0.188 C 
ENDROOT
BRANCH   1   2
ATOM      2  C   UNL A   1      41.678  21.250  26.700  1.00  0.00     0.188 C 
BRANCH   2   3
ATOM      3  O   UNL A   1      42.473  21.164  25.511  1.00  0.00    -0.376 OA
BRANCH   3   4
ATOM      4  C   UNL A   1      43.822  21.609  25.690  1.00  0.00     0.202 C 
BRANCH   4   5
ATOM      5  C   UNL A   1      44.319  22.536  24.577  1.00  0.00     0.261 C 
BRANCH   5   6
ATOM      6  O   UNL A   1      43.728  23.843  24.662  1.00  0.00    -0.460 OA
BRANCH   6   7
ATOM      7  C   UNL A   1      44.295  24.981  25.133  1.00  0.00     0.338 C 
ATOM      8  O   UNL A   1      45.345  25.374  24.623  1.00  0.00    -0.246 OA
BRANCH   7   9
ATOM      9  C   UNL A   1      43.689  25.835  26.202  1.00  0.00     0.060 A 
ATOM     10  C   UNL A   1      44.015  27.167  26.466  1.00  0.00     0.016 A 
ATOM     11  C   UNL A   1      42.665  25.248  26.965  1.00  0.00     0.016 A 
ATOM     12  C   UNL A   1      43.436  27.855  27.530  1.00  0.00     0.010 A 
ATOM     13  C   UNL A   1      42.021  25.958  27.981  1.00  0.00     0.010 A 
ATOM     14  C   UNL A   1      42.445  27.251  28.300  1.00  0.00    -0.014 A 
BRANCH  14  15
ATOM     15  C   UNL A   1      41.946  27.931  29.512  1.00  0.00     0.031 A 
ATOM     16  C   UNL A   1      40.720  28.783  29.405  1.00  0.00     0.074 A 
ATOM     17  C   UNL A   1      42.536  27.731  30.702  1.00  0.00     0.049 A 
ATOM     18  N   UNL A   1      40.148  29.527  30.313  1.00  0.00    -0.248 NA
ATOM     19  C   UNL A   1      40.034  28.780  28.103  1.00  0.00     0.031 C 
ATOM     20  C   UNL A   1      43.657  26.826  30.939  1.00  0.00     0.029 A 
ATOM     21  N   UNL A   1      42.273  28.270  31.934  1.00  0.00    -0.354 N 
ATOM     22  C   UNL A   1      39.040  30.085  29.691  1.00  0.00     0.074 A 
ATOM     23  C   UNL A   1      39.036  29.621  28.322  1.00  0.00     0.031 C 
ATOM     24  C   UNL A   1      43.999  26.889  32.234  1.00  0.00     0.029 A 
ATOM     25  C   UNL A   1      43.173  27.886  32.896  1.00  0.00     0.049 A 
ATOM     26  H   UNL A   1      41.515  28.874  32.110  1.00  0.00     0.167 HD
ATOM     27  C   UNL A   1      38.103  30.903  30.224  1.00  0.00     0.037 A 
ATOM     28  C   UNL A   1      43.344  28.322  34.157  1.00  0.00     0.037 A 
ATOM     29  C   UNL A   1      38.125  31.359  31.586  1.00  0.00     0.049 A 
ATOM     30  C   UNL A   1      42.378  29.333  34.695  1.00  0.00     0.074 A 
ATOM     31  C   UNL A   1      37.246  32.207  32.231  1.00  0.00     0.029 A 
ATOM     32  N   UNL A   1      39.095  31.001  32.514  1.00  0.00    -0.354 N 
ATOM     33  N   UNL A   1      41.347  29.877  34.096  1.00  0.00    -0.248 NA
ATOM     34  C   UNL A   1      42.584  29.784  36.077  1.00  0.00     0.031 C 
ATOM     35  C   UNL A   1      37.706  32.393  33.540  1.00  0.00     0.029 A 
ATOM     36  C   UNL A   1      38.851  31.631  33.721  1.00  0.00     0.049 A 
ATOM     37  H   UNL A   1      39.846  30.388  32.338  1.00  0.00     0.167 HD
ATOM     38  C   UNL A   1      40.762  30.717  35.031  1.00  0.00     0.074 A 
ATOM     39  C   UNL A   1      41.557  30.608  36.240  1.00  0.00     0.031 C 
ATOM     40  C   UNL A   1      39.663  31.500  34.905  1.00  0.00     0.037 A 
BRANCH  27  41
ATOM     41  C   UNL A   1      37.027  31.377  29.296  1.00  0.00     0.057 A 
ATOM     42  C   UNL A   1      37.036  32.666  28.746  1.00  0.00     0.134 A 
ATOM     43  C   UNL A   1      35.931  30.556  29.005  1.00  0.00     0.134 A 
ATOM     44  F   UNL A   1      38.043  33.512  29.014  1.00  0.00    -0.206 F 
ATOM     45  C   UNL A   1      35.975  33.134  27.969  1.00  0.00     0.040 A 
ATOM     46  C   UNL A   1      34.874  31.005  28.212  1.00  0.00     0.040 A 
ATOM     47  F   UNL A   1      35.857  29.315  29.508  1.00  0.00    -0.206 F 
ATOM     48  C   UNL A   1      34.890  32.302  27.701  1.00  0.00     0.006 A 
ENDBRANCH  27  41
BRANCH  28  49
ATOM     49  C   UNL A   1      44.502  27.837  34.949  1.00  0.00     0.057 A 
ATOM     50  C   UNL A   1      45.762  28.432  34.851  1.00  0.00     0.134 A 
ATOM     51  C   UNL A   1      44.358  26.780  35.860  1.00  0.00     0.134 A 
ATOM     52  F   UNL A   1      45.968  29.441  33.992  1.00  0.00    -0.206 F 
ATOM     53  C   UNL A   1      46.840  27.994  35.625  1.00  0.00     0.040 A 
ATOM     54  C   UNL A   1      45.420  26.343  36.654  1.00  0.00     0.040 A 
ATOM     55  F   UNL A   1      43.170  26.177  36.018  1.00  0.00    -0.206 F 
ATOM     56  C   UNL A   1      46.669  26.950  36.535  1.00  0.00     0.006 A 
ENDBRANCH  28  49
BRANCH  40  57
ATOM     57  C   UNL A   1      39.246  32.275  36.115  1.00  0.00     0.057 A 
ATOM     58  C   UNL A   1      39.761  33.548  36.382  1.00  0.00     0.134 A 
ATOM     59  C   UNL A   1      38.282  31.761  36.990  1.00  0.00     0.134 A 
ATOM     60  F   UNL A   1      40.700  34.083  35.587  1.00  0.00    -0.206 F 
ATOM     61  C   UNL A   1      39.335  34.283  37.488  1.00  0.00     0.040 A 
ATOM     62  C   UNL A   1      37.833  32.494  38.086  1.00  0.00     0.040 A 
ATOM     63  F   UNL A   1      37.751  30.546  36.780  1.00  0.00    -0.206 F 
ATOM     64  C   UNL A   1      38.362  33.759  38.339  1.00  0.00     0.006 A 
ENDBRANCH  40  57
ENDBRANCH  14  15
ENDBRANCH   7   9
ENDBRANCH   6   7
ENDBRANCH   5   6
ENDBRANCH   4   5
ENDBRANCH   3   4
ENDBRANCH   2   3
ENDBRANCH   1   2
BRANCH   1  65
ATOM     65  O   UNL A   1      39.517  22.449  26.354  1.00  0.00    -0.376 OA
BRANCH  65  66
ATOM     66  C   UNL A   1      38.237  22.501  25.730  1.00  0.00     0.202 C 
BRANCH  66  67
ATOM     67  C   UNL A   1      37.320  23.665  26.123  1.00  0.00     0.261 C 
BRANCH  67  68
ATOM     68  O   UNL A   1      36.152  23.835  25.302  1.00  0.00    -0.460 OA
BRANCH  68  69
ATOM     69  C   UNL A   1      35.049  23.200  25.769  1.00  0.00     0.342 C 
ATOM     70  O   UNL A   1      34.905  22.674  26.867  1.00  0.00    -0.246 OA
BRANCH  69  71
ATOM     71  C   UNL A   1      33.982  23.184  24.761  1.00  0.00     0.102 A 
ATOM     72  C   UNL A   1      33.338  24.379  24.391  1.00  0.00     0.027 A 
ATOM     73  C   UNL A   1      33.493  21.950  24.330  1.00  0.00     0.130 A 
ATOM     74  C   UNL A   1      32.188  24.339  23.591  1.00  0.00    -0.025 A 
ATOM     75  C   UNL A   1      32.335  21.895  23.566  1.00  0.00     0.048 A 
ATOM     76  C   UNL A   1      31.694  23.082  23.197  1.00  0.00     0.012 A 
BRANCH  73  77
ATOM     77  O   UNL A   1      34.152  20.799  24.656  1.00  0.00    -0.507 OA
ATOM     78  H   UNL A   1      34.977  20.602  24.259  1.00  0.00     0.293 HD
ENDBRANCH  73  77
BRANCH  74  79
ATOM     79  C   UNL A   1      31.411  25.522  23.177  1.00  0.00     0.009 C 
ATOM     80  C   UNL A   1      30.497  26.204  23.888  1.00  0.00     0.009 C 
BRANCH  80  81
ATOM     81  C   UNL A   1      29.770  27.358  23.324  1.00  0.00    -0.018 A 
ATOM     82  C   UNL A   1      30.431  28.370  22.607  1.00  0.00     0.054 A 
ATOM     83  C   UNL A   1      28.378  27.431  23.466  1.00  0.00     0.054 A 
ATOM     84  C   UNL A   1      29.713  29.450  22.095  1.00  0.00     0.119 A 
ATOM     85  C   UNL A   1      27.681  28.528  22.957  1.00  0.00     0.119 A 
ATOM     86  C   UNL A   1      28.341  29.544  22.278  1.00  0.00     0.092 A 
BRANCH  84  87
ATOM     87  O   UNL A   1      30.331  30.445  21.395  1.00  0.00    -0.508 OA
ATOM     88  H   UNL A   1      31.149  30.279  20.969  1.00  0.00     0.293 HD
ENDBRANCH  84  87
BRANCH  85  89
ATOM     89  O   UNL A   1      26.328  28.639  23.110  1.00  0.00    -0.508 OA
ATOM     90  H   UNL A   1      25.976  29.138  23.819  1.00  0.00     0.293 HD
ENDBRANCH  85  89
ENDBRANCH  80  81
ENDBRANCH  74  79
ENDBRANCH  69  71
ENDBRANCH  68  69
ENDBRANCH  67  68
ENDBRANCH  66  67
ENDBRANCH  65  66
ENDBRANCH   1  65
TORSDOF 22
ENDMDL
MODEL 3
REMARK VINA RESULT:     -10.9      3.401      9.145
REMARK SMILES O=C(OCCOCCOCCOC(=O)c1cc(/C=C/c2cc(O)cc(O)c2)ccc1O)c1ccc(-c2c3nc(c(-c4c(F)cccc4F)c4ccc([nH]4)c(-c4c(F)cccc4F)c4nc(c(-c5c(F)cccc5F)c5ccc2[nH]5)C=C4)C=C3)cc1
REMARK SMILES IDX 8 1 7 2 6 3 5 4 4 5 3 6 2 7 1 8 32 9 33 10 85 11 34 12 84 13
REMARK SMILES IDX 35 14 36 15 37 16 78 17 38 18 83 19 77 20 79 21 39 22 82 23
REMARK SMILES IDX 76 24 75 25 40 27 66 28 49 29 65 30 50 31 53 32 64 33 80 34
REMARK SMILES IDX 51 35 52 36 63 38 81 39 54 40 41 41 42 42 47 43 43 44 44 45
REMARK SMILES IDX 46 46 48 47 45 48 67 49 68 50 73 51 69 52 70 53 72 54 74 55
REMARK SMILES IDX 71 56 55 57 56 58 61 59 57 60 58 61 60 62 62 63 59 64 9 65
REMARK SMILES IDX 10 66 11 67 12 68 13 69 14 70 15 71 16 72 30 73 17 74 29 75
REMARK SMILES IDX 28 76 31 77 18 79 19 80 20 81 21 82 27 83 22 84 25 85 24 86
REMARK SMILES IDX 23 87 26 89
REMARK H PARENT 79 26 53 37 31 78 23 88 26 90
REMARK Flexibility Score: inf
ROOT
ATOM      1  C   UNL A   1      34.396  32.076  27.992  1.00  0.00     0.188 C 
ENDROOT
BRANCH   1   2
ATOM      2  C   UNL A   1      34.402  33.084  29.144  1.00  0.00     0.188 C 
BRANCH   2   3
ATOM      3  O   UNL A   1      34.202  34.417  28.654  1.00  0.00    -0.376 OA
BRANCH   3   4
ATOM      4  C   UNL A   1      32.911  34.953  28.961  1.00  0.00     0.202 C 
BRANCH   4   5
ATOM      5  C   UNL A   1      32.954  36.363  29.559  1.00  0.00     0.261 C 
BRANCH   5   6
ATOM      6  O   UNL A   1      32.277  36.430  30.824  1.00  0.00    -0.460 OA
BRANCH   6   7
ATOM      7  C   UNL A   1      32.787  36.166  32.054  1.00  0.00     0.338 C 
ATOM      8  O   UNL A   1      32.280  36.714  33.033  1.00  0.00    -0.246 OA
BRANCH   7   9
ATOM      9  C   UNL A   1      33.896  35.196  32.307  1.00  0.00     0.060 A 
ATOM     10  C   UNL A   1      33.760  33.931  32.881  1.00  0.00     0.016 A 
ATOM     11  C   UNL A   1      35.176  35.584  31.875  1.00  0.00     0.016 A 
ATOM     12  C   UNL A   1      34.870  33.128  33.133  1.00  0.00     0.010 A 
ATOM     13  C   UNL A   1      36.283  34.751  32.049  1.00  0.00     0.010 A 
ATOM     14  C   UNL A   1      36.138  33.537  32.729  1.00  0.00    -0.014 A 
BRANCH  14  15
ATOM     15  C   UNL A   1      37.322  32.753  33.131  1.00  0.00     0.031 A 
ATOM     16  C   UNL A   1      37.983  33.068  34.437  1.00  0.00     0.074 A 
ATOM     17  C   UNL A   1      37.755  31.728  32.377  1.00  0.00     0.049 A 
ATOM     18  N   UNL A   1      39.070  32.564  34.957  1.00  0.00    -0.248 NA
ATOM     19  C   UNL A   1      37.317  34.074  35.280  1.00  0.00     0.031 C 
ATOM     20  C   UNL A   1      37.110  31.259  31.154  1.00  0.00     0.029 A 
ATOM     21  N   UNL A   1      38.831  30.895  32.532  1.00  0.00    -0.354 N 
ATOM     22  C   UNL A   1      39.222  33.195  36.183  1.00  0.00     0.074 A 
ATOM     23  C   UNL A   1      38.136  34.140  36.318  1.00  0.00     0.031 C 
ATOM     24  C   UNL A   1      37.818  30.234  30.657  1.00  0.00     0.029 A 
ATOM     25  C   UNL A   1      38.995  30.024  31.484  1.00  0.00     0.049 A 
ATOM     26  H   UNL A   1      39.427  30.919  33.314  1.00  0.00     0.167 HD
ATOM     27  C   UNL A   1      40.178  32.990  37.118  1.00  0.00     0.037 A 
ATOM     28  C   UNL A   1      40.006  29.184  31.195  1.00  0.00     0.037 A 
ATOM     29  C   UNL A   1      41.253  32.050  36.966  1.00  0.00     0.049 A 
ATOM     30  C   UNL A   1      41.132  29.066  32.177  1.00  0.00     0.074 A 
ATOM     31  C   UNL A   1      42.293  31.773  37.832  1.00  0.00     0.029 A 
ATOM     32  N   UNL A   1      41.425  31.232  35.856  1.00  0.00    -0.354 N 
ATOM     33  N   UNL A   1      41.285  29.683  33.323  1.00  0.00    -0.248 NA
ATOM     34  C   UNL A   1      42.216  28.135  31.840  1.00  0.00     0.031 C 
ATOM     35  C   UNL A   1      43.116  30.815  37.229  1.00  0.00     0.029 A 
ATOM     36  C   UNL A   1      42.569  30.469  36.002  1.00  0.00     0.049 A 
ATOM     37  H   UNL A   1      40.821  31.202  35.079  1.00  0.00     0.167 HD
ATOM     38  C   UNL A   1      42.467  29.200  33.861  1.00  0.00     0.074 A 
ATOM     39  C   UNL A   1      42.992  28.236  32.912  1.00  0.00     0.031 C 
ATOM     40  C   UNL A   1      43.061  29.518  35.037  1.00  0.00     0.037 A 
BRANCH  27  41
ATOM     41  C   UNL A   1      40.105  33.847  38.345  1.00  0.00     0.057 A 
ATOM     42  C   UNL A   1      39.313  33.498  39.447  1.00  0.00     0.134 A 
ATOM     43  C   UNL A   1      40.781  35.071  38.395  1.00  0.00     0.134 A 
ATOM     44  F   UNL A   1      38.613  32.353  39.446  1.00  0.00    -0.206 F 
ATOM     45  C   UNL A   1      39.168  34.355  40.540  1.00  0.00     0.040 A 
ATOM     46  C   UNL A   1      40.661  35.926  39.491  1.00  0.00     0.040 A 
ATOM     47  F   UNL A   1      41.548  35.467  37.368  1.00  0.00    -0.206 F 
ATOM     48  C   UNL A   1      39.843  35.573  40.563  1.00  0.00     0.006 A 
ENDBRANCH  27  41
BRANCH  28  49
ATOM     49  C   UNL A   1      40.004  28.451  29.905  1.00  0.00     0.057 A 
ATOM     50  C   UNL A   1      40.703  28.921  28.789  1.00  0.00     0.134 A 
ATOM     51  C   UNL A   1      39.326  27.230  29.772  1.00  0.00     0.134 A 
ATOM     52  F   UNL A   1      41.363  30.086  28.848  1.00  0.00    -0.206 F 
ATOM     53  C   UNL A   1      40.725  28.208  27.587  1.00  0.00     0.040 A 
ATOM     54  C   UNL A   1      39.354  26.498  28.584  1.00  0.00     0.040 A 
ATOM     55  F   UNL A   1      38.651  26.712  30.810  1.00  0.00    -0.206 F 
ATOM     56  C   UNL A   1      40.054  26.989  27.484  1.00  0.00     0.006 A 
ENDBRANCH  28  49
BRANCH  40  57
ATOM     57  C   UNL A   1      44.329  28.795  35.369  1.00  0.00     0.057 A 
ATOM     58  C   UNL A   1      45.579  29.300  34.997  1.00  0.00     0.134 A 
ATOM     59  C   UNL A   1      44.296  27.609  36.111  1.00  0.00     0.134 A 
ATOM     60  F   UNL A   1      45.669  30.424  34.270  1.00  0.00    -0.206 F 
ATOM     61  C   UNL A   1      46.759  28.643  35.347  1.00  0.00     0.040 A 
ATOM     62  C   UNL A   1      45.468  26.954  36.485  1.00  0.00     0.040 A 
ATOM     63  F   UNL A   1      43.124  27.080  36.497  1.00  0.00    -0.206 F 
ATOM     64  C   UNL A   1      46.704  27.471  36.100  1.00  0.00     0.006 A 
ENDBRANCH  40  57
ENDBRANCH  14  15
ENDBRANCH   7   9
ENDBRANCH   6   7
ENDBRANCH   5   6
ENDBRANCH   4   5
ENDBRANCH   3   4
ENDBRANCH   2   3
ENDBRANCH   1   2
BRANCH   1  65
ATOM     65  O   UNL A   1      35.540  31.224  27.931  1.00  0.00    -0.376 OA
BRANCH  65  66
ATOM     66  C   UNL A   1      35.302  29.830  27.753  1.00  0.00     0.202 C 
BRANCH  66  67
ATOM     67  C   UNL A   1      34.110  29.438  26.872  1.00  0.00     0.261 C 
BRANCH  67  68
ATOM     68  O   UNL A   1      34.101  28.072  26.419  1.00  0.00    -0.460 OA
BRANCH  68  69
ATOM     69  C   UNL A   1      33.686  27.917  25.138  1.00  0.00     0.342 C 
ATOM     70  O   UNL A   1      34.125  28.480  24.142  1.00  0.00    -0.246 OA
BRANCH  69  71
ATOM     71  C   UNL A   1      32.575  26.961  25.056  1.00  0.00     0.102 A 
ATOM     72  C   UNL A   1      32.821  25.579  25.141  1.00  0.00     0.027 A 
ATOM     73  C   UNL A   1      31.312  27.438  24.699  1.00  0.00     0.130 A 
ATOM     74  C   UNL A   1      31.797  24.664  24.855  1.00  0.00    -0.025 A 
ATOM     75  C   UNL A   1      30.301  26.542  24.380  1.00  0.00     0.048 A 
ATOM     76  C   UNL A   1      30.544  25.168  24.464  1.00  0.00     0.012 A 
BRANCH  73  77
ATOM     77  O   UNL A   1      31.072  28.782  24.664  1.00  0.00    -0.507 OA
ATOM     78  H   UNL A   1      31.698  29.361  24.277  1.00  0.00     0.293 HD
ENDBRANCH  73  77
BRANCH  74  79
ATOM     79  C   UNL A   1      31.952  23.197  24.873  1.00  0.00     0.009 C 
ATOM     80  C   UNL A   1      32.259  22.384  23.848  1.00  0.00     0.009 C 
BRANCH  80  81
ATOM     81  C   UNL A   1      32.347  20.920  24.013  1.00  0.00    -0.018 A 
ATOM     82  C   UNL A   1      32.597  20.328  25.263  1.00  0.00     0.054 A 
ATOM     83  C   UNL A   1      32.134  20.088  22.905  1.00  0.00     0.054 A 
ATOM     84  C   UNL A   1      32.682  18.942  25.379  1.00  0.00     0.119 A 
ATOM     85  C   UNL A   1      32.237  18.703  23.040  1.00  0.00     0.119 A 
ATOM     86  C   UNL A   1      32.518  18.123  24.271  1.00  0.00     0.092 A 
BRANCH  84  87
ATOM     87  O   UNL A   1      32.923  18.344  26.582  1.00  0.00    -0.508 OA
ATOM     88  H   UNL A   1      32.474  18.639  27.350  1.00  0.00     0.293 HD
ENDBRANCH  84  87
BRANCH  85  89
ATOM     89  O   UNL A   1      32.065  17.873  21.970  1.00  0.00    -0.508 OA
ATOM     90  H   UNL A   1      32.558  18.011  21.186  1.00  0.00     0.293 HD
ENDBRANCH  85  89
ENDBRANCH  80  81
ENDBRANCH  74  79
ENDBRANCH  69  71
ENDBRANCH  68  69
ENDBRANCH  67  68
ENDBRANCH  66  67
ENDBRANCH  65  66
ENDBRANCH   1  65
TORSDOF 22
ENDMDL
