MODEL 1
REMARK VINA RESULT:     -11.1      0.000      0.000
REMARK SMILES Cc1cc(-c2cc(C(=O)OCCOCCOCCOC(=O)c3ccc(-c4c5nc(c(-c6c(F)cccc6F)c6ccc([nH]6)c(-c6c(F)cccc6F)c6nc(c(-c7c(F)cccc7F)c7ccc4[nH]7)C=C6)C=C5)cc3)c[nH]c2=O)ccc1Cl
REMARK SMILES IDX 15 1 14 2 13 3 12 4 11 5 10 6 8 7 9 8 7 9 5 10 6 11 78 12
REMARK SMILES IDX 77 13 79 14 76 15 4 17 1 18 2 19 3 20 82 21 81 22 83 23
REMARK SMILES IDX 80 24 16 25 17 26 18 27 19 28 20 29 21 30 22 31 23 32 75 33
REMARK SMILES IDX 24 34 74 35 25 36 26 37 27 38 68 39 28 40 73 41 67 42 69 43
REMARK SMILES IDX 29 44 72 45 66 46 65 47 30 49 56 50 39 51 55 52 40 53 43 54
REMARK SMILES IDX 54 55 70 56 41 57 42 58 53 60 71 61 44 62 31 63 32 64 37 65
REMARK SMILES IDX 33 66 34 67 36 68 38 69 35 70 57 71 58 72 63 73 59 74 60 75
REMARK SMILES IDX 62 76 64 77 61 78 45 79 46 80 51 81 47 82 48 83 50 84 52 85
REMARK SMILES IDX 49 86
REMARK H PARENT 77 16 69 48 43 59
REMARK Flexibility Score: inf
ROOT
ATOM      1  C   UNL A   1      44.169  18.911  24.992  1.00  0.00     0.188 C 
ENDROOT
BRANCH   1   2
ATOM      2  C   UNL A   1      42.919  19.155  25.865  1.00  0.00     0.188 C 
BRANCH   2   3
ATOM      3  O   UNL A   1      42.065  20.260  25.613  1.00  0.00    -0.376 OA
BRANCH   3   4
ATOM      4  C   UNL A   1      40.720  20.249  26.071  1.00  0.00     0.202 C 
BRANCH   4   5
ATOM      5  C   UNL A   1      40.029  21.549  26.513  1.00  0.00     0.261 C 
BRANCH   5   6
ATOM      6  O   UNL A   1      38.661  21.686  26.100  1.00  0.00    -0.460 OA
BRANCH   6   7
ATOM      7  C   UNL A   1      38.156  22.947  26.135  1.00  0.00     0.339 C 
ATOM      8  O   UNL A   1      38.784  23.974  26.345  1.00  0.00    -0.246 OA
BRANCH   7   9
ATOM      9  C   UNL A   1      36.736  22.934  25.698  1.00  0.00     0.077 A 
ATOM     10  C   UNL A   1      34.628  24.073  25.201  1.00  0.00     0.048 A 
ATOM     11  C   UNL A   1      35.904  24.119  25.644  1.00  0.00     0.031 A 
ATOM     12  C   UNL A   1      34.049  22.721  24.856  1.00  0.00     0.255 A 
ATOM     13  N   UNL A   1      34.905  21.648  24.966  1.00  0.00    -0.328 N 
ATOM     14  O   UNL A   1      32.888  22.559  24.496  1.00  0.00    -0.269 OA
ATOM     15  C   UNL A   1      36.217  21.745  25.356  1.00  0.00     0.101 A 
ATOM     16  H   UNL A   1      34.554  20.754  24.752  1.00  0.00     0.169 HD
BRANCH  10  17
ATOM     17  C   UNL A   1      33.853  25.321  25.014  1.00  0.00    -0.012 A 
ATOM     18  C   UNL A   1      31.555  27.647  26.992  1.00  0.00     0.046 C 
ATOM     19  C   UNL A   1      32.345  27.066  25.853  1.00  0.00    -0.032 A 
ATOM     20  C   UNL A   1      33.121  25.907  26.059  1.00  0.00     0.014 A 
ATOM     21  C   UNL A   1      32.317  27.640  24.573  1.00  0.00     0.044 A 
ATOM     22  C   UNL A   1      33.038  27.068  23.527  1.00  0.00     0.021 A 
ATOM     23  Cl  UNL A   1      31.391  29.058  24.232  1.00  0.00    -0.084 Cl
ATOM     24  C   UNL A   1      33.793  25.916  23.744  1.00  0.00     0.010 A 
ENDBRANCH  10  17
ENDBRANCH   7   9
ENDBRANCH   6   7
ENDBRANCH   5   6
ENDBRANCH   4   5
ENDBRANCH   3   4
ENDBRANCH   2   3
ENDBRANCH   1   2
BRANCH   1  25
ATOM     25  O   UNL A   1      45.342  19.546  25.435  1.00  0.00    -0.376 OA
BRANCH  25  26
ATOM     26  C   UNL A   1      45.720  20.800  24.897  1.00  0.00     0.202 C 
BRANCH  26  27
ATOM     27  C   UNL A   1      45.665  22.155  25.637  1.00  0.00     0.261 C 
BRANCH  27  28
ATOM     28  O   UNL A   1      44.445  22.542  26.275  1.00  0.00    -0.460 OA
BRANCH  28  29
ATOM     29  C   UNL A   1      43.627  23.361  25.577  1.00  0.00     0.338 C 
ATOM     30  O   UNL A   1      43.245  23.223  24.424  1.00  0.00    -0.246 OA
BRANCH  29  31
ATOM     31  C   UNL A   1      43.115  24.394  26.496  1.00  0.00     0.060 A 
ATOM     32  C   UNL A   1      43.674  25.680  26.456  1.00  0.00     0.016 A 
ATOM     33  C   UNL A   1      42.088  24.094  27.391  1.00  0.00     0.016 A 
ATOM     34  C   UNL A   1      43.202  26.672  27.317  1.00  0.00     0.010 A 
ATOM     35  C   UNL A   1      41.633  25.084  28.268  1.00  0.00     0.010 A 
ATOM     36  C   UNL A   1      42.197  26.373  28.246  1.00  0.00    -0.014 A 
BRANCH  36  37
ATOM     37  C   UNL A   1      41.820  27.359  29.288  1.00  0.00     0.031 A 
ATOM     38  C   UNL A   1      42.556  27.347  30.598  1.00  0.00     0.074 A 
ATOM     39  C   UNL A   1      40.822  28.237  29.083  1.00  0.00     0.049 A 
ATOM     40  N   UNL A   1      42.330  28.041  31.684  1.00  0.00    -0.248 NA
ATOM     41  C   UNL A   1      43.694  26.421  30.696  1.00  0.00     0.031 C 
ATOM     42  C   UNL A   1      40.053  28.370  27.849  1.00  0.00     0.029 A 
ATOM     43  N   UNL A   1      40.270  29.169  29.929  1.00  0.00    -0.354 N 
ATOM     44  C   UNL A   1      43.290  27.627  32.599  1.00  0.00     0.074 A 
ATOM     45  C   UNL A   1      44.082  26.605  31.948  1.00  0.00     0.031 C 
ATOM     46  C   UNL A   1      39.108  29.309  28.026  1.00  0.00     0.029 A 
ATOM     47  C   UNL A   1      39.182  29.814  29.396  1.00  0.00     0.049 A 
ATOM     48  H   UNL A   1      40.621  29.355  30.829  1.00  0.00     0.167 HD
ATOM     49  C   UNL A   1      43.494  28.063  33.865  1.00  0.00     0.037 A 
ATOM     50  C   UNL A   1      38.321  30.682  29.963  1.00  0.00     0.037 A 
ATOM     51  C   UNL A   1      42.698  29.072  34.513  1.00  0.00     0.049 A 
ATOM     52  C   UNL A   1      38.518  31.096  31.399  1.00  0.00     0.074 A 
ATOM     53  C   UNL A   1      42.846  29.603  35.782  1.00  0.00     0.029 A 
ATOM     54  N   UNL A   1      41.594  29.691  33.947  1.00  0.00    -0.354 N 
ATOM     55  N   UNL A   1      39.451  30.731  32.245  1.00  0.00    -0.248 NA
ATOM     56  C   UNL A   1      37.542  32.042  31.958  1.00  0.00     0.031 C 
ATOM     57  C   UNL A   1      41.793  30.496  36.007  1.00  0.00     0.029 A 
ATOM     58  C   UNL A   1      41.027  30.570  34.855  1.00  0.00     0.049 A 
ATOM     59  H   UNL A   1      41.261  29.529  33.034  1.00  0.00     0.167 HD
ATOM     60  C   UNL A   1      39.190  31.418  33.424  1.00  0.00     0.074 A 
ATOM     61  C   UNL A   1      38.018  32.233  33.181  1.00  0.00     0.031 C 
ATOM     62  C   UNL A   1      39.860  31.378  34.603  1.00  0.00     0.037 A 
BRANCH  49  63
ATOM     63  C   UNL A   1      44.601  27.415  34.646  1.00  0.00     0.057 A 
ATOM     64  C   UNL A   1      45.904  27.931  34.660  1.00  0.00     0.134 A 
ATOM     65  C   UNL A   1      44.355  26.267  35.410  1.00  0.00     0.134 A 
ATOM     66  F   UNL A   1      46.211  29.021  33.940  1.00  0.00    -0.206 F 
ATOM     67  C   UNL A   1      46.927  27.312  35.380  1.00  0.00     0.040 A 
ATOM     68  C   UNL A   1      45.363  25.656  36.157  1.00  0.00     0.040 A 
ATOM     69  F   UNL A   1      43.129  25.722  35.446  1.00  0.00    -0.206 F 
ATOM     70  C   UNL A   1      46.656  26.174  36.137  1.00  0.00     0.006 A 
ENDBRANCH  49  63
BRANCH  50  71
ATOM     71  C   UNL A   1      37.168  31.199  29.180  1.00  0.00     0.057 A 
ATOM     72  C   UNL A   1      37.142  32.513  28.700  1.00  0.00     0.134 A 
ATOM     73  C   UNL A   1      36.057  30.391  28.905  1.00  0.00     0.134 A 
ATOM     74  F   UNL A   1      38.165  33.344  28.953  1.00  0.00    -0.206 F 
ATOM     75  C   UNL A   1      36.050  33.011  27.987  1.00  0.00     0.040 A 
ATOM     76  C   UNL A   1      34.970  30.867  28.170  1.00  0.00     0.040 A 
ATOM     77  F   UNL A   1      36.017  29.123  29.339  1.00  0.00    -0.206 F 
ATOM     78  C   UNL A   1      34.961  32.183  27.716  1.00  0.00     0.006 A 
ENDBRANCH  50  71
BRANCH  62  79
ATOM     79  C   UNL A   1      39.366  32.261  35.714  1.00  0.00     0.057 A 
ATOM     80  C   UNL A   1      38.444  31.810  36.668  1.00  0.00     0.134 A 
ATOM     81  C   UNL A   1      39.861  33.564  35.862  1.00  0.00     0.134 A 
ATOM     82  F   UNL A   1      37.922  30.578  36.579  1.00  0.00    -0.206 F 
ATOM     83  C   UNL A   1      38.019  32.628  37.717  1.00  0.00     0.040 A 
ATOM     84  C   UNL A   1      39.466  34.381  36.923  1.00  0.00     0.040 A 
ATOM     85  F   UNL A   1      40.754  34.057  34.991  1.00  0.00    -0.206 F 
ATOM     86  C   UNL A   1      38.537  33.915  37.851  1.00  0.00     0.006 A 
ENDBRANCH  62  79
ENDBRANCH  36  37
ENDBRANCH  29  31
ENDBRANCH  28  29
ENDBRANCH  27  28
ENDBRANCH  26  27
ENDBRANCH  25  26
ENDBRANCH   1  25
TORSDOF 18
ENDMDL
MODEL 2
REMARK VINA RESULT:     -10.9      1.846      2.448
REMARK SMILES Cc1cc(-c2cc(C(=O)OCCOCCOCCOC(=O)c3ccc(-c4c5nc(c(-c6c(F)cccc6F)c6ccc([nH]6)c(-c6c(F)cccc6F)c6nc(c(-c7c(F)cccc7F)c7ccc4[nH]7)C=C6)C=C5)cc3)c[nH]c2=O)ccc1Cl
REMARK SMILES IDX 15 1 14 2 13 3 12 4 11 5 10 6 8 7 9 8 7 9 5 10 6 11 78 12
REMARK SMILES IDX 77 13 79 14 76 15 4 17 1 18 2 19 3 20 82 21 81 22 83 23
REMARK SMILES IDX 80 24 16 25 17 26 18 27 19 28 20 29 21 30 22 31 23 32 75 33
REMARK SMILES IDX 24 34 74 35 25 36 26 37 27 38 68 39 28 40 73 41 67 42 69 43
REMARK SMILES IDX 29 44 72 45 66 46 65 47 30 49 56 50 39 51 55 52 40 53 43 54
REMARK SMILES IDX 54 55 70 56 41 57 42 58 53 60 71 61 44 62 31 63 32 64 37 65
REMARK SMILES IDX 33 66 34 67 36 68 38 69 35 70 57 71 58 72 63 73 59 74 60 75
REMARK SMILES IDX 62 76 64 77 61 78 45 79 46 80 51 81 47 82 48 83 50 84 52 85
REMARK SMILES IDX 49 86
REMARK H PARENT 77 16 69 48 43 59
REMARK Flexibility Score: inf
ROOT
ATOM      1  C   UNL A   1      46.077  19.654  24.778  1.00  0.00     0.188 C 
ENDROOT
BRANCH   1   2
ATOM      2  C   UNL A   1      44.678  19.219  24.291  1.00  0.00     0.188 C 
BRANCH   2   3
ATOM      3  O   UNL A   1      43.713  18.727  25.209  1.00  0.00    -0.376 OA
BRANCH   3   4
ATOM      4  C   UNL A   1      42.912  19.626  25.962  1.00  0.00     0.202 C 
BRANCH   4   5
ATOM      5  C   UNL A   1      41.672  19.127  26.721  1.00  0.00     0.261 C 
BRANCH   5   6
ATOM      6  O   UNL A   1      40.587  20.064  26.804  1.00  0.00    -0.460 OA
BRANCH   6   7
ATOM      7  C   UNL A   1      39.587  19.892  25.901  1.00  0.00     0.339 C 
ATOM      8  O   UNL A   1      39.306  18.856  25.318  1.00  0.00    -0.246 OA
BRANCH   7   9
ATOM      9  C   UNL A   1      38.743  21.114  25.844  1.00  0.00     0.077 A 
ATOM     10  C   UNL A   1      36.565  22.219  25.690  1.00  0.00     0.048 A 
ATOM     11  C   UNL A   1      37.302  21.086  25.694  1.00  0.00     0.031 A 
ATOM     12  C   UNL A   1      37.298  23.538  25.741  1.00  0.00     0.255 A 
ATOM     13  N   UNL A   1      38.669  23.466  25.853  1.00  0.00    -0.328 N 
ATOM     14  O   UNL A   1      36.732  24.625  25.689  1.00  0.00    -0.269 OA
ATOM     15  C   UNL A   1      39.377  22.294  25.923  1.00  0.00     0.101 A 
ATOM     16  H   UNL A   1      39.174  24.310  25.884  1.00  0.00     0.169 HD
BRANCH  10  17
ATOM     17  C   UNL A   1      35.086  22.151  25.687  1.00  0.00    -0.012 A 
ATOM     18  C   UNL A   1      32.186  21.845  23.216  1.00  0.00     0.046 C 
ATOM     19  C   UNL A   1      32.938  21.987  24.510  1.00  0.00    -0.032 A 
ATOM     20  C   UNL A   1      34.348  21.996  24.503  1.00  0.00     0.014 A 
ATOM     21  C   UNL A   1      32.270  22.131  25.735  1.00  0.00     0.044 A 
ATOM     22  C   UNL A   1      32.989  22.287  26.918  1.00  0.00     0.021 A 
ATOM     23  Cl  UNL A   1      30.545  22.133  25.834  1.00  0.00    -0.084 Cl
ATOM     24  C   UNL A   1      34.383  22.303  26.893  1.00  0.00     0.010 A 
ENDBRANCH  10  17
ENDBRANCH   7   9
ENDBRANCH   6   7
ENDBRANCH   5   6
ENDBRANCH   4   5
ENDBRANCH   3   4
ENDBRANCH   2   3
ENDBRANCH   1   2
BRANCH   1  25
ATOM     25  O   UNL A   1      46.139  20.935  25.352  1.00  0.00    -0.376 OA
BRANCH  25  26
ATOM     26  C   UNL A   1      46.436  22.063  24.548  1.00  0.00     0.202 C 
BRANCH  26  27
ATOM     27  C   UNL A   1      45.402  23.026  23.924  1.00  0.00     0.261 C 
BRANCH  27  28
ATOM     28  O   UNL A   1      44.707  23.938  24.779  1.00  0.00    -0.460 OA
BRANCH  28  29
ATOM     29  C   UNL A   1      43.421  23.638  25.071  1.00  0.00     0.338 C 
ATOM     30  O   UNL A   1      42.789  22.653  24.718  1.00  0.00    -0.246 OA
BRANCH  29  31
ATOM     31  C   UNL A   1      42.927  24.626  26.047  1.00  0.00     0.060 A 
ATOM     32  C   UNL A   1      43.396  25.946  25.979  1.00  0.00     0.016 A 
ATOM     33  C   UNL A   1      42.004  24.251  27.023  1.00  0.00     0.016 A 
ATOM     34  C   UNL A   1      42.940  26.896  26.893  1.00  0.00     0.010 A 
ATOM     35  C   UNL A   1      41.565  25.200  27.952  1.00  0.00     0.010 A 
ATOM     36  C   UNL A   1      42.041  26.523  27.901  1.00  0.00    -0.014 A 
BRANCH  36  37
ATOM     37  C   UNL A   1      41.694  27.472  28.987  1.00  0.00     0.031 A 
ATOM     38  C   UNL A   1      42.463  27.411  30.276  1.00  0.00     0.074 A 
ATOM     39  C   UNL A   1      40.695  28.360  28.839  1.00  0.00     0.049 A 
ATOM     40  N   UNL A   1      42.269  28.066  31.391  1.00  0.00    -0.248 NA
ATOM     41  C   UNL A   1      43.601  26.479  30.311  1.00  0.00     0.031 C 
ATOM     42  C   UNL A   1      39.895  28.539  27.631  1.00  0.00     0.029 A 
ATOM     43  N   UNL A   1      40.168  29.262  29.732  1.00  0.00    -0.354 N 
ATOM     44  C   UNL A   1      43.250  27.617  32.267  1.00  0.00     0.074 A 
ATOM     45  C   UNL A   1      44.021  26.617  31.559  1.00  0.00     0.031 C 
ATOM     46  C   UNL A   1      38.958  29.474  27.865  1.00  0.00     0.029 A 
ATOM     47  C   UNL A   1      39.069  29.929  29.251  1.00  0.00     0.049 A 
ATOM     48  H   UNL A   1      40.543  29.414  30.629  1.00  0.00     0.167 HD
ATOM     49  C   UNL A   1      43.488  28.007  33.542  1.00  0.00     0.037 A 
ATOM     50  C   UNL A   1      38.226  30.779  29.870  1.00  0.00     0.037 A 
ATOM     51  C   UNL A   1      42.713  28.994  34.246  1.00  0.00     0.049 A 
ATOM     52  C   UNL A   1      38.461  31.141  31.315  1.00  0.00     0.074 A 
ATOM     53  C   UNL A   1      42.895  29.478  35.528  1.00  0.00     0.029 A 
ATOM     54  N   UNL A   1      41.597  29.636  33.730  1.00  0.00    -0.354 N 
ATOM     55  N   UNL A   1      39.415  30.742  32.123  1.00  0.00    -0.248 NA
ATOM     56  C   UNL A   1      37.503  32.068  31.933  1.00  0.00     0.031 C 
ATOM     57  C   UNL A   1      41.852  30.366  35.813  1.00  0.00     0.029 A 
ATOM     58  C   UNL A   1      41.056  30.484  34.684  1.00  0.00     0.049 A 
ATOM     59  H   UNL A   1      41.240  29.508  32.822  1.00  0.00     0.167 HD
ATOM     60  C   UNL A   1      39.186  31.387  33.332  1.00  0.00     0.074 A 
ATOM     61  C   UNL A   1      38.012  32.214  33.149  1.00  0.00     0.031 C 
ATOM     62  C   UNL A   1      39.886  31.303  34.491  1.00  0.00     0.037 A 
BRANCH  49  63
ATOM     63  C   UNL A   1      44.612  27.328  34.270  1.00  0.00     0.057 A 
ATOM     64  C   UNL A   1      45.915  27.844  34.275  1.00  0.00     0.134 A 
ATOM     65  C   UNL A   1      44.383  26.150  34.992  1.00  0.00     0.134 A 
ATOM     66  F   UNL A   1      46.207  28.962  33.593  1.00  0.00    -0.206 F 
ATOM     67  C   UNL A   1      46.955  27.196  34.946  1.00  0.00     0.040 A 
ATOM     68  C   UNL A   1      45.407  25.510  35.691  1.00  0.00     0.040 A 
ATOM     69  F   UNL A   1      43.158  25.604  35.034  1.00  0.00    -0.206 F 
ATOM     70  C   UNL A   1      46.700  26.028  35.661  1.00  0.00     0.006 A 
ENDBRANCH  49  63
BRANCH  50  71
ATOM     71  C   UNL A   1      37.056  31.327  29.136  1.00  0.00     0.057 A 
ATOM     72  C   UNL A   1      37.050  32.637  28.645  1.00  0.00     0.134 A 
ATOM     73  C   UNL A   1      35.907  30.554  28.922  1.00  0.00     0.134 A 
ATOM     74  F   UNL A   1      38.110  33.435  28.842  1.00  0.00    -0.206 F 
ATOM     75  C   UNL A   1      35.943  33.164  27.979  1.00  0.00     0.040 A 
ATOM     76  C   UNL A   1      34.803  31.059  28.233  1.00  0.00     0.040 A 
ATOM     77  F   UNL A   1      35.846  29.291  29.369  1.00  0.00    -0.206 F 
ATOM     78  C   UNL A   1      34.816  32.371  27.766  1.00  0.00     0.006 A 
ENDBRANCH  50  71
BRANCH  62  79
ATOM     79  C   UNL A   1      39.424  32.147  35.646  1.00  0.00     0.057 A 
ATOM     80  C   UNL A   1      39.889  33.453  35.845  1.00  0.00     0.134 A 
ATOM     81  C   UNL A   1      38.460  31.663  36.541  1.00  0.00     0.134 A 
ATOM     82  F   UNL A   1      40.820  33.974  35.032  1.00  0.00    -0.206 F 
ATOM     83  C   UNL A   1      39.426  34.240  36.901  1.00  0.00     0.040 A 
ATOM     84  C   UNL A   1      37.968  32.450  37.584  1.00  0.00     0.040 A 
ATOM     85  F   UNL A   1      37.963  30.424  36.404  1.00  0.00    -0.206 F 
ATOM     86  C   UNL A   1      38.456  33.742  37.769  1.00  0.00     0.006 A 
ENDBRANCH  62  79
ENDBRANCH  36  37
ENDBRANCH  29  31
ENDBRANCH  28  29
ENDBRANCH  27  28
ENDBRANCH  26  27
ENDBRANCH  25  26
ENDBRANCH   1  25
TORSDOF 18
ENDMDL
MODEL 3
REMARK VINA RESULT:     -10.8      1.130      2.285
REMARK SMILES Cc1cc(-c2cc(C(=O)OCCOCCOCCOC(=O)c3ccc(-c4c5nc(c(-c6c(F)cccc6F)c6ccc([nH]6)c(-c6c(F)cccc6F)c6nc(c(-c7c(F)cccc7F)c7ccc4[nH]7)C=C6)C=C5)cc3)c[nH]c2=O)ccc1Cl
REMARK SMILES IDX 15 1 14 2 13 3 12 4 11 5 10 6 8 7 9 8 7 9 5 10 6 11 78 12
REMARK SMILES IDX 77 13 79 14 76 15 4 17 1 18 2 19 3 20 82 21 81 22 83 23
REMARK SMILES IDX 80 24 16 25 17 26 18 27 19 28 20 29 21 30 22 31 23 32 75 33
REMARK SMILES IDX 24 34 74 35 25 36 26 37 27 38 68 39 28 40 73 41 67 42 69 43
REMARK SMILES IDX 29 44 72 45 66 46 65 47 30 49 56 50 39 51 55 52 40 53 43 54
REMARK SMILES IDX 54 55 70 56 41 57 42 58 53 60 71 61 44 62 31 63 32 64 37 65
REMARK SMILES IDX 33 66 34 67 36 68 38 69 35 70 57 71 58 72 63 73 59 74 60 75
REMARK SMILES IDX 62 76 64 77 61 78 45 79 46 80 51 81 47 82 48 83 50 84 52 85
REMARK SMILES IDX 49 86
REMARK H PARENT 77 16 69 48 43 59
REMARK Flexibility Score: inf
ROOT
ATOM      1  C   UNL A   1      40.316  21.457  25.771  1.00  0.00     0.188 C 
ENDROOT
BRANCH   1   2
ATOM      2  C   UNL A   1      38.905  21.858  26.252  1.00  0.00     0.188 C 
BRANCH   2   3
ATOM      3  O   UNL A   1      38.333  23.098  25.863  1.00  0.00    -0.376 OA
BRANCH   3   4
ATOM      4  C   UNL A   1      36.981  23.162  25.431  1.00  0.00     0.202 C 
BRANCH   4   5
ATOM      5  C   UNL A   1      36.564  22.595  24.065  1.00  0.00     0.261 C 
BRANCH   5   6
ATOM      6  O   UNL A   1      35.152  22.600  23.805  1.00  0.00    -0.460 OA
BRANCH   6   7
ATOM      7  C   UNL A   1      34.416  21.709  24.519  1.00  0.00     0.339 C 
ATOM      8  O   UNL A   1      34.694  20.537  24.724  1.00  0.00    -0.246 OA
BRANCH   7   9
ATOM      9  C   UNL A   1      33.286  22.407  25.185  1.00  0.00     0.077 A 
ATOM     10  C   UNL A   1      32.122  24.449  25.868  1.00  0.00     0.048 A 
ATOM     11  C   UNL A   1      33.187  23.849  25.291  1.00  0.00     0.031 A 
ATOM     12  C   UNL A   1      31.072  23.566  26.501  1.00  0.00     0.255 A 
ATOM     13  N   UNL A   1      31.266  22.208  26.377  1.00  0.00    -0.328 N 
ATOM     14  O   UNL A   1      30.094  24.005  27.097  1.00  0.00    -0.269 OA
ATOM     15  C   UNL A   1      32.328  21.637  25.723  1.00  0.00     0.101 A 
ATOM     16  H   UNL A   1      30.600  21.608  26.784  1.00  0.00     0.169 HD
BRANCH  10  17
ATOM     17  C   UNL A   1      31.976  25.922  25.826  1.00  0.00    -0.012 A 
ATOM     18  C   UNL A   1      30.145  28.614  23.826  1.00  0.00     0.046 C 
ATOM     19  C   UNL A   1      31.043  27.968  24.843  1.00  0.00    -0.032 A 
ATOM     20  C   UNL A   1      31.131  26.562  24.907  1.00  0.00     0.014 A 
ATOM     21  C   UNL A   1      31.818  28.732  25.728  1.00  0.00     0.044 A 
ATOM     22  C   UNL A   1      32.663  28.110  26.646  1.00  0.00     0.021 A 
ATOM     23  Cl  UNL A   1      31.773  30.459  25.717  1.00  0.00    -0.084 Cl
ATOM     24  C   UNL A   1      32.746  26.719  26.689  1.00  0.00     0.010 A 
ENDBRANCH  10  17
ENDBRANCH   7   9
ENDBRANCH   6   7
ENDBRANCH   5   6
ENDBRANCH   4   5
ENDBRANCH   3   4
ENDBRANCH   2   3
ENDBRANCH   1   2
BRANCH   1  25
ATOM     25  O   UNL A   1      40.876  20.345  26.422  1.00  0.00    -0.376 OA
BRANCH  25  26
ATOM     26  C   UNL A   1      42.280  20.163  26.443  1.00  0.00     0.202 C 
BRANCH  26  27
ATOM     27  C   UNL A   1      43.321  21.083  25.768  1.00  0.00     0.261 C 
BRANCH  27  28
ATOM     28  O   UNL A   1      43.650  22.326  26.394  1.00  0.00    -0.460 OA
BRANCH  28  29
ATOM     29  C   UNL A   1      43.422  23.448  25.675  1.00  0.00     0.338 C 
ATOM     30  O   UNL A   1      43.475  23.576  24.460  1.00  0.00    -0.246 OA
BRANCH  29  31
ATOM     31  C   UNL A   1      42.923  24.490  26.591  1.00  0.00     0.060 A 
ATOM     32  C   UNL A   1      43.517  25.759  26.569  1.00  0.00     0.016 A 
ATOM     33  C   UNL A   1      41.873  24.212  27.467  1.00  0.00     0.016 A 
ATOM     34  C   UNL A   1      43.058  26.759  27.428  1.00  0.00     0.010 A 
ATOM     35  C   UNL A   1      41.430  25.209  28.342  1.00  0.00     0.010 A 
ATOM     36  C   UNL A   1      42.029  26.482  28.338  1.00  0.00    -0.014 A 
BRANCH  36  37
ATOM     37  C   UNL A   1      41.661  27.472  29.379  1.00  0.00     0.031 A 
ATOM     38  C   UNL A   1      42.395  27.452  30.690  1.00  0.00     0.074 A 
ATOM     39  C   UNL A   1      40.673  28.360  29.173  1.00  0.00     0.049 A 
ATOM     40  N   UNL A   1      42.176  28.149  31.775  1.00  0.00    -0.248 NA
ATOM     41  C   UNL A   1      43.524  26.515  30.789  1.00  0.00     0.031 C 
ATOM     42  C   UNL A   1      39.906  28.501  27.938  1.00  0.00     0.029 A 
ATOM     43  N   UNL A   1      40.130  29.298  30.018  1.00  0.00    -0.354 N 
ATOM     44  C   UNL A   1      43.130  27.726  32.692  1.00  0.00     0.074 A 
ATOM     45  C   UNL A   1      43.912  26.695  32.042  1.00  0.00     0.031 C 
ATOM     46  C   UNL A   1      38.971  29.451  28.113  1.00  0.00     0.029 A 
ATOM     47  C   UNL A   1      39.049  29.954  29.484  1.00  0.00     0.049 A 
ATOM     48  H   UNL A   1      40.482  29.480  30.918  1.00  0.00     0.167 HD
ATOM     49  C   UNL A   1      43.337  28.159  33.958  1.00  0.00     0.037 A 
ATOM     50  C   UNL A   1      38.196  30.832  30.049  1.00  0.00     0.037 A 
ATOM     51  C   UNL A   1      42.551  29.177  34.605  1.00  0.00     0.049 A 
ATOM     52  C   UNL A   1      38.396  31.244  31.486  1.00  0.00     0.074 A 
ATOM     53  C   UNL A   1      42.703  29.706  35.874  1.00  0.00     0.029 A 
ATOM     54  N   UNL A   1      41.454  29.807  34.037  1.00  0.00    -0.354 N 
ATOM     55  N   UNL A   1      39.324  30.869  32.333  1.00  0.00    -0.248 NA
ATOM     56  C   UNL A   1      37.429  32.200  32.044  1.00  0.00     0.031 C 
ATOM     57  C   UNL A   1      41.659  30.610  36.098  1.00  0.00     0.029 A 
ATOM     58  C   UNL A   1      40.895  30.692  34.945  1.00  0.00     0.049 A 
ATOM     59  H   UNL A   1      41.121  29.648  33.124  1.00  0.00     0.167 HD
ATOM     60  C   UNL A   1      39.068  31.559  33.512  1.00  0.00     0.074 A 
ATOM     61  C   UNL A   1      37.906  32.387  33.267  1.00  0.00     0.031 C 
ATOM     62  C   UNL A   1      39.737  31.512  34.692  1.00  0.00     0.037 A 
BRANCH  49  63
ATOM     63  C   UNL A   1      44.437  27.500  34.740  1.00  0.00     0.057 A 
ATOM     64  C   UNL A   1      45.744  28.003  34.755  1.00  0.00     0.134 A 
ATOM     65  C   UNL A   1      44.178  26.355  35.504  1.00  0.00     0.134 A 
ATOM     66  F   UNL A   1      46.064  29.089  34.035  1.00  0.00    -0.206 F 
ATOM     67  C   UNL A   1      46.761  27.372  35.477  1.00  0.00     0.040 A 
ATOM     68  C   UNL A   1      45.178  25.734  36.252  1.00  0.00     0.040 A 
ATOM     69  F   UNL A   1      42.946  25.823  35.539  1.00  0.00    -0.206 F 
ATOM     70  C   UNL A   1      46.477  26.237  36.233  1.00  0.00     0.006 A 
ENDBRANCH  49  63
BRANCH  50  71
ATOM     71  C   UNL A   1      37.050  31.361  29.265  1.00  0.00     0.057 A 
ATOM     72  C   UNL A   1      35.918  30.579  29.011  1.00  0.00     0.134 A 
ATOM     73  C   UNL A   1      37.067  32.659  28.740  1.00  0.00     0.134 A 
ATOM     74  F   UNL A   1      35.852  29.318  29.465  1.00  0.00    -0.206 F 
ATOM     75  C   UNL A   1      34.850  31.062  28.252  1.00  0.00     0.040 A 
ATOM     76  C   UNL A   1      35.995  33.165  28.002  1.00  0.00     0.040 A 
ATOM     77  F   UNL A   1      38.123  33.459  28.945  1.00  0.00    -0.206 F 
ATOM     78  C   UNL A   1      34.885  32.362  27.750  1.00  0.00     0.006 A 
ENDBRANCH  50  71
BRANCH  62  79
ATOM     79  C   UNL A   1      39.251  32.400  35.802  1.00  0.00     0.057 A 
ATOM     80  C   UNL A   1      38.322  31.959  36.754  1.00  0.00     0.134 A 
ATOM     81  C   UNL A   1      39.760  33.698  35.952  1.00  0.00     0.134 A 
ATOM     82  F   UNL A   1      37.786  30.733  36.664  1.00  0.00    -0.206 F 
ATOM     83  C   UNL A   1      37.905  32.782  37.802  1.00  0.00     0.040 A 
ATOM     84  C   UNL A   1      39.372  34.519  37.011  1.00  0.00     0.040 A 
ATOM     85  F   UNL A   1      40.660  34.181  35.082  1.00  0.00    -0.206 F 
ATOM     86  C   UNL A   1      38.436  34.063  37.938  1.00  0.00     0.006 A 
ENDBRANCH  62  79
ENDBRANCH  36  37
ENDBRANCH  29  31
ENDBRANCH  28  29
ENDBRANCH  27  28
ENDBRANCH  26  27
ENDBRANCH  25  26
ENDBRANCH   1  25
TORSDOF 18
ENDMDL
