MODEL 1
REMARK VINA RESULT:     -12.6      0.000      0.000
REMARK SMILES O=C(OCCOCCOCCOC(=O)c1ccc(-c2c3nc(c(-c4c(F)cccc4F)c4ccc([nH]4)c(-c4c(F)cccc4F)c4nc(c(-c5c(F)cccc5F)c5ccc2[nH]5)C=C4)C=C3)cc1)C1=Cc2c(Cl)cc(Cl)cc2O[C@@H]1C(F)(F)F
REMARK SMILES IDX 8 1 7 2 6 3 5 4 4 5 3 6 2 7 1 8 69 9 70 10 80 11 71 12 79 13
REMARK SMILES IDX 72 14 78 15 73 16 74 17 77 18 75 19 76 20 81 21 82 22 83 23
REMARK SMILES IDX 84 24 9 25 10 26 11 27 12 28 13 29 14 30 15 31 16 32 68 33
REMARK SMILES IDX 17 34 67 35 18 36 19 37 20 38 61 39 21 40 66 41 60 42 62 43
REMARK SMILES IDX 22 44 65 45 59 46 58 47 23 49 49 50 32 51 48 52 33 53 36 54
REMARK SMILES IDX 47 55 63 56 34 57 35 58 46 60 64 61 37 62 24 63 25 64 30 65
REMARK SMILES IDX 26 66 27 67 29 68 31 69 28 70 50 71 51 72 56 73 52 74 53 75
REMARK SMILES IDX 55 76 57 77 54 78 38 79 39 80 44 81 40 82 41 83 43 84 45 85
REMARK SMILES IDX 42 86
REMARK H PARENT 62 48 36 59
REMARK Flexibility Score: inf
ROOT
ATOM      1  C   UNL A   1      42.940  19.411  25.370  1.00  0.00     0.188 C 
ENDROOT
BRANCH   1   2
ATOM      2  C   UNL A   1      41.911  19.675  26.483  1.00  0.00     0.188 C 
BRANCH   2   3
ATOM      3  O   UNL A   1      40.476  19.899  26.200  1.00  0.00    -0.376 OA
BRANCH   3   4
ATOM      4  C   UNL A   1      39.625  21.366  26.126  1.00  0.00     0.202 C 
BRANCH   4   5
ATOM      5  C   UNL A   1      37.738  21.692  25.077  1.00  0.00     0.261 C 
BRANCH   5   6
ATOM      6  O   UNL A   1      36.957  23.002  25.029  1.00  0.00    -0.460 OA
BRANCH   6   7
ATOM      7  C   UNL A   1      36.166  23.085  23.949  1.00  0.00     0.338 C 
ATOM      8  O   UNL A   1      36.470  23.339  22.811  1.00  0.00    -0.246 OA
BRANCH   7   9
ATOM      9  C   UNL A   1      34.932  23.311  24.678  1.00  0.00     0.087 C 
ATOM     10  C   UNL A   1      34.723  24.680  25.155  1.00  0.00     0.029 C 
ATOM     11  C   UNL A   1      33.851  22.421  23.363  1.00  0.00     0.316 C 
ATOM     12  C   UNL A   1      33.590  25.863  24.378  1.00  0.00     0.036 A 
ATOM     13  O   UNL A   1      32.742  23.696  22.401  1.00  0.00    -0.475 OA
ATOM     14  C   UNL A   1      33.480  27.156  24.826  1.00  0.00     0.053 A 
ATOM     15  C   UNL A   1      32.637  25.426  22.996  1.00  0.00     0.130 A 
ATOM     16  Cl  UNL A   1      34.392  27.780  26.133  1.00  0.00    -0.083 Cl
ATOM     17  C   UNL A   1      32.560  27.968  24.137  1.00  0.00     0.042 A 
ATOM     18  C   UNL A   1      31.760  26.273  22.380  1.00  0.00     0.067 A 
ATOM     19  C   UNL A   1      31.747  27.545  22.999  1.00  0.00     0.046 A 
ATOM     20  Cl  UNL A   1      30.652  28.741  22.378  1.00  0.00    -0.084 Cl
BRANCH  11  21
ATOM     21  C   UNL A   1      33.453  21.142  24.346  1.00  0.00     0.430 C 
ATOM     22  F   UNL A   1      32.864  21.337  25.525  1.00  0.00    -0.167 F 
ATOM     23  F   UNL A   1      32.672  20.273  23.658  1.00  0.00    -0.167 F 
ATOM     24  F   UNL A   1      34.571  20.421  24.675  1.00  0.00    -0.167 F 
ENDBRANCH  11  21
ENDBRANCH   7   9
ENDBRANCH   6   7
ENDBRANCH   5   6
ENDBRANCH   4   5
ENDBRANCH   3   4
ENDBRANCH   2   3
ENDBRANCH   1   2
BRANCH   1  25
ATOM     25  O   UNL A   1      44.308  19.546  25.657  1.00  0.00    -0.376 OA
BRANCH  25  26
ATOM     26  C   UNL A   1      44.974  20.629  25.019  1.00  0.00     0.202 C 
BRANCH  26  27
ATOM     27  C   UNL A   1      45.262  21.893  25.844  1.00  0.00     0.261 C 
BRANCH  27  28
ATOM     28  O   UNL A   1      44.079  22.504  26.404  1.00  0.00    -0.460 OA
BRANCH  28  29
ATOM     29  C   UNL A   1      43.312  23.265  25.584  1.00  0.00     0.338 C 
ATOM     30  O   UNL A   1      43.007  23.036  24.427  1.00  0.00    -0.246 OA
BRANCH  29  31
ATOM     31  C   UNL A   1      42.771  24.405  26.353  1.00  0.00     0.060 A 
ATOM     32  C   UNL A   1      43.290  25.696  26.159  1.00  0.00     0.016 A 
ATOM     33  C   UNL A   1      41.764  24.181  27.291  1.00  0.00     0.016 A 
ATOM     34  C   UNL A   1      42.771  26.777  26.877  1.00  0.00     0.010 A 
ATOM     35  C   UNL A   1      41.286  25.250  28.048  1.00  0.00     0.010 A 
ATOM     36  C   UNL A   1      41.797  26.547  27.855  1.00  0.00    -0.014 A 
BRANCH  36  37
ATOM     37  C   UNL A   1      41.498  27.570  28.884  1.00  0.00     0.031 A 
ATOM     38  C   UNL A   1      42.258  27.480  30.174  1.00  0.00     0.074 A 
ATOM     39  C   UNL A   1      40.515  28.471  28.730  1.00  0.00     0.049 A 
ATOM     40  N   UNL A   1      42.061  28.102  31.306  1.00  0.00    -0.248 NA
ATOM     41  C   UNL A   1      43.380  26.528  30.193  1.00  0.00     0.031 C 
ATOM     42  C   UNL A   1      39.732  28.670  27.514  1.00  0.00     0.029 A 
ATOM     43  N   UNL A   1      39.984  29.362  29.629  1.00  0.00    -0.354 N 
ATOM     44  C   UNL A   1      43.018  27.600  32.176  1.00  0.00     0.074 A 
ATOM     45  C   UNL A   1      43.776  26.605  31.451  1.00  0.00     0.031 C 
ATOM     46  C   UNL A   1      38.791  29.600  27.755  1.00  0.00     0.029 A 
ATOM     47  C   UNL A   1      38.878  30.023  29.154  1.00  0.00     0.049 A 
ATOM     48  H   UNL A   1      40.359  29.512  30.527  1.00  0.00     0.167 HD
ATOM     49  C   UNL A   1      43.239  27.930  33.470  1.00  0.00     0.037 A 
ATOM     50  C   UNL A   1      38.014  30.839  29.791  1.00  0.00     0.037 A 
ATOM     51  C   UNL A   1      42.449  28.889  34.191  1.00  0.00     0.049 A 
ATOM     52  C   UNL A   1      38.228  31.146  31.253  1.00  0.00     0.074 A 
ATOM     53  C   UNL A   1      42.593  29.317  35.498  1.00  0.00     0.029 A 
ATOM     54  N   UNL A   1      41.342  29.546  33.672  1.00  0.00    -0.354 N 
ATOM     55  N   UNL A   1      39.156  30.699  32.066  1.00  0.00    -0.248 NA
ATOM     56  C   UNL A   1      37.274  32.070  31.887  1.00  0.00     0.031 C 
ATOM     57  C   UNL A   1      41.528  30.171  35.794  1.00  0.00     0.029 A 
ATOM     58  C   UNL A   1      40.771  30.349  34.645  1.00  0.00     0.049 A 
ATOM     59  H   UNL A   1      41.012  29.456  32.749  1.00  0.00     0.167 HD
ATOM     60  C   UNL A   1      38.923  31.313  33.292  1.00  0.00     0.074 A 
ATOM     61  C   UNL A   1      37.761  32.161  33.117  1.00  0.00     0.031 C 
ATOM     62  C   UNL A   1      39.617  31.194  34.452  1.00  0.00     0.037 A 
BRANCH  49  63
ATOM     63  C   UNL A   1      44.332  27.187  34.184  1.00  0.00     0.057 A 
ATOM     64  C   UNL A   1      45.670  27.604  34.149  1.00  0.00     0.134 A 
ATOM     65  C   UNL A   1      44.046  26.007  34.885  1.00  0.00     0.134 A 
ATOM     66  F   UNL A   1      46.020  28.715  33.482  1.00  0.00    -0.206 F 
ATOM     67  C   UNL A   1      46.688  26.848  34.733  1.00  0.00     0.040 A 
ATOM     68  C   UNL A   1      45.049  25.265  35.507  1.00  0.00     0.040 A 
ATOM     69  F   UNL A   1      42.788  25.549  34.965  1.00  0.00    -0.206 F 
ATOM     70  C   UNL A   1      46.378  25.675  35.418  1.00  0.00     0.006 A 
ENDBRANCH  49  63
BRANCH  50  71
ATOM     71  C   UNL A   1      36.858  31.404  29.049  1.00  0.00     0.057 A 
ATOM     72  C   UNL A   1      35.734  30.627  28.751  1.00  0.00     0.134 A 
ATOM     73  C   UNL A   1      36.838  32.745  28.641  1.00  0.00     0.134 A 
ATOM     74  F   UNL A   1      35.702  29.329  29.088  1.00  0.00    -0.206 F 
ATOM     75  C   UNL A   1      34.632  31.160  28.076  1.00  0.00     0.040 A 
ATOM     76  C   UNL A   1      35.734  33.298  27.990  1.00  0.00     0.040 A 
ATOM     77  F   UNL A   1      37.886  33.544  28.891  1.00  0.00    -0.206 F 
ATOM     78  C   UNL A   1      34.626  32.503  27.705  1.00  0.00     0.006 A 
ENDBRANCH  50  71
BRANCH  62  79
ATOM     79  C   UNL A   1      39.188  32.041  35.619  1.00  0.00     0.057 A 
ATOM     80  C   UNL A   1      38.330  31.566  36.618  1.00  0.00     0.134 A 
ATOM     81  C   UNL A   1      39.724  33.326  35.786  1.00  0.00     0.134 A 
ATOM     82  F   UNL A   1      37.776  30.348  36.518  1.00  0.00    -0.206 F 
ATOM     83  C   UNL A   1      38.009  32.344  37.734  1.00  0.00     0.040 A 
ATOM     84  C   UNL A   1      39.438  34.099  36.912  1.00  0.00     0.040 A 
ATOM     85  F   UNL A   1      40.564  33.839  34.874  1.00  0.00    -0.206 F 
ATOM     86  C   UNL A   1      38.574  33.609  37.889  1.00  0.00     0.006 A 
ENDBRANCH  62  79
ENDBRANCH  36  37
ENDBRANCH  29  31
ENDBRANCH  28  29
ENDBRANCH  27  28
ENDBRANCH  26  27
ENDBRANCH  25  26
ENDBRANCH   1  25
TORSDOF 18
ENDMDL
MODEL 2
REMARK VINA RESULT:     -12.2      4.192      9.351
REMARK SMILES O=C(OCCOCCOCCOC(=O)c1ccc(-c2c3nc(c(-c4c(F)cccc4F)c4ccc([nH]4)c(-c4c(F)cccc4F)c4nc(c(-c5c(F)cccc5F)c5ccc2[nH]5)C=C4)C=C3)cc1)C1=Cc2c(Cl)cc(Cl)cc2O[C@@H]1C(F)(F)F
REMARK SMILES IDX 8 1 7 2 6 3 5 4 4 5 3 6 2 7 1 8 69 9 70 10 80 11 71 12 79 13
REMARK SMILES IDX 72 14 78 15 73 16 74 17 77 18 75 19 76 20 81 21 82 22 83 23
REMARK SMILES IDX 84 24 9 25 10 26 11 27 12 28 13 29 14 30 15 31 16 32 68 33
REMARK SMILES IDX 17 34 67 35 18 36 19 37 20 38 61 39 21 40 66 41 60 42 62 43
REMARK SMILES IDX 22 44 65 45 59 46 58 47 23 49 49 50 32 51 48 52 33 53 36 54
REMARK SMILES IDX 47 55 63 56 34 57 35 58 46 60 64 61 37 62 24 63 25 64 30 65
REMARK SMILES IDX 26 66 27 67 29 68 31 69 28 70 50 71 51 72 56 73 52 74 53 75
REMARK SMILES IDX 55 76 57 77 54 78 38 79 39 80 44 81 40 82 41 83 43 84 45 85
REMARK SMILES IDX 42 86
REMARK H PARENT 62 48 36 59
REMARK Flexibility Score: inf
ROOT
ATOM      1  C   UNL A   1      33.960  33.587  29.263  1.00  0.00     0.188 C 
ENDROOT
BRANCH   1   2
ATOM      2  C   UNL A   1      34.578  32.924  28.020  1.00  0.00     0.188 C 
BRANCH   2   3
ATOM      3  O   UNL A   1      34.609  31.456  27.838  1.00  0.00    -0.376 OA
BRANCH   3   4
ATOM      4  C   UNL A   1      33.399  30.436  27.222  1.00  0.00     0.202 C 
BRANCH   4   5
ATOM      5  C   UNL A   1      33.716  28.441  26.395  1.00  0.00     0.261 C 
BRANCH   5   6
ATOM      6  O   UNL A   1      32.960  27.831  25.217  1.00  0.00    -0.460 OA
BRANCH   6   7
ATOM      7  C   UNL A   1      32.605  26.557  25.443  1.00  0.00     0.338 C 
ATOM      8  O   UNL A   1      32.133  26.073  26.441  1.00  0.00    -0.246 OA
BRANCH   7   9
ATOM      9  C   UNL A   1      33.440  25.978  24.407  1.00  0.00     0.087 C 
ATOM     10  C   UNL A   1      34.544  25.139  24.881  1.00  0.00     0.029 C 
ATOM     11  C   UNL A   1      31.941  25.356  23.379  1.00  0.00     0.316 C 
ATOM     12  C   UNL A   1      34.537  23.327  24.827  1.00  0.00     0.036 A 
ATOM     13  O   UNL A   1      31.817  23.417  23.440  1.00  0.00    -0.475 OA
ATOM     14  C   UNL A   1      35.570  22.587  25.344  1.00  0.00     0.053 A 
ATOM     15  C   UNL A   1      33.193  22.449  24.168  1.00  0.00     0.130 A 
ATOM     16  Cl  UNL A   1      36.944  23.282  26.092  1.00  0.00    -0.083 Cl
ATOM     17  C   UNL A   1      35.441  21.190  25.232  1.00  0.00     0.042 A 
ATOM     18  C   UNL A   1      33.141  21.087  24.091  1.00  0.00     0.067 A 
ATOM     19  C   UNL A   1      34.306  20.493  24.632  1.00  0.00     0.046 A 
ATOM     20  Cl  UNL A   1      34.437  18.762  24.576  1.00  0.00    -0.084 Cl
BRANCH  11  21
ATOM     21  C   UNL A   1      32.192  26.401  22.112  1.00  0.00     0.430 C 
ATOM     22  F   UNL A   1      31.964  27.708  22.243  1.00  0.00    -0.167 F 
ATOM     23  F   UNL A   1      33.466  26.270  21.668  1.00  0.00    -0.167 F 
ATOM     24  F   UNL A   1      31.411  26.057  21.040  1.00  0.00    -0.167 F 
ENDBRANCH  11  21
ENDBRANCH   7   9
ENDBRANCH   6   7
ENDBRANCH   5   6
ENDBRANCH   4   5
ENDBRANCH   3   4
ENDBRANCH   2   3
ENDBRANCH   1   2
BRANCH   1  25
ATOM     25  O   UNL A   1      32.911  34.507  29.097  1.00  0.00    -0.376 OA
BRANCH  25  26
ATOM     26  C   UNL A   1      33.296  35.862  28.911  1.00  0.00     0.202 C 
BRANCH  26  27
ATOM     27  C   UNL A   1      32.930  36.879  30.004  1.00  0.00     0.261 C 
BRANCH  27  28
ATOM     28  O   UNL A   1      32.142  36.319  31.078  1.00  0.00    -0.460 OA
BRANCH  28  29
ATOM     29  C   UNL A   1      32.660  36.364  32.331  1.00  0.00     0.338 C 
ATOM     30  O   UNL A   1      32.285  37.047  33.267  1.00  0.00    -0.246 OA
BRANCH  29  31
ATOM     31  C   UNL A   1      33.715  35.335  32.451  1.00  0.00     0.060 A 
ATOM     32  C   UNL A   1      33.392  34.045  32.905  1.00  0.00     0.016 A 
ATOM     33  C   UNL A   1      35.032  35.665  32.136  1.00  0.00     0.016 A 
ATOM     34  C   UNL A   1      34.387  33.068  33.008  1.00  0.00     0.010 A 
ATOM     35  C   UNL A   1      36.032  34.707  32.292  1.00  0.00     0.010 A 
ATOM     36  C   UNL A   1      35.717  33.412  32.742  1.00  0.00    -0.014 A 
BRANCH  36  37
ATOM     37  C   UNL A   1      36.830  32.545  33.193  1.00  0.00     0.031 A 
ATOM     38  C   UNL A   1      37.473  32.890  34.504  1.00  0.00     0.074 A 
ATOM     39  C   UNL A   1      37.327  31.562  32.424  1.00  0.00     0.049 A 
ATOM     40  N   UNL A   1      38.578  32.440  35.037  1.00  0.00    -0.248 NA
ATOM     41  C   UNL A   1      36.782  33.909  35.308  1.00  0.00     0.031 C 
ATOM     42  C   UNL A   1      36.768  31.120  31.151  1.00  0.00     0.029 A 
ATOM     43  N   UNL A   1      38.447  30.789  32.594  1.00  0.00    -0.354 N 
ATOM     44  C   UNL A   1      38.726  33.140  36.227  1.00  0.00     0.074 A 
ATOM     45  C   UNL A   1      37.615  34.059  36.324  1.00  0.00     0.031 C 
ATOM     46  C   UNL A   1      37.572  30.175  30.632  1.00  0.00     0.029 A 
ATOM     47  C   UNL A   1      38.724  29.985  31.516  1.00  0.00     0.049 A 
ATOM     48  H   UNL A   1      39.000  30.809  33.410  1.00  0.00     0.167 HD
ATOM     49  C   UNL A   1      39.707  33.033  37.152  1.00  0.00     0.037 A 
ATOM     50  C   UNL A   1      39.803  29.220  31.258  1.00  0.00     0.037 A 
ATOM     51  C   UNL A   1      40.830  32.146  37.021  1.00  0.00     0.049 A 
ATOM     52  C   UNL A   1      40.927  29.161  32.264  1.00  0.00     0.074 A 
ATOM     53  C   UNL A   1      41.873  31.940  37.904  1.00  0.00     0.029 A 
ATOM     54  N   UNL A   1      41.070  31.338  35.917  1.00  0.00    -0.354 N 
ATOM     55  N   UNL A   1      41.048  29.795  33.406  1.00  0.00    -0.248 NA
ATOM     56  C   UNL A   1      42.063  28.284  31.945  1.00  0.00     0.031 C 
ATOM     57  C   UNL A   1      42.785  31.069  37.301  1.00  0.00     0.029 A 
ATOM     58  C   UNL A   1      42.265  30.659  36.081  1.00  0.00     0.049 A 
ATOM     59  H   UNL A   1      40.477  31.259  35.135  1.00  0.00     0.167 HD
ATOM     60  C   UNL A   1      42.251  29.367  33.960  1.00  0.00     0.074 A 
ATOM     61  C   UNL A   1      42.824  28.421  33.023  1.00  0.00     0.031 C 
ATOM     62  C   UNL A   1      42.820  29.715  35.141  1.00  0.00     0.037 A 
BRANCH  49  63
ATOM     63  C   UNL A   1      39.629  33.955  38.335  1.00  0.00     0.057 A 
ATOM     64  C   UNL A   1      38.945  33.611  39.511  1.00  0.00     0.134 A 
ATOM     65  C   UNL A   1      40.213  35.228  38.283  1.00  0.00     0.134 A 
ATOM     66  F   UNL A   1      38.346  32.415  39.624  1.00  0.00    -0.206 F 
ATOM     67  C   UNL A   1      38.795  34.517  40.562  1.00  0.00     0.040 A 
ATOM     68  C   UNL A   1      40.106  36.126  39.344  1.00  0.00     0.040 A 
ATOM     69  F   UNL A   1      40.888  35.624  37.193  1.00  0.00    -0.206 F 
ATOM     70  C   UNL A   1      39.380  35.779  40.481  1.00  0.00     0.006 A 
ENDBRANCH  49  63
BRANCH  50  71
ATOM     71  C   UNL A   1      39.877  28.464  29.981  1.00  0.00     0.057 A 
ATOM     72  C   UNL A   1      39.252  27.221  29.834  1.00  0.00     0.134 A 
ATOM     73  C   UNL A   1      40.553  28.979  28.866  1.00  0.00     0.134 A 
ATOM     74  F   UNL A   1      38.612  26.660  30.870  1.00  0.00    -0.206 F 
ATOM     75  C   UNL A   1      39.295  26.517  28.626  1.00  0.00     0.040 A 
ATOM     76  C   UNL A   1      40.582  28.299  27.647  1.00  0.00     0.040 A 
ATOM     77  F   UNL A   1      41.177  30.164  28.941  1.00  0.00    -0.206 F 
ATOM     78  C   UNL A   1      39.952  27.063  27.526  1.00  0.00     0.006 A 
ENDBRANCH  50  71
BRANCH  62  79
ATOM     79  C   UNL A   1      44.102  29.033  35.533  1.00  0.00     0.057 A 
ATOM     80  C   UNL A   1      44.126  27.858  36.293  1.00  0.00     0.134 A 
ATOM     81  C   UNL A   1      45.328  29.520  35.058  1.00  0.00     0.134 A 
ATOM     82  F   UNL A   1      42.990  27.341  36.785  1.00  0.00    -0.206 F 
ATOM     83  C   UNL A   1      45.325  27.199  36.578  1.00  0.00     0.040 A 
ATOM     84  C   UNL A   1      46.528  28.853  35.308  1.00  0.00     0.040 A 
ATOM     85  F   UNL A   1      45.376  30.634  34.312  1.00  0.00    -0.206 F 
ATOM     86  C   UNL A   1      46.529  27.690  36.074  1.00  0.00     0.006 A 
ENDBRANCH  62  79
ENDBRANCH  36  37
ENDBRANCH  29  31
ENDBRANCH  28  29
ENDBRANCH  27  28
ENDBRANCH  26  27
ENDBRANCH  25  26
ENDBRANCH   1  25
TORSDOF 18
ENDMDL
MODEL 3
REMARK VINA RESULT:     -12.0      4.427      8.564
REMARK SMILES O=C(OCCOCCOCCOC(=O)c1ccc(-c2c3nc(c(-c4c(F)cccc4F)c4ccc([nH]4)c(-c4c(F)cccc4F)c4nc(c(-c5c(F)cccc5F)c5ccc2[nH]5)C=C4)C=C3)cc1)C1=Cc2c(Cl)cc(Cl)cc2O[C@@H]1C(F)(F)F
REMARK SMILES IDX 8 1 7 2 6 3 5 4 4 5 3 6 2 7 1 8 69 9 70 10 80 11 71 12 79 13
REMARK SMILES IDX 72 14 78 15 73 16 74 17 77 18 75 19 76 20 81 21 82 22 83 23
REMARK SMILES IDX 84 24 9 25 10 26 11 27 12 28 13 29 14 30 15 31 16 32 68 33
REMARK SMILES IDX 17 34 67 35 18 36 19 37 20 38 61 39 21 40 66 41 60 42 62 43
REMARK SMILES IDX 22 44 65 45 59 46 58 47 23 49 49 50 32 51 48 52 33 53 36 54
REMARK SMILES IDX 47 55 63 56 34 57 35 58 46 60 64 61 37 62 24 63 25 64 30 65
REMARK SMILES IDX 26 66 27 67 29 68 31 69 28 70 50 71 51 72 56 73 52 74 53 75
REMARK SMILES IDX 55 76 57 77 54 78 38 79 39 80 44 81 40 82 41 83 43 84 45 85
REMARK SMILES IDX 42 86
REMARK H PARENT 62 48 36 59
REMARK Flexibility Score: inf
ROOT
ATOM      1  C   UNL A   1      36.099  22.305  25.758  1.00  0.00     0.188 C 
ENDROOT
BRANCH   1   2
ATOM      2  C   UNL A   1      34.794  21.531  26.012  1.00  0.00     0.188 C 
BRANCH   2   3
ATOM      3  O   UNL A   1      33.599  21.688  25.154  1.00  0.00    -0.376 OA
BRANCH   3   4
ATOM      4  C   UNL A   1      32.046  22.223  25.585  1.00  0.00     0.202 C 
BRANCH   4   5
ATOM      5  C   UNL A   1      31.589  24.060  26.671  1.00  0.00     0.261 C 
BRANCH   5   6
ATOM      6  O   UNL A   1      30.527  25.087  26.284  1.00  0.00    -0.460 OA
BRANCH   6   7
ATOM      7  C   UNL A   1      31.058  26.182  25.719  1.00  0.00     0.338 C 
ATOM      8  O   UNL A   1      31.458  27.185  26.255  1.00  0.00    -0.246 OA
BRANCH   7   9
ATOM      9  C   UNL A   1      30.491  25.967  24.402  1.00  0.00     0.087 C 
ATOM     10  C   UNL A   1      29.151  26.521  24.193  1.00  0.00     0.029 C 
ATOM     11  C   UNL A   1      32.081  26.547  23.492  1.00  0.00     0.316 C 
ATOM     12  C   UNL A   1      28.814  28.036  23.257  1.00  0.00     0.036 A 
ATOM     13  O   UNL A   1      31.791  28.257  22.613  1.00  0.00    -0.475 OA
ATOM     14  C   UNL A   1      27.545  28.547  23.146  1.00  0.00     0.053 A 
ATOM     15  C   UNL A   1      30.093  28.939  22.508  1.00  0.00     0.130 A 
ATOM     16  Cl  UNL A   1      26.173  27.828  23.876  1.00  0.00    -0.083 Cl
ATOM     17  C   UNL A   1      27.422  29.726  22.387  1.00  0.00     0.042 A 
ATOM     18  C   UNL A   1      29.894  30.078  21.782  1.00  0.00     0.067 A 
ATOM     19  C   UNL A   1      28.524  30.432  21.740  1.00  0.00     0.046 A 
ATOM     20  Cl  UNL A   1      28.075  31.834  20.818  1.00  0.00    -0.084 Cl
BRANCH  11  21
ATOM     21  C   UNL A   1      32.452  25.048  22.881  1.00  0.00     0.430 C 
ATOM     22  F   UNL A   1      33.388  24.286  23.447  1.00  0.00    -0.167 F 
ATOM     23  F   UNL A   1      31.325  24.298  22.818  1.00  0.00    -0.167 F 
ATOM     24  F   UNL A   1      32.880  25.147  21.583  1.00  0.00    -0.167 F 
ENDBRANCH  11  21
ENDBRANCH   7   9
ENDBRANCH   6   7
ENDBRANCH   5   6
ENDBRANCH   4   5
ENDBRANCH   3   4
ENDBRANCH   2   3
ENDBRANCH   1   2
BRANCH   1  25
ATOM     25  O   UNL A   1      37.073  21.745  24.915  1.00  0.00    -0.376 OA
BRANCH  25  26
ATOM     26  C   UNL A   1      37.087  20.325  24.838  1.00  0.00     0.202 C 
BRANCH  26  27
ATOM     27  C   UNL A   1      38.364  19.585  25.266  1.00  0.00     0.261 C 
BRANCH  27  28
ATOM     28  O   UNL A   1      39.332  20.432  25.926  1.00  0.00    -0.460 OA
BRANCH  28  29
ATOM     29  C   UNL A   1      40.600  19.966  26.046  1.00  0.00     0.338 C 
ATOM     30  O   UNL A   1      41.018  18.861  25.751  1.00  0.00    -0.246 OA
BRANCH  29  31
ATOM     31  C   UNL A   1      41.476  21.070  26.492  1.00  0.00     0.060 A 
ATOM     32  C   UNL A   1      41.708  21.276  27.862  1.00  0.00     0.016 A 
ATOM     33  C   UNL A   1      42.044  21.919  25.543  1.00  0.00     0.016 A 
ATOM     34  C   UNL A   1      42.546  22.312  28.285  1.00  0.00     0.010 A 
ATOM     35  C   UNL A   1      42.834  22.986  25.967  1.00  0.00     0.010 A 
ATOM     36  C   UNL A   1      43.075  23.196  27.338  1.00  0.00    -0.014 A 
BRANCH  36  37
ATOM     37  C   UNL A   1      43.639  24.502  27.750  1.00  0.00     0.031 A 
ATOM     38  C   UNL A   1      42.664  25.569  28.150  1.00  0.00     0.074 A 
ATOM     39  C   UNL A   1      44.952  24.772  27.666  1.00  0.00     0.049 A 
ATOM     40  N   UNL A   1      42.857  26.844  28.355  1.00  0.00    -0.248 NA
ATOM     41  C   UNL A   1      41.267  25.134  28.310  1.00  0.00     0.031 C 
ATOM     42  C   UNL A   1      45.993  23.809  27.319  1.00  0.00     0.029 A 
ATOM     43  N   UNL A   1      45.622  25.958  27.829  1.00  0.00    -0.354 N 
ATOM     44  C   UNL A   1      41.604  27.367  28.645  1.00  0.00     0.074 A 
ATOM     45  C   UNL A   1      40.657  26.278  28.563  1.00  0.00     0.031 C 
ATOM     46  C   UNL A   1      47.172  24.453  27.257  1.00  0.00     0.029 A 
ATOM     47  C   UNL A   1      46.956  25.878  27.513  1.00  0.00     0.049 A 
ATOM     48  H   UNL A   1      45.189  26.786  28.142  1.00  0.00     0.167 HD
ATOM     49  C   UNL A   1      41.270  28.644  28.942  1.00  0.00     0.037 A 
ATOM     50  C   UNL A   1      47.882  26.852  27.402  1.00  0.00     0.037 A 
ATOM     51  C   UNL A   1      42.216  29.726  28.976  1.00  0.00     0.049 A 
ATOM     52  C   UNL A   1      47.484  28.284  27.666  1.00  0.00     0.074 A 
ATOM     53  C   UNL A   1      41.995  31.055  29.283  1.00  0.00     0.029 A 
ATOM     54  N   UNL A   1      43.563  29.603  28.660  1.00  0.00    -0.354 N 
ATOM     55  N   UNL A   1      46.307  28.773  27.976  1.00  0.00    -0.248 NA
ATOM     56  C   UNL A   1      48.543  29.300  27.563  1.00  0.00     0.031 C 
ATOM     57  C   UNL A   1      43.189  31.752  29.075  1.00  0.00     0.029 A 
ATOM     58  C   UNL A   1      44.177  30.842  28.728  1.00  0.00     0.049 A 
ATOM     59  H   UNL A   1      44.014  28.761  28.423  1.00  0.00     0.167 HD
ATOM     60  C   UNL A   1      46.488  30.142  28.143  1.00  0.00     0.074 A 
ATOM     61  C   UNL A   1      47.891  30.407  27.894  1.00  0.00     0.031 C 
ATOM     62  C   UNL A   1      45.579  31.088  28.484  1.00  0.00     0.037 A 
BRANCH  49  63
ATOM     63  C   UNL A   1      39.814  28.930  29.175  1.00  0.00     0.057 A 
ATOM     64  C   UNL A   1      39.230  28.860  30.449  1.00  0.00     0.134 A 
ATOM     65  C   UNL A   1      38.971  29.239  28.100  1.00  0.00     0.134 A 
ATOM     66  F   UNL A   1      39.975  28.552  31.522  1.00  0.00    -0.206 F 
ATOM     67  C   UNL A   1      37.857  29.028  30.634  1.00  0.00     0.040 A 
ATOM     68  C   UNL A   1      37.604  29.450  28.279  1.00  0.00     0.040 A 
ATOM     69  F   UNL A   1      39.460  29.328  26.853  1.00  0.00    -0.206 F 
ATOM     70  C   UNL A   1      37.040  29.328  29.546  1.00  0.00     0.006 A 
ENDBRANCH  49  63
BRANCH  50  71
ATOM     71  C   UNL A   1      49.269  26.502  27.003  1.00  0.00     0.057 A 
ATOM     72  C   UNL A   1      50.238  26.168  27.955  1.00  0.00     0.134 A 
ATOM     73  C   UNL A   1      49.654  26.469  25.656  1.00  0.00     0.134 A 
ATOM     74  F   UNL A   1      49.942  26.208  29.262  1.00  0.00    -0.206 F 
ATOM     75  C   UNL A   1      51.538  25.812  27.584  1.00  0.00     0.040 A 
ATOM     76  C   UNL A   1      50.941  26.090  25.269  1.00  0.00     0.040 A 
ATOM     77  F   UNL A   1      48.775  26.782  24.692  1.00  0.00    -0.206 F 
ATOM     78  C   UNL A   1      51.888  25.761  26.236  1.00  0.00     0.006 A 
ENDBRANCH  50  71
BRANCH  62  79
ATOM     79  C   UNL A   1      46.067  32.499  28.673  1.00  0.00     0.057 A 
ATOM     80  C   UNL A   1      46.576  32.960  29.892  1.00  0.00     0.134 A 
ATOM     81  C   UNL A   1      46.108  33.378  27.582  1.00  0.00     0.134 A 
ATOM     82  F   UNL A   1      46.561  32.175  30.979  1.00  0.00    -0.206 F 
ATOM     83  C   UNL A   1      47.097  34.251  30.022  1.00  0.00     0.040 A 
ATOM     84  C   UNL A   1      46.656  34.657  27.690  1.00  0.00     0.040 A 
ATOM     85  F   UNL A   1      45.649  32.996  26.380  1.00  0.00    -0.206 F 
ATOM     86  C   UNL A   1      47.150  35.097  28.916  1.00  0.00     0.006 A 
ENDBRANCH  62  79
ENDBRANCH  36  37
ENDBRANCH  29  31
ENDBRANCH  28  29
ENDBRANCH  27  28
ENDBRANCH  26  27
ENDBRANCH  25  26
ENDBRANCH   1  25
TORSDOF 18
ENDMDL
