MODEL 1
REMARK VINA RESULT:     -11.0      0.000      0.000
REMARK SMILES Cc1c(CC(=O)OCCOCCOCCOC(=O)c2ccc(-c3c4nc(c(-c5c(F)cccc5F)c5ccc([nH]5)c(-c5c(F)cccc5F)c5nc(c(-c6c(F)cccc6F)c6ccc3[nH]6)C=C5)C=C4)cc2)c2ccccc2n1C(=O)c1ccc(Cl)cc1
REMARK SMILES IDX 11 1 10 2 9 3 8 4 7 5 5 6 6 7 4 8 3 9 1 10 2 11 79 12 73 13
REMARK SMILES IDX 78 14 74 15 77 16 75 17 76 18 80 19 81 20 82 21 83 22 88 23
REMARK SMILES IDX 84 24 87 25 85 26 86 27 12 28 13 29 14 30 15 31 16 32 17 33
REMARK SMILES IDX 18 34 19 35 20 36 72 37 21 38 71 39 22 40 23 41 24 42 65 43
REMARK SMILES IDX 25 44 70 45 64 46 66 47 26 48 69 49 63 50 62 51 27 53 53 54
REMARK SMILES IDX 36 55 52 56 37 57 40 58 51 59 67 60 38 61 39 62 50 64 68 65
REMARK SMILES IDX 41 66 28 67 29 68 34 69 30 70 31 71 33 72 35 73 32 74 54 75
REMARK SMILES IDX 55 76 60 77 56 78 57 79 59 80 61 81 58 82 42 83 43 84 48 85
REMARK SMILES IDX 44 86 45 87 47 88 49 89 46 90
REMARK H PARENT 66 52 40 63
REMARK Flexibility Score: inf
ROOT
ATOM      1  C   UNL A   1      32.234  28.845  25.906  1.00  0.00     0.188 C 
ENDROOT
BRANCH   1   2
ATOM      2  O   UNL A   1      32.277  28.149  24.682  1.00  0.00    -0.376 OA
BRANCH   2   3
ATOM      3  C   UNL A   1      33.521  28.106  24.008  1.00  0.00     0.202 C 
BRANCH   3   4
ATOM      4  C   UNL A   1      33.453  28.056  22.477  1.00  0.00     0.261 C 
BRANCH   4   5
ATOM      5  O   UNL A   1      32.492  27.074  21.997  1.00  0.00    -0.463 OA
BRANCH   5   6
ATOM      6  C   UNL A   1      33.019  25.913  21.530  1.00  0.00     0.310 C 
ATOM      7  O   UNL A   1      32.901  25.579  20.350  1.00  0.00    -0.252 OA
BRANCH   6   8
ATOM      8  C   UNL A   1      33.985  25.169  22.453  1.00  0.00     0.160 C 
BRANCH   8   9
ATOM      9  C   UNL A   1      33.639  24.100  23.452  1.00  0.00    -0.008 A 
ATOM     10  C   UNL A   1      35.968  23.024  23.500  1.00  0.00     0.065 C 
ATOM     11  C   UNL A   1      34.556  23.187  23.956  1.00  0.00     0.028 A 
ATOM     12  N   UNL A   1      33.965  22.502  25.020  1.00  0.00    -0.280 N 
ATOM     13  C   UNL A   1      32.521  24.077  24.356  1.00  0.00     0.004 A 
ATOM     14  C   UNL A   1      32.804  23.194  25.387  1.00  0.00     0.056 A 
ATOM     15  C   UNL A   1      31.323  24.803  24.477  1.00  0.00     0.010 A 
ATOM     16  C   UNL A   1      31.960  23.137  26.533  1.00  0.00     0.027 A 
ATOM     17  C   UNL A   1      30.467  24.728  25.579  1.00  0.00     0.001 A 
ATOM     18  C   UNL A   1      30.800  23.903  26.620  1.00  0.00     0.002 A 
BRANCH  12  19
ATOM     19  C   UNL A   1      34.437  21.313  25.644  1.00  0.00     0.262 C 
ATOM     20  O   UNL A   1      35.148  21.370  26.614  1.00  0.00    -0.268 OA
BRANCH  19  21
ATOM     21  C   UNL A   1      34.068  19.987  25.095  1.00  0.00     0.040 A 
ATOM     22  C   UNL A   1      32.775  19.497  25.322  1.00  0.00     0.015 A 
ATOM     23  C   UNL A   1      35.092  19.160  24.625  1.00  0.00     0.015 A 
ATOM     24  C   UNL A   1      32.522  18.138  25.139  1.00  0.00     0.021 A 
ATOM     25  C   UNL A   1      34.832  17.798  24.458  1.00  0.00     0.021 A 
ATOM     26  C   UNL A   1      33.556  17.293  24.731  1.00  0.00     0.041 A 
ATOM     27  Cl  UNL A   1      33.279  15.597  24.643  1.00  0.00    -0.084 Cl
ENDBRANCH  19  21
ENDBRANCH  12  19
ENDBRANCH   8   9
ENDBRANCH   6   8
ENDBRANCH   5   6
ENDBRANCH   4   5
ENDBRANCH   3   4
ENDBRANCH   2   3
ENDBRANCH   1   2
BRANCH   1  28
ATOM     28  C   UNL A   1      33.189  30.022  26.146  1.00  0.00     0.188 C 
BRANCH  28  29
ATOM     29  O   UNL A   1      33.124  30.772  27.330  1.00  0.00    -0.376 OA
BRANCH  29  30
ATOM     30  C   UNL A   1      34.286  31.514  27.659  1.00  0.00     0.202 C 
BRANCH  30  31
ATOM     31  C   UNL A   1      34.117  32.959  28.201  1.00  0.00     0.261 C 
BRANCH  31  32
ATOM     32  O   UNL A   1      35.215  33.416  29.053  1.00  0.00    -0.460 OA
BRANCH  32  33
ATOM     33  C   UNL A   1      35.327  32.807  30.276  1.00  0.00     0.338 C 
ATOM     34  O   UNL A   1      34.405  32.664  31.067  1.00  0.00    -0.246 OA
BRANCH  33  35
ATOM     35  C   UNL A   1      36.571  31.956  30.359  1.00  0.00     0.060 A 
ATOM     36  C   UNL A   1      37.882  32.362  30.123  1.00  0.00     0.016 A 
ATOM     37  C   UNL A   1      36.344  30.585  30.525  1.00  0.00     0.016 A 
ATOM     38  C   UNL A   1      38.879  31.382  29.871  1.00  0.00     0.010 A 
ATOM     39  C   UNL A   1      37.315  29.613  30.257  1.00  0.00     0.010 A 
ATOM     40  C   UNL A   1      38.587  29.993  29.855  1.00  0.00    -0.014 A 
BRANCH  40  41
ATOM     41  C   UNL A   1      39.663  28.970  29.849  1.00  0.00     0.031 A 
ATOM     42  C   UNL A   1      40.098  28.729  31.224  1.00  0.00     0.074 A 
ATOM     43  C   UNL A   1      40.255  28.183  28.916  1.00  0.00     0.049 A 
ATOM     44  N   UNL A   1      41.002  29.439  31.799  1.00  0.00    -0.248 NA
ATOM     45  C   UNL A   1      39.349  27.834  32.105  1.00  0.00     0.031 C 
ATOM     46  C   UNL A   1      39.950  28.076  27.514  1.00  0.00     0.029 A 
ATOM     47  N   UNL A   1      41.309  27.301  29.024  1.00  0.00    -0.354 N 
ATOM     48  C   UNL A   1      41.137  28.894  33.050  1.00  0.00     0.074 A 
ATOM     49  C   UNL A   1      39.945  28.110  33.270  1.00  0.00     0.031 C 
ATOM     50  C   UNL A   1      40.593  27.046  26.919  1.00  0.00     0.029 A 
ATOM     51  C   UNL A   1      41.573  26.553  27.867  1.00  0.00     0.049 A 
ATOM     52  H   UNL A   1      41.835  27.203  29.851  1.00  0.00     0.167 HD
ATOM     53  C   UNL A   1      42.366  28.894  33.625  1.00  0.00     0.037 A 
ATOM     54  C   UNL A   1      42.639  25.761  27.564  1.00  0.00     0.037 A 
ATOM     55  C   UNL A   1      43.277  29.781  32.915  1.00  0.00     0.049 A 
ATOM     56  C   UNL A   1      43.774  26.248  28.376  1.00  0.00     0.074 A 
ATOM     57  C   UNL A   1      43.252  31.113  32.539  1.00  0.00     0.029 A 
ATOM     58  N   UNL A   1      44.238  29.203  32.117  1.00  0.00    -0.354 N 
ATOM     59  N   UNL A   1      44.381  27.382  28.167  1.00  0.00    -0.248 NA
ATOM     60  C   UNL A   1      43.935  25.683  29.701  1.00  0.00     0.031 C 
ATOM     61  C   UNL A   1      43.857  31.162  31.245  1.00  0.00     0.029 A 
ATOM     62  C   UNL A   1      44.279  29.873  30.920  1.00  0.00     0.049 A 
ATOM     63  H   UNL A   1      44.803  28.436  32.365  1.00  0.00     0.167 HD
ATOM     64  C   UNL A   1      44.576  27.901  29.437  1.00  0.00     0.074 A 
ATOM     65  C   UNL A   1      44.374  26.769  30.339  1.00  0.00     0.031 C 
ATOM     66  C   UNL A   1      44.605  29.250  29.653  1.00  0.00     0.037 A 
BRANCH  53  67
ATOM     67  C   UNL A   1      42.843  27.790  34.525  1.00  0.00     0.057 A 
ATOM     68  C   UNL A   1      42.860  27.841  35.936  1.00  0.00     0.134 A 
ATOM     69  C   UNL A   1      43.032  26.518  33.967  1.00  0.00     0.134 A 
ATOM     70  F   UNL A   1      42.618  28.957  36.630  1.00  0.00    -0.206 F 
ATOM     71  C   UNL A   1      43.025  26.707  36.730  1.00  0.00     0.040 A 
ATOM     72  C   UNL A   1      43.139  25.368  34.754  1.00  0.00     0.040 A 
ATOM     73  F   UNL A   1      43.026  26.343  32.637  1.00  0.00    -0.206 F 
ATOM     74  C   UNL A   1      43.129  25.461  36.140  1.00  0.00     0.006 A 
ENDBRANCH  53  67
BRANCH  54  75
ATOM     75  C   UNL A   1      42.737  24.539  26.725  1.00  0.00     0.057 A 
ATOM     76  C   UNL A   1      42.556  23.265  27.288  1.00  0.00     0.134 A 
ATOM     77  C   UNL A   1      43.304  24.559  25.438  1.00  0.00     0.134 A 
ATOM     78  F   UNL A   1      42.067  23.128  28.530  1.00  0.00    -0.206 F 
ATOM     79  C   UNL A   1      42.957  22.090  26.638  1.00  0.00     0.040 A 
ATOM     80  C   UNL A   1      43.710  23.388  24.776  1.00  0.00     0.040 A 
ATOM     81  F   UNL A   1      43.548  25.721  24.815  1.00  0.00    -0.206 F 
ATOM     82  C   UNL A   1      43.554  22.149  25.385  1.00  0.00     0.006 A 
ENDBRANCH  54  75
BRANCH  66  83
ATOM     83  C   UNL A   1      44.782  30.154  28.456  1.00  0.00     0.057 A 
ATOM     84  C   UNL A   1      46.073  30.605  28.149  1.00  0.00     0.134 A 
ATOM     85  C   UNL A   1      43.736  30.670  27.675  1.00  0.00     0.134 A 
ATOM     86  F   UNL A   1      47.124  30.188  28.873  1.00  0.00    -0.206 F 
ATOM     87  C   UNL A   1      46.318  31.518  27.119  1.00  0.00     0.040 A 
ATOM     88  C   UNL A   1      43.972  31.563  26.620  1.00  0.00     0.040 A 
ATOM     89  F   UNL A   1      42.459  30.367  27.936  1.00  0.00    -0.206 F 
ATOM     90  C   UNL A   1      45.266  31.994  26.343  1.00  0.00     0.006 A 
ENDBRANCH  66  83
ENDBRANCH  40  41
ENDBRANCH  33  35
ENDBRANCH  32  33
ENDBRANCH  31  32
ENDBRANCH  30  31
ENDBRANCH  29  30
ENDBRANCH  28  29
ENDBRANCH   1  28
TORSDOF 20
ENDMDL
MODEL 2
REMARK VINA RESULT:     -10.4      5.610     10.041
REMARK SMILES Cc1c(CC(=O)OCCOCCOCCOC(=O)c2ccc(-c3c4nc(c(-c5c(F)cccc5F)c5ccc([nH]5)c(-c5c(F)cccc5F)c5nc(c(-c6c(F)cccc6F)c6ccc3[nH]6)C=C5)C=C4)cc2)c2ccccc2n1C(=O)c1ccc(Cl)cc1
REMARK SMILES IDX 11 1 10 2 9 3 8 4 7 5 5 6 6 7 4 8 3 9 1 10 2 11 79 12 73 13
REMARK SMILES IDX 78 14 74 15 77 16 75 17 76 18 80 19 81 20 82 21 83 22 88 23
REMARK SMILES IDX 84 24 87 25 85 26 86 27 12 28 13 29 14 30 15 31 16 32 17 33
REMARK SMILES IDX 18 34 19 35 20 36 72 37 21 38 71 39 22 40 23 41 24 42 65 43
REMARK SMILES IDX 25 44 70 45 64 46 66 47 26 48 69 49 63 50 62 51 27 53 53 54
REMARK SMILES IDX 36 55 52 56 37 57 40 58 51 59 67 60 38 61 39 62 50 64 68 65
REMARK SMILES IDX 41 66 28 67 29 68 34 69 30 70 31 71 33 72 35 73 32 74 54 75
REMARK SMILES IDX 55 76 60 77 56 78 57 79 59 80 61 81 58 82 42 83 43 84 48 85
REMARK SMILES IDX 44 86 45 87 47 88 49 89 46 90
REMARK H PARENT 66 52 40 63
REMARK Flexibility Score: inf
ROOT
ATOM      1  C   UNL A   1      35.273  33.862  34.451  1.00  0.00     0.188 C 
ENDROOT
BRANCH   1   2
ATOM      2  O   UNL A   1      36.219  33.099  35.163  1.00  0.00    -0.376 OA
BRANCH   2   3
ATOM      3  C   UNL A   1      37.327  33.791  35.709  1.00  0.00     0.202 C 
BRANCH   3   4
ATOM      4  C   UNL A   1      38.699  33.422  35.131  1.00  0.00     0.261 C 
BRANCH   4   5
ATOM      5  O   UNL A   1      38.959  34.078  33.859  1.00  0.00    -0.463 OA
BRANCH   5   6
ATOM      6  C   UNL A   1      39.268  33.257  32.824  1.00  0.00     0.310 C 
ATOM      7  O   UNL A   1      39.130  32.036  32.903  1.00  0.00    -0.252 OA
BRANCH   6   8
ATOM      8  C   UNL A   1      39.540  33.918  31.472  1.00  0.00     0.160 C 
BRANCH   8   9
ATOM      9  C   UNL A   1      40.875  34.343  30.924  1.00  0.00    -0.008 A 
ATOM     10  C   UNL A   1      40.027  34.891  28.565  1.00  0.00     0.065 C 
ATOM     11  C   UNL A   1      41.063  34.835  29.640  1.00  0.00     0.028 A 
ATOM     12  N   UNL A   1      42.359  35.347  29.543  1.00  0.00    -0.280 N 
ATOM     13  C   UNL A   1      42.042  34.729  31.670  1.00  0.00     0.004 A 
ATOM     14  C   UNL A   1      42.874  35.466  30.839  1.00  0.00     0.056 A 
ATOM     15  C   UNL A   1      42.444  34.628  33.013  1.00  0.00     0.010 A 
ATOM     16  C   UNL A   1      43.999  36.152  31.379  1.00  0.00     0.027 A 
ATOM     17  C   UNL A   1      43.567  35.267  33.547  1.00  0.00     0.001 A 
ATOM     18  C   UNL A   1      44.337  36.048  32.726  1.00  0.00     0.002 A 
BRANCH  12  19
ATOM     19  C   UNL A   1      43.057  35.699  28.353  1.00  0.00     0.262 C 
ATOM     20  O   UNL A   1      43.523  34.849  27.640  1.00  0.00    -0.268 OA
BRANCH  19  21
ATOM     21  C   UNL A   1      43.231  37.124  27.987  1.00  0.00     0.040 A 
ATOM     22  C   UNL A   1      42.097  37.886  27.676  1.00  0.00     0.015 A 
ATOM     23  C   UNL A   1      44.521  37.575  27.690  1.00  0.00     0.015 A 
ATOM     24  C   UNL A   1      42.255  39.092  26.994  1.00  0.00     0.021 A 
ATOM     25  C   UNL A   1      44.667  38.777  26.994  1.00  0.00     0.021 A 
ATOM     26  C   UNL A   1      43.536  39.519  26.636  1.00  0.00     0.041 A 
ATOM     27  Cl  UNL A   1      43.718  40.932  25.672  1.00  0.00    -0.084 Cl
ENDBRANCH  19  21
ENDBRANCH  12  19
ENDBRANCH   8   9
ENDBRANCH   6   8
ENDBRANCH   5   6
ENDBRANCH   4   5
ENDBRANCH   3   4
ENDBRANCH   2   3
ENDBRANCH   1   2
BRANCH   1  28
ATOM     28  C   UNL A   1      35.748  34.950  33.480  1.00  0.00     0.188 C 
BRANCH  28  29
ATOM     29  O   UNL A   1      35.044  35.215  32.295  1.00  0.00    -0.376 OA
BRANCH  29  30
ATOM     30  C   UNL A   1      34.445  34.096  31.665  1.00  0.00     0.202 C 
BRANCH  30  31
ATOM     31  C   UNL A   1      34.426  34.036  30.114  1.00  0.00     0.261 C 
BRANCH  31  32
ATOM     32  O   UNL A   1      34.718  32.716  29.558  1.00  0.00    -0.460 OA
BRANCH  32  33
ATOM     33  C   UNL A   1      35.419  32.696  28.379  1.00  0.00     0.338 C 
ATOM     34  O   UNL A   1      35.475  33.629  27.591  1.00  0.00    -0.246 OA
BRANCH  33  35
ATOM     35  C   UNL A   1      36.449  31.593  28.365  1.00  0.00     0.060 A 
ATOM     36  C   UNL A   1      36.224  30.238  28.138  1.00  0.00     0.016 A 
ATOM     37  C   UNL A   1      37.728  31.969  28.792  1.00  0.00     0.016 A 
ATOM     38  C   UNL A   1      37.211  29.294  28.528  1.00  0.00     0.010 A 
ATOM     39  C   UNL A   1      38.698  31.044  29.198  1.00  0.00     0.010 A 
ATOM     40  C   UNL A   1      38.430  29.684  29.139  1.00  0.00    -0.014 A 
BRANCH  40  41
ATOM     41  C   UNL A   1      39.559  28.733  29.308  1.00  0.00     0.031 A 
ATOM     42  C   UNL A   1      39.788  28.518  30.736  1.00  0.00     0.074 A 
ATOM     43  C   UNL A   1      40.339  27.990  28.485  1.00  0.00     0.049 A 
ATOM     44  N   UNL A   1      40.543  29.283  31.440  1.00  0.00    -0.248 NA
ATOM     45  C   UNL A   1      38.970  27.573  31.496  1.00  0.00     0.031 C 
ATOM     46  C   UNL A   1      40.264  27.867  27.053  1.00  0.00     0.029 A 
ATOM     47  N   UNL A   1      41.419  27.178  28.763  1.00  0.00    -0.354 N 
ATOM     48  C   UNL A   1      40.516  28.745  32.701  1.00  0.00     0.074 A 
ATOM     49  C   UNL A   1      39.358  27.884  32.737  1.00  0.00     0.031 C 
ATOM     50  C   UNL A   1      41.059  26.883  26.574  1.00  0.00     0.029 A 
ATOM     51  C   UNL A   1      41.908  26.453  27.667  1.00  0.00     0.049 A 
ATOM     52  H   UNL A   1      41.814  27.112  29.662  1.00  0.00     0.167 HD
ATOM     53  C   UNL A   1      41.637  28.824  33.461  1.00  0.00     0.037 A 
ATOM     54  C   UNL A   1      43.058  25.734  27.540  1.00  0.00     0.037 A 
ATOM     55  C   UNL A   1      42.588  29.770  32.895  1.00  0.00     0.049 A 
ATOM     56  C   UNL A   1      44.017  26.291  28.516  1.00  0.00     0.074 A 
ATOM     57  C   UNL A   1      42.535  31.099  32.510  1.00  0.00     0.029 A 
ATOM     58  N   UNL A   1      43.698  29.259  32.261  1.00  0.00    -0.354 N 
ATOM     59  N   UNL A   1      44.575  27.463  28.396  1.00  0.00    -0.248 NA
ATOM     60  C   UNL A   1      44.006  25.734  29.853  1.00  0.00     0.031 C 
ATOM     61  C   UNL A   1      43.330  31.191  31.326  1.00  0.00     0.029 A 
ATOM     62  C   UNL A   1      43.881  29.934  31.080  1.00  0.00     0.049 A 
ATOM     63  H   UNL A   1      44.266  28.530  32.600  1.00  0.00     0.167 HD
ATOM     64  C   UNL A   1      44.534  27.990  29.676  1.00  0.00     0.074 A 
ATOM     65  C   UNL A   1      44.268  26.844  30.544  1.00  0.00     0.031 C 
ATOM     66  C   UNL A   1      44.442  29.337  29.884  1.00  0.00     0.037 A 
BRANCH  53  67
ATOM     67  C   UNL A   1      42.038  27.751  34.432  1.00  0.00     0.057 A 
ATOM     68  C   UNL A   1      42.789  26.600  34.108  1.00  0.00     0.134 A 
ATOM     69  C   UNL A   1      41.909  28.018  35.802  1.00  0.00     0.134 A 
ATOM     70  F   UNL A   1      43.077  26.244  32.853  1.00  0.00    -0.206 F 
ATOM     71  C   UNL A   1      43.388  25.793  35.074  1.00  0.00     0.040 A 
ATOM     72  C   UNL A   1      42.553  27.249  36.775  1.00  0.00     0.040 A 
ATOM     73  F   UNL A   1      41.225  29.090  36.232  1.00  0.00    -0.206 F 
ATOM     74  C   UNL A   1      43.301  26.137  36.411  1.00  0.00     0.006 A 
ENDBRANCH  53  67
BRANCH  54  75
ATOM     75  C   UNL A   1      43.365  24.523  26.735  1.00  0.00     0.057 A 
ATOM     76  C   UNL A   1      44.106  24.619  25.546  1.00  0.00     0.134 A 
ATOM     77  C   UNL A   1      42.693  23.303  26.935  1.00  0.00     0.134 A 
ATOM     78  F   UNL A   1      44.747  25.754  25.229  1.00  0.00    -0.206 F 
ATOM     79  C   UNL A   1      44.139  23.592  24.593  1.00  0.00     0.040 A 
ATOM     80  C   UNL A   1      42.719  22.265  25.988  1.00  0.00     0.040 A 
ATOM     81  F   UNL A   1      41.934  23.109  28.023  1.00  0.00    -0.206 F 
ATOM     82  C   UNL A   1      43.429  22.416  24.803  1.00  0.00     0.006 A 
ENDBRANCH  54  75
BRANCH  66  83
ATOM     83  C   UNL A   1      44.744  30.254  28.724  1.00  0.00     0.057 A 
ATOM     84  C   UNL A   1      46.025  30.816  28.637  1.00  0.00     0.134 A 
ATOM     85  C   UNL A   1      43.808  30.679  27.767  1.00  0.00     0.134 A 
ATOM     86  F   UNL A   1      46.967  30.491  29.537  1.00  0.00    -0.206 F 
ATOM     87  C   UNL A   1      46.365  31.748  27.652  1.00  0.00     0.040 A 
ATOM     88  C   UNL A   1      44.145  31.590  26.756  1.00  0.00     0.040 A 
ATOM     89  F   UNL A   1      42.536  30.265  27.809  1.00  0.00    -0.206 F 
ATOM     90  C   UNL A   1      45.426  32.132  26.700  1.00  0.00     0.006 A 
ENDBRANCH  66  83
ENDBRANCH  40  41
ENDBRANCH  33  35
ENDBRANCH  32  33
ENDBRANCH  31  32
ENDBRANCH  30  31
ENDBRANCH  29  30
ENDBRANCH  28  29
ENDBRANCH   1  28
TORSDOF 20
ENDMDL
MODEL 3
REMARK VINA RESULT:     -10.3      3.653      8.862
REMARK SMILES Cc1c(CC(=O)OCCOCCOCCOC(=O)c2ccc(-c3c4nc(c(-c5c(F)cccc5F)c5ccc([nH]5)c(-c5c(F)cccc5F)c5nc(c(-c6c(F)cccc6F)c6ccc3[nH]6)C=C5)C=C4)cc2)c2ccccc2n1C(=O)c1ccc(Cl)cc1
REMARK SMILES IDX 11 1 10 2 9 3 8 4 7 5 5 6 6 7 4 8 3 9 1 10 2 11 79 12 73 13
REMARK SMILES IDX 78 14 74 15 77 16 75 17 76 18 80 19 81 20 82 21 83 22 88 23
REMARK SMILES IDX 84 24 87 25 85 26 86 27 12 28 13 29 14 30 15 31 16 32 17 33
REMARK SMILES IDX 18 34 19 35 20 36 72 37 21 38 71 39 22 40 23 41 24 42 65 43
REMARK SMILES IDX 25 44 70 45 64 46 66 47 26 48 69 49 63 50 62 51 27 53 53 54
REMARK SMILES IDX 36 55 52 56 37 57 40 58 51 59 67 60 38 61 39 62 50 64 68 65
REMARK SMILES IDX 41 66 28 67 29 68 34 69 30 70 31 71 33 72 35 73 32 74 54 75
REMARK SMILES IDX 55 76 60 77 56 78 57 79 59 80 61 81 58 82 42 83 43 84 48 85
REMARK SMILES IDX 44 86 45 87 47 88 49 89 46 90
REMARK H PARENT 66 52 40 63
REMARK Flexibility Score: inf
ROOT
ATOM      1  C   UNL A   1      39.909  20.743  26.034  1.00  0.00     0.188 C 
ENDROOT
BRANCH   1   2
ATOM      2  O   UNL A   1      38.890  21.671  26.320  1.00  0.00    -0.376 OA
BRANCH   2   3
ATOM      3  C   UNL A   1      37.946  21.928  25.296  1.00  0.00     0.202 C 
BRANCH   3   4
ATOM      4  C   UNL A   1      36.648  22.616  25.737  1.00  0.00     0.261 C 
BRANCH   4   5
ATOM      5  O   UNL A   1      35.986  23.303  24.639  1.00  0.00    -0.463 OA
BRANCH   5   6
ATOM      6  C   UNL A   1      34.849  23.971  24.961  1.00  0.00     0.310 C 
ATOM      7  O   UNL A   1      34.368  23.920  26.093  1.00  0.00    -0.252 OA
BRANCH   6   8
ATOM      8  C   UNL A   1      34.336  24.994  23.947  1.00  0.00     0.160 C 
BRANCH   8   9
ATOM      9  C   UNL A   1      33.209  25.972  24.138  1.00  0.00    -0.008 A 
ATOM     10  C   UNL A   1      31.452  24.598  22.870  1.00  0.00     0.065 C 
ATOM     11  C   UNL A   1      31.910  25.749  23.704  1.00  0.00     0.028 A 
ATOM     12  N   UNL A   1      31.082  26.736  24.244  1.00  0.00    -0.280 N 
ATOM     13  C   UNL A   1      33.125  27.029  25.109  1.00  0.00     0.004 A 
ATOM     14  C   UNL A   1      31.793  27.385  25.261  1.00  0.00     0.056 A 
ATOM     15  C   UNL A   1      34.035  27.661  25.975  1.00  0.00     0.010 A 
ATOM     16  C   UNL A   1      31.402  28.259  26.315  1.00  0.00     0.027 A 
ATOM     17  C   UNL A   1      33.667  28.550  26.989  1.00  0.00     0.001 A 
ATOM     18  C   UNL A   1      32.340  28.834  27.169  1.00  0.00     0.002 A 
BRANCH  12  19
ATOM     19  C   UNL A   1      29.749  27.047  23.856  1.00  0.00     0.262 C 
ATOM     20  O   UNL A   1      28.870  26.233  23.971  1.00  0.00    -0.268 OA
BRANCH  19  21
ATOM     21  C   UNL A   1      29.431  28.378  23.287  1.00  0.00     0.040 A 
ATOM     22  C   UNL A   1      28.110  28.841  23.346  1.00  0.00     0.015 A 
ATOM     23  C   UNL A   1      30.385  28.990  22.468  1.00  0.00     0.015 A 
ATOM     24  C   UNL A   1      27.720  29.894  22.519  1.00  0.00     0.021 A 
ATOM     25  C   UNL A   1      29.981  30.035  21.633  1.00  0.00     0.021 A 
ATOM     26  C   UNL A   1      28.652  30.470  21.652  1.00  0.00     0.041 A 
ATOM     27  Cl  UNL A   1      28.136  31.670  20.533  1.00  0.00    -0.084 Cl
ENDBRANCH  19  21
ENDBRANCH  12  19
ENDBRANCH   8   9
ENDBRANCH   6   8
ENDBRANCH   5   6
ENDBRANCH   4   5
ENDBRANCH   3   4
ENDBRANCH   2   3
ENDBRANCH   1   2
BRANCH   1  28
ATOM     28  C   UNL A   1      41.314  20.953  26.614  1.00  0.00     0.188 C 
BRANCH  28  29
ATOM     29  O   UNL A   1      42.430  21.077  25.771  1.00  0.00    -0.376 OA
BRANCH  29  30
ATOM     30  C   UNL A   1      43.141  22.300  25.860  1.00  0.00     0.202 C 
BRANCH  30  31
ATOM     31  C   UNL A   1      43.661  22.956  24.553  1.00  0.00     0.261 C 
BRANCH  31  32
ATOM     32  O   UNL A   1      44.825  23.822  24.733  1.00  0.00    -0.460 OA
BRANCH  32  33
ATOM     33  C   UNL A   1      45.298  23.942  26.014  1.00  0.00     0.338 C 
ATOM     34  O   UNL A   1      46.277  23.352  26.450  1.00  0.00    -0.246 OA
BRANCH  33  35
ATOM     35  C   UNL A   1      44.766  25.184  26.688  1.00  0.00     0.060 A 
ATOM     36  C   UNL A   1      44.745  25.454  28.053  1.00  0.00     0.016 A 
ATOM     37  C   UNL A   1      44.076  26.065  25.848  1.00  0.00     0.016 A 
ATOM     38  C   UNL A   1      43.885  26.470  28.549  1.00  0.00     0.010 A 
ATOM     39  C   UNL A   1      43.209  27.055  26.329  1.00  0.00     0.010 A 
ATOM     40  C   UNL A   1      43.044  27.230  27.695  1.00  0.00    -0.014 A 
BRANCH  40  41
ATOM     41  C   UNL A   1      42.346  28.451  28.173  1.00  0.00     0.031 A 
ATOM     42  C   UNL A   1      43.219  29.606  27.971  1.00  0.00     0.074 A 
ATOM     43  C   UNL A   1      41.113  28.743  28.657  1.00  0.00     0.049 A 
ATOM     44  N   UNL A   1      44.098  29.970  28.834  1.00  0.00    -0.248 NA
ATOM     45  C   UNL A   1      43.316  30.258  26.665  1.00  0.00     0.031 C 
ATOM     46  C   UNL A   1      39.989  27.861  28.831  1.00  0.00     0.029 A 
ATOM     47  N   UNL A   1      40.595  29.927  29.137  1.00  0.00    -0.354 N 
ATOM     48  C   UNL A   1      44.685  31.085  28.295  1.00  0.00     0.074 A 
ATOM     49  C   UNL A   1      44.364  31.058  26.888  1.00  0.00     0.031 C 
ATOM     50  C   UNL A   1      38.852  28.523  29.142  1.00  0.00     0.029 A 
ATOM     51  C   UNL A   1      39.225  29.893  29.437  1.00  0.00     0.049 A 
ATOM     52  H   UNL A   1      41.144  30.736  29.258  1.00  0.00     0.167 HD
ATOM     53  C   UNL A   1      45.093  32.071  29.134  1.00  0.00     0.037 A 
ATOM     54  C   UNL A   1      38.455  30.797  30.105  1.00  0.00     0.037 A 
ATOM     55  C   UNL A   1      45.116  31.607  30.514  1.00  0.00     0.049 A 
ATOM     56  C   UNL A   1      39.363  31.557  30.988  1.00  0.00     0.074 A 
ATOM     57  C   UNL A   1      45.705  30.545  31.180  1.00  0.00     0.029 A 
ATOM     58  N   UNL A   1      44.114  32.043  31.351  1.00  0.00    -0.354 N 
ATOM     59  N   UNL A   1      39.934  31.055  32.047  1.00  0.00    -0.248 NA
ATOM     60  C   UNL A   1      39.992  32.740  30.437  1.00  0.00     0.031 C 
ATOM     61  C   UNL A   1      44.745  30.117  32.149  1.00  0.00     0.029 A 
ATOM     62  C   UNL A   1      43.647  30.973  32.073  1.00  0.00     0.049 A 
ATOM     63  H   UNL A   1      43.788  32.969  31.420  1.00  0.00     0.167 HD
ATOM     64  C   UNL A   1      41.229  31.544  31.998  1.00  0.00     0.074 A 
ATOM     65  C   UNL A   1      41.175  32.652  31.046  1.00  0.00     0.031 C 
ATOM     66  C   UNL A   1      42.274  30.832  32.516  1.00  0.00     0.037 A 
BRANCH  53  67
ATOM     67  C   UNL A   1      45.041  33.526  28.766  1.00  0.00     0.057 A 
ATOM     68  C   UNL A   1      43.863  34.253  28.487  1.00  0.00     0.134 A 
ATOM     69  C   UNL A   1      46.191  34.300  28.971  1.00  0.00     0.134 A 
ATOM     70  F   UNL A   1      42.666  33.677  28.344  1.00  0.00    -0.206 F 
ATOM     71  C   UNL A   1      43.829  35.646  28.444  1.00  0.00     0.040 A 
ATOM     72  C   UNL A   1      46.155  35.697  28.988  1.00  0.00     0.040 A 
ATOM     73  F   UNL A   1      47.369  33.722  29.252  1.00  0.00    -0.206 F 
ATOM     74  C   UNL A   1      44.969  36.373  28.731  1.00  0.00     0.006 A 
ENDBRANCH  53  67
BRANCH  54  75
ATOM     75  C   UNL A   1      37.019  31.148  29.958  1.00  0.00     0.057 A 
ATOM     76  C   UNL A   1      36.446  31.308  28.686  1.00  0.00     0.134 A 
ATOM     77  C   UNL A   1      36.255  31.634  31.034  1.00  0.00     0.134 A 
ATOM     78  F   UNL A   1      37.106  30.924  27.583  1.00  0.00    -0.206 F 
ATOM     79  C   UNL A   1      35.216  31.951  28.489  1.00  0.00     0.040 A 
ATOM     80  C   UNL A   1      35.021  32.281  30.851  1.00  0.00     0.040 A 
ATOM     81  F   UNL A   1      36.717  31.559  32.291  1.00  0.00    -0.206 F 
ATOM     82  C   UNL A   1      34.507  32.458  29.572  1.00  0.00     0.006 A 
ENDBRANCH  54  75
BRANCH  66  83
ATOM     83  C   UNL A   1      41.957  29.690  33.451  1.00  0.00     0.057 A 
ATOM     84  C   UNL A   1      41.988  29.932  34.831  1.00  0.00     0.134 A 
ATOM     85  C   UNL A   1      41.731  28.362  33.054  1.00  0.00     0.134 A 
ATOM     86  F   UNL A   1      42.235  31.168  35.294  1.00  0.00    -0.206 F 
ATOM     87  C   UNL A   1      41.801  28.914  35.771  1.00  0.00     0.040 A 
ATOM     88  C   UNL A   1      41.512  27.338  33.985  1.00  0.00     0.040 A 
ATOM     89  F   UNL A   1      41.762  28.009  31.763  1.00  0.00    -0.206 F 
ATOM     90  C   UNL A   1      41.552  27.612  35.349  1.00  0.00     0.006 A 
ENDBRANCH  66  83
ENDBRANCH  40  41
ENDBRANCH  33  35
ENDBRANCH  32  33
ENDBRANCH  31  32
ENDBRANCH  30  31
ENDBRANCH  29  30
ENDBRANCH  28  29
ENDBRANCH   1  28
TORSDOF 20
ENDMDL
