MODEL 1
REMARK VINA RESULT:     -11.4      0.000      0.000
REMARK SMILES O=C(OCCOCCOCCOC(=O)c1ccccc1Nc1cccc(S(F)(F)(F)(F)F)c1)c1ccc(-c2c3nc(c(-c4c(F)cccc4F)c4ccc([nH]4)c(-c4c(F)cccc4F)c4nc(c(-c5c(F)cccc5F)c5ccc2[nH]5)C=C4)C=C3)cc1
REMARK SMILES IDX 8 1 7 2 6 3 5 4 4 5 3 6 2 7 1 8 34 9 35 10 87 11 36 12 86 13
REMARK SMILES IDX 37 14 38 15 39 16 80 17 40 18 85 19 79 20 81 21 41 22 84 23
REMARK SMILES IDX 78 24 77 25 42 27 68 28 51 29 67 30 52 31 55 32 66 33 82 34
REMARK SMILES IDX 53 35 54 36 65 38 83 39 56 40 43 41 44 42 49 43 45 44 46 45
REMARK SMILES IDX 48 46 50 47 47 48 69 49 70 50 75 51 71 52 72 53 74 54 76 55
REMARK SMILES IDX 73 56 57 57 58 58 63 59 59 60 60 61 62 62 64 63 61 64 9 65
REMARK SMILES IDX 10 66 11 67 12 68 13 69 14 70 15 71 16 72 20 73 17 74 19 75
REMARK SMILES IDX 18 76 21 77 22 79 23 80 33 81 24 82 26 83 25 84 27 85 28 86
REMARK SMILES IDX 29 87 30 88 31 89 32 90
REMARK H PARENT 81 26 55 37 21 78
REMARK Flexibility Score: inf
ROOT
ATOM      1  C   UNL A   1      40.133  21.207  26.397  1.00  0.00     0.188 C 
ENDROOT
BRANCH   1   2
ATOM      2  C   UNL A   1      40.688  19.798  26.265  1.00  0.00     0.188 C 
BRANCH   2   3
ATOM      3  O   UNL A   1      42.065  19.862  25.922  1.00  0.00    -0.376 OA
BRANCH   3   4
ATOM      4  C   UNL A   1      42.625  21.062  26.434  1.00  0.00     0.202 C 
BRANCH   4   5
ATOM      5  C   UNL A   1      43.612  21.629  25.426  1.00  0.00     0.261 C 
BRANCH   5   6
ATOM      6  O   UNL A   1      43.067  22.800  24.838  1.00  0.00    -0.460 OA
BRANCH   6   7
ATOM      7  C   UNL A   1      43.663  24.064  25.091  1.00  0.00     0.338 C 
ATOM      8  O   UNL A   1      44.684  24.429  24.429  1.00  0.00    -0.246 OA
BRANCH   7   9
ATOM      9  C   UNL A   1      43.079  24.980  26.154  1.00  0.00     0.060 A 
ATOM     10  C   UNL A   1      42.096  24.553  27.032  1.00  0.00     0.016 A 
ATOM     11  C   UNL A   1      43.636  26.179  26.273  1.00  0.00     0.016 A 
ATOM     12  C   UNL A   1      41.560  25.585  27.838  1.00  0.00     0.010 A 
ATOM     13  C   UNL A   1      43.146  27.092  27.177  1.00  0.00     0.010 A 
ATOM     14  C   UNL A   1      42.136  26.757  28.036  1.00  0.00    -0.014 A 
BRANCH  14  15
ATOM     15  C   UNL A   1      41.701  27.684  29.159  1.00  0.00     0.031 A 
ATOM     16  C   UNL A   1      42.411  27.547  30.353  1.00  0.00     0.074 A 
ATOM     17  C   UNL A   1      40.585  28.491  29.010  1.00  0.00     0.049 A 
ATOM     18  N   UNL A   1      42.180  28.164  31.512  1.00  0.00    -0.248 NA
ATOM     19  C   UNL A   1      43.576  26.666  30.522  1.00  0.00     0.031 C 
ATOM     20  C   UNL A   1      39.869  28.641  27.807  1.00  0.00     0.029 A 
ATOM     21  N   UNL A   1      39.975  29.273  29.965  1.00  0.00    -0.354 N 
ATOM     22  C   UNL A   1      43.083  27.790  32.421  1.00  0.00     0.074 A 
ATOM     23  C   UNL A   1      43.990  26.816  31.799  1.00  0.00     0.031 C 
ATOM     24  C   UNL A   1      38.835  29.493  28.036  1.00  0.00     0.029 A 
ATOM     25  C   UNL A   1      38.888  29.890  29.386  1.00  0.00     0.049 A 
ATOM     26  H   UNL A   1      40.266  29.375  30.900  1.00  0.00     0.167 HD
ATOM     27  C   UNL A   1      43.187  28.225  33.744  1.00  0.00     0.037 A 
ATOM     28  C   UNL A   1      37.982  30.751  29.985  1.00  0.00     0.037 A 
ATOM     29  C   UNL A   1      42.307  29.120  34.330  1.00  0.00     0.049 A 
ATOM     30  C   UNL A   1      38.052  31.141  31.324  1.00  0.00     0.074 A 
ATOM     31  C   UNL A   1      42.402  29.574  35.658  1.00  0.00     0.029 A 
ATOM     32  N   UNL A   1      41.206  29.718  33.757  1.00  0.00    -0.354 N 
ATOM     33  N   UNL A   1      38.978  30.799  32.221  1.00  0.00    -0.248 NA
ATOM     34  C   UNL A   1      37.079  32.027  31.977  1.00  0.00     0.031 C 
ATOM     35  C   UNL A   1      41.367  30.427  35.888  1.00  0.00     0.029 A 
ATOM     36  C   UNL A   1      40.608  30.518  34.705  1.00  0.00     0.049 A 
ATOM     37  H   UNL A   1      40.898  29.594  32.830  1.00  0.00     0.167 HD
ATOM     38  C   UNL A   1      38.722  31.383  33.392  1.00  0.00     0.074 A 
ATOM     39  C   UNL A   1      37.492  32.177  33.254  1.00  0.00     0.031 C 
ATOM     40  C   UNL A   1      39.466  31.291  34.570  1.00  0.00     0.037 A 
BRANCH  27  41
ATOM     41  C   UNL A   1      44.331  27.687  34.587  1.00  0.00     0.057 A 
ATOM     42  C   UNL A   1      44.157  26.552  35.360  1.00  0.00     0.134 A 
ATOM     43  C   UNL A   1      45.430  28.426  34.687  1.00  0.00     0.134 A 
ATOM     44  F   UNL A   1      43.208  25.650  35.123  1.00  0.00    -0.206 F 
ATOM     45  C   UNL A   1      45.079  26.438  36.427  1.00  0.00     0.040 A 
ATOM     46  C   UNL A   1      46.357  28.174  35.669  1.00  0.00     0.040 A 
ATOM     47  F   UNL A   1      45.636  29.420  33.827  1.00  0.00    -0.206 F 
ATOM     48  C   UNL A   1      46.217  27.103  36.508  1.00  0.00     0.006 A 
ENDBRANCH  27  41
BRANCH  28  49
ATOM     49  C   UNL A   1      36.849  31.302  29.135  1.00  0.00     0.057 A 
ATOM     50  C   UNL A   1      35.688  30.600  28.855  1.00  0.00     0.134 A 
ATOM     51  C   UNL A   1      36.985  32.576  28.784  1.00  0.00     0.134 A 
ATOM     52  F   UNL A   1      35.405  29.420  29.399  1.00  0.00    -0.206 F 
ATOM     53  C   UNL A   1      34.829  31.253  27.939  1.00  0.00     0.040 A 
ATOM     54  C   UNL A   1      36.040  33.190  27.999  1.00  0.00     0.040 A 
ATOM     55  F   UNL A   1      38.046  33.263  29.197  1.00  0.00    -0.206 F 
ATOM     56  C   UNL A   1      34.894  32.537  27.636  1.00  0.00     0.006 A 
ENDBRANCH  28  49
BRANCH  40  57
ATOM     57  C   UNL A   1      38.995  32.087  35.776  1.00  0.00     0.057 A 
ATOM     58  C   UNL A   1      38.162  31.555  36.747  1.00  0.00     0.134 A 
ATOM     59  C   UNL A   1      39.551  33.283  35.925  1.00  0.00     0.134 A 
ATOM     60  F   UNL A   1      37.789  30.279  36.763  1.00  0.00    -0.206 F 
ATOM     61  C   UNL A   1      37.743  32.494  37.720  1.00  0.00     0.040 A 
ATOM     62  C   UNL A   1      39.195  34.093  36.976  1.00  0.00     0.040 A 
ATOM     63  F   UNL A   1      40.462  33.700  35.050  1.00  0.00    -0.206 F 
ATOM     64  C   UNL A   1      38.332  33.655  37.942  1.00  0.00     0.006 A 
ENDBRANCH  40  57
ENDBRANCH  14  15
ENDBRANCH   7   9
ENDBRANCH   6   7
ENDBRANCH   5   6
ENDBRANCH   4   5
ENDBRANCH   3   4
ENDBRANCH   2   3
ENDBRANCH   1   2
BRANCH   1  65
ATOM     65  O   UNL A   1      39.136  21.417  25.408  1.00  0.00    -0.376 OA
BRANCH  65  66
ATOM     66  C   UNL A   1      38.110  22.243  25.937  1.00  0.00     0.202 C 
BRANCH  66  67
ATOM     67  C   UNL A   1      36.825  22.017  25.157  1.00  0.00     0.261 C 
BRANCH  67  68
ATOM     68  O   UNL A   1      35.778  21.685  26.057  1.00  0.00    -0.460 OA
BRANCH  68  69
ATOM     69  C   UNL A   1      34.498  22.281  25.907  1.00  0.00     0.340 C 
ATOM     70  O   UNL A   1      34.018  22.999  26.840  1.00  0.00    -0.246 OA
BRANCH  69  71
ATOM     71  C   UNL A   1      33.702  22.060  24.631  1.00  0.00     0.083 A 
ATOM     72  C   UNL A   1      32.884  20.941  24.624  1.00  0.00     0.018 A 
ATOM     73  C   UNL A   1      33.671  22.942  23.640  1.00  0.00     0.053 A 
ATOM     74  C   UNL A   1      32.269  20.690  23.376  1.00  0.00     0.001 A 
ATOM     75  C   UNL A   1      32.938  22.693  22.504  1.00  0.00     0.027 A 
ATOM     76  C   UNL A   1      32.153  21.577  22.404  1.00  0.00     0.002 A 
BRANCH  73  77
ATOM     77  N   UNL A   1      34.426  24.197  23.758  1.00  0.00    -0.355 N 
ATOM     78  H   UNL A   1      35.410  24.180  23.771  1.00  0.00     0.167 HD
BRANCH  77  79
ATOM     79  C   UNL A   1      33.712  25.478  23.856  1.00  0.00     0.040 A 
ATOM     80  C   UNL A   1      33.560  26.257  22.721  1.00  0.00     0.026 A 
ATOM     81  C   UNL A   1      33.211  25.861  25.025  1.00  0.00     0.050 A 
ATOM     82  C   UNL A   1      33.108  27.572  22.984  1.00  0.00     0.004 A 
ATOM     83  C   UNL A   1      32.662  27.111  25.177  1.00  0.00     0.109 A 
ATOM     84  C   UNL A   1      32.533  27.956  24.110  1.00  0.00     0.024 A 
BRANCH  83  85
ATOM     85  S   UNL A   1      32.099  27.645  26.812  1.00  0.00     0.310 S 
ATOM     86  F   UNL A   1      31.563  29.065  26.352  1.00  0.00    -0.094 F 
ATOM     87  F   UNL A   1      33.522  28.306  26.956  1.00  0.00    -0.094 F 
ATOM     88  F   UNL A   1      31.735  28.047  28.269  1.00  0.00    -0.094 F 
ATOM     89  F   UNL A   1      30.631  27.103  26.602  1.00  0.00    -0.094 F 
ATOM     90  F   UNL A   1      32.416  27.332  25.295  1.00  0.00    -0.094 F 
ENDBRANCH  83  85
ENDBRANCH  77  79
ENDBRANCH  73  77
ENDBRANCH  69  71
ENDBRANCH  68  69
ENDBRANCH  67  68
ENDBRANCH  66  67
ENDBRANCH  65  66
ENDBRANCH   1  65
TORSDOF 20
ENDMDL
MODEL 2
REMARK VINA RESULT:     -11.3      3.074      4.013
REMARK SMILES O=C(OCCOCCOCCOC(=O)c1ccccc1Nc1cccc(S(F)(F)(F)(F)F)c1)c1ccc(-c2c3nc(c(-c4c(F)cccc4F)c4ccc([nH]4)c(-c4c(F)cccc4F)c4nc(c(-c5c(F)cccc5F)c5ccc2[nH]5)C=C4)C=C3)cc1
REMARK SMILES IDX 8 1 7 2 6 3 5 4 4 5 3 6 2 7 1 8 34 9 35 10 87 11 36 12 86 13
REMARK SMILES IDX 37 14 38 15 39 16 80 17 40 18 85 19 79 20 81 21 41 22 84 23
REMARK SMILES IDX 78 24 77 25 42 27 68 28 51 29 67 30 52 31 55 32 66 33 82 34
REMARK SMILES IDX 53 35 54 36 65 38 83 39 56 40 43 41 44 42 49 43 45 44 46 45
REMARK SMILES IDX 48 46 50 47 47 48 69 49 70 50 75 51 71 52 72 53 74 54 76 55
REMARK SMILES IDX 73 56 57 57 58 58 63 59 59 60 60 61 62 62 64 63 61 64 9 65
REMARK SMILES IDX 10 66 11 67 12 68 13 69 14 70 15 71 16 72 20 73 17 74 19 75
REMARK SMILES IDX 18 76 21 77 22 79 23 80 33 81 24 82 26 83 25 84 27 85 28 86
REMARK SMILES IDX 29 87 30 88 31 89 32 90
REMARK H PARENT 81 26 55 37 21 78
REMARK Flexibility Score: inf
ROOT
ATOM      1  C   UNL A   1      38.703  22.411  26.140  1.00  0.00     0.188 C 
ENDROOT
BRANCH   1   2
ATOM      2  C   UNL A   1      39.484  21.108  26.092  1.00  0.00     0.188 C 
BRANCH   2   3
ATOM      3  O   UNL A   1      40.742  21.332  25.474  1.00  0.00    -0.376 OA
BRANCH   3   4
ATOM      4  C   UNL A   1      41.770  20.764  26.272  1.00  0.00     0.202 C 
BRANCH   4   5
ATOM      5  C   UNL A   1      43.052  21.558  26.085  1.00  0.00     0.261 C 
BRANCH   5   6
ATOM      6  O   UNL A   1      42.895  22.465  25.006  1.00  0.00    -0.460 OA
BRANCH   6   7
ATOM      7  C   UNL A   1      43.402  23.787  25.109  1.00  0.00     0.338 C 
ATOM      8  O   UNL A   1      44.321  24.178  24.323  1.00  0.00    -0.246 OA
BRANCH   7   9
ATOM      9  C   UNL A   1      42.848  24.734  26.161  1.00  0.00     0.060 A 
ATOM     10  C   UNL A   1      41.807  24.371  27.000  1.00  0.00     0.016 A 
ATOM     11  C   UNL A   1      43.485  25.888  26.313  1.00  0.00     0.016 A 
ATOM     12  C   UNL A   1      41.317  25.432  27.798  1.00  0.00     0.010 A 
ATOM     13  C   UNL A   1      43.029  26.826  27.210  1.00  0.00     0.010 A 
ATOM     14  C   UNL A   1      41.968  26.558  28.029  1.00  0.00    -0.014 A 
BRANCH  14  15
ATOM     15  C   UNL A   1      41.561  27.504  29.146  1.00  0.00     0.031 A 
ATOM     16  C   UNL A   1      42.276  27.363  30.337  1.00  0.00     0.074 A 
ATOM     17  C   UNL A   1      40.461  28.333  28.998  1.00  0.00     0.049 A 
ATOM     18  N   UNL A   1      42.067  27.995  31.492  1.00  0.00    -0.248 NA
ATOM     19  C   UNL A   1      43.423  26.459  30.505  1.00  0.00     0.031 C 
ATOM     20  C   UNL A   1      39.740  28.487  27.798  1.00  0.00     0.029 A 
ATOM     21  N   UNL A   1      39.874  29.137  29.950  1.00  0.00    -0.354 N 
ATOM     22  C   UNL A   1      42.968  27.611  32.398  1.00  0.00     0.074 A 
ATOM     23  C   UNL A   1      43.850  26.612  31.778  1.00  0.00     0.031 C 
ATOM     24  C   UNL A   1      38.725  29.363  28.027  1.00  0.00     0.029 A 
ATOM     25  C   UNL A   1      38.797  29.771  29.373  1.00  0.00     0.049 A 
ATOM     26  H   UNL A   1      40.174  29.241  30.882  1.00  0.00     0.167 HD
ATOM     27  C   UNL A   1      43.091  28.055  33.716  1.00  0.00     0.037 A 
ATOM     28  C   UNL A   1      37.913  30.657  29.969  1.00  0.00     0.037 A 
ATOM     29  C   UNL A   1      42.233  28.974  34.299  1.00  0.00     0.049 A 
ATOM     30  C   UNL A   1      38.001  31.057  31.304  1.00  0.00     0.074 A 
ATOM     31  C   UNL A   1      42.347  29.438  35.623  1.00  0.00     0.029 A 
ATOM     32  N   UNL A   1      41.141  29.589  33.728  1.00  0.00    -0.354 N 
ATOM     33  N   UNL A   1      38.925  30.703  32.198  1.00  0.00    -0.248 NA
ATOM     34  C   UNL A   1      37.051  31.969  31.956  1.00  0.00     0.031 C 
ATOM     35  C   UNL A   1      41.332  30.314  35.852  1.00  0.00     0.029 A 
ATOM     36  C   UNL A   1      40.567  30.411  34.674  1.00  0.00     0.049 A 
ATOM     37  H   UNL A   1      40.824  29.464  32.805  1.00  0.00     0.167 HD
ATOM     38  C   UNL A   1      38.690  31.304  33.365  1.00  0.00     0.074 A 
ATOM     39  C   UNL A   1      37.477  32.122  33.228  1.00  0.00     0.031 C 
ATOM     40  C   UNL A   1      39.440  31.207  34.539  1.00  0.00     0.037 A 
BRANCH  27  41
ATOM     41  C   UNL A   1      44.229  27.501  34.556  1.00  0.00     0.057 A 
ATOM     42  C   UNL A   1      45.471  28.111  34.541  1.00  0.00     0.134 A 
ATOM     43  C   UNL A   1      44.042  26.333  35.160  1.00  0.00     0.134 A 
ATOM     44  F   UNL A   1      45.654  29.378  34.178  1.00  0.00    -0.206 F 
ATOM     45  C   UNL A   1      46.530  27.265  34.948  1.00  0.00     0.040 A 
ATOM     46  C   UNL A   1      45.108  25.622  35.655  1.00  0.00     0.040 A 
ATOM     47  F   UNL A   1      42.811  25.846  35.287  1.00  0.00    -0.206 F 
ATOM     48  C   UNL A   1      46.374  26.139  35.620  1.00  0.00     0.006 A 
ENDBRANCH  27  41
BRANCH  28  49
ATOM     49  C   UNL A   1      36.786  31.224  29.122  1.00  0.00     0.057 A 
ATOM     50  C   UNL A   1      35.621  30.532  28.832  1.00  0.00     0.134 A 
ATOM     51  C   UNL A   1      36.932  32.500  28.784  1.00  0.00     0.134 A 
ATOM     52  F   UNL A   1      35.329  29.349  29.363  1.00  0.00    -0.206 F 
ATOM     53  C   UNL A   1      34.769  31.200  27.920  1.00  0.00     0.040 A 
ATOM     54  C   UNL A   1      35.992  33.128  28.004  1.00  0.00     0.040 A 
ATOM     55  F   UNL A   1      37.996  33.176  29.207  1.00  0.00    -0.206 F 
ATOM     56  C   UNL A   1      34.844  32.487  27.631  1.00  0.00     0.006 A 
ENDBRANCH  28  49
BRANCH  40  57
ATOM     57  C   UNL A   1      38.995  32.024  35.740  1.00  0.00     0.057 A 
ATOM     58  C   UNL A   1      38.169  31.514  36.729  1.00  0.00     0.134 A 
ATOM     59  C   UNL A   1      39.567  33.214  35.867  1.00  0.00     0.134 A 
ATOM     60  F   UNL A   1      37.781  30.243  36.767  1.00  0.00    -0.206 F 
ATOM     61  C   UNL A   1      37.774  32.470  37.696  1.00  0.00     0.040 A 
ATOM     62  C   UNL A   1      39.235  34.043  36.912  1.00  0.00     0.040 A 
ATOM     63  F   UNL A   1      40.471  33.609  34.975  1.00  0.00    -0.206 F 
ATOM     64  C   UNL A   1      38.380  33.627  37.895  1.00  0.00     0.006 A 
ENDBRANCH  40  57
ENDBRANCH  14  15
ENDBRANCH   7   9
ENDBRANCH   6   7
ENDBRANCH   5   6
ENDBRANCH   4   5
ENDBRANCH   3   4
ENDBRANCH   2   3
ENDBRANCH   1   2
BRANCH   1  65
ATOM     65  O   UNL A   1      37.357  22.170  25.759  1.00  0.00    -0.376 OA
BRANCH  65  66
ATOM     66  C   UNL A   1      37.315  21.754  24.404  1.00  0.00     0.202 C 
BRANCH  66  67
ATOM     67  C   UNL A   1      36.800  22.892  23.539  1.00  0.00     0.261 C 
BRANCH  67  68
ATOM     68  O   UNL A   1      36.032  23.782  24.336  1.00  0.00    -0.460 OA
BRANCH  68  69
ATOM     69  C   UNL A   1      34.694  24.086  23.971  1.00  0.00     0.340 C 
ATOM     70  O   UNL A   1      34.408  24.337  22.758  1.00  0.00    -0.246 OA
BRANCH  69  71
ATOM     71  C   UNL A   1      33.604  24.113  25.030  1.00  0.00     0.083 A 
ATOM     72  C   UNL A   1      32.789  25.233  25.021  1.00  0.00     0.018 A 
ATOM     73  C   UNL A   1      33.347  23.080  25.824  1.00  0.00     0.053 A 
ATOM     74  C   UNL A   1      31.880  25.289  26.103  1.00  0.00     0.001 A 
ATOM     75  C   UNL A   1      32.352  23.155  26.769  1.00  0.00     0.027 A 
ATOM     76  C   UNL A   1      31.546  24.257  26.856  1.00  0.00     0.002 A 
BRANCH  73  77
ATOM     77  N   UNL A   1      34.131  21.845  25.690  1.00  0.00    -0.355 N 
ATOM     78  H   UNL A   1      34.989  21.753  26.164  1.00  0.00     0.167 HD
BRANCH  77  79
ATOM     79  C   UNL A   1      33.635  20.746  24.849  1.00  0.00     0.040 A 
ATOM     80  C   UNL A   1      32.777  21.031  23.800  1.00  0.00     0.026 A 
ATOM     81  C   UNL A   1      34.030  19.503  25.097  1.00  0.00     0.050 A 
ATOM     82  C   UNL A   1      32.157  19.889  23.240  1.00  0.00     0.004 A 
ATOM     83  C   UNL A   1      33.477  18.444  24.417  1.00  0.00     0.109 A 
ATOM     84  C   UNL A   1      32.579  18.649  23.408  1.00  0.00     0.024 A 
BRANCH  83  85
ATOM     85  S   UNL A   1      33.948  16.754  24.865  1.00  0.00     0.310 S 
ATOM     86  F   UNL A   1      33.886  16.165  23.394  1.00  0.00    -0.094 F 
ATOM     87  F   UNL A   1      32.401  16.477  24.968  1.00  0.00    -0.094 F 
ATOM     88  F   UNL A   1      34.268  15.316  25.362  1.00  0.00    -0.094 F 
ATOM     89  F   UNL A   1      35.489  17.004  24.622  1.00  0.00    -0.094 F 
ATOM     90  F   UNL A   1      33.635  18.177  24.251  1.00  0.00    -0.094 F 
ENDBRANCH  83  85
ENDBRANCH  77  79
ENDBRANCH  73  77
ENDBRANCH  69  71
ENDBRANCH  68  69
ENDBRANCH  67  68
ENDBRANCH  66  67
ENDBRANCH  65  66
ENDBRANCH   1  65
TORSDOF 20
ENDMDL
MODEL 3
REMARK VINA RESULT:     -10.9      5.238      7.679
REMARK SMILES O=C(OCCOCCOCCOC(=O)c1ccccc1Nc1cccc(S(F)(F)(F)(F)F)c1)c1ccc(-c2c3nc(c(-c4c(F)cccc4F)c4ccc([nH]4)c(-c4c(F)cccc4F)c4nc(c(-c5c(F)cccc5F)c5ccc2[nH]5)C=C4)C=C3)cc1
REMARK SMILES IDX 8 1 7 2 6 3 5 4 4 5 3 6 2 7 1 8 34 9 35 10 87 11 36 12 86 13
REMARK SMILES IDX 37 14 38 15 39 16 80 17 40 18 85 19 79 20 81 21 41 22 84 23
REMARK SMILES IDX 78 24 77 25 42 27 68 28 51 29 67 30 52 31 55 32 66 33 82 34
REMARK SMILES IDX 53 35 54 36 65 38 83 39 56 40 43 41 44 42 49 43 45 44 46 45
REMARK SMILES IDX 48 46 50 47 47 48 69 49 70 50 75 51 71 52 72 53 74 54 76 55
REMARK SMILES IDX 73 56 57 57 58 58 63 59 59 60 60 61 62 62 64 63 61 64 9 65
REMARK SMILES IDX 10 66 11 67 12 68 13 69 14 70 15 71 16 72 20 73 17 74 19 75
REMARK SMILES IDX 18 76 21 77 22 79 23 80 33 81 24 82 26 83 25 84 27 85 28 86
REMARK SMILES IDX 29 87 30 88 31 89 32 90
REMARK H PARENT 81 26 55 37 21 78
REMARK Flexibility Score: inf
ROOT
ATOM      1  C   UNL A   1      40.298  20.992  26.438  1.00  0.00     0.188 C 
ENDROOT
BRANCH   1   2
ATOM      2  C   UNL A   1      41.450  21.098  27.426  1.00  0.00     0.188 C 
BRANCH   2   3
ATOM      3  O   UNL A   1      42.323  19.992  27.255  1.00  0.00    -0.376 OA
BRANCH   3   4
ATOM      4  C   UNL A   1      41.996  19.312  26.052  1.00  0.00     0.202 C 
BRANCH   4   5
ATOM      5  C   UNL A   1      43.167  18.440  25.630  1.00  0.00     0.261 C 
BRANCH   5   6
ATOM      6  O   UNL A   1      43.637  18.862  24.359  1.00  0.00    -0.460 OA
BRANCH   6   7
ATOM      7  C   UNL A   1      44.846  19.600  24.259  1.00  0.00     0.338 C 
ATOM      8  O   UNL A   1      45.874  19.069  23.734  1.00  0.00    -0.246 OA
BRANCH   7   9
ATOM      9  C   UNL A   1      44.911  21.026  24.781  1.00  0.00     0.060 A 
ATOM     10  C   UNL A   1      45.341  21.320  26.065  1.00  0.00     0.016 A 
ATOM     11  C   UNL A   1      44.640  21.989  23.908  1.00  0.00     0.016 A 
ATOM     12  C   UNL A   1      45.177  22.678  26.428  1.00  0.00     0.010 A 
ATOM     13  C   UNL A   1      44.630  23.307  24.301  1.00  0.00     0.010 A 
ATOM     14  C   UNL A   1      44.987  23.665  25.571  1.00  0.00    -0.014 A 
BRANCH  14  15
ATOM     15  C   UNL A   1      45.156  25.120  25.975  1.00  0.00     0.031 A 
ATOM     16  C   UNL A   1      46.466  25.601  25.932  1.00  0.00     0.074 A 
ATOM     17  C   UNL A   1      44.084  25.839  26.476  1.00  0.00     0.049 A 
ATOM     18  N   UNL A   1      46.906  26.799  26.317  1.00  0.00    -0.248 NA
ATOM     19  C   UNL A   1      47.612  24.827  25.431  1.00  0.00     0.031 C 
ATOM     20  C   UNL A   1      42.759  25.364  26.515  1.00  0.00     0.029 A 
ATOM     21  N   UNL A   1      44.094  27.105  27.017  1.00  0.00    -0.354 N 
ATOM     22  C   UNL A   1      48.220  26.898  26.106  1.00  0.00     0.074 A 
ATOM     23  C   UNL A   1      48.694  25.628  25.539  1.00  0.00     0.031 C 
ATOM     24  C   UNL A   1      41.983  26.326  27.081  1.00  0.00     0.029 A 
ATOM     25  C   UNL A   1      42.811  27.418  27.405  1.00  0.00     0.049 A 
ATOM     26  H   UNL A   1      44.883  27.687  27.110  1.00  0.00     0.167 HD
ATOM     27  C   UNL A   1      49.041  27.998  26.362  1.00  0.00     0.037 A 
ATOM     28  C   UNL A   1      42.367  28.583  28.011  1.00  0.00     0.037 A 
ATOM     29  C   UNL A   1      48.589  29.179  26.927  1.00  0.00     0.049 A 
ATOM     30  C   UNL A   1      43.199  29.661  28.320  1.00  0.00     0.074 A 
ATOM     31  C   UNL A   1      49.401  30.300  27.185  1.00  0.00     0.029 A 
ATOM     32  N   UNL A   1      47.309  29.482  27.337  1.00  0.00    -0.354 N 
ATOM     33  N   UNL A   1      44.504  29.775  28.072  1.00  0.00    -0.248 NA
ATOM     34  C   UNL A   1      42.746  30.887  28.991  1.00  0.00     0.031 C 
ATOM     35  C   UNL A   1      48.625  31.262  27.751  1.00  0.00     0.029 A 
ATOM     36  C   UNL A   1      47.315  30.758  27.857  1.00  0.00     0.049 A 
ATOM     37  H   UNL A   1      46.526  28.890  27.271  1.00  0.00     0.167 HD
ATOM     38  C   UNL A   1      44.952  30.958  28.496  1.00  0.00     0.074 A 
ATOM     39  C   UNL A   1      43.828  31.688  29.100  1.00  0.00     0.031 C 
ATOM     40  C   UNL A   1      46.250  31.460  28.400  1.00  0.00     0.037 A 
BRANCH  27  41
ATOM     41  C   UNL A   1      50.513  27.893  25.999  1.00  0.00     0.057 A 
ATOM     42  C   UNL A   1      50.915  27.968  24.677  1.00  0.00     0.134 A 
ATOM     43  C   UNL A   1      51.367  27.561  26.961  1.00  0.00     0.134 A 
ATOM     44  F   UNL A   1      50.177  28.532  23.724  1.00  0.00    -0.206 F 
ATOM     45  C   UNL A   1      52.182  27.389  24.429  1.00  0.00     0.040 A 
ATOM     46  C   UNL A   1      52.635  27.133  26.653  1.00  0.00     0.040 A 
ATOM     47  F   UNL A   1      50.990  27.645  28.234  1.00  0.00    -0.206 F 
ATOM     48  C   UNL A   1      53.080  27.125  25.360  1.00  0.00     0.006 A 
ENDBRANCH  27  41
BRANCH  28  49
ATOM     49  C   UNL A   1      40.891  28.693  28.356  1.00  0.00     0.057 A 
ATOM     50  C   UNL A   1      39.923  29.126  27.465  1.00  0.00     0.134 A 
ATOM     51  C   UNL A   1      40.561  28.207  29.549  1.00  0.00     0.134 A 
ATOM     52  F   UNL A   1      40.179  29.378  26.185  1.00  0.00    -0.206 F 
ATOM     53  C   UNL A   1      38.639  29.275  28.039  1.00  0.00     0.040 A 
ATOM     54  C   UNL A   1      39.262  28.262  29.991  1.00  0.00     0.040 A 
ATOM     55  F   UNL A   1      41.498  27.663  30.319  1.00  0.00    -0.206 F 
ATOM     56  C   UNL A   1      38.263  28.733  29.184  1.00  0.00     0.006 A 
ENDBRANCH  28  49
BRANCH  40  57
ATOM     57  C   UNL A   1      46.513  32.864  28.922  1.00  0.00     0.057 A 
ATOM     58  C   UNL A   1      46.281  34.001  28.165  1.00  0.00     0.134 A 
ATOM     59  C   UNL A   1      46.839  32.946  30.206  1.00  0.00     0.134 A 
ATOM     60  F   UNL A   1      45.714  33.969  26.962  1.00  0.00    -0.206 F 
ATOM     61  C   UNL A   1      46.703  35.200  28.787  1.00  0.00     0.040 A 
ATOM     62  C   UNL A   1      47.106  34.165  30.783  1.00  0.00     0.040 A 
ATOM     63  F   UNL A   1      46.906  31.840  30.941  1.00  0.00    -0.206 F 
ATOM     64  C   UNL A   1      46.955  35.326  30.077  1.00  0.00     0.006 A 
ENDBRANCH  40  57
ENDBRANCH  14  15
ENDBRANCH   7   9
ENDBRANCH   6   7
ENDBRANCH   5   6
ENDBRANCH   4   5
ENDBRANCH   3   4
ENDBRANCH   2   3
ENDBRANCH   1   2
BRANCH   1  65
ATOM     65  O   UNL A   1      39.357  22.022  26.697  1.00  0.00    -0.376 OA
BRANCH  65  66
ATOM     66  C   UNL A   1      38.315  21.965  25.735  1.00  0.00     0.202 C 
BRANCH  66  67
ATOM     67  C   UNL A   1      37.709  23.348  25.562  1.00  0.00     0.261 C 
BRANCH  67  68
ATOM     68  O   UNL A   1      36.328  23.304  25.890  1.00  0.00    -0.460 OA
BRANCH  68  69
ATOM     69  C   UNL A   1      35.375  23.910  25.029  1.00  0.00     0.340 C 
ATOM     70  O   UNL A   1      35.636  24.055  23.793  1.00  0.00    -0.246 OA
BRANCH  69  71
ATOM     71  C   UNL A   1      34.042  24.386  25.585  1.00  0.00     0.083 A 
ATOM     72  C   UNL A   1      33.709  25.700  25.296  1.00  0.00     0.018 A 
ATOM     73  C   UNL A   1      33.182  23.573  26.185  1.00  0.00     0.053 A 
ATOM     74  C   UNL A   1      32.536  26.149  25.944  1.00  0.00     0.001 A 
ATOM     75  C   UNL A   1      31.991  24.054  26.676  1.00  0.00     0.027 A 
ATOM     76  C   UNL A   1      31.623  25.357  26.478  1.00  0.00     0.002 A 
BRANCH  73  77
ATOM     77  N   UNL A   1      33.504  22.147  26.327  1.00  0.00    -0.355 N 
ATOM     78  H   UNL A   1      33.882  21.809  27.172  1.00  0.00     0.167 HD
BRANCH  77  79
ATOM     79  C   UNL A   1      33.263  21.223  25.210  1.00  0.00     0.040 A 
ATOM     80  C   UNL A   1      32.524  21.657  24.121  1.00  0.00     0.026 A 
ATOM     81  C   UNL A   1      33.769  19.996  25.253  1.00  0.00     0.050 A 
ATOM     82  C   UNL A   1      32.128  20.618  23.246  1.00  0.00     0.004 A 
ATOM     83  C   UNL A   1      33.446  19.071  24.290  1.00  0.00     0.109 A 
ATOM     84  C   UNL A   1      32.672  19.415  23.217  1.00  0.00     0.024 A 
BRANCH  83  85
ATOM     85  S   UNL A   1      34.054  17.373  24.445  1.00  0.00     0.310 S 
ATOM     86  F   UNL A   1      34.125  17.075  22.889  1.00  0.00    -0.094 F 
ATOM     87  F   UNL A   1      32.538  16.950  24.388  1.00  0.00    -0.094 F 
ATOM     88  F   UNL A   1      34.486  15.899  24.686  1.00  0.00    -0.094 F 
ATOM     89  F   UNL A   1      35.574  17.796  24.360  1.00  0.00    -0.094 F 
ATOM     90  F   UNL A   1      33.637  18.856  24.088  1.00  0.00    -0.094 F 
ENDBRANCH  83  85
ENDBRANCH  77  79
ENDBRANCH  73  77
ENDBRANCH  69  71
ENDBRANCH  68  69
ENDBRANCH  67  68
ENDBRANCH  66  67
ENDBRANCH  65  66
ENDBRANCH   1  65
TORSDOF 20
ENDMDL
