MODEL 1
REMARK VINA RESULT:     -11.0      0.000      0.000
REMARK SMILES COc1cc2ccccc2cc1C(=O)Nc1cc(C(=O)OCCOCCOCCOC(=O)c2ccc(-c3c4nc(c(-c5c(F)cccc5F)c5ccc([nH]5)c(-c5c(F)cccc5F)c5nc(c(-c6c(F)cccc6F)c6ccc3[nH]6)C=C5)C=C4)cc2)ccc1C
REMARK SMILES IDX 25 1 24 2 23 3 22 4 21 5 19 6 20 7 18 8 16 9 17 10 89 11
REMARK SMILES IDX 88 12 90 13 87 14 15 15 13 16 14 17 12 19 3 20 4 21 5 22
REMARK SMILES IDX 11 23 6 24 10 25 7 26 9 27 8 28 2 29 1 30 26 31 27 32 28 33
REMARK SMILES IDX 29 34 30 35 31 36 32 37 33 38 34 39 86 40 35 41 85 42 36 43
REMARK SMILES IDX 37 44 38 45 79 46 39 47 84 48 78 49 80 50 40 51 83 52 77 53
REMARK SMILES IDX 76 54 41 56 67 57 50 58 66 59 51 60 54 61 65 62 81 63 52 64
REMARK SMILES IDX 53 65 64 67 82 68 55 69 42 70 43 71 48 72 44 73 45 74 47 75
REMARK SMILES IDX 49 76 46 77 68 78 69 79 74 80 70 81 71 82 73 83 75 84 72 85
REMARK SMILES IDX 56 86 57 87 62 88 58 89 59 90 61 91 63 92 60 93
REMARK H PARENT 15 18 80 55 54 66
REMARK Flexibility Score: inf
ROOT
ATOM      1  C   UNL A   1      35.841  31.373  27.682  1.00  0.00     0.188 C 
ENDROOT
BRANCH   1   2
ATOM      2  O   UNL A   1      34.543  30.821  27.433  1.00  0.00    -0.376 OA
BRANCH   2   3
ATOM      3  C   UNL A   1      34.274  29.435  27.642  1.00  0.00     0.202 C 
BRANCH   3   4
ATOM      4  C   UNL A   1      34.213  28.532  26.327  1.00  0.00     0.261 C 
BRANCH   4   5
ATOM      5  O   UNL A   1      33.085  28.677  25.321  1.00  0.00    -0.460 OA
BRANCH   5   6
ATOM      6  C   UNL A   1      32.953  27.570  24.554  1.00  0.00     0.338 C 
ATOM      7  O   UNL A   1      33.694  27.529  23.598  1.00  0.00    -0.246 OA
BRANCH   6   8
ATOM      8  C   UNL A   1      32.161  26.288  24.674  1.00  0.00     0.062 A 
ATOM      9  C   UNL A   1      31.267  24.106  24.102  1.00  0.00     0.045 A 
ATOM     10  C   UNL A   1      31.812  25.377  23.705  1.00  0.00     0.042 A 
ATOM     11  C   UNL A   1      30.958  23.757  25.437  1.00  0.00    -0.027 A 
ATOM     12  C   UNL A   1      31.435  24.598  26.402  1.00  0.00     0.006 A 
ATOM     13  C   UNL A   1      30.383  22.458  25.930  1.00  0.00     0.046 C 
ATOM     14  C   UNL A   1      32.052  25.767  25.987  1.00  0.00     0.016 A 
BRANCH   9  15
ATOM     15  N   UNL A   1      31.112  23.103  23.152  1.00  0.00    -0.322 N 
ATOM     16  C   UNL A   1      31.942  22.023  22.956  1.00  0.00     0.259 C 
ATOM     17  O   UNL A   1      31.676  21.219  22.060  1.00  0.00    -0.269 OA
ATOM     18  H   UNL A   1      30.329  23.172  22.559  1.00  0.00     0.170 HD
BRANCH  16  19
ATOM     19  C   UNL A   1      33.135  21.751  23.797  1.00  0.00     0.082 A 
ATOM     20  C   UNL A   1      33.337  20.568  24.522  1.00  0.00     0.132 A 
ATOM     21  C   UNL A   1      34.579  20.320  25.131  1.00  0.00     0.056 A 
ATOM     22  C   UNL A   1      35.637  21.238  25.012  1.00  0.00    -0.015 A 
ATOM     23  C   UNL A   1      34.194  22.655  23.655  1.00  0.00     0.026 A 
ATOM     24  C   UNL A   1      36.871  21.036  25.657  1.00  0.00     0.009 A 
ATOM     25  C   UNL A   1      35.439  22.416  24.258  1.00  0.00    -0.017 A 
ATOM     26  C   UNL A   1      37.894  21.978  25.545  1.00  0.00     0.001 A 
ATOM     27  C   UNL A   1      36.487  23.336  24.131  1.00  0.00     0.009 A 
ATOM     28  C   UNL A   1      37.707  23.118  24.770  1.00  0.00     0.001 A 
BRANCH  20  29
ATOM     29  O   UNL A   1      32.306  19.701  24.747  1.00  0.00    -0.496 OA
ATOM     30  C   UNL A   1      32.695  18.489  25.388  1.00  0.00     0.278 C 
ENDBRANCH  20  29
ENDBRANCH  16  19
ENDBRANCH   9  15
ENDBRANCH   6   8
ENDBRANCH   5   6
ENDBRANCH   4   5
ENDBRANCH   3   4
ENDBRANCH   2   3
ENDBRANCH   1   2
BRANCH   1  31
ATOM     31  C   UNL A   1      36.674  30.836  28.858  1.00  0.00     0.188 C 
BRANCH  31  32
ATOM     32  O   UNL A   1      36.634  31.720  29.965  1.00  0.00    -0.376 OA
BRANCH  32  33
ATOM     33  C   UNL A   1      35.551  31.545  30.863  1.00  0.00     0.202 C 
BRANCH  33  34
ATOM     34  C   UNL A   1      34.574  32.732  30.887  1.00  0.00     0.261 C 
BRANCH  34  35
ATOM     35  O   UNL A   1      34.047  32.926  32.221  1.00  0.00    -0.460 OA
BRANCH  35  36
ATOM     36  C   UNL A   1      34.356  34.110  32.830  1.00  0.00     0.338 C 
ATOM     37  O   UNL A   1      33.638  35.102  32.830  1.00  0.00    -0.246 OA
BRANCH  36  38
ATOM     38  C   UNL A   1      35.797  34.120  33.242  1.00  0.00     0.060 A 
ATOM     39  C   UNL A   1      36.804  34.690  32.454  1.00  0.00     0.016 A 
ATOM     40  C   UNL A   1      36.176  33.165  34.141  1.00  0.00     0.016 A 
ATOM     41  C   UNL A   1      38.124  34.132  32.438  1.00  0.00     0.010 A 
ATOM     42  C   UNL A   1      37.351  32.479  33.846  1.00  0.00     0.010 A 
ATOM     43  C   UNL A   1      38.432  32.923  33.068  1.00  0.00    -0.014 A 
BRANCH  43  44
ATOM     44  C   UNL A   1      39.658  32.012  32.780  1.00  0.00     0.031 A 
ATOM     45  C   UNL A   1      39.768  30.699  31.969  1.00  0.00     0.074 A 
ATOM     46  C   UNL A   1      40.882  32.481  33.093  1.00  0.00     0.049 A 
ATOM     47  N   UNL A   1      40.562  30.497  30.938  1.00  0.00    -0.248 NA
ATOM     48  C   UNL A   1      38.942  29.503  32.247  1.00  0.00     0.031 C 
ATOM     49  C   UNL A   1      42.186  32.016  32.618  1.00  0.00     0.029 A 
ATOM     50  N   UNL A   1      41.196  33.315  34.165  1.00  0.00    -0.354 N 
ATOM     51  C   UNL A   1      40.217  29.304  30.319  1.00  0.00     0.074 A 
ATOM     52  C   UNL A   1      39.150  28.763  31.146  1.00  0.00     0.031 C 
ATOM     53  C   UNL A   1      43.093  32.240  33.577  1.00  0.00     0.029 A 
ATOM     54  C   UNL A   1      42.353  32.729  34.721  1.00  0.00     0.049 A 
ATOM     55  H   UNL A   1      40.720  34.123  34.464  1.00  0.00     0.167 HD
ATOM     56  C   UNL A   1      41.139  28.462  29.775  1.00  0.00     0.037 A 
ATOM     57  C   UNL A   1      42.260  32.078  35.915  1.00  0.00     0.037 A 
ATOM     58  C   UNL A   1      42.288  28.361  30.629  1.00  0.00     0.049 A 
ATOM     59  C   UNL A   1      42.627  30.611  35.819  1.00  0.00     0.074 A 
ATOM     60  C   UNL A   1      43.580  28.835  30.607  1.00  0.00     0.029 A 
ATOM     61  N   UNL A   1      42.068  27.826  31.884  1.00  0.00    -0.354 N 
ATOM     62  N   UNL A   1      42.538  29.874  34.741  1.00  0.00    -0.248 NA
ATOM     63  C   UNL A   1      43.189  29.882  36.951  1.00  0.00     0.031 C 
ATOM     64  C   UNL A   1      44.100  28.679  31.923  1.00  0.00     0.029 A 
ATOM     65  C   UNL A   1      43.133  28.070  32.708  1.00  0.00     0.049 A 
ATOM     66  H   UNL A   1      41.255  27.337  32.150  1.00  0.00     0.167 HD
ATOM     67  C   UNL A   1      43.025  28.616  35.014  1.00  0.00     0.074 A 
ATOM     68  C   UNL A   1      43.421  28.677  36.405  1.00  0.00     0.031 C 
ATOM     69  C   UNL A   1      43.094  27.615  34.084  1.00  0.00     0.037 A 
BRANCH  56  70
ATOM     70  C   UNL A   1      40.906  27.691  28.495  1.00  0.00     0.057 A 
ATOM     71  C   UNL A   1      40.057  26.565  28.462  1.00  0.00     0.134 A 
ATOM     72  C   UNL A   1      41.554  27.972  27.276  1.00  0.00     0.134 A 
ATOM     73  F   UNL A   1      39.398  26.156  29.556  1.00  0.00    -0.206 F 
ATOM     74  C   UNL A   1      39.855  25.789  27.307  1.00  0.00     0.040 A 
ATOM     75  C   UNL A   1      41.357  27.204  26.111  1.00  0.00     0.040 A 
ATOM     76  F   UNL A   1      42.404  29.005  27.162  1.00  0.00    -0.206 F 
ATOM     77  C   UNL A   1      40.502  26.109  26.122  1.00  0.00     0.006 A 
ENDBRANCH  56  70
BRANCH  57  78
ATOM     78  C   UNL A   1      41.265  32.712  36.836  1.00  0.00     0.057 A 
ATOM     79  C   UNL A   1      41.658  33.901  37.496  1.00  0.00     0.134 A 
ATOM     80  C   UNL A   1      39.896  32.436  36.813  1.00  0.00     0.134 A 
ATOM     81  F   UNL A   1      42.958  34.238  37.562  1.00  0.00    -0.206 F 
ATOM     82  C   UNL A   1      40.736  34.842  37.961  1.00  0.00     0.040 A 
ATOM     83  C   UNL A   1      38.960  33.353  37.328  1.00  0.00     0.040 A 
ATOM     84  F   UNL A   1      39.426  31.346  36.190  1.00  0.00    -0.206 F 
ATOM     85  C   UNL A   1      39.376  34.576  37.859  1.00  0.00     0.006 A 
ENDBRANCH  57  78
BRANCH  69  86
ATOM     86  C   UNL A   1      43.208  26.125  34.374  1.00  0.00     0.057 A 
ATOM     87  C   UNL A   1      44.360  25.361  34.130  1.00  0.00     0.134 A 
ATOM     88  C   UNL A   1      42.189  25.432  35.074  1.00  0.00     0.134 A 
ATOM     89  F   UNL A   1      45.476  25.905  33.632  1.00  0.00    -0.206 F 
ATOM     90  C   UNL A   1      44.454  23.999  34.454  1.00  0.00     0.040 A 
ATOM     91  C   UNL A   1      42.295  24.088  35.455  1.00  0.00     0.040 A 
ATOM     92  F   UNL A   1      41.061  26.036  35.472  1.00  0.00    -0.206 F 
ATOM     93  C   UNL A   1      43.422  23.357  35.121  1.00  0.00     0.006 A 
ENDBRANCH  69  86
ENDBRANCH  43  44
ENDBRANCH  36  38
ENDBRANCH  35  36
ENDBRANCH  34  35
ENDBRANCH  33  34
ENDBRANCH  32  33
ENDBRANCH  31  32
ENDBRANCH   1  31
TORSDOF 20
ENDMDL
MODEL 2
REMARK VINA RESULT:     -10.9      3.223      8.180
REMARK SMILES COc1cc2ccccc2cc1C(=O)Nc1cc(C(=O)OCCOCCOCCOC(=O)c2ccc(-c3c4nc(c(-c5c(F)cccc5F)c5ccc([nH]5)c(-c5c(F)cccc5F)c5nc(c(-c6c(F)cccc6F)c6ccc3[nH]6)C=C5)C=C4)cc2)ccc1C
REMARK SMILES IDX 25 1 24 2 23 3 22 4 21 5 19 6 20 7 18 8 16 9 17 10 89 11
REMARK SMILES IDX 88 12 90 13 87 14 15 15 13 16 14 17 12 19 3 20 4 21 5 22
REMARK SMILES IDX 11 23 6 24 10 25 7 26 9 27 8 28 2 29 1 30 26 31 27 32 28 33
REMARK SMILES IDX 29 34 30 35 31 36 32 37 33 38 34 39 86 40 35 41 85 42 36 43
REMARK SMILES IDX 37 44 38 45 79 46 39 47 84 48 78 49 80 50 40 51 83 52 77 53
REMARK SMILES IDX 76 54 41 56 67 57 50 58 66 59 51 60 54 61 65 62 81 63 52 64
REMARK SMILES IDX 53 65 64 67 82 68 55 69 42 70 43 71 48 72 44 73 45 74 47 75
REMARK SMILES IDX 49 76 46 77 68 78 69 79 74 80 70 81 71 82 73 83 75 84 72 85
REMARK SMILES IDX 56 86 57 87 62 88 58 89 59 90 61 91 63 92 60 93
REMARK H PARENT 15 18 80 55 54 66
REMARK Flexibility Score: inf
ROOT
ATOM      1  C   UNL A   1      41.480  21.534  26.118  1.00  0.00     0.188 C 
ENDROOT
BRANCH   1   2
ATOM      2  O   UNL A   1      40.934  21.980  27.364  1.00  0.00    -0.376 OA
BRANCH   2   3
ATOM      3  C   UNL A   1      40.456  23.315  27.529  1.00  0.00     0.202 C 
BRANCH   3   4
ATOM      4  C   UNL A   1      39.369  23.800  26.465  1.00  0.00     0.261 C 
BRANCH   4   5
ATOM      5  O   UNL A   1      37.914  23.994  26.855  1.00  0.00    -0.460 OA
BRANCH   5   6
ATOM      6  C   UNL A   1      37.076  23.415  25.964  1.00  0.00     0.338 C 
ATOM      7  O   UNL A   1      37.394  23.563  24.806  1.00  0.00    -0.246 OA
BRANCH   6   8
ATOM      8  C   UNL A   1      35.872  22.510  26.079  1.00  0.00     0.062 A 
ATOM      9  C   UNL A   1      33.588  21.807  26.505  1.00  0.00     0.045 A 
ATOM     10  C   UNL A   1      34.684  22.708  26.745  1.00  0.00     0.042 A 
ATOM     11  C   UNL A   1      33.674  20.648  25.700  1.00  0.00    -0.027 A 
ATOM     12  C   UNL A   1      34.799  20.534  24.933  1.00  0.00     0.006 A 
ATOM     13  C   UNL A   1      32.581  19.658  25.407  1.00  0.00     0.046 C 
ATOM     14  C   UNL A   1      35.796  21.480  25.109  1.00  0.00     0.016 A 
BRANCH   9  15
ATOM     15  N   UNL A   1      32.328  22.119  27.003  1.00  0.00    -0.322 N 
ATOM     16  C   UNL A   1      31.595  23.252  26.731  1.00  0.00     0.259 C 
ATOM     17  O   UNL A   1      30.491  23.391  27.260  1.00  0.00    -0.269 OA
ATOM     18  H   UNL A   1      31.918  21.463  27.611  1.00  0.00     0.170 HD
BRANCH  16  19
ATOM     19  C   UNL A   1      32.053  24.312  25.797  1.00  0.00     0.082 A 
ATOM     20  C   UNL A   1      31.990  24.215  24.400  1.00  0.00     0.132 A 
ATOM     21  C   UNL A   1      32.264  25.341  23.604  1.00  0.00     0.056 A 
ATOM     22  C   UNL A   1      32.586  26.577  24.189  1.00  0.00    -0.015 A 
ATOM     23  C   UNL A   1      32.348  25.548  26.384  1.00  0.00     0.026 A 
ATOM     24  C   UNL A   1      32.916  27.702  23.413  1.00  0.00     0.009 A 
ATOM     25  C   UNL A   1      32.621  26.678  25.598  1.00  0.00    -0.017 A 
ATOM     26  C   UNL A   1      33.260  28.909  24.020  1.00  0.00     0.001 A 
ATOM     27  C   UNL A   1      32.939  27.906  26.192  1.00  0.00     0.009 A 
ATOM     28  C   UNL A   1      33.256  29.015  25.408  1.00  0.00     0.001 A 
BRANCH  20  29
ATOM     29  O   UNL A   1      31.782  23.010  23.791  1.00  0.00    -0.496 OA
ATOM     30  C   UNL A   1      32.645  22.760  22.686  1.00  0.00     0.278 C 
ENDBRANCH  20  29
ENDBRANCH  16  19
ENDBRANCH   9  15
ENDBRANCH   6   8
ENDBRANCH   5   6
ENDBRANCH   4   5
ENDBRANCH   3   4
ENDBRANCH   2   3
ENDBRANCH   1   2
BRANCH   1  31
ATOM     31  C   UNL A   1      42.889  21.993  25.706  1.00  0.00     0.188 C 
BRANCH  31  32
ATOM     32  O   UNL A   1      42.848  23.229  25.014  1.00  0.00    -0.376 OA
BRANCH  32  33
ATOM     33  C   UNL A   1      44.095  23.875  24.820  1.00  0.00     0.202 C 
BRANCH  33  34
ATOM     34  C   UNL A   1      44.132  25.314  25.362  1.00  0.00     0.261 C 
BRANCH  34  35
ATOM     35  O   UNL A   1      42.890  25.996  25.072  1.00  0.00    -0.460 OA
BRANCH  35  36
ATOM     36  C   UNL A   1      42.838  27.325  25.389  1.00  0.00     0.338 C 
ATOM     37  O   UNL A   1      43.807  28.071  25.426  1.00  0.00    -0.246 OA
BRANCH  36  38
ATOM     38  C   UNL A   1      41.494  27.668  25.958  1.00  0.00     0.060 A 
ATOM     39  C   UNL A   1      40.940  28.951  25.866  1.00  0.00     0.016 A 
ATOM     40  C   UNL A   1      41.040  26.865  26.964  1.00  0.00     0.016 A 
ATOM     41  C   UNL A   1      40.109  29.465  26.914  1.00  0.00     0.010 A 
ATOM     42  C   UNL A   1      40.513  27.516  28.076  1.00  0.00     0.010 A 
ATOM     43  C   UNL A   1      39.938  28.796  28.129  1.00  0.00    -0.014 A 
BRANCH  43  44
ATOM     44  C   UNL A   1      39.442  29.412  29.467  1.00  0.00     0.031 A 
ATOM     45  C   UNL A   1      38.685  30.732  29.748  1.00  0.00     0.074 A 
ATOM     46  C   UNL A   1      39.472  28.638  30.570  1.00  0.00     0.049 A 
ATOM     47  N   UNL A   1      37.522  30.837  30.356  1.00  0.00    -0.248 NA
ATOM     48  C   UNL A   1      39.182  32.058  29.317  1.00  0.00     0.031 C 
ATOM     49  C   UNL A   1      38.758  28.824  31.834  1.00  0.00     0.029 A 
ATOM     50  N   UNL A   1      40.417  27.656  30.862  1.00  0.00    -0.354 N 
ATOM     51  C   UNL A   1      37.042  32.131  30.210  1.00  0.00     0.074 A 
ATOM     52  C   UNL A   1      38.097  32.829  29.492  1.00  0.00     0.031 C 
ATOM     53  C   UNL A   1      39.497  28.301  32.821  1.00  0.00     0.029 A 
ATOM     54  C   UNL A   1      40.746  27.895  32.213  1.00  0.00     0.049 A 
ATOM     55  H   UNL A   1      40.772  26.959  30.264  1.00  0.00     0.167 HD
ATOM     56  C   UNL A   1      36.357  32.777  31.194  1.00  0.00     0.037 A 
ATOM     57  C   UNL A   1      41.961  28.433  32.516  1.00  0.00     0.037 A 
ATOM     58  C   UNL A   1      36.957  32.522  32.472  1.00  0.00     0.049 A 
ATOM     59  C   UNL A   1      41.857  29.773  33.215  1.00  0.00     0.074 A 
ATOM     60  C   UNL A   1      36.645  31.758  33.575  1.00  0.00     0.029 A 
ATOM     61  N   UNL A   1      38.253  32.972  32.638  1.00  0.00    -0.354 N 
ATOM     62  N   UNL A   1      40.855  30.609  33.112  1.00  0.00    -0.248 NA
ATOM     63  C   UNL A   1      42.878  30.237  34.148  1.00  0.00     0.031 C 
ATOM     64  C   UNL A   1      37.830  31.661  34.358  1.00  0.00     0.029 A 
ATOM     65  C   UNL A   1      38.825  32.405  33.743  1.00  0.00     0.049 A 
ATOM     66  H   UNL A   1      38.704  33.612  32.040  1.00  0.00     0.167 HD
ATOM     67  C   UNL A   1      41.077  31.684  33.942  1.00  0.00     0.074 A 
ATOM     68  C   UNL A   1      42.351  31.399  34.568  1.00  0.00     0.031 C 
ATOM     69  C   UNL A   1      40.199  32.724  34.083  1.00  0.00     0.037 A 
BRANCH  56  70
ATOM     70  C   UNL A   1      35.189  33.699  30.923  1.00  0.00     0.057 A 
ATOM     71  C   UNL A   1      34.507  33.676  29.689  1.00  0.00     0.134 A 
ATOM     72  C   UNL A   1      34.739  34.686  31.823  1.00  0.00     0.134 A 
ATOM     73  F   UNL A   1      34.847  32.812  28.721  1.00  0.00    -0.206 F 
ATOM     74  C   UNL A   1      33.452  34.552  29.378  1.00  0.00     0.040 A 
ATOM     75  C   UNL A   1      33.681  35.567  31.523  1.00  0.00     0.040 A 
ATOM     76  F   UNL A   1      35.305  34.836  33.031  1.00  0.00    -0.206 F 
ATOM     77  C   UNL A   1      33.030  35.501  30.298  1.00  0.00     0.006 A 
ENDBRANCH  56  70
BRANCH  57  78
ATOM     78  C   UNL A   1      43.040  27.969  31.588  1.00  0.00     0.057 A 
ATOM     79  C   UNL A   1      43.592  26.687  31.823  1.00  0.00     0.134 A 
ATOM     80  C   UNL A   1      43.279  28.528  30.330  1.00  0.00     0.134 A 
ATOM     81  F   UNL A   1      43.406  26.081  33.009  1.00  0.00    -0.206 F 
ATOM     82  C   UNL A   1      44.202  25.935  30.816  1.00  0.00     0.040 A 
ATOM     83  C   UNL A   1      43.942  27.800  29.324  1.00  0.00     0.040 A 
ATOM     84  F   UNL A   1      42.777  29.728  30.006  1.00  0.00    -0.206 F 
ATOM     85  C   UNL A   1      44.362  26.487  29.552  1.00  0.00     0.006 A 
ENDBRANCH  57  78
BRANCH  69  86
ATOM     86  C   UNL A   1      40.525  34.109  34.622  1.00  0.00     0.057 A 
ATOM     87  C   UNL A   1      41.382  35.020  33.984  1.00  0.00     0.134 A 
ATOM     88  C   UNL A   1      39.844  34.640  35.745  1.00  0.00     0.134 A 
ATOM     89  F   UNL A   1      41.971  34.738  32.817  1.00  0.00    -0.206 F 
ATOM     90  C   UNL A   1      41.626  36.310  34.479  1.00  0.00     0.040 A 
ATOM     91  C   UNL A   1      40.036  35.947  36.214  1.00  0.00     0.040 A 
ATOM     92  F   UNL A   1      38.920  33.939  36.415  1.00  0.00    -0.206 F 
ATOM     93  C   UNL A   1      40.951  36.780  35.595  1.00  0.00     0.006 A 
ENDBRANCH  69  86
ENDBRANCH  43  44
ENDBRANCH  36  38
ENDBRANCH  35  36
ENDBRANCH  34  35
ENDBRANCH  33  34
ENDBRANCH  32  33
ENDBRANCH  31  32
ENDBRANCH   1  31
TORSDOF 20
ENDMDL
MODEL 3
REMARK VINA RESULT:     -10.3      3.504      8.025
REMARK SMILES COc1cc2ccccc2cc1C(=O)Nc1cc(C(=O)OCCOCCOCCOC(=O)c2ccc(-c3c4nc(c(-c5c(F)cccc5F)c5ccc([nH]5)c(-c5c(F)cccc5F)c5nc(c(-c6c(F)cccc6F)c6ccc3[nH]6)C=C5)C=C4)cc2)ccc1C
REMARK SMILES IDX 25 1 24 2 23 3 22 4 21 5 19 6 20 7 18 8 16 9 17 10 89 11
REMARK SMILES IDX 88 12 90 13 87 14 15 15 13 16 14 17 12 19 3 20 4 21 5 22
REMARK SMILES IDX 11 23 6 24 10 25 7 26 9 27 8 28 2 29 1 30 26 31 27 32 28 33
REMARK SMILES IDX 29 34 30 35 31 36 32 37 33 38 34 39 86 40 35 41 85 42 36 43
REMARK SMILES IDX 37 44 38 45 79 46 39 47 84 48 78 49 80 50 40 51 83 52 77 53
REMARK SMILES IDX 76 54 41 56 67 57 50 58 66 59 51 60 54 61 65 62 81 63 52 64
REMARK SMILES IDX 53 65 64 67 82 68 55 69 42 70 43 71 48 72 44 73 45 74 47 75
REMARK SMILES IDX 49 76 46 77 68 78 69 79 74 80 70 81 71 82 73 83 75 84 72 85
REMARK SMILES IDX 56 86 57 87 62 88 58 89 59 90 61 91 63 92 60 93
REMARK H PARENT 15 18 80 55 54 66
REMARK Flexibility Score: inf
ROOT
ATOM      1  C   UNL A   1      41.422  20.392  26.193  1.00  0.00     0.188 C 
ENDROOT
BRANCH   1   2
ATOM      2  O   UNL A   1      39.994  20.351  26.291  1.00  0.00    -0.376 OA
BRANCH   2   3
ATOM      3  C   UNL A   1      39.227  19.413  25.536  1.00  0.00     0.202 C 
BRANCH   3   4
ATOM      4  C   UNL A   1      37.786  19.913  25.064  1.00  0.00     0.261 C 
BRANCH   4   5
ATOM      5  O   UNL A   1      37.630  21.078  24.103  1.00  0.00    -0.460 OA
BRANCH   5   6
ATOM      6  C   UNL A   1      37.219  22.200  24.738  1.00  0.00     0.338 C 
ATOM      7  O   UNL A   1      37.991  22.617  25.571  1.00  0.00    -0.246 OA
BRANCH   6   8
ATOM      8  C   UNL A   1      36.049  23.142  24.570  1.00  0.00     0.062 A 
ATOM      9  C   UNL A   1      33.836  23.934  23.966  1.00  0.00     0.045 A 
ATOM     10  C   UNL A   1      34.935  23.026  23.771  1.00  0.00     0.042 A 
ATOM     11  C   UNL A   1      33.858  25.027  24.864  1.00  0.00    -0.027 A 
ATOM     12  C   UNL A   1      34.897  25.052  25.750  1.00  0.00     0.006 A 
ATOM     13  C   UNL A   1      32.758  26.019  25.119  1.00  0.00     0.046 C 
ATOM     14  C   UNL A   1      35.890  24.098  25.604  1.00  0.00     0.016 A 
BRANCH   9  15
ATOM     15  N   UNL A   1      32.630  23.694  23.318  1.00  0.00    -0.322 N 
ATOM     16  C   UNL A   1      31.936  22.506  23.290  1.00  0.00     0.259 C 
ATOM     17  O   UNL A   1      30.879  22.447  22.659  1.00  0.00    -0.269 OA
ATOM     18  H   UNL A   1      32.232  24.451  22.830  1.00  0.00     0.170 HD
BRANCH  16  19
ATOM     19  C   UNL A   1      32.378  21.288  24.014  1.00  0.00     0.082 A 
ATOM     20  C   UNL A   1      32.369  21.152  25.410  1.00  0.00     0.132 A 
ATOM     21  C   UNL A   1      32.620  19.899  25.995  1.00  0.00     0.056 A 
ATOM     22  C   UNL A   1      32.867  18.767  25.200  1.00  0.00    -0.015 A 
ATOM     23  C   UNL A   1      32.598  20.158  23.219  1.00  0.00     0.026 A 
ATOM     24  C   UNL A   1      33.173  17.516  25.764  1.00  0.00     0.009 A 
ATOM     25  C   UNL A   1      32.848  18.902  23.793  1.00  0.00    -0.017 A 
ATOM     26  C   UNL A   1      33.441  16.416  24.951  1.00  0.00     0.001 A 
ATOM     27  C   UNL A   1      33.090  17.780  22.992  1.00  0.00     0.009 A 
ATOM     28  C   UNL A   1      33.384  16.545  23.567  1.00  0.00     0.001 A 
BRANCH  20  29
ATOM     29  O   UNL A   1      32.235  22.245  26.218  1.00  0.00    -0.496 OA
ATOM     30  C   UNL A   1      33.097  22.237  27.353  1.00  0.00     0.278 C 
ENDBRANCH  20  29
ENDBRANCH  16  19
ENDBRANCH   9  15
ENDBRANCH   6   8
ENDBRANCH   5   6
ENDBRANCH   4   5
ENDBRANCH   3   4
ENDBRANCH   2   3
ENDBRANCH   1   2
BRANCH   1  31
ATOM     31  C   UNL A   1      42.171  21.658  26.645  1.00  0.00     0.188 C 
BRANCH  31  32
ATOM     32  O   UNL A   1      41.704  22.807  25.960  1.00  0.00    -0.376 OA
BRANCH  32  33
ATOM     33  C   UNL A   1      42.675  23.801  25.679  1.00  0.00     0.202 C 
BRANCH  33  34
ATOM     34  C   UNL A   1      42.102  25.228  25.648  1.00  0.00     0.261 C 
BRANCH  34  35
ATOM     35  O   UNL A   1      40.851  25.286  26.372  1.00  0.00    -0.460 OA
BRANCH  35  36
ATOM     36  C   UNL A   1      40.925  25.665  27.683  1.00  0.00     0.338 C 
ATOM     37  O   UNL A   1      41.222  24.921  28.609  1.00  0.00    -0.246 OA
BRANCH  36  38
ATOM     38  C   UNL A   1      40.319  27.024  27.864  1.00  0.00     0.060 A 
ATOM     39  C   UNL A   1      40.951  28.197  27.432  1.00  0.00     0.016 A 
ATOM     40  C   UNL A   1      39.394  27.147  28.860  1.00  0.00     0.016 A 
ATOM     41  C   UNL A   1      40.795  29.421  28.159  1.00  0.00     0.010 A 
ATOM     42  C   UNL A   1      39.539  28.252  29.696  1.00  0.00     0.010 A 
ATOM     43  C   UNL A   1      40.152  29.479  29.398  1.00  0.00    -0.014 A 
BRANCH  43  44
ATOM     44  C   UNL A   1      40.286  30.603  30.462  1.00  0.00     0.031 A 
ATOM     45  C   UNL A   1      41.082  30.645  31.789  1.00  0.00     0.074 A 
ATOM     46  C   UNL A   1      39.819  31.829  30.150  1.00  0.00     0.049 A 
ATOM     47  N   UNL A   1      42.004  31.529  32.105  1.00  0.00    -0.248 NA
ATOM     48  C   UNL A   1      40.915  29.642  32.865  1.00  0.00     0.031 C 
ATOM     49  C   UNL A   1      40.127  33.111  30.786  1.00  0.00     0.029 A 
ATOM     50  N   UNL A   1      38.713  32.110  29.351  1.00  0.00    -0.354 N 
ATOM     51  C   UNL A   1      42.667  31.113  33.251  1.00  0.00     0.074 A 
ATOM     52  C   UNL A   1      41.982  29.890  33.640  1.00  0.00     0.031 C 
ATOM     53  C   UNL A   1      39.061  33.911  30.668  1.00  0.00     0.029 A 
ATOM     54  C   UNL A   1      38.018  33.103  30.073  1.00  0.00     0.049 A 
ATOM     55  H   UNL A   1      38.474  31.709  28.484  1.00  0.00     0.167 HD
ATOM     56  C   UNL A   1      43.093  31.980  34.211  1.00  0.00     0.037 A 
ATOM     57  C   UNL A   1      36.848  32.777  30.691  1.00  0.00     0.037 A 
ATOM     58  C   UNL A   1      42.101  32.989  34.449  1.00  0.00     0.049 A 
ATOM     59  C   UNL A   1      36.901  32.961  32.194  1.00  0.00     0.074 A 
ATOM     60  C   UNL A   1      41.958  34.325  34.145  1.00  0.00     0.029 A 
ATOM     61  N   UNL A   1      40.885  32.547  34.935  1.00  0.00    -0.354 N 
ATOM     62  N   UNL A   1      37.985  32.914  32.928  1.00  0.00    -0.248 NA
ATOM     63  C   UNL A   1      35.710  33.278  32.975  1.00  0.00     0.031 C 
ATOM     64  C   UNL A   1      40.587  34.651  34.350  1.00  0.00     0.029 A 
ATOM     65  C   UNL A   1      39.933  33.522  34.819  1.00  0.00     0.049 A 
ATOM     66  H   UNL A   1      40.725  31.651  35.312  1.00  0.00     0.167 HD
ATOM     67  C   UNL A   1      37.657  33.196  34.235  1.00  0.00     0.074 A 
ATOM     68  C   UNL A   1      36.226  33.419  34.207  1.00  0.00     0.031 C 
ATOM     69  C   UNL A   1      38.574  33.252  35.248  1.00  0.00     0.037 A 
BRANCH  56  70
ATOM     70  C   UNL A   1      44.394  31.812  34.963  1.00  0.00     0.057 A 
ATOM     71  C   UNL A   1      44.422  31.290  36.273  1.00  0.00     0.134 A 
ATOM     72  C   UNL A   1      45.649  32.219  34.467  1.00  0.00     0.134 A 
ATOM     73  F   UNL A   1      43.300  30.893  36.889  1.00  0.00    -0.206 F 
ATOM     74  C   UNL A   1      45.604  31.168  37.025  1.00  0.00     0.040 A 
ATOM     75  C   UNL A   1      46.840  32.098  35.210  1.00  0.00     0.040 A 
ATOM     76  F   UNL A   1      45.774  32.748  33.240  1.00  0.00    -0.206 F 
ATOM     77  C   UNL A   1      46.821  31.567  36.494  1.00  0.00     0.006 A 
ENDBRANCH  56  70
BRANCH  57  78
ATOM     78  C   UNL A   1      36.057  31.765  29.923  1.00  0.00     0.057 A 
ATOM     79  C   UNL A   1      35.283  32.235  28.835  1.00  0.00     0.134 A 
ATOM     80  C   UNL A   1      36.303  30.390  29.963  1.00  0.00     0.134 A 
ATOM     81  F   UNL A   1      35.002  33.545  28.724  1.00  0.00    -0.206 F 
ATOM     82  C   UNL A   1      34.916  31.416  27.764  1.00  0.00     0.040 A 
ATOM     83  C   UNL A   1      35.890  29.546  28.915  1.00  0.00     0.040 A 
ATOM     84  F   UNL A   1      37.047  29.855  30.942  1.00  0.00    -0.206 F 
ATOM     85  C   UNL A   1      35.238  30.065  27.794  1.00  0.00     0.006 A 
ENDBRANCH  57  78
BRANCH  69  86
ATOM     86  C   UNL A   1      38.277  33.136  36.736  1.00  0.00     0.057 A 
ATOM     87  C   UNL A   1      37.828  31.961  37.360  1.00  0.00     0.134 A 
ATOM     88  C   UNL A   1      38.594  34.185  37.634  1.00  0.00     0.134 A 
ATOM     89  F   UNL A   1      37.646  30.824  36.679  1.00  0.00    -0.206 F 
ATOM     90  C   UNL A   1      37.610  31.869  38.742  1.00  0.00     0.040 A 
ATOM     91  C   UNL A   1      38.435  34.084  39.022  1.00  0.00     0.040 A 
ATOM     92  F   UNL A   1      39.124  35.344  37.216  1.00  0.00    -0.206 F 
ATOM     93  C   UNL A   1      37.916  32.930  39.581  1.00  0.00     0.006 A 
ENDBRANCH  69  86
ENDBRANCH  43  44
ENDBRANCH  36  38
ENDBRANCH  35  36
ENDBRANCH  34  35
ENDBRANCH  33  34
ENDBRANCH  32  33
ENDBRANCH  31  32
ENDBRANCH   1  31
TORSDOF 20
ENDMDL
