MODEL 1
REMARK VINA RESULT:     -11.5      0.000      0.000
REMARK SMILES O=C(OCCOCCOCCOC(=O)[C@@H]1CCCC[C@H]1C(=O)Nc1ccccc1C(=O)N1CCOCC1)c1ccc(-c2c3nc(c(-c4c(F)cccc4F)c4ccc([nH]4)c(-c4c(F)cccc4F)c4nc(c(-c5c(F)cccc5F)c5ccc2[nH]5)C=C4)C=C3)cc1
REMARK SMILES IDX 8 1 7 2 6 3 5 4 4 5 3 6 2 7 1 8 38 9 39 10 91 11 40 12 90 13
REMARK SMILES IDX 41 14 42 15 43 16 84 17 44 18 89 19 83 20 85 21 45 22 88 23
REMARK SMILES IDX 82 24 81 25 46 27 72 28 55 29 71 30 56 31 59 32 70 33 86 34
REMARK SMILES IDX 57 35 58 36 69 38 87 39 60 40 47 41 48 42 53 43 49 44 50 45
REMARK SMILES IDX 52 46 54 47 51 48 73 49 74 50 79 51 75 52 76 53 78 54 80 55
REMARK SMILES IDX 77 56 61 57 62 58 67 59 63 60 64 61 66 62 68 63 65 64 9 65
REMARK SMILES IDX 10 66 11 67 12 68 13 69 14 70 15 71 16 72 20 73 17 74 19 75
REMARK SMILES IDX 18 76 21 77 22 78 23 79 24 81 25 82 29 83 26 84 28 85 27 86
REMARK SMILES IDX 30 87 31 88 32 89 33 90 37 91 34 92 36 93 35 94
REMARK H PARENT 85 26 59 37 23 80
REMARK Flexibility Score: inf
ROOT
ATOM      1  C   UNL A   1      40.467  21.765  26.998  1.00  0.00     0.188 C 
ENDROOT
BRANCH   1   2
ATOM      2  C   UNL A   1      41.659  20.860  26.605  1.00  0.00     0.188 C 
BRANCH   2   3
ATOM      3  O   UNL A   1      42.391  21.376  25.496  1.00  0.00    -0.376 OA
BRANCH   3   4
ATOM      4  C   UNL A   1      43.807  21.224  25.580  1.00  0.00     0.202 C 
BRANCH   4   5
ATOM      5  C   UNL A   1      44.613  22.108  24.616  1.00  0.00     0.261 C 
BRANCH   5   6
ATOM      6  O   UNL A   1      44.008  23.400  24.476  1.00  0.00    -0.460 OA
BRANCH   6   7
ATOM      7  C   UNL A   1      44.708  24.492  24.844  1.00  0.00     0.338 C 
ATOM      8  O   UNL A   1      45.905  24.657  24.611  1.00  0.00    -0.246 OA
BRANCH   7   9
ATOM      9  C   UNL A   1      43.978  25.278  25.864  1.00  0.00     0.060 A 
ATOM     10  C   UNL A   1      44.421  26.544  26.259  1.00  0.00     0.016 A 
ATOM     11  C   UNL A   1      42.773  24.774  26.366  1.00  0.00     0.016 A 
ATOM     12  C   UNL A   1      43.642  27.327  27.115  1.00  0.00     0.010 A 
ATOM     13  C   UNL A   1      41.974  25.575  27.192  1.00  0.00     0.010 A 
ATOM     14  C   UNL A   1      42.415  26.849  27.592  1.00  0.00    -0.014 A 
BRANCH  14  15
ATOM     15  C   UNL A   1      41.752  27.563  28.712  1.00  0.00     0.031 A 
ATOM     16  C   UNL A   1      42.365  27.396  30.074  1.00  0.00     0.074 A 
ATOM     17  C   UNL A   1      40.721  28.418  28.544  1.00  0.00     0.049 A 
ATOM     18  N   UNL A   1      42.127  28.060  31.174  1.00  0.00    -0.248 NA
ATOM     19  C   UNL A   1      43.418  26.372  30.205  1.00  0.00     0.031 C 
ATOM     20  C   UNL A   1      40.046  28.716  27.285  1.00  0.00     0.029 A 
ATOM     21  N   UNL A   1      40.057  29.197  29.464  1.00  0.00    -0.354 N 
ATOM     22  C   UNL A   1      43.069  27.607  32.083  1.00  0.00     0.074 A 
ATOM     23  C   UNL A   1      43.786  26.518  31.464  1.00  0.00     0.031 C 
ATOM     24  C   UNL A   1      39.032  29.573  27.520  1.00  0.00     0.029 A 
ATOM     25  C   UNL A   1      38.996  29.898  28.942  1.00  0.00     0.049 A 
ATOM     26  H   UNL A   1      40.320  29.247  30.412  1.00  0.00     0.167 HD
ATOM     27  C   UNL A   1      43.378  28.104  33.300  1.00  0.00     0.037 A 
ATOM     28  C   UNL A   1      38.106  30.705  29.553  1.00  0.00     0.037 A 
ATOM     29  C   UNL A   1      42.632  29.133  33.959  1.00  0.00     0.049 A 
ATOM     30  C   UNL A   1      38.311  31.064  30.998  1.00  0.00     0.074 A 
ATOM     31  C   UNL A   1      42.840  29.688  35.206  1.00  0.00     0.029 A 
ATOM     32  N   UNL A   1      41.502  29.734  33.428  1.00  0.00    -0.354 N 
ATOM     33  N   UNL A   1      39.270  30.701  31.813  1.00  0.00    -0.248 NA
ATOM     34  C   UNL A   1      37.337  31.996  31.588  1.00  0.00     0.031 C 
ATOM     35  C   UNL A   1      41.802  30.593  35.453  1.00  0.00     0.029 A 
ATOM     36  C   UNL A   1      40.977  30.631  34.340  1.00  0.00     0.049 A 
ATOM     37  H   UNL A   1      41.129  29.550  32.536  1.00  0.00     0.167 HD
ATOM     38  C   UNL A   1      39.050  31.406  32.989  1.00  0.00     0.074 A 
ATOM     39  C   UNL A   1      37.857  32.201  32.789  1.00  0.00     0.031 C 
ATOM     40  C   UNL A   1      39.792  31.417  34.123  1.00  0.00     0.037 A 
BRANCH  27  41
ATOM     41  C   UNL A   1      44.598  27.534  33.946  1.00  0.00     0.057 A 
ATOM     42  C   UNL A   1      45.866  28.076  33.684  1.00  0.00     0.134 A 
ATOM     43  C   UNL A   1      44.526  26.403  34.762  1.00  0.00     0.134 A 
ATOM     44  F   UNL A   1      45.998  29.141  32.878  1.00  0.00    -0.206 F 
ATOM     45  C   UNL A   1      47.025  27.490  34.189  1.00  0.00     0.040 A 
ATOM     46  C   UNL A   1      45.679  25.820  35.289  1.00  0.00     0.040 A 
ATOM     47  F   UNL A   1      43.344  25.830  35.031  1.00  0.00    -0.206 F 
ATOM     48  C   UNL A   1      46.932  26.358  34.996  1.00  0.00     0.006 A 
ENDBRANCH  27  41
BRANCH  28  49
ATOM     49  C   UNL A   1      36.920  31.253  28.849  1.00  0.00     0.057 A 
ATOM     50  C   UNL A   1      36.838  32.593  28.456  1.00  0.00     0.134 A 
ATOM     51  C   UNL A   1      35.771  30.470  28.700  1.00  0.00     0.134 A 
ATOM     52  F   UNL A   1      37.874  33.418  28.656  1.00  0.00    -0.206 F 
ATOM     53  C   UNL A   1      35.661  33.125  27.922  1.00  0.00     0.040 A 
ATOM     54  C   UNL A   1      34.598  30.979  28.139  1.00  0.00     0.040 A 
ATOM     55  F   UNL A   1      35.768  29.196  29.121  1.00  0.00    -0.206 F 
ATOM     56  C   UNL A   1      34.540  32.313  27.750  1.00  0.00     0.006 A 
ENDBRANCH  28  49
BRANCH  40  57
ATOM     57  C   UNL A   1      39.367  32.355  35.209  1.00  0.00     0.057 A 
ATOM     58  C   UNL A   1      38.506  31.958  36.238  1.00  0.00     0.134 A 
ATOM     59  C   UNL A   1      39.858  33.667  35.239  1.00  0.00     0.134 A 
ATOM     60  F   UNL A   1      37.984  30.723  36.252  1.00  0.00    -0.206 F 
ATOM     61  C   UNL A   1      38.134  32.841  37.253  1.00  0.00     0.040 A 
ATOM     62  C   UNL A   1      39.518  34.547  36.263  1.00  0.00     0.040 A 
ATOM     63  F   UNL A   1      40.689  34.106  34.281  1.00  0.00    -0.206 F 
ATOM     64  C   UNL A   1      38.649  34.136  37.272  1.00  0.00     0.006 A 
ENDBRANCH  40  57
ENDBRANCH  14  15
ENDBRANCH   7   9
ENDBRANCH   6   7
ENDBRANCH   5   6
ENDBRANCH   4   5
ENDBRANCH   3   4
ENDBRANCH   2   3
ENDBRANCH   1   2
BRANCH   1  65
ATOM     65  O   UNL A   1      39.495  21.971  25.974  1.00  0.00    -0.376 OA
BRANCH  65  66
ATOM     66  C   UNL A   1      38.432  22.904  26.225  1.00  0.00     0.202 C 
BRANCH  66  67
ATOM     67  C   UNL A   1      37.228  22.884  25.255  1.00  0.00     0.261 C 
BRANCH  67  68
ATOM     68  O   UNL A   1      36.305  24.027  25.289  1.00  0.00    -0.463 OA
BRANCH  68  69
ATOM     69  C   UNL A   1      35.063  23.720  25.769  1.00  0.00     0.309 C 
ATOM     70  O   UNL A   1      34.906  23.226  26.891  1.00  0.00    -0.252 OA
BRANCH  69  71
ATOM     71  C   UNL A   1      33.824  23.743  24.816  1.00  0.00     0.111 C 
ATOM     72  C   UNL A   1      33.524  22.208  24.737  1.00  0.00     0.016 C 
ATOM     73  C   UNL A   1      33.560  24.334  23.384  1.00  0.00     0.093 C 
ATOM     74  C   UNL A   1      32.100  21.907  24.314  1.00  0.00     0.001 C 
ATOM     75  C   UNL A   1      32.095  23.987  22.963  1.00  0.00     0.014 C 
ATOM     76  C   UNL A   1      31.826  22.505  22.954  1.00  0.00     0.001 C 
BRANCH  73  77
ATOM     77  C   UNL A   1      33.641  25.756  22.757  1.00  0.00     0.228 C 
ATOM     78  O   UNL A   1      34.002  25.845  21.573  1.00  0.00    -0.274 OA
ATOM     79  N   UNL A   1      33.066  26.883  23.267  1.00  0.00    -0.325 N 
ATOM     80  H   UNL A   1      32.916  27.608  22.620  1.00  0.00     0.169 HD
BRANCH  79  81
ATOM     81  C   UNL A   1      32.660  27.155  24.573  1.00  0.00     0.054 A 
ATOM     82  C   UNL A   1      33.653  27.123  25.555  1.00  0.00     0.027 A 
ATOM     83  C   UNL A   1      31.348  27.493  24.917  1.00  0.00     0.063 A 
ATOM     84  C   UNL A   1      33.402  27.683  26.805  1.00  0.00     0.002 A 
ATOM     85  C   UNL A   1      31.117  28.117  26.148  1.00  0.00     0.016 A 
ATOM     86  C   UNL A   1      32.156  28.245  27.074  1.00  0.00     0.001 A 
BRANCH  83  87
ATOM     87  C   UNL A   1      30.178  27.132  24.059  1.00  0.00     0.256 C 
ATOM     88  O   UNL A   1      29.797  25.971  23.974  1.00  0.00    -0.269 OA
ATOM     89  N   UNL A   1      29.568  28.169  23.369  1.00  0.00    -0.334 N 
ATOM     90  C   UNL A   1      30.121  28.541  22.073  1.00  0.00     0.148 C 
ATOM     91  C   UNL A   1      28.134  28.370  23.493  1.00  0.00     0.148 C 
ATOM     92  C   UNL A   1      29.599  29.904  21.632  1.00  0.00     0.181 C 
ATOM     93  C   UNL A   1      27.633  29.643  22.866  1.00  0.00     0.181 C 
ATOM     94  O   UNL A   1      28.173  29.861  21.563  1.00  0.00    -0.378 OA
ENDBRANCH  83  87
ENDBRANCH  79  81
ENDBRANCH  73  77
ENDBRANCH  69  71
ENDBRANCH  68  69
ENDBRANCH  67  68
ENDBRANCH  66  67
ENDBRANCH  65  66
ENDBRANCH   1  65
TORSDOF 20
ENDMDL
MODEL 2
REMARK VINA RESULT:     -11.0      4.304      6.599
REMARK SMILES O=C(OCCOCCOCCOC(=O)[C@@H]1CCCC[C@H]1C(=O)Nc1ccccc1C(=O)N1CCOCC1)c1ccc(-c2c3nc(c(-c4c(F)cccc4F)c4ccc([nH]4)c(-c4c(F)cccc4F)c4nc(c(-c5c(F)cccc5F)c5ccc2[nH]5)C=C4)C=C3)cc1
REMARK SMILES IDX 8 1 7 2 6 3 5 4 4 5 3 6 2 7 1 8 38 9 39 10 91 11 40 12 90 13
REMARK SMILES IDX 41 14 42 15 43 16 84 17 44 18 89 19 83 20 85 21 45 22 88 23
REMARK SMILES IDX 82 24 81 25 46 27 72 28 55 29 71 30 56 31 59 32 70 33 86 34
REMARK SMILES IDX 57 35 58 36 69 38 87 39 60 40 47 41 48 42 53 43 49 44 50 45
REMARK SMILES IDX 52 46 54 47 51 48 73 49 74 50 79 51 75 52 76 53 78 54 80 55
REMARK SMILES IDX 77 56 61 57 62 58 67 59 63 60 64 61 66 62 68 63 65 64 9 65
REMARK SMILES IDX 10 66 11 67 12 68 13 69 14 70 15 71 16 72 20 73 17 74 19 75
REMARK SMILES IDX 18 76 21 77 22 78 23 79 24 81 25 82 29 83 26 84 28 85 27 86
REMARK SMILES IDX 30 87 31 88 32 89 33 90 37 91 34 92 36 93 35 94
REMARK H PARENT 85 26 59 37 23 80
REMARK Flexibility Score: inf
ROOT
ATOM      1  C   UNL A   1      40.458  21.244  26.291  1.00  0.00     0.188 C 
ENDROOT
BRANCH   1   2
ATOM      2  C   UNL A   1      41.592  21.189  27.342  1.00  0.00     0.188 C 
BRANCH   2   3
ATOM      3  O   UNL A   1      42.343  19.979  27.270  1.00  0.00    -0.376 OA
BRANCH   3   4
ATOM      4  C   UNL A   1      42.031  19.137  26.161  1.00  0.00     0.202 C 
BRANCH   4   5
ATOM      5  C   UNL A   1      43.242  18.476  25.487  1.00  0.00     0.261 C 
BRANCH   5   6
ATOM      6  O   UNL A   1      43.599  19.164  24.281  1.00  0.00    -0.460 OA
BRANCH   6   7
ATOM      7  C   UNL A   1      44.850  19.649  24.150  1.00  0.00     0.338 C 
ATOM      8  O   UNL A   1      45.834  18.961  23.880  1.00  0.00    -0.246 OA
BRANCH   7   9
ATOM      9  C   UNL A   1      44.962  21.007  24.728  1.00  0.00     0.060 A 
ATOM     10  C   UNL A   1      45.238  21.199  26.085  1.00  0.00     0.016 A 
ATOM     11  C   UNL A   1      44.880  22.111  23.872  1.00  0.00     0.016 A 
ATOM     12  C   UNL A   1      45.480  22.483  26.580  1.00  0.00     0.010 A 
ATOM     13  C   UNL A   1      45.162  23.393  24.359  1.00  0.00     0.010 A 
ATOM     14  C   UNL A   1      45.440  23.591  25.723  1.00  0.00    -0.014 A 
BRANCH  14  15
ATOM     15  C   UNL A   1      45.413  24.954  26.313  1.00  0.00     0.031 A 
ATOM     16  C   UNL A   1      46.735  25.653  26.453  1.00  0.00     0.074 A 
ATOM     17  C   UNL A   1      44.274  25.611  26.615  1.00  0.00     0.049 A 
ATOM     18  N   UNL A   1      46.981  26.907  26.732  1.00  0.00    -0.248 NA
ATOM     19  C   UNL A   1      47.942  24.844  26.204  1.00  0.00     0.031 C 
ATOM     20  C   UNL A   1      42.917  25.084  26.497  1.00  0.00     0.029 A 
ATOM     21  N   UNL A   1      44.089  26.887  27.096  1.00  0.00    -0.354 N 
ATOM     22  C   UNL A   1      48.351  27.049  26.585  1.00  0.00     0.074 A 
ATOM     23  C   UNL A   1      48.904  25.739  26.337  1.00  0.00     0.031 C 
ATOM     24  C   UNL A   1      42.044  26.010  26.943  1.00  0.00     0.029 A 
ATOM     25  C   UNL A   1      42.776  27.201  27.360  1.00  0.00     0.049 A 
ATOM     26  H   UNL A   1      44.830  27.520  27.236  1.00  0.00     0.167 HD
ATOM     27  C   UNL A   1      49.086  28.182  26.570  1.00  0.00     0.037 A 
ATOM     28  C   UNL A   1      42.242  28.323  27.881  1.00  0.00     0.037 A 
ATOM     29  C   UNL A   1      48.570  29.478  26.887  1.00  0.00     0.049 A 
ATOM     30  C   UNL A   1      43.121  29.521  28.105  1.00  0.00     0.074 A 
ATOM     31  C   UNL A   1      49.235  30.687  26.933  1.00  0.00     0.029 A 
ATOM     32  N   UNL A   1      47.255  29.722  27.252  1.00  0.00    -0.354 N 
ATOM     33  N   UNL A   1      44.401  29.665  27.864  1.00  0.00    -0.248 NA
ATOM     34  C   UNL A   1      42.464  30.733  28.620  1.00  0.00     0.031 C 
ATOM     35  C   UNL A   1      48.332  31.660  27.377  1.00  0.00     0.029 A 
ATOM     36  C   UNL A   1      47.096  31.061  27.562  1.00  0.00     0.049 A 
ATOM     37  H   UNL A   1      46.542  29.044  27.285  1.00  0.00     0.167 HD
ATOM     38  C   UNL A   1      44.687  30.996  28.136  1.00  0.00     0.074 A 
ATOM     39  C   UNL A   1      43.454  31.611  28.582  1.00  0.00     0.031 C 
ATOM     40  C   UNL A   1      45.862  31.656  27.999  1.00  0.00     0.037 A 
BRANCH  27  41
ATOM     41  C   UNL A   1      50.516  28.025  26.165  1.00  0.00     0.057 A 
ATOM     42  C   UNL A   1      51.534  27.991  27.130  1.00  0.00     0.134 A 
ATOM     43  C   UNL A   1      50.888  27.987  24.819  1.00  0.00     0.134 A 
ATOM     44  F   UNL A   1      51.236  28.061  28.437  1.00  0.00    -0.206 F 
ATOM     45  C   UNL A   1      52.879  27.957  26.766  1.00  0.00     0.040 A 
ATOM     46  C   UNL A   1      52.231  27.931  24.445  1.00  0.00     0.040 A 
ATOM     47  F   UNL A   1      49.960  28.035  23.853  1.00  0.00    -0.206 F 
ATOM     48  C   UNL A   1      53.230  27.925  25.419  1.00  0.00     0.006 A 
ENDBRANCH  27  41
BRANCH  28  49
ATOM     49  C   UNL A   1      40.807  28.421  28.249  1.00  0.00     0.057 A 
ATOM     50  C   UNL A   1      39.847  28.947  27.378  1.00  0.00     0.134 A 
ATOM     51  C   UNL A   1      40.398  28.130  29.554  1.00  0.00     0.134 A 
ATOM     52  F   UNL A   1      40.196  29.330  26.142  1.00  0.00    -0.206 F 
ATOM     53  C   UNL A   1      38.528  29.161  27.790  1.00  0.00     0.040 A 
ATOM     54  C   UNL A   1      39.078  28.310  29.971  1.00  0.00     0.040 A 
ATOM     55  F   UNL A   1      41.289  27.687  30.454  1.00  0.00    -0.206 F 
ATOM     56  C   UNL A   1      38.138  28.830  29.088  1.00  0.00     0.006 A 
ENDBRANCH  28  49
BRANCH  40  57
ATOM     57  C   UNL A   1      45.857  33.126  28.280  1.00  0.00     0.057 A 
ATOM     58  C   UNL A   1      46.078  33.639  29.563  1.00  0.00     0.134 A 
ATOM     59  C   UNL A   1      45.660  34.042  27.238  1.00  0.00     0.134 A 
ATOM     60  F   UNL A   1      46.250  32.813  30.605  1.00  0.00    -0.206 F 
ATOM     61  C   UNL A   1      46.088  35.013  29.803  1.00  0.00     0.040 A 
ATOM     62  C   UNL A   1      45.697  35.416  27.460  1.00  0.00     0.040 A 
ATOM     63  F   UNL A   1      45.445  33.612  25.985  1.00  0.00    -0.206 F 
ATOM     64  C   UNL A   1      45.907  35.906  28.748  1.00  0.00     0.006 A 
ENDBRANCH  40  57
ENDBRANCH  14  15
ENDBRANCH   7   9
ENDBRANCH   6   7
ENDBRANCH   5   6
ENDBRANCH   4   5
ENDBRANCH   3   4
ENDBRANCH   2   3
ENDBRANCH   1   2
BRANCH   1  65
ATOM     65  O   UNL A   1      39.283  21.943  26.699  1.00  0.00    -0.376 OA
BRANCH  65  66
ATOM     66  C   UNL A   1      38.228  22.114  25.738  1.00  0.00     0.202 C 
BRANCH  66  67
ATOM     67  C   UNL A   1      37.537  23.497  25.686  1.00  0.00     0.261 C 
BRANCH  67  68
ATOM     68  O   UNL A   1      36.140  23.578  26.135  1.00  0.00    -0.463 OA
BRANCH  68  69
ATOM     69  C   UNL A   1      35.228  23.509  25.120  1.00  0.00     0.309 C 
ATOM     70  O   UNL A   1      35.197  24.353  24.218  1.00  0.00    -0.252 OA
BRANCH  69  71
ATOM     71  C   UNL A   1      34.029  22.509  25.206  1.00  0.00     0.111 C 
ATOM     72  C   UNL A   1      34.714  21.227  24.625  1.00  0.00     0.016 C 
ATOM     73  C   UNL A   1      32.554  22.525  24.664  1.00  0.00     0.093 C 
ATOM     74  C   UNL A   1      34.007  19.947  25.028  1.00  0.00     0.001 C 
ATOM     75  C   UNL A   1      31.859  21.185  25.071  1.00  0.00     0.014 C 
ATOM     76  C   UNL A   1      32.577  19.970  24.543  1.00  0.00     0.001 C 
BRANCH  73  77
ATOM     77  C   UNL A   1      31.334  23.473  24.845  1.00  0.00     0.228 C 
ATOM     78  O   UNL A   1      30.373  23.056  25.510  1.00  0.00    -0.274 OA
ATOM     79  N   UNL A   1      31.332  24.817  24.615  1.00  0.00    -0.325 N 
ATOM     80  H   UNL A   1      30.625  25.322  25.076  1.00  0.00     0.169 HD
BRANCH  79  81
ATOM     81  C   UNL A   1      32.188  25.581  23.822  1.00  0.00     0.054 A 
ATOM     82  C   UNL A   1      32.322  25.184  22.488  1.00  0.00     0.027 A 
ATOM     83  C   UNL A   1      32.858  26.717  24.282  1.00  0.00     0.063 A 
ATOM     84  C   UNL A   1      32.894  26.057  21.566  1.00  0.00     0.002 A 
ATOM     85  C   UNL A   1      33.369  27.621  23.345  1.00  0.00     0.016 A 
ATOM     86  C   UNL A   1      33.350  27.305  21.984  1.00  0.00     0.001 A 
BRANCH  83  87
ATOM     87  C   UNL A   1      33.125  26.953  25.735  1.00  0.00     0.256 C 
ATOM     88  O   UNL A   1      33.278  26.013  26.506  1.00  0.00    -0.269 OA
ATOM     89  N   UNL A   1      33.176  28.274  26.151  1.00  0.00    -0.334 N 
ATOM     90  C   UNL A   1      31.920  28.926  26.504  1.00  0.00     0.148 C 
ATOM     91  C   UNL A   1      34.332  28.751  26.894  1.00  0.00     0.148 C 
ATOM     92  C   UNL A   1      32.095  30.440  26.568  1.00  0.00     0.181 C 
ATOM     93  C   UNL A   1      34.359  30.241  27.105  1.00  0.00     0.181 C 
ATOM     94  O   UNL A   1      33.099  30.756  27.532  1.00  0.00    -0.378 OA
ENDBRANCH  83  87
ENDBRANCH  79  81
ENDBRANCH  73  77
ENDBRANCH  69  71
ENDBRANCH  68  69
ENDBRANCH  67  68
ENDBRANCH  66  67
ENDBRANCH  65  66
ENDBRANCH   1  65
TORSDOF 20
ENDMDL
MODEL 3
REMARK VINA RESULT:     -11.0      1.968      4.194
REMARK SMILES O=C(OCCOCCOCCOC(=O)[C@@H]1CCCC[C@H]1C(=O)Nc1ccccc1C(=O)N1CCOCC1)c1ccc(-c2c3nc(c(-c4c(F)cccc4F)c4ccc([nH]4)c(-c4c(F)cccc4F)c4nc(c(-c5c(F)cccc5F)c5ccc2[nH]5)C=C4)C=C3)cc1
REMARK SMILES IDX 8 1 7 2 6 3 5 4 4 5 3 6 2 7 1 8 38 9 39 10 91 11 40 12 90 13
REMARK SMILES IDX 41 14 42 15 43 16 84 17 44 18 89 19 83 20 85 21 45 22 88 23
REMARK SMILES IDX 82 24 81 25 46 27 72 28 55 29 71 30 56 31 59 32 70 33 86 34
REMARK SMILES IDX 57 35 58 36 69 38 87 39 60 40 47 41 48 42 53 43 49 44 50 45
REMARK SMILES IDX 52 46 54 47 51 48 73 49 74 50 79 51 75 52 76 53 78 54 80 55
REMARK SMILES IDX 77 56 61 57 62 58 67 59 63 60 64 61 66 62 68 63 65 64 9 65
REMARK SMILES IDX 10 66 11 67 12 68 13 69 14 70 15 71 16 72 20 73 17 74 19 75
REMARK SMILES IDX 18 76 21 77 22 78 23 79 24 81 25 82 29 83 26 84 28 85 27 86
REMARK SMILES IDX 30 87 31 88 32 89 33 90 37 91 34 92 36 93 35 94
REMARK H PARENT 85 26 59 37 23 80
REMARK Flexibility Score: inf
ROOT
ATOM      1  C   UNL A   1      39.642  22.170  26.595  1.00  0.00     0.188 C 
ENDROOT
BRANCH   1   2
ATOM      2  C   UNL A   1      40.727  21.128  26.231  1.00  0.00     0.188 C 
BRANCH   2   3
ATOM      3  O   UNL A   1      41.759  21.678  25.418  1.00  0.00    -0.376 OA
BRANCH   3   4
ATOM      4  C   UNL A   1      43.088  21.336  25.810  1.00  0.00     0.202 C 
BRANCH   4   5
ATOM      5  C   UNL A   1      44.197  22.130  25.103  1.00  0.00     0.261 C 
BRANCH   5   6
ATOM      6  O   UNL A   1      43.704  23.388  24.625  1.00  0.00    -0.460 OA
BRANCH   6   7
ATOM      7  C   UNL A   1      44.388  24.513  24.918  1.00  0.00     0.338 C 
ATOM      8  O   UNL A   1      45.568  24.700  24.626  1.00  0.00    -0.246 OA
BRANCH   7   9
ATOM      9  C   UNL A   1      43.681  25.319  25.938  1.00  0.00     0.060 A 
ATOM     10  C   UNL A   1      44.195  26.541  26.382  1.00  0.00     0.016 A 
ATOM     11  C   UNL A   1      42.430  24.885  26.392  1.00  0.00     0.016 A 
ATOM     12  C   UNL A   1      43.444  27.352  27.237  1.00  0.00     0.010 A 
ATOM     13  C   UNL A   1      41.661  25.715  27.216  1.00  0.00     0.010 A 
ATOM     14  C   UNL A   1      42.173  26.946  27.664  1.00  0.00    -0.014 A 
BRANCH  14  15
ATOM     15  C   UNL A   1      41.525  27.674  28.784  1.00  0.00     0.031 A 
ATOM     16  C   UNL A   1      42.145  27.507  30.143  1.00  0.00     0.074 A 
ATOM     17  C   UNL A   1      40.504  28.539  28.618  1.00  0.00     0.049 A 
ATOM     18  N   UNL A   1      41.921  28.180  31.241  1.00  0.00    -0.248 NA
ATOM     19  C   UNL A   1      43.187  26.471  30.273  1.00  0.00     0.031 C 
ATOM     20  C   UNL A   1      39.824  28.838  27.361  1.00  0.00     0.029 A 
ATOM     21  N   UNL A   1      39.854  29.330  29.538  1.00  0.00    -0.354 N 
ATOM     22  C   UNL A   1      42.864  27.720  32.147  1.00  0.00     0.074 A 
ATOM     23  C   UNL A   1      43.564  26.620  31.530  1.00  0.00     0.031 C 
ATOM     24  C   UNL A   1      38.821  29.708  27.598  1.00  0.00     0.029 A 
ATOM     25  C   UNL A   1      38.798  30.041  29.018  1.00  0.00     0.049 A 
ATOM     26  H   UNL A   1      40.123  29.383  30.483  1.00  0.00     0.167 HD
ATOM     27  C   UNL A   1      43.185  28.221  33.359  1.00  0.00     0.037 A 
ATOM     28  C   UNL A   1      37.921  30.861  29.630  1.00  0.00     0.037 A 
ATOM     29  C   UNL A   1      42.455  29.261  34.017  1.00  0.00     0.049 A 
ATOM     30  C   UNL A   1      38.138  31.226  31.072  1.00  0.00     0.074 A 
ATOM     31  C   UNL A   1      42.677  29.821  35.260  1.00  0.00     0.029 A 
ATOM     32  N   UNL A   1      41.329  29.873  33.490  1.00  0.00    -0.354 N 
ATOM     33  N   UNL A   1      39.098  30.856  31.884  1.00  0.00    -0.248 NA
ATOM     34  C   UNL A   1      37.178  32.171  31.663  1.00  0.00     0.031 C 
ATOM     35  C   UNL A   1      41.651  30.740  35.508  1.00  0.00     0.029 A 
ATOM     36  C   UNL A   1      40.820  30.781  34.400  1.00  0.00     0.049 A 
ATOM     37  H   UNL A   1      40.949  29.688  32.601  1.00  0.00     0.167 HD
ATOM     38  C   UNL A   1      38.894  31.570  33.057  1.00  0.00     0.074 A 
ATOM     39  C   UNL A   1      37.708  32.378  32.859  1.00  0.00     0.031 C 
ATOM     40  C   UNL A   1      39.642  31.578  34.186  1.00  0.00     0.037 A 
BRANCH  27  41
ATOM     41  C   UNL A   1      44.403  27.640  34.001  1.00  0.00     0.057 A 
ATOM     42  C   UNL A   1      44.295  26.578  34.912  1.00  0.00     0.134 A 
ATOM     43  C   UNL A   1      45.670  28.184  33.777  1.00  0.00     0.134 A 
ATOM     44  F   UNL A   1      43.097  26.041  35.193  1.00  0.00    -0.206 F 
ATOM     45  C   UNL A   1      45.405  26.098  35.603  1.00  0.00     0.040 A 
ATOM     46  C   UNL A   1      46.792  27.696  34.449  1.00  0.00     0.040 A 
ATOM     47  F   UNL A   1      45.832  29.212  32.933  1.00  0.00    -0.206 F 
ATOM     48  C   UNL A   1      46.660  26.657  35.371  1.00  0.00     0.006 A 
ENDBRANCH  27  41
BRANCH  28  49
ATOM     49  C   UNL A   1      36.736  31.419  28.930  1.00  0.00     0.057 A 
ATOM     50  C   UNL A   1      36.657  32.763  28.554  1.00  0.00     0.134 A 
ATOM     51  C   UNL A   1      35.587  30.638  28.770  1.00  0.00     0.134 A 
ATOM     52  F   UNL A   1      37.693  33.585  28.765  1.00  0.00    -0.206 F 
ATOM     53  C   UNL A   1      35.481  33.303  28.023  1.00  0.00     0.040 A 
ATOM     54  C   UNL A   1      34.416  31.155  28.213  1.00  0.00     0.040 A 
ATOM     55  F   UNL A   1      35.582  29.360  29.176  1.00  0.00    -0.206 F 
ATOM     56  C   UNL A   1      34.360  32.495  27.840  1.00  0.00     0.006 A 
ENDBRANCH  28  49
BRANCH  40  57
ATOM     57  C   UNL A   1      39.234  32.527  35.270  1.00  0.00     0.057 A 
ATOM     58  C   UNL A   1      38.344  32.158  36.284  1.00  0.00     0.134 A 
ATOM     59  C   UNL A   1      39.771  33.820  35.312  1.00  0.00     0.134 A 
ATOM     60  F   UNL A   1      37.780  30.941  36.285  1.00  0.00    -0.206 F 
ATOM     61  C   UNL A   1      37.989  33.049  37.296  1.00  0.00     0.040 A 
ATOM     62  C   UNL A   1      39.447  34.709  36.334  1.00  0.00     0.040 A 
ATOM     63  F   UNL A   1      40.631  34.233  34.368  1.00  0.00    -0.206 F 
ATOM     64  C   UNL A   1      38.549  34.325  37.329  1.00  0.00     0.006 A 
ENDBRANCH  40  57
ENDBRANCH  14  15
ENDBRANCH   7   9
ENDBRANCH   6   7
ENDBRANCH   5   6
ENDBRANCH   4   5
ENDBRANCH   3   4
ENDBRANCH   2   3
ENDBRANCH   1   2
BRANCH   1  65
ATOM     65  O   UNL A   1      38.507  22.194  25.731  1.00  0.00    -0.376 OA
BRANCH  65  66
ATOM     66  C   UNL A   1      37.742  23.408  25.650  1.00  0.00     0.202 C 
BRANCH  66  67
ATOM     67  C   UNL A   1      36.212  23.269  25.468  1.00  0.00     0.261 C 
BRANCH  67  68
ATOM     68  O   UNL A   1      35.505  24.364  24.789  1.00  0.00    -0.463 OA
BRANCH  68  69
ATOM     69  C   UNL A   1      35.001  24.020  23.566  1.00  0.00     0.309 C 
ATOM     70  O   UNL A   1      35.646  23.330  22.769  1.00  0.00    -0.252 OA
BRANCH  69  71
ATOM     71  C   UNL A   1      33.700  24.705  23.031  1.00  0.00     0.111 C 
ATOM     72  C   UNL A   1      34.200  26.186  22.943  1.00  0.00     0.016 C 
ATOM     73  C   UNL A   1      32.210  24.754  23.529  1.00  0.00     0.093 C 
ATOM     74  C   UNL A   1      33.371  27.032  21.995  1.00  0.00     0.001 C 
ATOM     75  C   UNL A   1      31.387  25.651  22.549  1.00  0.00     0.014 C 
ATOM     76  C   UNL A   1      31.929  27.053  22.445  1.00  0.00     0.001 C 
BRANCH  73  77
ATOM     77  C   UNL A   1      31.120  23.683  23.820  1.00  0.00     0.228 C 
ATOM     78  O   UNL A   1      30.090  23.705  23.129  1.00  0.00    -0.274 OA
ATOM     79  N   UNL A   1      31.303  22.539  24.540  1.00  0.00    -0.325 N 
ATOM     80  H   UNL A   1      30.652  21.823  24.363  1.00  0.00     0.169 HD
BRANCH  79  81
ATOM     81  C   UNL A   1      32.278  22.237  25.490  1.00  0.00     0.054 A 
ATOM     82  C   UNL A   1      32.587  23.244  26.408  1.00  0.00     0.027 A 
ATOM     83  C   UNL A   1      32.904  20.992  25.583  1.00  0.00     0.063 A 
ATOM     84  C   UNL A   1      33.301  22.927  27.561  1.00  0.00     0.002 A 
ATOM     85  C   UNL A   1      33.561  20.658  26.772  1.00  0.00     0.016 A 
ATOM     86  C   UNL A   1      33.724  21.617  27.775  1.00  0.00     0.001 A 
BRANCH  83  87
ATOM     87  C   UNL A   1      32.972  20.043  24.429  1.00  0.00     0.256 C 
ATOM     88  O   UNL A   1      32.739  20.424  23.288  1.00  0.00    -0.269 OA
ATOM     89  N   UNL A   1      33.296  18.727  24.723  1.00  0.00    -0.334 N 
ATOM     90  C   UNL A   1      32.214  17.830  25.110  1.00  0.00     0.148 C 
ATOM     91  C   UNL A   1      34.392  18.081  24.018  1.00  0.00     0.148 C 
ATOM     92  C   UNL A   1      32.766  16.562  25.753  1.00  0.00     0.181 C 
ATOM     93  C   UNL A   1      34.773  16.734  24.571  1.00  0.00     0.181 C 
ATOM     94  O   UNL A   1      33.638  15.909  24.831  1.00  0.00    -0.378 OA
ENDBRANCH  83  87
ENDBRANCH  79  81
ENDBRANCH  73  77
ENDBRANCH  69  71
ENDBRANCH  68  69
ENDBRANCH  67  68
ENDBRANCH  66  67
ENDBRANCH  65  66
ENDBRANCH   1  65
TORSDOF 20
ENDMDL
