MODEL 1
REMARK VINA RESULT:     -10.2      0.000      0.000
REMARK SMILES CNC(=O)CCn1c(SCC(=O)OCCOCCOCCOC(=O)c2ccc(-c3c4nc(c(-c5c(F)cccc5F)c5ccc([nH]5)c(-c5c(F)cccc5F)c5nc(c(-c6c(F)cccc6F)c6ccc3[nH]6)C=C5)C=C4)cc2)nc2ccc(C)cc21
REMARK SMILES IDX 16 1 15 2 14 3 13 4 11 5 12 6 10 7 9 8 8 9 7 10 86 11 79 12
REMARK SMILES IDX 80 13 85 14 81 15 83 16 82 17 84 18 6 19 5 20 3 21 1 22 2 23
REMARK SMILES IDX 4 25 17 26 18 27 19 28 20 29 21 30 22 31 23 32 24 33 25 34
REMARK SMILES IDX 26 35 78 36 27 37 77 38 28 39 29 40 30 41 71 42 31 43 76 44
REMARK SMILES IDX 70 45 72 46 32 47 75 48 69 49 68 50 33 52 59 53 42 54 58 55
REMARK SMILES IDX 43 56 46 57 57 58 73 59 44 60 45 61 56 63 74 64 47 65 34 66
REMARK SMILES IDX 35 67 40 68 36 69 37 70 39 71 41 72 38 73 60 74 61 75 66 76
REMARK SMILES IDX 62 77 63 78 65 79 67 80 64 81 48 82 49 83 54 84 50 85 51 86
REMARK SMILES IDX 53 87 55 88 52 89
REMARK H PARENT 2 24 72 51 46 62
REMARK Flexibility Score: inf
ROOT
ATOM      1  O   UNL A   1      35.508  23.004  25.479  1.00  0.00    -0.376 OA
ENDROOT
BRANCH   1   2
ATOM      2  C   UNL A   1      34.931  21.770  25.921  1.00  0.00     0.202 C 
BRANCH   2   3
ATOM      3  C   UNL A   1      34.183  20.945  24.851  1.00  0.00     0.261 C 
BRANCH   3   4
ATOM      4  O   UNL A   1      32.737  21.149  24.633  1.00  0.00    -0.463 OA
BRANCH   4   5
ATOM      5  C   UNL A   1      32.167  22.338  25.006  1.00  0.00     0.316 C 
ATOM      6  O   UNL A   1      31.800  22.523  26.154  1.00  0.00    -0.251 OA
BRANCH   5   7
ATOM      7  C   UNL A   1      31.813  23.286  23.880  1.00  0.00     0.200 C 
BRANCH   7   8
ATOM      8  S   UNL A   1      32.761  24.747  23.466  1.00  0.00    -0.076 SA
BRANCH   8   9
ATOM      9  C   UNL A   1      32.512  26.118  24.491  1.00  0.00     0.169 A 
ATOM     10  N   UNL A   1      31.901  27.260  24.010  1.00  0.00    -0.318 N 
ATOM     11  C   UNL A   1      31.900  28.200  25.025  1.00  0.00     0.069 A 
ATOM     12  N   UNL A   1      32.539  26.156  25.805  1.00  0.00    -0.222 NA
ATOM     13  C   UNL A   1      32.209  27.455  26.156  1.00  0.00     0.090 A 
ATOM     14  C   UNL A   1      31.625  29.578  25.074  1.00  0.00     0.032 A 
ATOM     15  C   UNL A   1      32.220  28.095  27.412  1.00  0.00     0.031 A 
ATOM     16  C   UNL A   1      31.741  30.227  26.317  1.00  0.00    -0.049 A 
ATOM     17  C   UNL A   1      32.013  29.482  27.472  1.00  0.00     0.006 A 
ATOM     18  C   UNL A   1      31.536  31.714  26.422  1.00  0.00     0.044 C 
BRANCH  10  19
ATOM     19  C   UNL A   1      31.114  27.372  22.793  1.00  0.00     0.135 C 
BRANCH  19  20
ATOM     20  C   UNL A   1      29.651  27.716  23.007  1.00  0.00     0.122 C 
BRANCH  20  21
ATOM     21  C   UNL A   1      29.270  29.007  22.318  1.00  0.00     0.221 C 
ATOM     22  C   UNL A   1      26.908  28.825  23.134  1.00  0.00     0.142 C 
ATOM     23  N   UNL A   1      27.986  29.450  22.413  1.00  0.00    -0.359 N 
ATOM     24  H   UNL A   1      27.772  30.286  21.938  1.00  0.00     0.163 HD
ATOM     25  O   UNL A   1      30.097  29.674  21.698  1.00  0.00    -0.275 OA
ENDBRANCH  20  21
ENDBRANCH  19  20
ENDBRANCH  10  19
ENDBRANCH   8   9
ENDBRANCH   7   8
ENDBRANCH   5   7
ENDBRANCH   4   5
ENDBRANCH   3   4
ENDBRANCH   2   3
ENDBRANCH   1   2
BRANCH   1  26
ATOM     26  C   UNL A   1      36.918  23.159  25.624  1.00  0.00     0.188 C 
BRANCH  26  27
ATOM     27  C   UNL A   1      37.759  21.970  25.134  1.00  0.00     0.188 C 
BRANCH  27  28
ATOM     28  O   UNL A   1      38.471  21.225  26.109  1.00  0.00    -0.376 OA
BRANCH  28  29
ATOM     29  C   UNL A   1      39.805  20.865  25.753  1.00  0.00     0.202 C 
BRANCH  29  30
ATOM     30  C   UNL A   1      40.670  20.281  26.886  1.00  0.00     0.261 C 
BRANCH  30  31
ATOM     31  O   UNL A   1      40.869  21.277  27.919  1.00  0.00    -0.460 OA
BRANCH  31  32
ATOM     32  C   UNL A   1      41.918  22.118  27.726  1.00  0.00     0.338 C 
ATOM     33  O   UNL A   1      42.937  21.866  27.106  1.00  0.00    -0.246 OA
BRANCH  32  34
ATOM     34  C   UNL A   1      41.442  23.493  28.024  1.00  0.00     0.060 A 
ATOM     35  C   UNL A   1      40.213  24.044  27.661  1.00  0.00     0.016 A 
ATOM     36  C   UNL A   1      42.387  24.312  28.619  1.00  0.00     0.016 A 
ATOM     37  C   UNL A   1      39.982  25.433  27.841  1.00  0.00     0.010 A 
ATOM     38  C   UNL A   1      42.145  25.668  28.810  1.00  0.00     0.010 A 
ATOM     39  C   UNL A   1      40.982  26.271  28.358  1.00  0.00    -0.014 A 
BRANCH  39  40
ATOM     40  C   UNL A   1      40.816  27.690  28.739  1.00  0.00     0.031 A 
ATOM     41  C   UNL A   1      41.799  28.550  28.076  1.00  0.00     0.074 A 
ATOM     42  C   UNL A   1      39.868  28.343  29.458  1.00  0.00     0.049 A 
ATOM     43  N   UNL A   1      42.852  28.988  28.673  1.00  0.00    -0.248 NA
ATOM     44  C   UNL A   1      41.716  28.870  26.653  1.00  0.00     0.031 C 
ATOM     45  C   UNL A   1      38.771  27.783  30.229  1.00  0.00     0.029 A 
ATOM     46  N   UNL A   1      39.674  29.698  29.645  1.00  0.00    -0.354 N 
ATOM     47  C   UNL A   1      43.481  29.818  27.773  1.00  0.00     0.074 A 
ATOM     48  C   UNL A   1      42.838  29.582  26.502  1.00  0.00     0.031 C 
ATOM     49  C   UNL A   1      37.895  28.744  30.617  1.00  0.00     0.029 A 
ATOM     50  C   UNL A   1      38.480  30.032  30.280  1.00  0.00     0.049 A 
ATOM     51  H   UNL A   1      40.328  30.373  29.353  1.00  0.00     0.167 HD
ATOM     52  C   UNL A   1      44.323  30.776  28.241  1.00  0.00     0.037 A 
ATOM     53  C   UNL A   1      38.102  31.218  30.822  1.00  0.00     0.037 A 
ATOM     54  C   UNL A   1      44.596  30.580  29.654  1.00  0.00     0.049 A 
ATOM     55  C   UNL A   1      39.332  31.824  31.365  1.00  0.00     0.074 A 
ATOM     56  C   UNL A   1      45.210  29.608  30.417  1.00  0.00     0.029 A 
ATOM     57  N   UNL A   1      43.837  31.331  30.518  1.00  0.00    -0.354 N 
ATOM     58  N   UNL A   1      40.005  31.318  32.361  1.00  0.00    -0.248 NA
ATOM     59  C   UNL A   1      40.019  32.851  30.600  1.00  0.00     0.031 C 
ATOM     60  C   UNL A   1      44.537  29.612  31.677  1.00  0.00     0.029 A 
ATOM     61  C   UNL A   1      43.552  30.598  31.643  1.00  0.00     0.049 A 
ATOM     62  H   UNL A   1      43.540  32.255  30.355  1.00  0.00     0.167 HD
ATOM     63  C   UNL A   1      41.322  31.616  32.062  1.00  0.00     0.074 A 
ATOM     64  C   UNL A   1      41.251  32.698  31.089  1.00  0.00     0.031 C 
ATOM     65  C   UNL A   1      42.330  30.764  32.407  1.00  0.00     0.037 A 
BRANCH  52  66
ATOM     66  C   UNL A   1      44.590  32.095  27.567  1.00  0.00     0.057 A 
ATOM     67  C   UNL A   1      43.934  33.302  27.870  1.00  0.00     0.134 A 
ATOM     68  C   UNL A   1      45.749  32.223  26.780  1.00  0.00     0.134 A 
ATOM     69  F   UNL A   1      42.864  33.361  28.669  1.00  0.00    -0.206 F 
ATOM     70  C   UNL A   1      44.410  34.547  27.448  1.00  0.00     0.040 A 
ATOM     71  C   UNL A   1      46.263  33.466  26.398  1.00  0.00     0.040 A 
ATOM     72  F   UNL A   1      46.466  31.146  26.426  1.00  0.00    -0.206 F 
ATOM     73  C   UNL A   1      45.598  34.635  26.738  1.00  0.00     0.006 A 
ENDBRANCH  52  66
BRANCH  53  74
ATOM     74  C   UNL A   1      36.775  31.870  30.897  1.00  0.00     0.057 A 
ATOM     75  C   UNL A   1      36.366  32.755  29.883  1.00  0.00     0.134 A 
ATOM     76  C   UNL A   1      35.998  31.877  32.065  1.00  0.00     0.134 A 
ATOM     77  F   UNL A   1      37.071  32.859  28.747  1.00  0.00    -0.206 F 
ATOM     78  C   UNL A   1      35.271  33.617  30.034  1.00  0.00     0.040 A 
ATOM     79  C   UNL A   1      34.893  32.728  32.227  1.00  0.00     0.040 A 
ATOM     80  F   UNL A   1      36.323  31.094  33.103  1.00  0.00    -0.206 F 
ATOM     81  C   UNL A   1      34.535  33.615  31.216  1.00  0.00     0.006 A 
ENDBRANCH  53  74
BRANCH  65  82
ATOM     82  C   UNL A   1      42.049  29.775  33.505  1.00  0.00     0.057 A 
ATOM     83  C   UNL A   1      42.236  30.162  34.834  1.00  0.00     0.134 A 
ATOM     84  C   UNL A   1      41.699  28.437  33.287  1.00  0.00     0.134 A 
ATOM     85  F   UNL A   1      42.615  31.416  35.125  1.00  0.00    -0.206 F 
ATOM     86  C   UNL A   1      42.075  29.264  35.895  1.00  0.00     0.040 A 
ATOM     87  C   UNL A   1      41.507  27.532  34.336  1.00  0.00     0.040 A 
ATOM     88  F   UNL A   1      41.579  27.955  32.051  1.00  0.00    -0.206 F 
ATOM     89  C   UNL A   1      41.702  27.945  35.648  1.00  0.00     0.006 A 
ENDBRANCH  65  82
ENDBRANCH  39  40
ENDBRANCH  32  34
ENDBRANCH  31  32
ENDBRANCH  30  31
ENDBRANCH  29  30
ENDBRANCH  28  29
ENDBRANCH  27  28
ENDBRANCH  26  27
ENDBRANCH   1  26
TORSDOF 22
ENDMDL
MODEL 2
REMARK VINA RESULT:     -10.0      3.602      8.470
REMARK SMILES CNC(=O)CCn1c(SCC(=O)OCCOCCOCCOC(=O)c2ccc(-c3c4nc(c(-c5c(F)cccc5F)c5ccc([nH]5)c(-c5c(F)cccc5F)c5nc(c(-c6c(F)cccc6F)c6ccc3[nH]6)C=C5)C=C4)cc2)nc2ccc(C)cc21
REMARK SMILES IDX 16 1 15 2 14 3 13 4 11 5 12 6 10 7 9 8 8 9 7 10 86 11 79 12
REMARK SMILES IDX 80 13 85 14 81 15 83 16 82 17 84 18 6 19 5 20 3 21 1 22 2 23
REMARK SMILES IDX 4 25 17 26 18 27 19 28 20 29 21 30 22 31 23 32 24 33 25 34
REMARK SMILES IDX 26 35 78 36 27 37 77 38 28 39 29 40 30 41 71 42 31 43 76 44
REMARK SMILES IDX 70 45 72 46 32 47 75 48 69 49 68 50 33 52 59 53 42 54 58 55
REMARK SMILES IDX 43 56 46 57 57 58 73 59 44 60 45 61 56 63 74 64 47 65 34 66
REMARK SMILES IDX 35 67 40 68 36 69 37 70 39 71 41 72 38 73 60 74 61 75 66 76
REMARK SMILES IDX 62 77 63 78 65 79 67 80 64 81 48 82 49 83 54 84 50 85 51 86
REMARK SMILES IDX 53 87 55 88 52 89
REMARK H PARENT 2 24 72 51 46 62
REMARK Flexibility Score: inf
ROOT
ATOM      1  O   UNL A   1      31.821  30.233  26.861  1.00  0.00    -0.376 OA
ENDROOT
BRANCH   1   2
ATOM      2  C   UNL A   1      31.435  30.463  25.501  1.00  0.00     0.202 C 
BRANCH   2   3
ATOM      3  C   UNL A   1      31.337  29.214  24.599  1.00  0.00     0.261 C 
BRANCH   3   4
ATOM      4  O   UNL A   1      30.110  28.955  23.819  1.00  0.00    -0.463 OA
BRANCH   4   5
ATOM      5  C   UNL A   1      29.869  27.688  23.356  1.00  0.00     0.316 C 
ATOM      6  O   UNL A   1      28.776  27.167  23.497  1.00  0.00    -0.251 OA
BRANCH   5   7
ATOM      7  C   UNL A   1      31.082  26.911  22.889  1.00  0.00     0.200 C 
BRANCH   7   8
ATOM      8  S   UNL A   1      31.262  25.139  23.058  1.00  0.00    -0.076 SA
BRANCH   8   9
ATOM      9  C   UNL A   1      32.858  24.577  23.417  1.00  0.00     0.169 A 
ATOM     10  N   UNL A   1      33.319  24.537  24.719  1.00  0.00    -0.318 N 
ATOM     11  C   UNL A   1      34.636  24.113  24.691  1.00  0.00     0.069 A 
ATOM     12  N   UNL A   1      33.652  23.862  22.650  1.00  0.00    -0.222 NA
ATOM     13  C   UNL A   1      34.783  23.604  23.407  1.00  0.00     0.090 A 
ATOM     14  C   UNL A   1      35.668  24.083  25.644  1.00  0.00     0.032 A 
ATOM     15  C   UNL A   1      36.008  23.006  23.048  1.00  0.00     0.031 A 
ATOM     16  C   UNL A   1      36.919  23.578  25.242  1.00  0.00    -0.049 A 
ATOM     17  C   UNL A   1      37.072  23.027  23.963  1.00  0.00     0.006 A 
ATOM     18  C   UNL A   1      38.086  23.591  26.191  1.00  0.00     0.044 C 
BRANCH  10  19
ATOM     19  C   UNL A   1      32.510  24.606  25.925  1.00  0.00     0.135 C 
BRANCH  19  20
ATOM     20  C   UNL A   1      32.371  23.295  26.679  1.00  0.00     0.122 C 
BRANCH  20  21
ATOM     21  C   UNL A   1      31.515  22.303  25.926  1.00  0.00     0.221 C 
ATOM     22  C   UNL A   1      29.475  22.984  27.212  1.00  0.00     0.142 C 
ATOM     23  N   UNL A   1      30.191  22.209  26.233  1.00  0.00    -0.359 N 
ATOM     24  H   UNL A   1      29.669  21.540  25.733  1.00  0.00     0.163 HD
ATOM     25  O   UNL A   1      31.980  21.599  25.031  1.00  0.00    -0.275 OA
ENDBRANCH  20  21
ENDBRANCH  19  20
ENDBRANCH  10  19
ENDBRANCH   8   9
ENDBRANCH   7   8
ENDBRANCH   5   7
ENDBRANCH   4   5
ENDBRANCH   3   4
ENDBRANCH   2   3
ENDBRANCH   1   2
BRANCH   1  26
ATOM     26  C   UNL A   1      33.165  30.540  27.224  1.00  0.00     0.188 C 
BRANCH  26  27
ATOM     27  C   UNL A   1      33.411  31.997  27.643  1.00  0.00     0.188 C 
BRANCH  27  28
ATOM     28  O   UNL A   1      34.754  32.455  27.665  1.00  0.00    -0.376 OA
BRANCH  28  29
ATOM     29  C   UNL A   1      35.318  32.639  28.962  1.00  0.00     0.202 C 
BRANCH  29  30
ATOM     30  C   UNL A   1      36.138  31.457  29.513  1.00  0.00     0.261 C 
BRANCH  30  31
ATOM     31  O   UNL A   1      36.995  30.923  28.473  1.00  0.00    -0.460 OA
BRANCH  31  32
ATOM     32  C   UNL A   1      36.813  29.607  28.185  1.00  0.00     0.338 C 
ATOM     33  O   UNL A   1      35.834  29.117  27.650  1.00  0.00    -0.246 OA
BRANCH  32  34
ATOM     34  C   UNL A   1      38.147  28.957  28.243  1.00  0.00     0.060 A 
ATOM     35  C   UNL A   1      38.557  27.979  29.149  1.00  0.00     0.016 A 
ATOM     36  C   UNL A   1      39.083  29.486  27.370  1.00  0.00     0.016 A 
ATOM     37  C   UNL A   1      39.924  27.599  29.207  1.00  0.00     0.010 A 
ATOM     38  C   UNL A   1      40.415  29.094  27.420  1.00  0.00     0.010 A 
ATOM     39  C   UNL A   1      40.880  28.211  28.381  1.00  0.00    -0.014 A 
BRANCH  39  40
ATOM     40  C   UNL A   1      42.292  27.798  28.233  1.00  0.00     0.031 A 
ATOM     41  C   UNL A   1      42.427  26.614  27.382  1.00  0.00     0.074 A 
ATOM     42  C   UNL A   1      43.461  28.373  28.614  1.00  0.00     0.049 A 
ATOM     43  N   UNL A   1      42.610  25.434  27.859  1.00  0.00    -0.248 NA
ATOM     44  C   UNL A   1      42.240  26.674  25.934  1.00  0.00     0.031 C 
ATOM     45  C   UNL A   1      43.664  29.541  29.455  1.00  0.00     0.029 A 
ATOM     46  N   UNL A   1      44.761  28.025  28.306  1.00  0.00    -0.354 N 
ATOM     47  C   UNL A   1      42.771  24.605  26.773  1.00  0.00     0.074 A 
ATOM     48  C   UNL A   1      42.372  25.381  25.621  1.00  0.00     0.031 C 
ATOM     49  C   UNL A   1      44.955  29.956  29.425  1.00  0.00     0.029 A 
ATOM     50  C   UNL A   1      45.722  28.953  28.703  1.00  0.00     0.049 A 
ATOM     51  H   UNL A   1      44.991  27.188  27.843  1.00  0.00     0.167 HD
ATOM     52  C   UNL A   1      43.435  23.430  26.934  1.00  0.00     0.037 A 
ATOM     53  C   UNL A   1      47.069  28.813  28.771  1.00  0.00     0.037 A 
ATOM     54  C   UNL A   1      43.653  23.149  28.342  1.00  0.00     0.049 A 
ATOM     55  C   UNL A   1      47.311  27.409  29.152  1.00  0.00     0.074 A 
ATOM     56  C   UNL A   1      42.850  22.894  29.436  1.00  0.00     0.029 A 
ATOM     57  N   UNL A   1      44.884  23.502  28.838  1.00  0.00    -0.354 N 
ATOM     58  N   UNL A   1      46.966  26.906  30.305  1.00  0.00    -0.248 NA
ATOM     59  C   UNL A   1      47.666  26.442  28.127  1.00  0.00     0.031 C 
ATOM     60  C   UNL A   1      43.545  23.422  30.567  1.00  0.00     0.029 A 
ATOM     61  C   UNL A   1      44.753  23.959  30.126  1.00  0.00     0.049 A 
ATOM     62  H   UNL A   1      45.733  23.438  28.345  1.00  0.00     0.167 HD
ATOM     63  C   UNL A   1      46.618  25.601  30.012  1.00  0.00     0.074 A 
ATOM     64  C   UNL A   1      47.236  25.328  28.722  1.00  0.00     0.031 C 
ATOM     65  C   UNL A   1      45.624  24.968  30.699  1.00  0.00     0.037 A 
BRANCH  52  66
ATOM     66  C   UNL A   1      44.232  22.734  25.864  1.00  0.00     0.057 A 
ATOM     67  C   UNL A   1      45.468  23.180  25.361  1.00  0.00     0.134 A 
ATOM     68  C   UNL A   1      43.887  21.413  25.524  1.00  0.00     0.134 A 
ATOM     69  F   UNL A   1      45.976  24.382  25.655  1.00  0.00    -0.206 F 
ATOM     70  C   UNL A   1      46.311  22.366  24.601  1.00  0.00     0.040 A 
ATOM     71  C   UNL A   1      44.747  20.574  24.810  1.00  0.00     0.040 A 
ATOM     72  F   UNL A   1      42.735  20.870  25.946  1.00  0.00    -0.206 F 
ATOM     73  C   UNL A   1      45.968  21.046  24.352  1.00  0.00     0.006 A 
ENDBRANCH  52  66
BRANCH  53  74
ATOM     74  C   UNL A   1      48.159  29.785  28.524  1.00  0.00     0.057 A 
ATOM     75  C   UNL A   1      48.347  30.871  29.398  1.00  0.00     0.134 A 
ATOM     76  C   UNL A   1      48.857  29.850  27.309  1.00  0.00     0.134 A 
ATOM     77  F   UNL A   1      47.686  30.927  30.564  1.00  0.00    -0.206 F 
ATOM     78  C   UNL A   1      49.153  31.970  29.069  1.00  0.00     0.040 A 
ATOM     79  C   UNL A   1      49.675  30.939  26.970  1.00  0.00     0.040 A 
ATOM     80  F   UNL A   1      48.721  28.880  26.393  1.00  0.00    -0.206 F 
ATOM     81  C   UNL A   1      49.813  32.013  27.844  1.00  0.00     0.006 A 
ENDBRANCH  53  74
BRANCH  65  82
ATOM     82  C   UNL A   1      45.262  25.521  32.051  1.00  0.00     0.057 A 
ATOM     83  C   UNL A   1      44.170  26.385  32.162  1.00  0.00     0.134 A 
ATOM     84  C   UNL A   1      46.010  25.306  33.214  1.00  0.00     0.134 A 
ATOM     85  F   UNL A   1      43.427  26.677  31.083  1.00  0.00    -0.206 F 
ATOM     86  C   UNL A   1      43.834  27.000  33.373  1.00  0.00     0.040 A 
ATOM     87  C   UNL A   1      45.674  25.890  34.439  1.00  0.00     0.040 A 
ATOM     88  F   UNL A   1      47.116  24.564  33.187  1.00  0.00    -0.206 F 
ATOM     89  C   UNL A   1      44.584  26.747  34.520  1.00  0.00     0.006 A 
ENDBRANCH  65  82
ENDBRANCH  39  40
ENDBRANCH  32  34
ENDBRANCH  31  32
ENDBRANCH  30  31
ENDBRANCH  29  30
ENDBRANCH  28  29
ENDBRANCH  27  28
ENDBRANCH  26  27
ENDBRANCH   1  26
TORSDOF 22
ENDMDL
MODEL 3
REMARK VINA RESULT:      -9.8      2.982      9.026
REMARK SMILES CNC(=O)CCn1c(SCC(=O)OCCOCCOCCOC(=O)c2ccc(-c3c4nc(c(-c5c(F)cccc5F)c5ccc([nH]5)c(-c5c(F)cccc5F)c5nc(c(-c6c(F)cccc6F)c6ccc3[nH]6)C=C5)C=C4)cc2)nc2ccc(C)cc21
REMARK SMILES IDX 16 1 15 2 14 3 13 4 11 5 12 6 10 7 9 8 8 9 7 10 86 11 79 12
REMARK SMILES IDX 80 13 85 14 81 15 83 16 82 17 84 18 6 19 5 20 3 21 1 22 2 23
REMARK SMILES IDX 4 25 17 26 18 27 19 28 20 29 21 30 22 31 23 32 24 33 25 34
REMARK SMILES IDX 26 35 78 36 27 37 77 38 28 39 29 40 30 41 71 42 31 43 76 44
REMARK SMILES IDX 70 45 72 46 32 47 75 48 69 49 68 50 33 52 59 53 42 54 58 55
REMARK SMILES IDX 43 56 46 57 57 58 73 59 44 60 45 61 56 63 74 64 47 65 34 66
REMARK SMILES IDX 35 67 40 68 36 69 37 70 39 71 41 72 38 73 60 74 61 75 66 76
REMARK SMILES IDX 62 77 63 78 65 79 67 80 64 81 48 82 49 83 54 84 50 85 51 86
REMARK SMILES IDX 53 87 55 88 52 89
REMARK H PARENT 2 24 72 51 46 62
REMARK Flexibility Score: inf
ROOT
ATOM      1  O   UNL A   1      31.672  29.389  25.162  1.00  0.00    -0.376 OA
ENDROOT
BRANCH   1   2
ATOM      2  C   UNL A   1      31.298  29.012  23.832  1.00  0.00     0.202 C 
BRANCH   2   3
ATOM      3  C   UNL A   1      32.418  28.417  22.951  1.00  0.00     0.261 C 
BRANCH   3   4
ATOM      4  O   UNL A   1      33.169  27.230  23.405  1.00  0.00    -0.463 OA
BRANCH   4   5
ATOM      5  C   UNL A   1      33.380  26.197  22.528  1.00  0.00     0.316 C 
ATOM      6  O   UNL A   1      33.766  26.411  21.392  1.00  0.00    -0.251 OA
BRANCH   5   7
ATOM      7  C   UNL A   1      32.884  24.838  22.974  1.00  0.00     0.200 C 
BRANCH   7   8
ATOM      8  S   UNL A   1      33.628  23.885  24.294  1.00  0.00    -0.076 SA
BRANCH   8   9
ATOM      9  C   UNL A   1      33.462  22.168  24.166  1.00  0.00     0.169 A 
ATOM     10  N   UNL A   1      34.325  21.321  24.834  1.00  0.00    -0.318 N 
ATOM     11  C   UNL A   1      33.993  20.022  24.493  1.00  0.00     0.069 A 
ATOM     12  N   UNL A   1      32.413  21.490  23.755  1.00  0.00    -0.222 NA
ATOM     13  C   UNL A   1      32.742  20.152  23.906  1.00  0.00     0.090 A 
ATOM     14  C   UNL A   1      34.623  18.778  24.674  1.00  0.00     0.032 A 
ATOM     15  C   UNL A   1      32.056  18.990  23.498  1.00  0.00     0.031 A 
ATOM     16  C   UNL A   1      33.976  17.635  24.169  1.00  0.00    -0.049 A 
ATOM     17  C   UNL A   1      32.697  17.746  23.609  1.00  0.00     0.006 A 
ATOM     18  C   UNL A   1      34.634  16.285  24.262  1.00  0.00     0.044 C 
BRANCH  10  19
ATOM     19  C   UNL A   1      35.206  21.677  25.935  1.00  0.00     0.135 C 
BRANCH  19  20
ATOM     20  C   UNL A   1      36.689  21.559  25.631  1.00  0.00     0.122 C 
BRANCH  20  21
ATOM     21  C   UNL A   1      37.140  22.591  24.623  1.00  0.00     0.221 C 
ATOM     22  C   UNL A   1      38.214  23.972  26.416  1.00  0.00     0.142 C 
ATOM     23  N   UNL A   1      37.830  23.681  25.061  1.00  0.00    -0.359 N 
ATOM     24  H   UNL A   1      38.093  24.340  24.377  1.00  0.00     0.163 HD
ATOM     25  O   UNL A   1      36.920  22.456  23.420  1.00  0.00    -0.275 OA
ENDBRANCH  20  21
ENDBRANCH  19  20
ENDBRANCH  10  19
ENDBRANCH   8   9
ENDBRANCH   7   8
ENDBRANCH   5   7
ENDBRANCH   4   5
ENDBRANCH   3   4
ENDBRANCH   2   3
ENDBRANCH   1   2
BRANCH   1  26
ATOM     26  C   UNL A   1      31.234  30.663  25.630  1.00  0.00     0.188 C 
BRANCH  26  27
ATOM     27  C   UNL A   1      32.070  31.260  26.773  1.00  0.00     0.188 C 
BRANCH  27  28
ATOM     28  O   UNL A   1      31.985  32.661  26.985  1.00  0.00    -0.376 OA
BRANCH  28  29
ATOM     29  C   UNL A   1      33.008  33.219  27.808  1.00  0.00     0.202 C 
BRANCH  29  30
ATOM     30  C   UNL A   1      34.262  32.348  28.007  1.00  0.00     0.261 C 
BRANCH  30  31
ATOM     31  O   UNL A   1      34.540  32.198  29.421  1.00  0.00    -0.460 OA
BRANCH  31  32
ATOM     32  C   UNL A   1      35.492  33.028  29.922  1.00  0.00     0.338 C 
ATOM     33  O   UNL A   1      35.294  34.081  30.503  1.00  0.00    -0.246 OA
BRANCH  32  34
ATOM     34  C   UNL A   1      36.752  32.248  30.014  1.00  0.00     0.060 A 
ATOM     35  C   UNL A   1      38.049  32.760  30.007  1.00  0.00     0.016 A 
ATOM     36  C   UNL A   1      36.581  30.874  29.982  1.00  0.00     0.016 A 
ATOM     37  C   UNL A   1      39.156  31.877  29.899  1.00  0.00     0.010 A 
ATOM     38  C   UNL A   1      37.670  30.015  29.897  1.00  0.00     0.010 A 
ATOM     39  C   UNL A   1      38.966  30.492  29.773  1.00  0.00    -0.014 A 
BRANCH  39  40
ATOM     40  C   UNL A   1      40.026  29.462  29.812  1.00  0.00     0.031 A 
ATOM     41  C   UNL A   1      40.403  29.121  31.186  1.00  0.00     0.074 A 
ATOM     42  C   UNL A   1      40.601  28.698  28.848  1.00  0.00     0.049 A 
ATOM     43  N   UNL A   1      41.465  29.580  31.748  1.00  0.00    -0.248 NA
ATOM     44  C   UNL A   1      39.534  28.331  32.056  1.00  0.00     0.031 C 
ATOM     45  C   UNL A   1      40.440  28.788  27.407  1.00  0.00     0.029 A 
ATOM     46  N   UNL A   1      41.473  27.634  28.963  1.00  0.00    -0.354 N 
ATOM     47  C   UNL A   1      41.528  28.983  32.987  1.00  0.00     0.074 A 
ATOM     48  C   UNL A   1      40.241  28.359  33.190  1.00  0.00     0.031 C 
ATOM     49  C   UNL A   1      40.984  27.716  26.779  1.00  0.00     0.029 A 
ATOM     50  C   UNL A   1      41.711  26.946  27.775  1.00  0.00     0.049 A 
ATOM     51  H   UNL A   1      41.892  27.381  29.817  1.00  0.00     0.167 HD
ATOM     52  C   UNL A   1      42.731  28.888  33.610  1.00  0.00     0.037 A 
ATOM     53  C   UNL A   1      42.674  26.032  27.495  1.00  0.00     0.037 A 
ATOM     54  C   UNL A   1      43.733  29.685  32.925  1.00  0.00     0.049 A 
ATOM     55  C   UNL A   1      43.860  26.443  28.270  1.00  0.00     0.074 A 
ATOM     56  C   UNL A   1      43.924  31.028  32.668  1.00  0.00     0.029 A 
ATOM     57  N   UNL A   1      44.537  29.003  32.044  1.00  0.00    -0.354 N 
ATOM     58  N   UNL A   1      44.517  27.548  28.049  1.00  0.00    -0.248 NA
ATOM     59  C   UNL A   1      44.158  25.776  29.527  1.00  0.00     0.031 C 
ATOM     60  C   UNL A   1      44.602  31.097  31.412  1.00  0.00     0.029 A 
ATOM     61  C   UNL A   1      44.817  29.796  30.959  1.00  0.00     0.049 A 
ATOM     62  H   UNL A   1      44.864  28.084  32.171  1.00  0.00     0.167 HD
ATOM     63  C   UNL A   1      44.940  27.944  29.304  1.00  0.00     0.074 A 
ATOM     64  C   UNL A   1      44.854  26.745  30.126  1.00  0.00     0.031 C 
ATOM     65  C   UNL A   1      45.038  29.266  29.627  1.00  0.00     0.037 A 
BRANCH  52  66
ATOM     66  C   UNL A   1      43.120  27.801  34.575  1.00  0.00     0.057 A 
ATOM     67  C   UNL A   1      43.097  27.922  35.977  1.00  0.00     0.134 A 
ATOM     68  C   UNL A   1      43.253  26.488  34.088  1.00  0.00     0.134 A 
ATOM     69  F   UNL A   1      42.901  29.089  36.598  1.00  0.00    -0.206 F 
ATOM     70  C   UNL A   1      43.171  26.818  36.831  1.00  0.00     0.040 A 
ATOM     71  C   UNL A   1      43.274  25.374  34.931  1.00  0.00     0.040 A 
ATOM     72  F   UNL A   1      43.285  26.241  32.770  1.00  0.00    -0.206 F 
ATOM     73  C   UNL A   1      43.224  25.535  36.308  1.00  0.00     0.006 A 
ENDBRANCH  52  66
BRANCH  53  74
ATOM     74  C   UNL A   1      42.650  24.833  26.626  1.00  0.00     0.057 A 
ATOM     75  C   UNL A   1      42.180  23.607  27.130  1.00  0.00     0.134 A 
ATOM     76  C   UNL A   1      43.326  24.771  25.399  1.00  0.00     0.134 A 
ATOM     77  F   UNL A   1      41.564  23.552  28.320  1.00  0.00    -0.206 F 
ATOM     78  C   UNL A   1      42.401  22.389  26.470  1.00  0.00     0.040 A 
ATOM     79  C   UNL A   1      43.546  23.561  24.722  1.00  0.00     0.040 A 
ATOM     80  F   UNL A   1      43.840  25.880  24.849  1.00  0.00    -0.206 F 
ATOM     81  C   UNL A   1      43.096  22.361  25.265  1.00  0.00     0.006 A 
ENDBRANCH  53  74
BRANCH  65  82
ATOM     82  C   UNL A   1      45.147  30.246  28.491  1.00  0.00     0.057 A 
ATOM     83  C   UNL A   1      43.994  30.893  28.038  1.00  0.00     0.134 A 
ATOM     84  C   UNL A   1      46.324  30.492  27.775  1.00  0.00     0.134 A 
ATOM     85  F   UNL A   1      42.816  30.676  28.643  1.00  0.00    -0.206 F 
ATOM     86  C   UNL A   1      44.013  31.748  26.931  1.00  0.00     0.040 A 
ATOM     87  C   UNL A   1      46.368  31.366  26.684  1.00  0.00     0.040 A 
ATOM     88  F   UNL A   1      47.455  29.858  28.082  1.00  0.00    -0.206 F 
ATOM     89  C   UNL A   1      45.206  31.994  26.254  1.00  0.00     0.006 A 
ENDBRANCH  65  82
ENDBRANCH  39  40
ENDBRANCH  32  34
ENDBRANCH  31  32
ENDBRANCH  30  31
ENDBRANCH  29  30
ENDBRANCH  28  29
ENDBRANCH  27  28
ENDBRANCH  26  27
ENDBRANCH   1  26
TORSDOF 22
ENDMDL
