MODEL 1
REMARK VINA RESULT:     -11.5      0.000      0.000
REMARK SMILES O=C(CCN1C(=O)S/C(=C\c2ccc(F)cc2)C1=O)Nc1ccc(O)cc1C(=O)OCCOCCOCCOC(=O)c1ccc(-c2c3nc(c(-c4c(F)cccc4F)c4ccc([nH]4)c(-c4c(F)cccc4F)c4nc(c(-c5c(F)cccc5F)c5ccc2[nH]5)C=C4)C=C3)cc1
REMARK SMILES IDX 33 1 32 2 31 3 30 4 28 5 29 6 27 7 21 8 22 9 23 10 26 11
REMARK SMILES IDX 24 12 20 13 1 14 2 15 3 17 4 18 5 19 6 20 18 21 7 22 8 23
REMARK SMILES IDX 9 24 19 25 10 26 11 27 12 28 17 29 13 30 16 31 14 32 15 33
REMARK SMILES IDX 25 34 34 36 35 37 36 38 37 39 38 40 39 41 40 42 41 43 42 44
REMARK SMILES IDX 43 45 95 46 44 47 94 48 45 49 46 50 47 51 88 52 48 53 93 54
REMARK SMILES IDX 87 55 89 56 49 57 92 58 86 59 85 60 50 62 76 63 59 64 75 65
REMARK SMILES IDX 60 66 63 67 74 68 90 69 61 70 62 71 73 73 91 74 64 75 51 76
REMARK SMILES IDX 52 77 57 78 53 79 54 80 56 81 58 82 55 83 77 84 78 85 83 86
REMARK SMILES IDX 79 87 80 88 82 89 84 90 81 91 65 92 66 93 71 94 67 95 68 96
REMARK SMILES IDX 70 97 72 98 69 99
REMARK H PARENT 20 16 25 35 89 61 63 72
REMARK Flexibility Score: inf
ROOT
ATOM      1  O   UNL A   1      37.210  23.191  25.821  1.00  0.00    -0.376 OA
ENDROOT
BRANCH   1   2
ATOM      2  C   UNL A   1      37.041  23.294  24.417  1.00  0.00     0.202 C 
BRANCH   2   3
ATOM      3  C   UNL A   1      36.076  22.278  23.825  1.00  0.00     0.261 C 
BRANCH   3   4
ATOM      4  O   UNL A   1      34.792  22.047  24.488  1.00  0.00    -0.460 OA
BRANCH   4   5
ATOM      5  C   UNL A   1      34.569  21.105  25.421  1.00  0.00     0.340 C 
ATOM      6  O   UNL A   1      34.662  21.272  26.625  1.00  0.00    -0.246 OA
BRANCH   5   7
ATOM      7  C   UNL A   1      34.007  19.854  24.819  1.00  0.00     0.087 A 
ATOM      8  C   UNL A   1      32.734  19.708  24.208  1.00  0.00     0.056 A 
ATOM      9  C   UNL A   1      32.395  18.436  23.703  1.00  0.00     0.031 A 
ATOM     10  C   UNL A   1      33.261  17.340  23.812  1.00  0.00     0.048 A 
ATOM     11  C   UNL A   1      34.874  18.745  24.911  1.00  0.00     0.064 A 
ATOM     12  C   UNL A   1      34.493  17.504  24.419  1.00  0.00     0.116 A 
BRANCH   8  13
ATOM     13  N   UNL A   1      31.857  20.817  24.022  1.00  0.00    -0.325 N 
ATOM     14  O   UNL A   1      32.194  21.368  21.812  1.00  0.00    -0.275 OA
ATOM     15  C   UNL A   1      31.774  21.660  22.934  1.00  0.00     0.226 C 
ATOM     16  H   UNL A   1      31.234  21.003  24.762  1.00  0.00     0.169 HD
BRANCH  15  17
ATOM     17  C   UNL A   1      31.286  23.107  23.163  1.00  0.00     0.122 C 
BRANCH  17  18
ATOM     18  C   UNL A   1      31.868  24.069  24.206  1.00  0.00     0.140 C 
BRANCH  18  19
ATOM     19  N   UNL A   1      32.117  25.454  23.764  1.00  0.00    -0.268 N 
ATOM     20  C   UNL A   1      33.168  25.900  23.021  1.00  0.00     0.293 C 
ATOM     21  C   UNL A   1      31.110  26.342  23.850  1.00  0.00     0.268 C 
ATOM     22  O   UNL A   1      34.193  25.286  22.761  1.00  0.00    -0.261 OA
ATOM     23  S   UNL A   1      32.837  27.548  22.385  1.00  0.00    -0.022 SA
ATOM     24  C   UNL A   1      31.387  27.673  23.258  1.00  0.00     0.083 C 
ATOM     25  O   UNL A   1      30.024  25.994  24.272  1.00  0.00    -0.268 OA
ATOM     26  C   UNL A   1      30.445  28.612  23.441  1.00  0.00     0.029 C 
BRANCH  26  27
ATOM     27  C   UNL A   1      29.955  29.901  22.908  1.00  0.00    -0.024 A 
ATOM     28  C   UNL A   1      29.610  30.090  21.570  1.00  0.00     0.011 A 
ATOM     29  C   UNL A   1      29.472  30.843  23.850  1.00  0.00     0.011 A 
ATOM     30  C   UNL A   1      28.808  31.184  21.193  1.00  0.00     0.040 A 
ATOM     31  C   UNL A   1      28.645  31.908  23.483  1.00  0.00     0.040 A 
ATOM     32  C   UNL A   1      28.322  32.070  22.150  1.00  0.00     0.123 A 
ATOM     33  F   UNL A   1      27.513  33.074  21.786  1.00  0.00    -0.207 F 
ENDBRANCH  26  27
ENDBRANCH  18  19
ENDBRANCH  17  18
ENDBRANCH  15  17
ENDBRANCH   8  13
BRANCH  12  34
ATOM     34  O   UNL A   1      35.368  16.470  24.555  1.00  0.00    -0.508 OA
ATOM     35  H   UNL A   1      35.947  16.440  25.292  1.00  0.00     0.293 HD
ENDBRANCH  12  34
ENDBRANCH   5   7
ENDBRANCH   4   5
ENDBRANCH   3   4
ENDBRANCH   2   3
ENDBRANCH   1   2
BRANCH   1  36
ATOM     36  C   UNL A   1      38.558  22.948  26.180  1.00  0.00     0.188 C 
BRANCH  36  37
ATOM     37  C   UNL A   1      39.052  21.498  25.931  1.00  0.00     0.188 C 
BRANCH  37  38
ATOM     38  O   UNL A   1      39.909  20.845  26.856  1.00  0.00    -0.376 OA
BRANCH  38  39
ATOM     39  C   UNL A   1      41.104  20.234  26.390  1.00  0.00     0.202 C 
BRANCH  39  40
ATOM     40  C   UNL A   1      42.403  21.050  26.291  1.00  0.00     0.261 C 
BRANCH  40  41
ATOM     41  O   UNL A   1      42.258  22.350  25.699  1.00  0.00    -0.460 OA
BRANCH  41  42
ATOM     42  C   UNL A   1      43.276  23.227  25.900  1.00  0.00     0.338 C 
ATOM     43  O   UNL A   1      44.373  23.221  25.371  1.00  0.00    -0.246 OA
BRANCH  42  44
ATOM     44  C   UNL A   1      42.736  24.381  26.659  1.00  0.00     0.060 A 
ATOM     45  C   UNL A   1      43.283  25.663  26.436  1.00  0.00     0.016 A 
ATOM     46  C   UNL A   1      41.611  24.226  27.468  1.00  0.00     0.016 A 
ATOM     47  C   UNL A   1      42.702  26.789  27.018  1.00  0.00     0.010 A 
ATOM     48  C   UNL A   1      41.074  25.341  28.107  1.00  0.00     0.010 A 
ATOM     49  C   UNL A   1      41.641  26.615  27.912  1.00  0.00    -0.014 A 
BRANCH  49  50
ATOM     50  C   UNL A   1      41.360  27.654  28.924  1.00  0.00     0.031 A 
ATOM     51  C   UNL A   1      42.184  27.587  30.179  1.00  0.00     0.074 A 
ATOM     52  C   UNL A   1      40.389  28.569  28.779  1.00  0.00     0.049 A 
ATOM     53  N   UNL A   1      42.023  28.208  31.315  1.00  0.00    -0.248 NA
ATOM     54  C   UNL A   1      43.340  26.672  30.151  1.00  0.00     0.031 C 
ATOM     55  C   UNL A   1      39.579  28.769  27.580  1.00  0.00     0.029 A 
ATOM     56  N   UNL A   1      39.903  29.487  29.676  1.00  0.00    -0.354 N 
ATOM     57  C   UNL A   1      43.040  27.739  32.136  1.00  0.00     0.074 A 
ATOM     58  C   UNL A   1      43.802  26.774  31.384  1.00  0.00     0.031 C 
ATOM     59  C   UNL A   1      38.672  29.732  27.828  1.00  0.00     0.029 A 
ATOM     60  C   UNL A   1      38.808  30.175  29.216  1.00  0.00     0.049 A 
ATOM     61  H   UNL A   1      40.302  29.637  30.564  1.00  0.00     0.167 HD
ATOM     62  C   UNL A   1      43.310  28.087  33.413  1.00  0.00     0.037 A 
ATOM     63  C   UNL A   1      37.990  31.031  29.863  1.00  0.00     0.037 A 
ATOM     64  C   UNL A   1      42.538  29.043  34.151  1.00  0.00     0.049 A 
ATOM     65  C   UNL A   1      38.252  31.337  31.318  1.00  0.00     0.074 A 
ATOM     66  C   UNL A   1      42.726  29.477  35.449  1.00  0.00     0.029 A 
ATOM     67  N   UNL A   1      41.424  29.704  33.655  1.00  0.00    -0.354 N 
ATOM     68  N   UNL A   1      39.213  30.896  32.095  1.00  0.00    -0.248 NA
ATOM     69  C   UNL A   1      37.314  32.249  31.989  1.00  0.00     0.031 C 
ATOM     70  C   UNL A   1      41.692  30.362  35.758  1.00  0.00     0.029 A 
ATOM     71  C   UNL A   1      40.898  30.526  34.632  1.00  0.00     0.049 A 
ATOM     72  H   UNL A   1      41.065  29.602  32.745  1.00  0.00     0.167 HD
ATOM     73  C   UNL A   1      39.014  31.496  33.333  1.00  0.00     0.074 A 
ATOM     74  C   UNL A   1      37.840  32.334  33.206  1.00  0.00     0.031 C 
ATOM     75  C   UNL A   1      39.738  31.367  34.472  1.00  0.00     0.037 A 
BRANCH  62  76
ATOM     76  C   UNL A   1      44.461  27.409  34.091  1.00  0.00     0.057 A 
ATOM     77  C   UNL A   1      45.744  27.967  34.040  1.00  0.00     0.134 A 
ATOM     78  C   UNL A   1      44.312  26.187  34.758  1.00  0.00     0.134 A 
ATOM     79  F   UNL A   1      45.953  29.140  33.423  1.00  0.00    -0.206 F 
ATOM     80  C   UNL A   1      46.842  27.323  34.609  1.00  0.00     0.040 A 
ATOM     81  C   UNL A   1      45.397  25.548  35.358  1.00  0.00     0.040 A 
ATOM     82  F   UNL A   1      43.103  25.614  34.868  1.00  0.00    -0.206 F 
ATOM     83  C   UNL A   1      46.669  26.110  35.273  1.00  0.00     0.006 A 
ENDBRANCH  62  76
BRANCH  63  84
ATOM     84  C   UNL A   1      36.842  31.642  29.144  1.00  0.00     0.057 A 
ATOM     85  C   UNL A   1      36.875  32.969  28.700  1.00  0.00     0.134 A 
ATOM     86  C   UNL A   1      35.672  30.914  28.904  1.00  0.00     0.134 A 
ATOM     87  F   UNL A   1      37.968  33.722  28.894  1.00  0.00    -0.206 F 
ATOM     88  C   UNL A   1      35.777  33.558  28.069  1.00  0.00     0.040 A 
ATOM     89  C   UNL A   1      34.576  31.482  28.252  1.00  0.00     0.040 A 
ATOM     90  F   UNL A   1      35.588  29.628  29.280  1.00  0.00    -0.206 F 
ATOM     91  C   UNL A   1      34.623  32.812  27.842  1.00  0.00     0.006 A 
ENDBRANCH  63  84
BRANCH  75  92
ATOM     92  C   UNL A   1      39.327  32.169  35.671  1.00  0.00     0.057 A 
ATOM     93  C   UNL A   1      38.380  31.659  36.570  1.00  0.00     0.134 A 
ATOM     94  C   UNL A   1      39.746  33.491  35.850  1.00  0.00     0.134 A 
ATOM     95  F   UNL A   1      37.924  30.403  36.439  1.00  0.00    -0.206 F 
ATOM     96  C   UNL A   1      37.839  32.448  37.585  1.00  0.00     0.040 A 
ATOM     97  C   UNL A   1      39.233  34.282  36.879  1.00  0.00     0.040 A 
ATOM     98  F   UNL A   1      40.653  34.035  35.025  1.00  0.00    -0.206 F 
ATOM     99  C   UNL A   1      38.265  33.765  37.739  1.00  0.00     0.006 A 
ENDBRANCH  75  92
ENDBRANCH  49  50
ENDBRANCH  42  44
ENDBRANCH  41  42
ENDBRANCH  40  41
ENDBRANCH  39  40
ENDBRANCH  38  39
ENDBRANCH  37  38
ENDBRANCH  36  37
ENDBRANCH   1  36
TORSDOF 23
ENDMDL
MODEL 2
REMARK VINA RESULT:     -11.3      3.785      5.289
REMARK SMILES O=C(CCN1C(=O)S/C(=C\c2ccc(F)cc2)C1=O)Nc1ccc(O)cc1C(=O)OCCOCCOCCOC(=O)c1ccc(-c2c3nc(c(-c4c(F)cccc4F)c4ccc([nH]4)c(-c4c(F)cccc4F)c4nc(c(-c5c(F)cccc5F)c5ccc2[nH]5)C=C4)C=C3)cc1
REMARK SMILES IDX 33 1 32 2 31 3 30 4 28 5 29 6 27 7 21 8 22 9 23 10 26 11
REMARK SMILES IDX 24 12 20 13 1 14 2 15 3 17 4 18 5 19 6 20 18 21 7 22 8 23
REMARK SMILES IDX 9 24 19 25 10 26 11 27 12 28 17 29 13 30 16 31 14 32 15 33
REMARK SMILES IDX 25 34 34 36 35 37 36 38 37 39 38 40 39 41 40 42 41 43 42 44
REMARK SMILES IDX 43 45 95 46 44 47 94 48 45 49 46 50 47 51 88 52 48 53 93 54
REMARK SMILES IDX 87 55 89 56 49 57 92 58 86 59 85 60 50 62 76 63 59 64 75 65
REMARK SMILES IDX 60 66 63 67 74 68 90 69 61 70 62 71 73 73 91 74 64 75 51 76
REMARK SMILES IDX 52 77 57 78 53 79 54 80 56 81 58 82 55 83 77 84 78 85 83 86
REMARK SMILES IDX 79 87 80 88 82 89 84 90 81 91 65 92 66 93 71 94 67 95 68 96
REMARK SMILES IDX 70 97 72 98 69 99
REMARK H PARENT 20 16 25 35 89 61 63 72
REMARK Flexibility Score: inf
ROOT
ATOM      1  O   UNL A   1      34.889  23.759  24.793  1.00  0.00    -0.376 OA
ENDROOT
BRANCH   1   2
ATOM      2  C   UNL A   1      34.362  24.399  23.643  1.00  0.00     0.202 C 
BRANCH   2   3
ATOM      3  C   UNL A   1      33.627  23.469  22.690  1.00  0.00     0.261 C 
BRANCH   3   4
ATOM      4  O   UNL A   1      32.526  22.653  23.201  1.00  0.00    -0.460 OA
BRANCH   4   5
ATOM      5  C   UNL A   1      32.157  21.461  22.699  1.00  0.00     0.340 C 
ATOM      6  O   UNL A   1      31.785  21.265  21.555  1.00  0.00    -0.246 OA
BRANCH   5   7
ATOM      7  C   UNL A   1      32.430  20.348  23.663  1.00  0.00     0.087 A 
ATOM      8  C   UNL A   1      32.637  20.471  25.061  1.00  0.00     0.056 A 
ATOM      9  C   UNL A   1      32.883  19.291  25.792  1.00  0.00     0.031 A 
ATOM     10  C   UNL A   1      32.949  18.036  25.172  1.00  0.00     0.048 A 
ATOM     11  C   UNL A   1      32.487  19.076  23.054  1.00  0.00     0.064 A 
ATOM     12  C   UNL A   1      32.753  17.940  23.806  1.00  0.00     0.116 A 
BRANCH   8  13
ATOM     13  N   UNL A   1      32.512  21.724  25.732  1.00  0.00    -0.325 N 
ATOM     14  O   UNL A   1      30.246  21.872  26.116  1.00  0.00    -0.275 OA
ATOM     15  C   UNL A   1      31.356  22.406  26.047  1.00  0.00     0.226 C 
ATOM     16  H   UNL A   1      33.355  22.153  26.004  1.00  0.00     0.169 HD
BRANCH  15  17
ATOM     17  C   UNL A   1      31.418  23.945  26.152  1.00  0.00     0.122 C 
BRANCH  17  18
ATOM     18  C   UNL A   1      30.583  24.912  25.303  1.00  0.00     0.140 C 
BRANCH  18  19
ATOM     19  N   UNL A   1      31.226  26.185  24.923  1.00  0.00    -0.268 N 
ATOM     20  C   UNL A   1      31.394  26.672  23.662  1.00  0.00     0.293 C 
ATOM     21  C   UNL A   1      31.442  27.102  25.883  1.00  0.00     0.268 C 
ATOM     22  O   UNL A   1      31.234  26.062  22.615  1.00  0.00    -0.261 OA
ATOM     23  S   UNL A   1      31.841  28.411  23.713  1.00  0.00    -0.022 SA
ATOM     24  C   UNL A   1      31.959  28.407  25.406  1.00  0.00     0.083 C 
ATOM     25  O   UNL A   1      31.099  26.879  27.028  1.00  0.00    -0.268 OA
ATOM     26  C   UNL A   1      32.298  29.294  26.355  1.00  0.00     0.029 C 
BRANCH  26  27
ATOM     27  C   UNL A   1      32.534  30.735  26.583  1.00  0.00    -0.024 A 
ATOM     28  C   UNL A   1      31.540  31.703  26.432  1.00  0.00     0.011 A 
ATOM     29  C   UNL A   1      33.684  31.087  27.332  1.00  0.00     0.011 A 
ATOM     30  C   UNL A   1      31.697  32.975  27.013  1.00  0.00     0.040 A 
ATOM     31  C   UNL A   1      33.825  32.337  27.941  1.00  0.00     0.040 A 
ATOM     32  C   UNL A   1      32.825  33.275  27.772  1.00  0.00     0.123 A 
ATOM     33  F   UNL A   1      32.936  34.469  28.367  1.00  0.00    -0.207 F 
ENDBRANCH  26  27
ENDBRANCH  18  19
ENDBRANCH  17  18
ENDBRANCH  15  17
ENDBRANCH   8  13
BRANCH  12  34
ATOM     34  O   UNL A   1      32.811  16.746  23.156  1.00  0.00    -0.508 OA
ATOM     35  H   UNL A   1      33.385  16.639  22.422  1.00  0.00     0.293 HD
ENDBRANCH  12  34
ENDBRANCH   5   7
ENDBRANCH   4   5
ENDBRANCH   3   4
ENDBRANCH   2   3
ENDBRANCH   1   2
BRANCH   1  36
ATOM     36  C   UNL A   1      35.952  22.880  24.474  1.00  0.00     0.188 C 
BRANCH  36  37
ATOM     37  C   UNL A   1      36.263  21.808  25.552  1.00  0.00     0.188 C 
BRANCH  37  38
ATOM     38  O   UNL A   1      36.533  20.461  25.190  1.00  0.00    -0.376 OA
BRANCH  38  39
ATOM     39  C   UNL A   1      37.848  20.095  24.796  1.00  0.00     0.202 C 
BRANCH  39  40
ATOM     40  C   UNL A   1      39.066  20.651  25.551  1.00  0.00     0.261 C 
BRANCH  40  41
ATOM     41  O   UNL A   1      39.764  19.696  26.364  1.00  0.00    -0.460 OA
BRANCH  41  42
ATOM     42  C   UNL A   1      41.112  19.627  26.202  1.00  0.00     0.338 C 
ATOM     43  O   UNL A   1      41.746  18.747  25.649  1.00  0.00    -0.246 OA
BRANCH  42  44
ATOM     44  C   UNL A   1      41.678  20.951  26.556  1.00  0.00     0.060 A 
ATOM     45  C   UNL A   1      41.676  21.357  27.907  1.00  0.00     0.016 A 
ATOM     46  C   UNL A   1      42.334  21.716  25.591  1.00  0.00     0.016 A 
ATOM     47  C   UNL A   1      42.332  22.525  28.295  1.00  0.00     0.010 A 
ATOM     48  C   UNL A   1      42.929  22.918  25.966  1.00  0.00     0.010 A 
ATOM     49  C   UNL A   1      42.896  23.341  27.309  1.00  0.00    -0.014 A 
BRANCH  49  50
ATOM     50  C   UNL A   1      43.109  24.777  27.582  1.00  0.00     0.031 A 
ATOM     51  C   UNL A   1      44.540  25.215  27.716  1.00  0.00     0.074 A 
ATOM     52  C   UNL A   1      42.097  25.640  27.768  1.00  0.00     0.049 A 
ATOM     53  N   UNL A   1      45.028  26.339  28.163  1.00  0.00    -0.248 NA
ATOM     54  C   UNL A   1      45.562  24.234  27.306  1.00  0.00     0.031 C 
ATOM     55  C   UNL A   1      40.679  25.341  27.593  1.00  0.00     0.029 A 
ATOM     56  N   UNL A   1      42.123  26.950  28.177  1.00  0.00    -0.354 N 
ATOM     57  C   UNL A   1      46.407  26.187  28.110  1.00  0.00     0.074 A 
ATOM     58  C   UNL A   1      46.684  24.864  27.606  1.00  0.00     0.031 C 
ATOM     59  C   UNL A   1      39.964  26.432  27.925  1.00  0.00     0.029 A 
ATOM     60  C   UNL A   1      40.874  27.482  28.382  1.00  0.00     0.049 A 
ATOM     61  H   UNL A   1      42.955  27.457  28.312  1.00  0.00     0.167 HD
ATOM     62  C   UNL A   1      47.360  27.078  28.456  1.00  0.00     0.037 A 
ATOM     63  C   UNL A   1      40.517  28.668  28.918  1.00  0.00     0.037 A 
ATOM     64  C   UNL A   1      47.070  28.387  28.964  1.00  0.00     0.049 A 
ATOM     65  C   UNL A   1      41.595  29.615  29.386  1.00  0.00     0.074 A 
ATOM     66  C   UNL A   1      47.958  29.377  29.339  1.00  0.00     0.029 A 
ATOM     67  N   UNL A   1      45.792  28.882  29.174  1.00  0.00    -0.354 N 
ATOM     68  N   UNL A   1      42.899  29.473  29.335  1.00  0.00    -0.248 NA
ATOM     69  C   UNL A   1      41.157  30.880  29.994  1.00  0.00     0.031 C 
ATOM     70  C   UNL A   1      47.216  30.452  29.830  1.00  0.00     0.029 A 
ATOM     71  C   UNL A   1      45.867  30.157  29.700  1.00  0.00     0.049 A 
ATOM     72  H   UNL A   1      44.958  28.398  28.978  1.00  0.00     0.167 HD
ATOM     73  C   UNL A   1      43.435  30.637  29.874  1.00  0.00     0.074 A 
ATOM     74  C   UNL A   1      42.316  31.477  30.247  1.00  0.00     0.031 C 
ATOM     75  C   UNL A   1      44.735  30.981  30.044  1.00  0.00     0.037 A 
BRANCH  62  76
ATOM     76  C   UNL A   1      48.791  26.654  28.325  1.00  0.00     0.057 A 
ATOM     77  C   UNL A   1      49.478  26.125  29.425  1.00  0.00     0.134 A 
ATOM     78  C   UNL A   1      49.501  26.804  27.128  1.00  0.00     0.134 A 
ATOM     79  F   UNL A   1      48.853  25.948  30.599  1.00  0.00    -0.206 F 
ATOM     80  C   UNL A   1      50.827  25.782  29.344  1.00  0.00     0.040 A 
ATOM     81  C   UNL A   1      50.843  26.436  27.026  1.00  0.00     0.040 A 
ATOM     82  F   UNL A   1      48.893  27.278  26.030  1.00  0.00    -0.206 F 
ATOM     83  C   UNL A   1      51.513  25.935  28.141  1.00  0.00     0.006 A 
ENDBRANCH  62  76
BRANCH  63  84
ATOM     84  C   UNL A   1      39.079  29.014  29.055  1.00  0.00     0.057 A 
ATOM     85  C   UNL A   1      38.390  28.830  30.260  1.00  0.00     0.134 A 
ATOM     86  C   UNL A   1      38.352  29.519  27.972  1.00  0.00     0.134 A 
ATOM     87  F   UNL A   1      39.028  28.353  31.340  1.00  0.00    -0.206 F 
ATOM     88  C   UNL A   1      37.026  29.109  30.375  1.00  0.00     0.040 A 
ATOM     89  C   UNL A   1      36.994  29.826  28.079  1.00  0.00     0.040 A 
ATOM     90  F   UNL A   1      38.961  29.744  26.797  1.00  0.00    -0.206 F 
ATOM     91  C   UNL A   1      36.325  29.610  29.281  1.00  0.00     0.006 A 
ENDBRANCH  63  84
BRANCH  75  92
ATOM     92  C   UNL A   1      45.045  32.331  30.619  1.00  0.00     0.057 A 
ATOM     93  C   UNL A   1      45.217  32.486  32.002  1.00  0.00     0.134 A 
ATOM     94  C   UNL A   1      45.022  33.487  29.834  1.00  0.00     0.134 A 
ATOM     95  F   UNL A   1      45.229  31.416  32.811  1.00  0.00    -0.206 F 
ATOM     96  C   UNL A   1      45.319  33.748  32.586  1.00  0.00     0.040 A 
ATOM     97  C   UNL A   1      45.150  34.755  30.404  1.00  0.00     0.040 A 
ATOM     98  F   UNL A   1      44.865  33.404  28.504  1.00  0.00    -0.206 F 
ATOM     99  C   UNL A   1      45.284  34.888  31.786  1.00  0.00     0.006 A 
ENDBRANCH  75  92
ENDBRANCH  49  50
ENDBRANCH  42  44
ENDBRANCH  41  42
ENDBRANCH  40  41
ENDBRANCH  39  40
ENDBRANCH  38  39
ENDBRANCH  37  38
ENDBRANCH  36  37
ENDBRANCH   1  36
TORSDOF 23
ENDMDL
MODEL 3
REMARK VINA RESULT:     -11.3      3.757      5.809
REMARK SMILES O=C(CCN1C(=O)S/C(=C\c2ccc(F)cc2)C1=O)Nc1ccc(O)cc1C(=O)OCCOCCOCCOC(=O)c1ccc(-c2c3nc(c(-c4c(F)cccc4F)c4ccc([nH]4)c(-c4c(F)cccc4F)c4nc(c(-c5c(F)cccc5F)c5ccc2[nH]5)C=C4)C=C3)cc1
REMARK SMILES IDX 33 1 32 2 31 3 30 4 28 5 29 6 27 7 21 8 22 9 23 10 26 11
REMARK SMILES IDX 24 12 20 13 1 14 2 15 3 17 4 18 5 19 6 20 18 21 7 22 8 23
REMARK SMILES IDX 9 24 19 25 10 26 11 27 12 28 17 29 13 30 16 31 14 32 15 33
REMARK SMILES IDX 25 34 34 36 35 37 36 38 37 39 38 40 39 41 40 42 41 43 42 44
REMARK SMILES IDX 43 45 95 46 44 47 94 48 45 49 46 50 47 51 88 52 48 53 93 54
REMARK SMILES IDX 87 55 89 56 49 57 92 58 86 59 85 60 50 62 76 63 59 64 75 65
REMARK SMILES IDX 60 66 63 67 74 68 90 69 61 70 62 71 73 73 91 74 64 75 51 76
REMARK SMILES IDX 52 77 57 78 53 79 54 80 56 81 58 82 55 83 77 84 78 85 83 86
REMARK SMILES IDX 79 87 80 88 82 89 84 90 81 91 65 92 66 93 71 94 67 95 68 96
REMARK SMILES IDX 70 97 72 98 69 99
REMARK H PARENT 20 16 25 35 89 61 63 72
REMARK Flexibility Score: inf
ROOT
ATOM      1  O   UNL A   1      34.723  24.011  24.038  1.00  0.00    -0.376 OA
ENDROOT
BRANCH   1   2
ATOM      2  C   UNL A   1      34.038  24.659  22.980  1.00  0.00     0.202 C 
BRANCH   2   3
ATOM      3  C   UNL A   1      33.044  23.774  22.242  1.00  0.00     0.261 C 
BRANCH   3   4
ATOM      4  O   UNL A   1      32.268  22.793  23.000  1.00  0.00    -0.460 OA
BRANCH   4   5
ATOM      5  C   UNL A   1      32.149  21.493  22.676  1.00  0.00     0.340 C 
ATOM      6  O   UNL A   1      31.987  21.062  21.548  1.00  0.00    -0.246 OA
BRANCH   5   7
ATOM      7  C   UNL A   1      32.426  20.604  23.850  1.00  0.00     0.087 A 
ATOM      8  C   UNL A   1      32.778  21.019  25.160  1.00  0.00     0.056 A 
ATOM      9  C   UNL A   1      32.999  20.016  26.126  1.00  0.00     0.031 A 
ATOM     10  C   UNL A   1      32.903  18.653  25.814  1.00  0.00     0.048 A 
ATOM     11  C   UNL A   1      32.319  19.229  23.553  1.00  0.00     0.064 A 
ATOM     12  C   UNL A   1      32.566  18.272  24.528  1.00  0.00     0.116 A 
BRANCH   8  13
ATOM     13  N   UNL A   1      32.820  22.397  25.527  1.00  0.00    -0.325 N 
ATOM     14  O   UNL A   1      31.589  22.445  27.472  1.00  0.00    -0.275 OA
ATOM     15  C   UNL A   1      32.105  23.034  26.518  1.00  0.00     0.226 C 
ATOM     16  H   UNL A   1      33.437  22.963  25.007  1.00  0.00     0.169 HD
BRANCH  15  17
ATOM     17  C   UNL A   1      31.786  24.535  26.345  1.00  0.00     0.122 C 
BRANCH  17  18
ATOM     18  C   UNL A   1      30.918  25.117  25.223  1.00  0.00     0.140 C 
BRANCH  18  19
ATOM     19  N   UNL A   1      31.090  26.553  24.930  1.00  0.00    -0.268 N 
ATOM     20  C   UNL A   1      32.242  27.275  25.023  1.00  0.00     0.293 C 
ATOM     21  C   UNL A   1      30.116  27.188  24.254  1.00  0.00     0.268 C 
ATOM     22  O   UNL A   1      33.285  26.924  25.555  1.00  0.00    -0.261 OA
ATOM     23  S   UNL A   1      32.067  28.853  24.181  1.00  0.00    -0.022 SA
ATOM     24  C   UNL A   1      30.419  28.588  23.873  1.00  0.00     0.083 C 
ATOM     25  O   UNL A   1      29.130  26.578  23.889  1.00  0.00    -0.268 OA
ATOM     26  C   UNL A   1      29.417  29.280  23.307  1.00  0.00     0.029 C 
BRANCH  26  27
ATOM     27  C   UNL A   1      29.137  30.466  22.471  1.00  0.00    -0.024 A 
ATOM     28  C   UNL A   1      28.626  30.381  21.176  1.00  0.00     0.011 A 
ATOM     29  C   UNL A   1      29.029  31.712  23.138  1.00  0.00     0.011 A 
ATOM     30  C   UNL A   1      28.029  31.505  20.575  1.00  0.00     0.040 A 
ATOM     31  C   UNL A   1      28.403  32.818  22.558  1.00  0.00     0.040 A 
ATOM     32  C   UNL A   1      27.908  32.704  21.273  1.00  0.00     0.123 A 
ATOM     33  F   UNL A   1      27.287  33.748  20.711  1.00  0.00    -0.207 F 
ENDBRANCH  26  27
ENDBRANCH  18  19
ENDBRANCH  17  18
ENDBRANCH  15  17
ENDBRANCH   8  13
BRANCH  12  34
ATOM     34  O   UNL A   1      32.464  16.961  24.173  1.00  0.00    -0.508 OA
ATOM     35  H   UNL A   1      31.656  16.631  23.832  1.00  0.00     0.293 HD
ENDBRANCH  12  34
ENDBRANCH   5   7
ENDBRANCH   4   5
ENDBRANCH   3   4
ENDBRANCH   2   3
ENDBRANCH   1   2
BRANCH   1  36
ATOM     36  C   UNL A   1      35.877  23.326  23.587  1.00  0.00     0.188 C 
BRANCH  36  37
ATOM     37  C   UNL A   1      36.210  22.022  24.358  1.00  0.00     0.188 C 
BRANCH  37  38
ATOM     38  O   UNL A   1      37.487  21.410  24.250  1.00  0.00    -0.376 OA
BRANCH  38  39
ATOM     39  C   UNL A   1      38.156  20.975  25.426  1.00  0.00     0.202 C 
BRANCH  39  40
ATOM     40  C   UNL A   1      39.099  19.763  25.377  1.00  0.00     0.261 C 
BRANCH  40  41
ATOM     41  O   UNL A   1      39.971  19.628  26.509  1.00  0.00    -0.460 OA
BRANCH  41  42
ATOM     42  C   UNL A   1      41.304  19.583  26.250  1.00  0.00     0.338 C 
ATOM     43  O   UNL A   1      41.930  18.665  25.751  1.00  0.00    -0.246 OA
BRANCH  42  44
ATOM     44  C   UNL A   1      41.842  20.956  26.407  1.00  0.00     0.060 A 
ATOM     45  C   UNL A   1      42.182  21.415  27.697  1.00  0.00     0.016 A 
ATOM     46  C   UNL A   1      42.144  21.725  25.283  1.00  0.00     0.016 A 
ATOM     47  C   UNL A   1      42.827  22.640  27.864  1.00  0.00     0.010 A 
ATOM     48  C   UNL A   1      42.724  22.980  25.454  1.00  0.00     0.010 A 
ATOM     49  C   UNL A   1      43.031  23.453  26.744  1.00  0.00    -0.014 A 
BRANCH  49  50
ATOM     50  C   UNL A   1      43.198  24.910  26.920  1.00  0.00     0.031 A 
ATOM     51  C   UNL A   1      44.572  25.451  26.644  1.00  0.00     0.074 A 
ATOM     52  C   UNL A   1      42.213  25.708  27.361  1.00  0.00     0.049 A 
ATOM     53  N   UNL A   1      45.076  26.623  26.916  1.00  0.00    -0.248 NA
ATOM     54  C   UNL A   1      45.516  24.527  25.986  1.00  0.00     0.031 C 
ATOM     55  C   UNL A   1      40.828  25.305  27.592  1.00  0.00     0.029 A 
ATOM     56  N   UNL A   1      42.248  27.032  27.722  1.00  0.00    -0.354 N 
ATOM     57  C   UNL A   1      46.395  26.564  26.486  1.00  0.00     0.074 A 
ATOM     58  C   UNL A   1      46.625  25.245  25.952  1.00  0.00     0.031 C 
ATOM     59  C   UNL A   1      40.150  26.356  28.088  1.00  0.00     0.029 A 
ATOM     60  C   UNL A   1      41.066  27.485  28.255  1.00  0.00     0.049 A 
ATOM     61  H   UNL A   1      43.044  27.601  27.611  1.00  0.00     0.167 HD
ATOM     62  C   UNL A   1      47.335  27.533  26.537  1.00  0.00     0.037 A 
ATOM     63  C   UNL A   1      40.780  28.663  28.845  1.00  0.00     0.037 A 
ATOM     64  C   UNL A   1      47.095  28.838  27.080  1.00  0.00     0.049 A 
ATOM     65  C   UNL A   1      41.868  29.701  28.977  1.00  0.00     0.074 A 
ATOM     66  C   UNL A   1      47.972  29.901  27.175  1.00  0.00     0.029 A 
ATOM     67  N   UNL A   1      45.889  29.251  27.626  1.00  0.00    -0.354 N 
ATOM     68  N   UNL A   1      43.115  29.647  28.570  1.00  0.00    -0.248 NA
ATOM     69  C   UNL A   1      41.517  30.956  29.658  1.00  0.00     0.031 C 
ATOM     70  C   UNL A   1      47.313  30.941  27.831  1.00  0.00     0.029 A 
ATOM     71  C   UNL A   1      46.007  30.548  28.085  1.00  0.00     0.049 A 
ATOM     72  H   UNL A   1      45.074  28.703  27.678  1.00  0.00     0.167 HD
ATOM     73  C   UNL A   1      43.686  30.866  28.917  1.00  0.00     0.074 A 
ATOM     74  C   UNL A   1      42.652  31.641  29.568  1.00  0.00     0.031 C 
ATOM     75  C   UNL A   1      44.952  31.305  28.713  1.00  0.00     0.037 A 
BRANCH  62  76
ATOM     76  C   UNL A   1      48.703  27.203  26.024  1.00  0.00     0.057 A 
ATOM     77  C   UNL A   1      49.001  27.334  24.662  1.00  0.00     0.134 A 
ATOM     78  C   UNL A   1      49.713  26.721  26.865  1.00  0.00     0.134 A 
ATOM     79  F   UNL A   1      48.080  27.799  23.804  1.00  0.00    -0.206 F 
ATOM     80  C   UNL A   1      50.248  26.974  24.151  1.00  0.00     0.040 A 
ATOM     81  C   UNL A   1      50.974  26.386  26.371  1.00  0.00     0.040 A 
ATOM     82  F   UNL A   1      49.501  26.600  28.185  1.00  0.00    -0.206 F 
ATOM     83  C   UNL A   1      51.240  26.500  25.008  1.00  0.00     0.006 A 
ENDBRANCH  62  76
BRANCH  63  84
ATOM     84  C   UNL A   1      39.412  28.914  29.368  1.00  0.00     0.057 A 
ATOM     85  C   UNL A   1      39.075  28.652  30.702  1.00  0.00     0.134 A 
ATOM     86  C   UNL A   1      38.400  29.404  28.535  1.00  0.00     0.134 A 
ATOM     87  F   UNL A   1      39.999  28.185  31.555  1.00  0.00    -0.206 F 
ATOM     88  C   UNL A   1      37.777  28.842  31.181  1.00  0.00     0.040 A 
ATOM     89  C   UNL A   1      37.104  29.622  29.007  1.00  0.00     0.040 A 
ATOM     90  F   UNL A   1      38.666  29.702  27.254  1.00  0.00    -0.206 F 
ATOM     91  C   UNL A   1      36.787  29.330  30.331  1.00  0.00     0.006 A 
ENDBRANCH  63  84
BRANCH  75  92
ATOM     92  C   UNL A   1      45.303  32.695  29.154  1.00  0.00     0.057 A 
ATOM     93  C   UNL A   1      45.048  33.788  28.313  1.00  0.00     0.134 A 
ATOM     94  C   UNL A   1      46.024  32.934  30.328  1.00  0.00     0.134 A 
ATOM     95  F   UNL A   1      44.377  33.620  27.163  1.00  0.00    -0.206 F 
ATOM     96  C   UNL A   1      45.529  35.063  28.608  1.00  0.00     0.040 A 
ATOM     97  C   UNL A   1      46.488  34.211  30.648  1.00  0.00     0.040 A 
ATOM     98  F   UNL A   1      46.297  31.930  31.175  1.00  0.00    -0.206 F 
ATOM     99  C   UNL A   1      46.254  35.276  29.779  1.00  0.00     0.006 A 
ENDBRANCH  75  92
ENDBRANCH  49  50
ENDBRANCH  42  44
ENDBRANCH  41  42
ENDBRANCH  40  41
ENDBRANCH  39  40
ENDBRANCH  38  39
ENDBRANCH  37  38
ENDBRANCH  36  37
ENDBRANCH   1  36
TORSDOF 23
ENDMDL
