MODEL 1
REMARK VINA RESULT:      -9.0      0.000      0.000
REMARK SMILES CCC[NH2+][C@@H]1COC[C@@H]1C(=O)N[C@@](C)(CC)C(=O)OCCOCCOCCOC(=O)c1ccc(-c2c3nc(c(-c4c(F)cccc4F)c4ccc([nH]4)c(-c4c(F)cccc4F)c4nc(c(-c5c(F)cccc5F)c5ccc2[nH]5)C=C4)C=C3)cc1
REMARK SMILES IDX 22 1 21 2 20 3 19 4 17 5 18 6 13 7 14 8 12 9 10 10 11 11
REMARK SMILES IDX 9 13 5 14 6 15 7 16 8 17 4 18 3 21 2 22 1 23 15 24 16 25
REMARK SMILES IDX 23 26 24 27 25 28 26 29 27 30 28 31 29 32 30 33 31 34 32 35
REMARK SMILES IDX 84 36 33 37 83 38 34 39 35 40 36 41 77 42 37 43 82 44 76 45
REMARK SMILES IDX 78 46 38 47 81 48 75 49 74 50 39 52 65 53 48 54 64 55 49 56
REMARK SMILES IDX 52 57 63 58 79 59 50 60 51 61 62 63 80 64 53 65 40 66 41 67
REMARK SMILES IDX 46 68 42 69 43 70 45 71 47 72 44 73 66 74 67 75 72 76 68 77
REMARK SMILES IDX 69 78 71 79 73 80 70 81 54 82 55 83 60 84 56 85 57 86 59 87
REMARK SMILES IDX 61 88 58 89
REMARK H PARENT 12 12 4 19 4 20 78 51 52 62
REMARK Flexibility Score: inf
ROOT
ATOM      1  O   UNL A   1      33.138  19.056  23.821  1.00  0.00    -0.376 OA
ENDROOT
BRANCH   1   2
ATOM      2  C   UNL A   1      32.210  20.129  23.964  1.00  0.00     0.202 C 
BRANCH   2   3
ATOM      3  C   UNL A   1      32.590  21.473  23.313  1.00  0.00     0.261 C 
BRANCH   3   4
ATOM      4  O   UNL A   1      33.372  22.318  24.173  1.00  0.00    -0.462 OA
BRANCH   4   5
ATOM      5  C   UNL A   1      33.838  23.498  23.675  1.00  0.00     0.331 C 
ATOM      6  O   UNL A   1      34.323  23.623  22.557  1.00  0.00    -0.249 OA
BRANCH   5   7
ATOM      7  C   UNL A   1      33.761  24.654  24.725  1.00  0.00     0.135 C 
ATOM      8  C   UNL A   1      35.140  24.495  25.449  1.00  0.00     0.047 C 
BRANCH   7   9
ATOM      9  N   UNL A   1      33.825  26.062  24.216  1.00  0.00    -0.340 N 
ATOM     10  C   UNL A   1      33.589  27.339  24.568  1.00  0.00     0.232 C 
ATOM     11  O   UNL A   1      34.142  28.160  23.815  1.00  0.00    -0.274 OA
ATOM     12  H   UNL A   1      34.162  26.046  23.291  1.00  0.00     0.164 HD
BRANCH  10  13
ATOM     13  C   UNL A   1      32.707  27.907  25.668  1.00  0.00     0.164 C 
ATOM     14  C   UNL A   1      31.814  29.088  25.341  1.00  0.00     0.223 C 
ATOM     15  C   UNL A   1      32.467  30.217  26.124  1.00  0.00     0.225 C 
ATOM     16  O   UNL A   1      33.161  29.648  27.237  1.00  0.00    -0.374 OA
ATOM     17  C   UNL A   1      33.408  28.265  26.961  1.00  0.00     0.180 C 
BRANCH  14  18
ATOM     18  N   UNL A   1      31.546  29.231  23.902  1.00  0.00    -0.341 N 
ATOM     19  H   UNL A   1      31.973  30.101  23.588  1.00  0.00     0.346 HD
ATOM     20  H   UNL A   1      31.936  28.398  23.461  1.00  0.00     0.346 HD
BRANCH  18  21
ATOM     21  C   UNL A   1      30.142  29.260  23.529  1.00  0.00     0.260 C 
BRANCH  21  22
ATOM     22  C   UNL A   1      29.375  30.613  23.628  1.00  0.00     0.058 C 
ATOM     23  C   UNL A   1      27.993  30.817  23.024  1.00  0.00     0.010 C 
ENDBRANCH  21  22
ENDBRANCH  18  21
ENDBRANCH  14  18
ENDBRANCH  10  13
ENDBRANCH   7   9
BRANCH   7  24
ATOM     24  C   UNL A   1      32.713  24.424  25.872  1.00  0.00     0.037 C 
ATOM     25  C   UNL A   1      31.256  24.279  25.493  1.00  0.00     0.007 C 
ENDBRANCH   7  24
ENDBRANCH   5   7
ENDBRANCH   4   5
ENDBRANCH   3   4
ENDBRANCH   2   3
ENDBRANCH   1   2
BRANCH   1  26
ATOM     26  C   UNL A   1      33.945  18.795  24.967  1.00  0.00     0.188 C 
BRANCH  26  27
ATOM     27  C   UNL A   1      35.411  19.125  24.651  1.00  0.00     0.188 C 
BRANCH  27  28
ATOM     28  O   UNL A   1      35.888  20.365  25.168  1.00  0.00    -0.376 OA
BRANCH  28  29
ATOM     29  C   UNL A   1      37.214  20.735  24.739  1.00  0.00     0.202 C 
BRANCH  29  30
ATOM     30  C   UNL A   1      38.272  19.598  24.799  1.00  0.00     0.261 C 
BRANCH  30  31
ATOM     31  O   UNL A   1      38.945  19.463  26.091  1.00  0.00    -0.460 OA
BRANCH  31  32
ATOM     32  C   UNL A   1      40.270  19.841  26.110  1.00  0.00     0.338 C 
ATOM     33  O   UNL A   1      41.184  19.203  25.612  1.00  0.00    -0.246 OA
BRANCH  32  34
ATOM     34  C   UNL A   1      40.522  21.179  26.756  1.00  0.00     0.060 A 
ATOM     35  C   UNL A   1      39.967  22.326  26.218  1.00  0.00     0.016 A 
ATOM     36  C   UNL A   1      41.444  21.362  27.789  1.00  0.00     0.016 A 
ATOM     37  C   UNL A   1      40.298  23.620  26.621  1.00  0.00     0.010 A 
ATOM     38  C   UNL A   1      41.785  22.667  28.231  1.00  0.00     0.010 A 
ATOM     39  C   UNL A   1      41.225  23.811  27.633  1.00  0.00    -0.014 A 
BRANCH  39  40
ATOM     40  C   UNL A   1      41.703  25.196  27.887  1.00  0.00     0.031 A 
ATOM     41  C   UNL A   1      43.016  25.628  27.297  1.00  0.00     0.074 A 
ATOM     42  C   UNL A   1      40.914  26.146  28.428  1.00  0.00     0.049 A 
ATOM     43  N   UNL A   1      43.748  26.676  27.564  1.00  0.00    -0.248 NA
ATOM     44  C   UNL A   1      43.545  24.782  26.215  1.00  0.00     0.031 C 
ATOM     45  C   UNL A   1      39.497  25.992  28.753  1.00  0.00     0.029 A 
ATOM     46  N   UNL A   1      41.194  27.447  28.778  1.00  0.00    -0.354 N 
ATOM     47  C   UNL A   1      44.853  26.585  26.727  1.00  0.00     0.074 A 
ATOM     48  C   UNL A   1      44.669  25.411  25.902  1.00  0.00     0.031 C 
ATOM     49  C   UNL A   1      39.038  27.145  29.271  1.00  0.00     0.029 A 
ATOM     50  C   UNL A   1      40.154  28.075  29.422  1.00  0.00     0.049 A 
ATOM     51  H   UNL A   1      42.055  27.885  28.587  1.00  0.00     0.167 HD
ATOM     52  C   UNL A   1      45.938  27.395  26.686  1.00  0.00     0.037 A 
ATOM     53  C   UNL A   1      40.135  29.221  30.134  1.00  0.00     0.037 A 
ATOM     54  C   UNL A   1      46.087  28.562  27.514  1.00  0.00     0.049 A 
ATOM     55  C   UNL A   1      41.418  29.997  30.280  1.00  0.00     0.074 A 
ATOM     56  C   UNL A   1      47.190  29.377  27.687  1.00  0.00     0.029 A 
ATOM     57  N   UNL A   1      45.074  29.087  28.304  1.00  0.00    -0.354 N 
ATOM     58  N   UNL A   1      42.575  29.796  29.692  1.00  0.00    -0.248 NA
ATOM     59  C   UNL A   1      41.416  31.126  31.221  1.00  0.00     0.031 C 
ATOM     60  C   UNL A   1      46.859  30.365  28.622  1.00  0.00     0.029 A 
ATOM     61  C   UNL A   1      45.533  30.198  28.988  1.00  0.00     0.049 A 
ATOM     62  H   UNL A   1      44.162  28.721  28.368  1.00  0.00     0.167 HD
ATOM     63  C   UNL A   1      43.430  30.775  30.182  1.00  0.00     0.074 A 
ATOM     64  C   UNL A   1      42.657  31.580  31.105  1.00  0.00     0.031 C 
ATOM     65  C   UNL A   1      44.740  30.987  29.898  1.00  0.00     0.037 A 
BRANCH  52  66
ATOM     66  C   UNL A   1      47.085  26.960  25.824  1.00  0.00     0.057 A 
ATOM     67  C   UNL A   1      48.097  26.106  26.275  1.00  0.00     0.134 A 
ATOM     68  C   UNL A   1      47.182  27.437  24.508  1.00  0.00     0.134 A 
ATOM     69  F   UNL A   1      48.082  25.636  27.531  1.00  0.00    -0.206 F 
ATOM     70  C   UNL A   1      49.174  25.756  25.455  1.00  0.00     0.040 A 
ATOM     71  C   UNL A   1      48.240  27.079  23.674  1.00  0.00     0.040 A 
ATOM     72  F   UNL A   1      46.248  28.265  24.015  1.00  0.00    -0.206 F 
ATOM     73  C   UNL A   1      49.246  26.241  24.149  1.00  0.00     0.006 A 
ENDBRANCH  52  66
BRANCH  53  74
ATOM     74  C   UNL A   1      38.912  29.619  30.888  1.00  0.00     0.057 A 
ATOM     75  C   UNL A   1      37.998  30.551  30.384  1.00  0.00     0.134 A 
ATOM     76  C   UNL A   1      38.651  29.099  32.164  1.00  0.00     0.134 A 
ATOM     77  F   UNL A   1      38.206  31.127  29.191  1.00  0.00    -0.206 F 
ATOM     78  C   UNL A   1      36.872  30.945  31.116  1.00  0.00     0.040 A 
ATOM     79  C   UNL A   1      37.515  29.457  32.892  1.00  0.00     0.040 A 
ATOM     80  F   UNL A   1      39.497  28.221  32.726  1.00  0.00    -0.206 F 
ATOM     81  C   UNL A   1      36.623  30.389  32.369  1.00  0.00     0.006 A 
ENDBRANCH  53  74
BRANCH  65  82
ATOM     82  C   UNL A   1      45.405  32.152  30.565  1.00  0.00     0.057 A 
ATOM     83  C   UNL A   1      45.244  33.462  30.097  1.00  0.00     0.134 A 
ATOM     84  C   UNL A   1      46.177  31.963  31.718  1.00  0.00     0.134 A 
ATOM     85  F   UNL A   1      44.525  33.705  28.991  1.00  0.00    -0.206 F 
ATOM     86  C   UNL A   1      45.844  34.543  30.744  1.00  0.00     0.040 A 
ATOM     87  C   UNL A   1      46.762  33.039  32.386  1.00  0.00     0.040 A 
ATOM     88  F   UNL A   1      46.361  30.733  32.222  1.00  0.00    -0.206 F 
ATOM     89  C   UNL A   1      46.600  34.333  31.896  1.00  0.00     0.006 A 
ENDBRANCH  65  82
ENDBRANCH  39  40
ENDBRANCH  32  34
ENDBRANCH  31  32
ENDBRANCH  30  31
ENDBRANCH  29  30
ENDBRANCH  28  29
ENDBRANCH  27  28
ENDBRANCH  26  27
ENDBRANCH   1  26
TORSDOF 23
ENDMDL
MODEL 2
REMARK VINA RESULT:      -8.9      1.802      6.505
REMARK SMILES CCC[NH2+][C@@H]1COC[C@@H]1C(=O)N[C@@](C)(CC)C(=O)OCCOCCOCCOC(=O)c1ccc(-c2c3nc(c(-c4c(F)cccc4F)c4ccc([nH]4)c(-c4c(F)cccc4F)c4nc(c(-c5c(F)cccc5F)c5ccc2[nH]5)C=C4)C=C3)cc1
REMARK SMILES IDX 22 1 21 2 20 3 19 4 17 5 18 6 13 7 14 8 12 9 10 10 11 11
REMARK SMILES IDX 9 13 5 14 6 15 7 16 8 17 4 18 3 21 2 22 1 23 15 24 16 25
REMARK SMILES IDX 23 26 24 27 25 28 26 29 27 30 28 31 29 32 30 33 31 34 32 35
REMARK SMILES IDX 84 36 33 37 83 38 34 39 35 40 36 41 77 42 37 43 82 44 76 45
REMARK SMILES IDX 78 46 38 47 81 48 75 49 74 50 39 52 65 53 48 54 64 55 49 56
REMARK SMILES IDX 52 57 63 58 79 59 50 60 51 61 62 63 80 64 53 65 40 66 41 67
REMARK SMILES IDX 46 68 42 69 43 70 45 71 47 72 44 73 66 74 67 75 72 76 68 77
REMARK SMILES IDX 69 78 71 79 73 80 70 81 54 82 55 83 60 84 56 85 57 86 59 87
REMARK SMILES IDX 61 88 58 89
REMARK H PARENT 12 12 4 19 4 20 78 51 52 62
REMARK Flexibility Score: inf
ROOT
ATOM      1  O   UNL A   1      33.147  18.245  23.510  1.00  0.00    -0.376 OA
ENDROOT
BRANCH   1   2
ATOM      2  C   UNL A   1      32.375  19.229  24.196  1.00  0.00     0.202 C 
BRANCH   2   3
ATOM      3  C   UNL A   1      32.412  20.663  23.635  1.00  0.00     0.261 C 
BRANCH   3   4
ATOM      4  O   UNL A   1      31.669  21.602  24.430  1.00  0.00    -0.462 OA
BRANCH   4   5
ATOM      5  C   UNL A   1      32.352  22.400  25.298  1.00  0.00     0.331 C 
ATOM      6  O   UNL A   1      32.821  22.010  26.360  1.00  0.00    -0.249 OA
BRANCH   5   7
ATOM      7  C   UNL A   1      32.394  23.890  24.822  1.00  0.00     0.135 C 
ATOM      8  C   UNL A   1      31.218  23.908  23.788  1.00  0.00     0.047 C 
BRANCH   7   9
ATOM      9  N   UNL A   1      31.978  24.945  25.801  1.00  0.00    -0.340 N 
ATOM     10  C   UNL A   1      31.759  26.267  25.921  1.00  0.00     0.232 C 
ATOM     11  O   UNL A   1      31.098  26.560  26.933  1.00  0.00    -0.274 OA
ATOM     12  H   UNL A   1      31.801  24.516  26.669  1.00  0.00     0.164 HD
BRANCH  10  13
ATOM     13  C   UNL A   1      32.254  27.426  25.069  1.00  0.00     0.164 C 
ATOM     14  C   UNL A   1      32.610  28.728  25.759  1.00  0.00     0.223 C 
ATOM     15  C   UNL A   1      31.500  29.658  25.290  1.00  0.00     0.225 C 
ATOM     16  O   UNL A   1      31.023  29.185  24.028  1.00  0.00    -0.374 OA
ATOM     17  C   UNL A   1      31.379  27.805  23.894  1.00  0.00     0.180 C 
BRANCH  14  18
ATOM     18  N   UNL A   1      32.896  28.566  27.192  1.00  0.00    -0.341 N 
ATOM     19  H   UNL A   1      32.166  29.048  27.715  1.00  0.00     0.346 HD
ATOM     20  H   UNL A   1      32.927  27.560  27.359  1.00  0.00     0.346 HD
BRANCH  18  21
ATOM     21  C   UNL A   1      34.180  29.083  27.634  1.00  0.00     0.260 C 
BRANCH  21  22
ATOM     22  C   UNL A   1      34.645  30.472  27.102  1.00  0.00     0.058 C 
ATOM     23  C   UNL A   1      35.057  31.608  28.027  1.00  0.00     0.010 C 
ENDBRANCH  21  22
ENDBRANCH  18  21
ENDBRANCH  14  18
ENDBRANCH  10  13
ENDBRANCH   7   9
BRANCH   7  24
ATOM     24  C   UNL A   1      33.651  24.263  23.958  1.00  0.00     0.037 C 
ATOM     25  C   UNL A   1      34.969  24.482  24.667  1.00  0.00     0.007 C 
ENDBRANCH   7  24
ENDBRANCH   5   7
ENDBRANCH   4   5
ENDBRANCH   3   4
ENDBRANCH   2   3
ENDBRANCH   1   2
BRANCH   1  26
ATOM     26  C   UNL A   1      34.078  17.531  24.318  1.00  0.00     0.188 C 
BRANCH  26  27
ATOM     27  C   UNL A   1      35.322  18.398  24.561  1.00  0.00     0.188 C 
BRANCH  27  28
ATOM     28  O   UNL A   1      35.116  19.561  25.359  1.00  0.00    -0.376 OA
BRANCH  28  29
ATOM     29  C   UNL A   1      35.846  20.730  24.934  1.00  0.00     0.202 C 
BRANCH  29  30
ATOM     30  C   UNL A   1      37.393  20.586  24.946  1.00  0.00     0.261 C 
BRANCH  30  31
ATOM     31  O   UNL A   1      38.111  21.786  25.376  1.00  0.00    -0.460 OA
BRANCH  31  32
ATOM     32  C   UNL A   1      39.258  21.558  26.105  1.00  0.00     0.338 C 
ATOM     33  O   UNL A   1      39.839  20.486  26.176  1.00  0.00    -0.246 OA
BRANCH  32  34
ATOM     34  C   UNL A   1      39.810  22.783  26.787  1.00  0.00     0.060 A 
ATOM     35  C   UNL A   1      39.414  24.044  26.378  1.00  0.00     0.016 A 
ATOM     36  C   UNL A   1      40.853  22.733  27.715  1.00  0.00     0.016 A 
ATOM     37  C   UNL A   1      40.009  25.231  26.808  1.00  0.00     0.010 A 
ATOM     38  C   UNL A   1      41.464  23.925  28.183  1.00  0.00     0.010 A 
ATOM     39  C   UNL A   1      41.056  25.188  27.715  1.00  0.00    -0.014 A 
BRANCH  39  40
ATOM     40  C   UNL A   1      41.796  26.449  27.984  1.00  0.00     0.031 A 
ATOM     41  C   UNL A   1      41.178  27.470  28.897  1.00  0.00     0.074 A 
ATOM     42  C   UNL A   1      43.087  26.619  27.632  1.00  0.00     0.049 A 
ATOM     43  N   UNL A   1      41.503  28.719  29.096  1.00  0.00    -0.248 NA
ATOM     44  C   UNL A   1      40.072  26.992  29.742  1.00  0.00     0.031 C 
ATOM     45  C   UNL A   1      43.948  25.599  27.034  1.00  0.00     0.029 A 
ATOM     46  N   UNL A   1      43.908  27.717  27.752  1.00  0.00    -0.354 N 
ATOM     47  C   UNL A   1      40.606  29.195  30.044  1.00  0.00     0.074 A 
ATOM     48  C   UNL A   1      39.759  28.086  30.423  1.00  0.00     0.031 C 
ATOM     49  C   UNL A   1      45.168  26.125  26.823  1.00  0.00     0.029 A 
ATOM     50  C   UNL A   1      45.138  27.546  27.161  1.00  0.00     0.049 A 
ATOM     51  H   UNL A   1      43.641  28.544  28.215  1.00  0.00     0.167 HD
ATOM     52  C   UNL A   1      40.484  30.457  30.519  1.00  0.00     0.037 A 
ATOM     53  C   UNL A   1      46.086  28.452  26.843  1.00  0.00     0.037 A 
ATOM     54  C   UNL A   1      41.351  31.537  30.127  1.00  0.00     0.049 A 
ATOM     55  C   UNL A   1      45.830  29.901  27.167  1.00  0.00     0.074 A 
ATOM     56  C   UNL A   1      41.246  32.888  30.407  1.00  0.00     0.029 A 
ATOM     57  N   UNL A   1      42.504  31.373  29.372  1.00  0.00    -0.354 N 
ATOM     58  N   UNL A   1      44.846  30.431  27.857  1.00  0.00    -0.248 NA
ATOM     59  C   UNL A   1      46.781  30.886  26.631  1.00  0.00     0.031 C 
ATOM     60  C   UNL A   1      42.310  33.545  29.777  1.00  0.00     0.029 A 
ATOM     61  C   UNL A   1      43.106  32.598  29.152  1.00  0.00     0.049 A 
ATOM     62  H   UNL A   1      42.842  30.509  29.042  1.00  0.00     0.167 HD
ATOM     63  C   UNL A   1      45.065  31.803  27.847  1.00  0.00     0.074 A 
ATOM     64  C   UNL A   1      46.284  32.024  27.096  1.00  0.00     0.031 C 
ATOM     65  C   UNL A   1      44.323  32.792  28.405  1.00  0.00     0.037 A 
BRANCH  52  66
ATOM     66  C   UNL A   1      39.301  30.749  31.391  1.00  0.00     0.057 A 
ATOM     67  C   UNL A   1      39.326  30.609  32.783  1.00  0.00     0.134 A 
ATOM     68  C   UNL A   1      38.094  31.161  30.806  1.00  0.00     0.134 A 
ATOM     69  F   UNL A   1      40.439  30.192  33.405  1.00  0.00    -0.206 F 
ATOM     70  C   UNL A   1      38.189  30.849  33.560  1.00  0.00     0.040 A 
ATOM     71  C   UNL A   1      36.959  31.423  31.572  1.00  0.00     0.040 A 
ATOM     72  F   UNL A   1      38.000  31.308  29.475  1.00  0.00    -0.206 F 
ATOM     73  C   UNL A   1      37.002  31.261  32.955  1.00  0.00     0.006 A 
ENDBRANCH  52  66
BRANCH  53  74
ATOM     74  C   UNL A   1      47.279  28.046  26.046  1.00  0.00     0.057 A 
ATOM     75  C   UNL A   1      47.207  27.804  24.670  1.00  0.00     0.134 A 
ATOM     76  C   UNL A   1      48.524  27.850  26.663  1.00  0.00     0.134 A 
ATOM     77  F   UNL A   1      46.040  27.925  24.021  1.00  0.00    -0.206 F 
ATOM     78  C   UNL A   1      48.326  27.388  23.939  1.00  0.00     0.040 A 
ATOM     79  C   UNL A   1      49.656  27.468  25.941  1.00  0.00     0.040 A 
ATOM     80  F   UNL A   1      48.663  28.035  27.985  1.00  0.00    -0.206 F 
ATOM     81  C   UNL A   1      49.557  27.230  24.573  1.00  0.00     0.006 A 
ENDBRANCH  53  74
BRANCH  65  82
ATOM     82  C   UNL A   1      44.827  34.195  28.254  1.00  0.00     0.057 A 
ATOM     83  C   UNL A   1      44.407  35.022  27.205  1.00  0.00     0.134 A 
ATOM     84  C   UNL A   1      45.707  34.737  29.199  1.00  0.00     0.134 A 
ATOM     85  F   UNL A   1      43.574  34.556  26.264  1.00  0.00    -0.206 F 
ATOM     86  C   UNL A   1      44.860  36.337  27.092  1.00  0.00     0.040 A 
ATOM     87  C   UNL A   1      46.148  36.058  29.109  1.00  0.00     0.040 A 
ATOM     88  F   UNL A   1      46.138  33.999  30.233  1.00  0.00    -0.206 F 
ATOM     89  C   UNL A   1      45.728  36.860  28.050  1.00  0.00     0.006 A 
ENDBRANCH  65  82
ENDBRANCH  39  40
ENDBRANCH  32  34
ENDBRANCH  31  32
ENDBRANCH  30  31
ENDBRANCH  29  30
ENDBRANCH  28  29
ENDBRANCH  27  28
ENDBRANCH  26  27
ENDBRANCH   1  26
TORSDOF 23
ENDMDL
MODEL 3
REMARK VINA RESULT:      -8.9      1.755      2.723
REMARK SMILES CCC[NH2+][C@@H]1COC[C@@H]1C(=O)N[C@@](C)(CC)C(=O)OCCOCCOCCOC(=O)c1ccc(-c2c3nc(c(-c4c(F)cccc4F)c4ccc([nH]4)c(-c4c(F)cccc4F)c4nc(c(-c5c(F)cccc5F)c5ccc2[nH]5)C=C4)C=C3)cc1
REMARK SMILES IDX 22 1 21 2 20 3 19 4 17 5 18 6 13 7 14 8 12 9 10 10 11 11
REMARK SMILES IDX 9 13 5 14 6 15 7 16 8 17 4 18 3 21 2 22 1 23 15 24 16 25
REMARK SMILES IDX 23 26 24 27 25 28 26 29 27 30 28 31 29 32 30 33 31 34 32 35
REMARK SMILES IDX 84 36 33 37 83 38 34 39 35 40 36 41 77 42 37 43 82 44 76 45
REMARK SMILES IDX 78 46 38 47 81 48 75 49 74 50 39 52 65 53 48 54 64 55 49 56
REMARK SMILES IDX 52 57 63 58 79 59 50 60 51 61 62 63 80 64 53 65 40 66 41 67
REMARK SMILES IDX 46 68 42 69 43 70 45 71 47 72 44 73 66 74 67 75 72 76 68 77
REMARK SMILES IDX 69 78 71 79 73 80 70 81 54 82 55 83 60 84 56 85 57 86 59 87
REMARK SMILES IDX 61 88 58 89
REMARK H PARENT 12 12 4 19 4 20 78 51 52 62
REMARK Flexibility Score: inf
ROOT
ATOM      1  O   UNL A   1      34.196  19.848  24.501  1.00  0.00    -0.376 OA
ENDROOT
BRANCH   1   2
ATOM      2  C   UNL A   1      33.302  20.163  25.566  1.00  0.00     0.202 C 
BRANCH   2   3
ATOM      3  C   UNL A   1      32.041  20.970  25.204  1.00  0.00     0.261 C 
BRANCH   3   4
ATOM      4  O   UNL A   1      32.195  22.384  25.410  1.00  0.00    -0.462 OA
BRANCH   4   5
ATOM      5  C   UNL A   1      32.320  23.188  24.317  1.00  0.00     0.331 C 
ATOM      6  O   UNL A   1      32.818  22.828  23.257  1.00  0.00    -0.249 OA
BRANCH   5   7
ATOM      7  C   UNL A   1      31.833  24.648  24.599  1.00  0.00     0.135 C 
ATOM      8  C   UNL A   1      31.001  24.440  25.908  1.00  0.00     0.047 C 
BRANCH   7   9
ATOM      9  N   UNL A   1      32.859  25.653  25.025  1.00  0.00    -0.340 N 
ATOM     10  C   UNL A   1      32.999  26.857  25.609  1.00  0.00     0.232 C 
ATOM     11  O   UNL A   1      34.159  27.073  26.005  1.00  0.00    -0.274 OA
ATOM     12  H   UNL A   1      33.752  25.308  24.795  1.00  0.00     0.164 HD
BRANCH  10  13
ATOM     13  C   UNL A   1      31.998  27.989  25.780  1.00  0.00     0.164 C 
ATOM     14  C   UNL A   1      32.384  29.373  25.297  1.00  0.00     0.223 C 
ATOM     15  C   UNL A   1      32.545  30.139  26.602  1.00  0.00     0.225 C 
ATOM     16  O   UNL A   1      31.722  29.518  27.592  1.00  0.00    -0.374 OA
ATOM     17  C   UNL A   1      31.443  28.177  27.175  1.00  0.00     0.180 C 
BRANCH  14  18
ATOM     18  N   UNL A   1      33.461  29.359  24.298  1.00  0.00    -0.341 N 
ATOM     19  H   UNL A   1      33.898  30.280  24.293  1.00  0.00     0.346 HD
ATOM     20  H   UNL A   1      34.091  28.606  24.576  1.00  0.00     0.346 HD
BRANCH  18  21
ATOM     21  C   UNL A   1      33.048  29.051  22.939  1.00  0.00     0.260 C 
BRANCH  21  22
ATOM     22  C   UNL A   1      33.915  28.059  22.105  1.00  0.00     0.058 C 
ATOM     23  C   UNL A   1      33.472  26.633  21.811  1.00  0.00     0.010 C 
ENDBRANCH  21  22
ENDBRANCH  18  21
ENDBRANCH  14  18
ENDBRANCH  10  13
ENDBRANCH   7   9
BRANCH   7  24
ATOM     24  C   UNL A   1      30.776  25.192  23.572  1.00  0.00     0.037 C 
ATOM     25  C   UNL A   1      29.703  26.130  24.078  1.00  0.00     0.007 C 
ENDBRANCH   7  24
ENDBRANCH   5   7
ENDBRANCH   4   5
ENDBRANCH   3   4
ENDBRANCH   2   3
ENDBRANCH   1   2
BRANCH   1  26
ATOM     26  C   UNL A   1      35.483  19.385  24.905  1.00  0.00     0.188 C 
BRANCH  26  27
ATOM     27  C   UNL A   1      36.479  20.554  24.893  1.00  0.00     0.188 C 
BRANCH  27  28
ATOM     28  O   UNL A   1      37.849  20.193  24.736  1.00  0.00    -0.376 OA
BRANCH  28  29
ATOM     29  C   UNL A   1      38.788  21.056  25.411  1.00  0.00     0.202 C 
BRANCH  29  30
ATOM     30  C   UNL A   1      39.811  20.331  26.330  1.00  0.00     0.261 C 
BRANCH  30  31
ATOM     31  O   UNL A   1      40.467  19.178  25.715  1.00  0.00    -0.460 OA
BRANCH  31  32
ATOM     32  C   UNL A   1      41.805  19.032  26.011  1.00  0.00     0.338 C 
ATOM     33  O   UNL A   1      42.400  17.965  26.045  1.00  0.00    -0.246 OA
BRANCH  32  34
ATOM     34  C   UNL A   1      42.533  20.331  26.238  1.00  0.00     0.060 A 
ATOM     35  C   UNL A   1      42.486  20.947  27.476  1.00  0.00     0.016 A 
ATOM     36  C   UNL A   1      43.127  21.061  25.206  1.00  0.00     0.016 A 
ATOM     37  C   UNL A   1      42.958  22.236  27.728  1.00  0.00     0.010 A 
ATOM     38  C   UNL A   1      43.631  22.367  25.439  1.00  0.00     0.010 A 
ATOM     39  C   UNL A   1      43.531  22.973  26.705  1.00  0.00    -0.014 A 
BRANCH  39  40
ATOM     40  C   UNL A   1      43.826  24.407  26.961  1.00  0.00     0.031 A 
ATOM     41  C   UNL A   1      45.223  24.911  26.731  1.00  0.00     0.074 A 
ATOM     42  C   UNL A   1      42.855  25.320  27.170  1.00  0.00     0.049 A 
ATOM     43  N   UNL A   1      45.778  26.034  27.101  1.00  0.00    -0.248 NA
ATOM     44  C   UNL A   1      46.096  24.044  25.923  1.00  0.00     0.031 C 
ATOM     45  C   UNL A   1      41.417  25.065  27.092  1.00  0.00     0.029 A 
ATOM     46  N   UNL A   1      42.938  26.661  27.468  1.00  0.00    -0.354 N 
ATOM     47  C   UNL A   1      47.082  25.984  26.622  1.00  0.00     0.074 A 
ATOM     48  C   UNL A   1      47.219  24.746  25.887  1.00  0.00     0.031 C 
ATOM     49  C   UNL A   1      40.756  26.206  27.354  1.00  0.00     0.029 A 
ATOM     50  C   UNL A   1      41.718  27.238  27.732  1.00  0.00     0.049 A 
ATOM     51  H   UNL A   1      43.788  27.158  27.491  1.00  0.00     0.167 HD
ATOM     52  C   UNL A   1      48.078  26.880  26.819  1.00  0.00     0.037 A 
ATOM     53  C   UNL A   1      41.420  28.422  28.305  1.00  0.00     0.037 A 
ATOM     54  C   UNL A   1      47.906  28.108  27.548  1.00  0.00     0.049 A 
ATOM     55  C   UNL A   1      42.555  29.314  28.739  1.00  0.00     0.074 A 
ATOM     56  C   UNL A   1      48.858  29.026  27.954  1.00  0.00     0.029 A 
ATOM     57  N   UNL A   1      46.676  28.595  27.969  1.00  0.00    -0.354 N 
ATOM     58  N   UNL A   1      43.843  29.175  28.523  1.00  0.00    -0.248 NA
ATOM     59  C   UNL A   1      42.208  30.499  29.537  1.00  0.00     0.031 C 
ATOM     60  C   UNL A   1      48.207  30.041  28.666  1.00  0.00     0.029 A 
ATOM     61  C   UNL A   1      46.845  29.784  28.654  1.00  0.00     0.049 A 
ATOM     62  H   UNL A   1      45.810  28.156  27.805  1.00  0.00     0.167 HD
ATOM     63  C   UNL A   1      44.455  30.255  29.147  1.00  0.00     0.074 A 
ATOM     64  C   UNL A   1      43.397  31.050  29.737  1.00  0.00     0.031 C 
ATOM     65  C   UNL A   1      45.775  30.561  29.228  1.00  0.00     0.037 A 
BRANCH  52  66
ATOM     66  C   UNL A   1      49.450  26.490  26.360  1.00  0.00     0.057 A 
ATOM     67  C   UNL A   1      50.318  25.707  27.129  1.00  0.00     0.134 A 
ATOM     68  C   UNL A   1      49.917  26.937  25.115  1.00  0.00     0.134 A 
ATOM     69  F   UNL A   1      49.947  25.270  28.341  1.00  0.00    -0.206 F 
ATOM     70  C   UNL A   1      51.608  25.399  26.685  1.00  0.00     0.040 A 
ATOM     71  C   UNL A   1      51.194  26.620  24.652  1.00  0.00     0.040 A 
ATOM     72  F   UNL A   1      49.138  27.698  24.330  1.00  0.00    -0.206 F 
ATOM     73  C   UNL A   1      52.048  25.853  25.441  1.00  0.00     0.006 A 
ENDBRANCH  52  66
BRANCH  53  74
ATOM     74  C   UNL A   1      40.009  28.762  28.643  1.00  0.00     0.057 A 
ATOM     75  C   UNL A   1      39.479  28.554  29.921  1.00  0.00     0.134 A 
ATOM     76  C   UNL A   1      39.137  29.271  27.668  1.00  0.00     0.134 A 
ATOM     77  F   UNL A   1      40.240  28.025  30.891  1.00  0.00    -0.206 F 
ATOM     78  C   UNL A   1      38.143  28.842  30.218  1.00  0.00     0.040 A 
ATOM     79  C   UNL A   1      37.811  29.595  27.958  1.00  0.00     0.040 A 
ATOM     80  F   UNL A   1      39.566  29.471  26.412  1.00  0.00    -0.206 F 
ATOM     81  C   UNL A   1      37.308  29.375  29.237  1.00  0.00     0.006 A 
ENDBRANCH  53  74
BRANCH  65  82
ATOM     82  C   UNL A   1      46.143  31.821  29.950  1.00  0.00     0.057 A 
ATOM     83  C   UNL A   1      46.466  31.825  31.313  1.00  0.00     0.134 A 
ATOM     84  C   UNL A   1      46.221  33.036  29.259  1.00  0.00     0.134 A 
ATOM     85  F   UNL A   1      46.400  30.694  32.030  1.00  0.00    -0.206 F 
ATOM     86  C   UNL A   1      46.837  33.000  31.967  1.00  0.00     0.040 A 
ATOM     87  C   UNL A   1      46.613  34.213  29.898  1.00  0.00     0.040 A 
ATOM     88  F   UNL A   1      45.933  33.096  27.950  1.00  0.00    -0.206 F 
ATOM     89  C   UNL A   1      46.918  34.197  31.257  1.00  0.00     0.006 A 
ENDBRANCH  65  82
ENDBRANCH  39  40
ENDBRANCH  32  34
ENDBRANCH  31  32
ENDBRANCH  30  31
ENDBRANCH  29  30
ENDBRANCH  28  29
ENDBRANCH  27  28
ENDBRANCH  26  27
ENDBRANCH   1  26
TORSDOF 23
ENDMDL
