MODEL 1
REMARK VINA RESULT:     -11.0      0.000      0.000
REMARK SMILES Cc1ccc(C(N)=O)c(NCc2ccc(C(=O)OCCOCCOCCOC(=O)c3ccc(-c4c5nc(c(-c6c(F)cccc6F)c6ccc([nH]6)c(-c6c(F)cccc6F)c6nc(c(-c7c(F)cccc7F)c7ccc4[nH]7)C=C6)C=C5)cc3)o2)n1
REMARK SMILES IDX 22 1 21 2 20 3 19 4 18 5 16 6 17 7 15 8 12 9 13 10 84 11
REMARK SMILES IDX 14 12 11 13 10 14 9 16 1 17 2 18 3 19 85 20 4 21 5 22 6 23
REMARK SMILES IDX 7 24 8 25 23 28 24 29 25 30 26 31 27 32 28 33 29 34 30 35
REMARK SMILES IDX 31 36 83 37 32 38 82 39 33 40 34 41 35 42 76 43 36 44 81 45
REMARK SMILES IDX 75 46 77 47 37 48 80 49 74 50 73 51 38 53 64 54 47 55 63 56
REMARK SMILES IDX 48 57 51 58 62 59 78 60 49 61 50 62 61 64 79 65 52 66 39 67
REMARK SMILES IDX 40 68 45 69 41 70 42 71 44 72 46 73 43 74 65 75 66 76 71 77
REMARK SMILES IDX 67 78 68 79 70 80 72 81 69 82 53 83 54 84 59 85 55 86 56 87
REMARK SMILES IDX 58 88 60 89 57 90
REMARK H PARENT 10 15 7 26 7 27 77 52 51 63
REMARK Flexibility Score: inf
ROOT
ATOM      1  C   UNL A   1      33.195  36.095  31.615  1.00  0.00     0.188 C 
ENDROOT
BRANCH   1   2
ATOM      2  O   UNL A   1      32.596  35.430  30.507  1.00  0.00    -0.376 OA
BRANCH   2   3
ATOM      3  C   UNL A   1      33.088  35.657  29.194  1.00  0.00     0.202 C 
BRANCH   3   4
ATOM      4  C   UNL A   1      33.182  34.441  28.270  1.00  0.00     0.261 C 
BRANCH   4   5
ATOM      5  O   UNL A   1      33.960  33.374  28.835  1.00  0.00    -0.457 OA
BRANCH   5   6
ATOM      6  C   UNL A   1      34.876  32.801  27.999  1.00  0.00     0.374 C 
ATOM      7  O   UNL A   1      35.937  33.318  27.669  1.00  0.00    -0.242 OA
BRANCH   6   8
ATOM      8  C   UNL A   1      34.466  31.456  27.668  1.00  0.00     0.211 A 
ATOM      9  C   UNL A   1      33.060  29.985  26.801  1.00  0.00     0.124 A 
ATOM     10  C   UNL A   1      34.182  29.276  27.181  1.00  0.00     0.048 A 
ATOM     11  O   UNL A   1      33.223  31.301  27.116  1.00  0.00    -0.452 OA
ATOM     12  C   UNL A   1      35.091  30.222  27.722  1.00  0.00     0.058 A 
BRANCH   9  13
ATOM     13  C   UNL A   1      31.780  29.646  26.113  1.00  0.00     0.190 C 
BRANCH  13  14
ATOM     14  N   UNL A   1      31.832  29.639  24.656  1.00  0.00    -0.362 N 
ATOM     15  H   UNL A   1      31.841  30.486  24.155  1.00  0.00     0.162 HD
BRANCH  14  16
ATOM     16  C   UNL A   1      31.870  28.421  23.980  1.00  0.00     0.139 A 
ATOM     17  C   UNL A   1      33.631  25.227  24.512  1.00  0.00     0.067 C 
ATOM     18  C   UNL A   1      32.725  26.241  23.883  1.00  0.00     0.040 A 
ATOM     19  C   UNL A   1      31.922  25.914  22.804  1.00  0.00     0.024 A 
ATOM     20  N   UNL A   1      32.712  27.471  24.451  1.00  0.00    -0.236 NA
ATOM     21  C   UNL A   1      31.082  26.893  22.289  1.00  0.00     0.019 A 
ATOM     22  C   UNL A   1      31.050  28.168  22.869  1.00  0.00     0.081 A 
BRANCH  22  23
ATOM     23  C   UNL A   1      30.133  29.164  22.254  1.00  0.00     0.252 C 
ATOM     24  N   UNL A   1      30.682  30.188  21.534  1.00  0.00    -0.365 N 
ATOM     25  O   UNL A   1      28.915  29.063  22.353  1.00  0.00    -0.269 OA
ATOM     26  H   UNL A   1      31.660  30.265  21.457  1.00  0.00     0.159 HD
ATOM     27  H   UNL A   1      30.099  30.848  21.094  1.00  0.00     0.159 HD
ENDBRANCH  22  23
ENDBRANCH  14  16
ENDBRANCH  13  14
ENDBRANCH   9  13
ENDBRANCH   6   8
ENDBRANCH   5   6
ENDBRANCH   4   5
ENDBRANCH   3   4
ENDBRANCH   2   3
ENDBRANCH   1   2
BRANCH   1  28
ATOM     28  C   UNL A   1      33.528  35.310  32.898  1.00  0.00     0.188 C 
BRANCH  28  29
ATOM     29  O   UNL A   1      34.783  35.638  33.475  1.00  0.00    -0.376 OA
BRANCH  29  30
ATOM     30  C   UNL A   1      35.262  34.745  34.471  1.00  0.00     0.202 C 
BRANCH  30  31
ATOM     31  C   UNL A   1      36.395  33.850  33.966  1.00  0.00     0.261 C 
BRANCH  31  32
ATOM     32  O   UNL A   1      36.052  32.458  33.857  1.00  0.00    -0.460 OA
BRANCH  32  33
ATOM     33  C   UNL A   1      35.576  32.042  32.663  1.00  0.00     0.338 C 
ATOM     34  O   UNL A   1      34.485  32.279  32.178  1.00  0.00    -0.246 OA
BRANCH  33  35
ATOM     35  C   UNL A   1      36.674  31.363  31.950  1.00  0.00     0.060 A 
ATOM     36  C   UNL A   1      37.546  30.544  32.675  1.00  0.00     0.016 A 
ATOM     37  C   UNL A   1      36.842  31.543  30.575  1.00  0.00     0.016 A 
ATOM     38  C   UNL A   1      38.610  29.917  32.023  1.00  0.00     0.010 A 
ATOM     39  C   UNL A   1      37.915  30.928  29.928  1.00  0.00     0.010 A 
ATOM     40  C   UNL A   1      38.817  30.131  30.652  1.00  0.00    -0.014 A 
BRANCH  40  41
ATOM     41  C   UNL A   1      40.060  29.652  30.003  1.00  0.00     0.031 A 
ATOM     42  C   UNL A   1      41.199  30.616  29.826  1.00  0.00     0.074 A 
ATOM     43  C   UNL A   1      40.174  28.386  29.567  1.00  0.00     0.049 A 
ATOM     44  N   UNL A   1      42.362  30.430  29.255  1.00  0.00    -0.248 NA
ATOM     45  C   UNL A   1      40.999  31.970  30.365  1.00  0.00     0.031 C 
ATOM     46  C   UNL A   1      39.152  27.350  29.695  1.00  0.00     0.029 A 
ATOM     47  N   UNL A   1      41.209  27.762  28.916  1.00  0.00    -0.354 N 
ATOM     48  C   UNL A   1      43.033  31.640  29.370  1.00  0.00     0.074 A 
ATOM     49  C   UNL A   1      42.139  32.562  30.039  1.00  0.00     0.031 C 
ATOM     50  C   UNL A   1      39.606  26.219  29.125  1.00  0.00     0.029 A 
ATOM     51  C   UNL A   1      40.939  26.460  28.573  1.00  0.00     0.049 A 
ATOM     52  H   UNL A   1      42.064  28.206  28.713  1.00  0.00     0.167 HD
ATOM     53  C   UNL A   1      44.284  31.957  28.962  1.00  0.00     0.037 A 
ATOM     54  C   UNL A   1      41.677  25.574  27.877  1.00  0.00     0.037 A 
ATOM     55  C   UNL A   1      45.172  31.052  28.284  1.00  0.00     0.049 A 
ATOM     56  C   UNL A   1      43.039  25.971  27.370  1.00  0.00     0.074 A 
ATOM     57  C   UNL A   1      46.466  31.279  27.846  1.00  0.00     0.029 A 
ATOM     58  N   UNL A   1      44.852  29.750  27.933  1.00  0.00    -0.354 N 
ATOM     59  N   UNL A   1      43.678  27.106  27.518  1.00  0.00    -0.248 NA
ATOM     60  C   UNL A   1      43.779  24.962  26.599  1.00  0.00     0.031 C 
ATOM     61  C   UNL A   1      46.915  30.124  27.196  1.00  0.00     0.029 A 
ATOM     62  C   UNL A   1      45.915  29.168  27.264  1.00  0.00     0.049 A 
ATOM     63  H   UNL A   1      43.996  29.306  28.131  1.00  0.00     0.167 HD
ATOM     64  C   UNL A   1      44.903  26.939  26.883  1.00  0.00     0.074 A 
ATOM     65  C   UNL A   1      44.921  25.591  26.356  1.00  0.00     0.031 C 
ATOM     66  C   UNL A   1      45.923  27.822  26.751  1.00  0.00     0.037 A 
BRANCH  53  67
ATOM     67  C   UNL A   1      44.756  33.354  29.226  1.00  0.00     0.057 A 
ATOM     68  C   UNL A   1      44.579  34.377  28.286  1.00  0.00     0.134 A 
ATOM     69  C   UNL A   1      45.374  33.683  30.437  1.00  0.00     0.134 A 
ATOM     70  F   UNL A   1      44.008  34.120  27.100  1.00  0.00    -0.206 F 
ATOM     71  C   UNL A   1      45.019  35.678  28.535  1.00  0.00     0.040 A 
ATOM     72  C   UNL A   1      45.801  34.985  30.706  1.00  0.00     0.040 A 
ATOM     73  F   UNL A   1      45.573  32.748  31.377  1.00  0.00    -0.206 F 
ATOM     74  C   UNL A   1      45.626  35.986  29.752  1.00  0.00     0.006 A 
ENDBRANCH  53  67
BRANCH  54  75
ATOM     75  C   UNL A   1      41.144  24.216  27.603  1.00  0.00     0.057 A 
ATOM     76  C   UNL A   1      40.131  24.013  26.660  1.00  0.00     0.134 A 
ATOM     77  C   UNL A   1      41.613  23.096  28.299  1.00  0.00     0.134 A 
ATOM     78  F   UNL A   1      39.622  25.053  25.982  1.00  0.00    -0.206 F 
ATOM     79  C   UNL A   1      39.592  22.747  26.428  1.00  0.00     0.040 A 
ATOM     80  C   UNL A   1      41.098  21.822  28.063  1.00  0.00     0.040 A 
ATOM     81  F   UNL A   1      42.579  23.228  29.221  1.00  0.00    -0.206 F 
ATOM     82  C   UNL A   1      40.080  21.645  27.128  1.00  0.00     0.006 A 
ENDBRANCH  54  75
BRANCH  66  83
ATOM     83  C   UNL A   1      47.156  27.352  26.038  1.00  0.00     0.057 A 
ATOM     84  C   UNL A   1      48.183  26.676  26.708  1.00  0.00     0.134 A 
ATOM     85  C   UNL A   1      47.292  27.535  24.656  1.00  0.00     0.134 A 
ATOM     86  F   UNL A   1      48.116  26.481  28.033  1.00  0.00    -0.206 F 
ATOM     87  C   UNL A   1      49.312  26.213  26.030  1.00  0.00     0.040 A 
ATOM     88  C   UNL A   1      48.406  27.057  23.964  1.00  0.00     0.040 A 
ATOM     89  F   UNL A   1      46.339  28.167  23.955  1.00  0.00    -0.206 F 
ATOM     90  C   UNL A   1      49.422  26.398  24.653  1.00  0.00     0.006 A 
ENDBRANCH  66  83
ENDBRANCH  40  41
ENDBRANCH  33  35
ENDBRANCH  32  33
ENDBRANCH  31  32
ENDBRANCH  30  31
ENDBRANCH  29  30
ENDBRANCH  28  29
ENDBRANCH   1  28
TORSDOF 21
ENDMDL
MODEL 2
REMARK VINA RESULT:     -10.7      5.901     11.370
REMARK SMILES Cc1ccc(C(N)=O)c(NCc2ccc(C(=O)OCCOCCOCCOC(=O)c3ccc(-c4c5nc(c(-c6c(F)cccc6F)c6ccc([nH]6)c(-c6c(F)cccc6F)c6nc(c(-c7c(F)cccc7F)c7ccc4[nH]7)C=C6)C=C5)cc3)o2)n1
REMARK SMILES IDX 22 1 21 2 20 3 19 4 18 5 16 6 17 7 15 8 12 9 13 10 84 11
REMARK SMILES IDX 14 12 11 13 10 14 9 16 1 17 2 18 3 19 85 20 4 21 5 22 6 23
REMARK SMILES IDX 7 24 8 25 23 28 24 29 25 30 26 31 27 32 28 33 29 34 30 35
REMARK SMILES IDX 31 36 83 37 32 38 82 39 33 40 34 41 35 42 76 43 36 44 81 45
REMARK SMILES IDX 75 46 77 47 37 48 80 49 74 50 73 51 38 53 64 54 47 55 63 56
REMARK SMILES IDX 48 57 51 58 62 59 78 60 49 61 50 62 61 64 79 65 52 66 39 67
REMARK SMILES IDX 40 68 45 69 41 70 42 71 44 72 46 73 43 74 65 75 66 76 71 77
REMARK SMILES IDX 67 78 68 79 70 80 72 81 69 82 53 83 54 84 59 85 55 86 56 87
REMARK SMILES IDX 58 88 60 89 57 90
REMARK H PARENT 10 15 7 26 7 27 77 52 51 63
REMARK Flexibility Score: inf
ROOT
ATOM      1  C   UNL A   1      44.789  19.040  25.009  1.00  0.00     0.188 C 
ENDROOT
BRANCH   1   2
ATOM      2  O   UNL A   1      43.368  18.970  24.973  1.00  0.00    -0.376 OA
BRANCH   2   3
ATOM      3  C   UNL A   1      42.636  18.795  26.178  1.00  0.00     0.202 C 
BRANCH   3   4
ATOM      4  C   UNL A   1      41.368  19.635  26.347  1.00  0.00     0.261 C 
BRANCH   4   5
ATOM      5  O   UNL A   1      41.622  21.046  26.251  1.00  0.00    -0.457 OA
BRANCH   5   6
ATOM      6  C   UNL A   1      40.945  21.831  27.141  1.00  0.00     0.374 C 
ATOM      7  O   UNL A   1      41.398  22.219  28.212  1.00  0.00    -0.242 OA
BRANCH   6   8
ATOM      8  C   UNL A   1      39.678  22.235  26.578  1.00  0.00     0.211 A 
ATOM      9  C   UNL A   1      37.773  21.829  25.529  1.00  0.00     0.124 A 
ATOM     10  C   UNL A   1      37.728  23.151  25.924  1.00  0.00     0.048 A 
ATOM     11  O   UNL A   1      38.962  21.281  25.905  1.00  0.00    -0.452 OA
ATOM     12  C   UNL A   1      38.942  23.407  26.612  1.00  0.00     0.058 A 
BRANCH   9  13
ATOM     13  C   UNL A   1      36.828  20.899  24.845  1.00  0.00     0.190 C 
BRANCH  13  14
ATOM     14  N   UNL A   1      35.574  20.648  25.546  1.00  0.00    -0.362 N 
ATOM     15  H   UNL A   1      35.487  20.870  26.502  1.00  0.00     0.162 HD
BRANCH  14  16
ATOM     16  C   UNL A   1      34.502  20.092  24.851  1.00  0.00     0.139 A 
ATOM     17  C   UNL A   1      33.706  16.715  23.606  1.00  0.00     0.067 C 
ATOM     18  C   UNL A   1      33.548  18.177  23.896  1.00  0.00     0.040 A 
ATOM     19  C   UNL A   1      32.373  18.845  23.594  1.00  0.00     0.024 A 
ATOM     20  N   UNL A   1      34.597  18.788  24.498  1.00  0.00    -0.236 NA
ATOM     21  C   UNL A   1      32.281  20.193  23.918  1.00  0.00     0.019 A 
ATOM     22  C   UNL A   1      33.354  20.839  24.548  1.00  0.00     0.081 A 
BRANCH  22  23
ATOM     23  C   UNL A   1      33.182  22.285  24.852  1.00  0.00     0.252 C 
ATOM     24  N   UNL A   1      31.974  22.702  25.336  1.00  0.00    -0.365 N 
ATOM     25  O   UNL A   1      34.100  23.084  24.709  1.00  0.00    -0.269 OA
ATOM     26  H   UNL A   1      31.240  22.057  25.450  1.00  0.00     0.159 HD
ATOM     27  H   UNL A   1      31.839  23.649  25.571  1.00  0.00     0.159 HD
ENDBRANCH  22  23
ENDBRANCH  14  16
ENDBRANCH  13  14
ENDBRANCH   9  13
ENDBRANCH   6   8
ENDBRANCH   5   6
ENDBRANCH   4   5
ENDBRANCH   3   4
ENDBRANCH   2   3
ENDBRANCH   1   2
BRANCH   1  28
ATOM     28  C   UNL A   1      45.508  20.337  24.593  1.00  0.00     0.188 C 
BRANCH  28  29
ATOM     29  O   UNL A   1      44.832  21.087  23.595  1.00  0.00    -0.376 OA
BRANCH  29  30
ATOM     30  C   UNL A   1      44.815  22.495  23.780  1.00  0.00     0.202 C 
BRANCH  30  31
ATOM     31  C   UNL A   1      43.689  22.957  24.707  1.00  0.00     0.261 C 
BRANCH  31  32
ATOM     32  O   UNL A   1      43.394  24.361  24.632  1.00  0.00    -0.460 OA
BRANCH  32  33
ATOM     33  C   UNL A   1      44.289  25.201  25.195  1.00  0.00     0.338 C 
ATOM     34  O   UNL A   1      45.430  25.420  24.830  1.00  0.00    -0.246 OA
BRANCH  33  35
ATOM     35  C   UNL A   1      43.599  25.949  26.262  1.00  0.00     0.060 A 
ATOM     36  C   UNL A   1      43.943  27.288  26.481  1.00  0.00     0.016 A 
ATOM     37  C   UNL A   1      42.624  25.326  27.046  1.00  0.00     0.016 A 
ATOM     38  C   UNL A   1      43.323  28.003  27.507  1.00  0.00     0.010 A 
ATOM     39  C   UNL A   1      42.016  26.039  28.080  1.00  0.00     0.010 A 
ATOM     40  C   UNL A   1      42.378  27.373  28.331  1.00  0.00    -0.014 A 
BRANCH  40  41
ATOM     41  C   UNL A   1      41.882  28.053  29.551  1.00  0.00     0.031 A 
ATOM     42  C   UNL A   1      40.640  28.893  29.454  1.00  0.00     0.074 A 
ATOM     43  C   UNL A   1      42.528  27.936  30.723  1.00  0.00     0.049 A 
ATOM     44  N   UNL A   1      40.047  29.606  30.377  1.00  0.00    -0.248 NA
ATOM     45  C   UNL A   1      39.980  28.934  28.140  1.00  0.00     0.031 C 
ATOM     46  C   UNL A   1      43.730  27.138  30.954  1.00  0.00     0.029 A 
ATOM     47  N   UNL A   1      42.260  28.506  31.944  1.00  0.00    -0.354 N 
ATOM     48  C   UNL A   1      38.943  30.177  29.758  1.00  0.00     0.074 A 
ATOM     49  C   UNL A   1      38.963  29.751  28.374  1.00  0.00     0.031 C 
ATOM     50  C   UNL A   1      44.107  27.280  32.238  1.00  0.00     0.029 A 
ATOM     51  C   UNL A   1      43.185  28.196  32.910  1.00  0.00     0.049 A 
ATOM     52  H   UNL A   1      41.479  29.081  32.110  1.00  0.00     0.167 HD
ATOM     53  C   UNL A   1      37.992  30.978  30.293  1.00  0.00     0.037 A 
ATOM     54  C   UNL A   1      43.285  28.621  34.185  1.00  0.00     0.037 A 
ATOM     55  C   UNL A   1      37.974  31.417  31.661  1.00  0.00     0.049 A 
ATOM     56  C   UNL A   1      42.255  29.571  34.738  1.00  0.00     0.074 A 
ATOM     57  C   UNL A   1      37.042  32.218  32.298  1.00  0.00     0.029 A 
ATOM     58  N   UNL A   1      38.942  31.102  32.602  1.00  0.00    -0.354 N 
ATOM     59  N   UNL A   1      41.194  30.073  34.154  1.00  0.00    -0.248 NA
ATOM     60  C   UNL A   1      42.439  30.011  36.129  1.00  0.00     0.031 C 
ATOM     61  C   UNL A   1      37.467  32.419  33.616  1.00  0.00     0.029 A 
ATOM     62  C   UNL A   1      38.642  31.711  33.809  1.00  0.00     0.049 A 
ATOM     63  H   UNL A   1      39.726  30.531  32.437  1.00  0.00     0.167 HD
ATOM     64  C   UNL A   1      40.572  30.865  35.111  1.00  0.00     0.074 A 
ATOM     65  C   UNL A   1      41.368  30.771  36.316  1.00  0.00     0.031 C 
ATOM     66  C   UNL A   1      39.439  31.603  35.003  1.00  0.00     0.037 A 
BRANCH  53  67
ATOM     67  C   UNL A   1      36.901  31.446  29.380  1.00  0.00     0.057 A 
ATOM     68  C   UNL A   1      36.904  32.736  28.834  1.00  0.00     0.134 A 
ATOM     69  C   UNL A   1      35.848  30.594  29.028  1.00  0.00     0.134 A 
ATOM     70  F   UNL A   1      37.878  33.604  29.147  1.00  0.00    -0.206 F 
ATOM     71  C   UNL A   1      35.886  33.168  27.983  1.00  0.00     0.040 A 
ATOM     72  C   UNL A   1      34.834  31.008  28.162  1.00  0.00     0.040 A 
ATOM     73  F   UNL A   1      35.788  29.347  29.518  1.00  0.00    -0.206 F 
ATOM     74  C   UNL A   1      34.850  32.300  27.640  1.00  0.00     0.006 A 
ENDBRANCH  53  67
BRANCH  54  75
ATOM     75  C   UNL A   1      44.413  28.164  35.035  1.00  0.00     0.057 A 
ATOM     76  C   UNL A   1      45.548  28.961  35.221  1.00  0.00     0.134 A 
ATOM     77  C   UNL A   1      44.395  26.908  35.652  1.00  0.00     0.134 A 
ATOM     78  F   UNL A   1      45.634  30.162  34.631  1.00  0.00    -0.206 F 
ATOM     79  C   UNL A   1      46.633  28.520  35.981  1.00  0.00     0.040 A 
ATOM     80  C   UNL A   1      45.464  26.463  36.431  1.00  0.00     0.040 A 
ATOM     81  F   UNL A   1      43.338  26.096  35.504  1.00  0.00    -0.206 F 
ATOM     82  C   UNL A   1      46.589  27.268  36.592  1.00  0.00     0.006 A 
ENDBRANCH  54  75
BRANCH  66  83
ATOM     83  C   UNL A   1      38.975  32.340  36.224  1.00  0.00     0.057 A 
ATOM     84  C   UNL A   1      38.142  31.740  37.175  1.00  0.00     0.134 A 
ATOM     85  C   UNL A   1      39.409  33.648  36.474  1.00  0.00     0.134 A 
ATOM     86  F   UNL A   1      37.684  30.493  36.988  1.00  0.00    -0.206 F 
ATOM     87  C   UNL A   1      37.742  32.422  38.325  1.00  0.00     0.040 A 
ATOM     88  C   UNL A   1      39.033  34.333  37.630  1.00  0.00     0.040 A 
ATOM     89  F   UNL A   1      40.216  34.276  35.605  1.00  0.00    -0.206 F 
ATOM     90  C   UNL A   1      38.193  33.720  38.558  1.00  0.00     0.006 A 
ENDBRANCH  66  83
ENDBRANCH  40  41
ENDBRANCH  33  35
ENDBRANCH  32  33
ENDBRANCH  31  32
ENDBRANCH  30  31
ENDBRANCH  29  30
ENDBRANCH  28  29
ENDBRANCH   1  28
TORSDOF 21
ENDMDL
MODEL 3
REMARK VINA RESULT:     -10.6      5.665     11.105
REMARK SMILES Cc1ccc(C(N)=O)c(NCc2ccc(C(=O)OCCOCCOCCOC(=O)c3ccc(-c4c5nc(c(-c6c(F)cccc6F)c6ccc([nH]6)c(-c6c(F)cccc6F)c6nc(c(-c7c(F)cccc7F)c7ccc4[nH]7)C=C6)C=C5)cc3)o2)n1
REMARK SMILES IDX 22 1 21 2 20 3 19 4 18 5 16 6 17 7 15 8 12 9 13 10 84 11
REMARK SMILES IDX 14 12 11 13 10 14 9 16 1 17 2 18 3 19 85 20 4 21 5 22 6 23
REMARK SMILES IDX 7 24 8 25 23 28 24 29 25 30 26 31 27 32 28 33 29 34 30 35
REMARK SMILES IDX 31 36 83 37 32 38 82 39 33 40 34 41 35 42 76 43 36 44 81 45
REMARK SMILES IDX 75 46 77 47 37 48 80 49 74 50 73 51 38 53 64 54 47 55 63 56
REMARK SMILES IDX 48 57 51 58 62 59 78 60 49 61 50 62 61 64 79 65 52 66 39 67
REMARK SMILES IDX 40 68 45 69 41 70 42 71 44 72 46 73 43 74 65 75 66 76 71 77
REMARK SMILES IDX 67 78 68 79 70 80 72 81 69 82 53 83 54 84 59 85 55 86 56 87
REMARK SMILES IDX 58 88 60 89 57 90
REMARK H PARENT 10 15 7 26 7 27 77 52 51 63
REMARK Flexibility Score: inf
ROOT
ATOM      1  C   UNL A   1      43.903  18.449  25.162  1.00  0.00     0.188 C 
ENDROOT
BRANCH   1   2
ATOM      2  O   UNL A   1      42.664  19.084  25.458  1.00  0.00    -0.376 OA
BRANCH   2   3
ATOM      3  C   UNL A   1      42.267  19.268  26.810  1.00  0.00     0.202 C 
BRANCH   3   4
ATOM      4  C   UNL A   1      41.766  20.660  27.201  1.00  0.00     0.261 C 
BRANCH   4   5
ATOM      5  O   UNL A   1      40.342  20.704  27.389  1.00  0.00    -0.457 OA
BRANCH   5   6
ATOM      6  C   UNL A   1      39.596  20.781  26.247  1.00  0.00     0.374 C 
ATOM      7  O   UNL A   1      39.408  19.849  25.473  1.00  0.00    -0.242 OA
BRANCH   6   8
ATOM      8  C   UNL A   1      38.966  22.078  26.157  1.00  0.00     0.211 A 
ATOM      9  C   UNL A   1      37.269  23.411  25.675  1.00  0.00     0.124 A 
ATOM     10  C   UNL A   1      38.232  24.204  26.265  1.00  0.00     0.048 A 
ATOM     11  O   UNL A   1      37.722  22.129  25.589  1.00  0.00    -0.452 OA
ATOM     12  C   UNL A   1      39.315  23.346  26.590  1.00  0.00     0.058 A 
BRANCH   9  13
ATOM     13  C   UNL A   1      35.882  23.635  25.169  1.00  0.00     0.190 C 
BRANCH  13  14
ATOM     14  N   UNL A   1      34.923  22.581  25.477  1.00  0.00    -0.362 N 
ATOM     15  H   UNL A   1      35.213  21.641  25.518  1.00  0.00     0.162 HD
BRANCH  14  16
ATOM     16  C   UNL A   1      33.592  22.919  25.714  1.00  0.00     0.139 A 
ATOM     17  C   UNL A   1      31.823  26.057  26.495  1.00  0.00     0.067 C 
ATOM     18  C   UNL A   1      32.038  24.603  26.202  1.00  0.00     0.040 A 
ATOM     19  C   UNL A   1      30.968  23.734  26.065  1.00  0.00     0.024 A 
ATOM     20  N   UNL A   1      33.323  24.203  26.046  1.00  0.00    -0.236 NA
ATOM     21  C   UNL A   1      31.236  22.405  25.762  1.00  0.00     0.019 A 
ATOM     22  C   UNL A   1      32.559  21.977  25.588  1.00  0.00     0.081 A 
BRANCH  22  23
ATOM     23  C   UNL A   1      32.764  20.537  25.276  1.00  0.00     0.252 C 
ATOM     24  N   UNL A   1      33.116  19.700  26.298  1.00  0.00    -0.365 N 
ATOM     25  O   UNL A   1      32.593  20.094  24.146  1.00  0.00    -0.269 OA
ATOM     26  H   UNL A   1      33.253  20.060  27.203  1.00  0.00     0.159 HD
ATOM     27  H   UNL A   1      33.234  18.738  26.127  1.00  0.00     0.159 HD
ENDBRANCH  22  23
ENDBRANCH  14  16
ENDBRANCH  13  14
ENDBRANCH   9  13
ENDBRANCH   6   8
ENDBRANCH   5   6
ENDBRANCH   4   5
ENDBRANCH   3   4
ENDBRANCH   2   3
ENDBRANCH   1   2
BRANCH   1  28
ATOM     28  C   UNL A   1      45.018  19.230  24.441  1.00  0.00     0.188 C 
BRANCH  28  29
ATOM     29  O   UNL A   1      44.549  20.248  23.570  1.00  0.00    -0.376 OA
BRANCH  29  30
ATOM     30  C   UNL A   1      44.968  21.571  23.875  1.00  0.00     0.202 C 
BRANCH  30  31
ATOM     31  C   UNL A   1      44.359  22.098  25.176  1.00  0.00     0.261 C 
BRANCH  31  32
ATOM     32  O   UNL A   1      43.676  23.356  25.047  1.00  0.00    -0.460 OA
BRANCH  32  33
ATOM     33  C   UNL A   1      44.416  24.470  25.231  1.00  0.00     0.338 C 
ATOM     34  O   UNL A   1      45.427  24.795  24.637  1.00  0.00    -0.246 OA
BRANCH  33  35
ATOM     35  C   UNL A   1      43.701  25.334  26.189  1.00  0.00     0.060 A 
ATOM     36  C   UNL A   1      44.020  26.695  26.242  1.00  0.00     0.016 A 
ATOM     37  C   UNL A   1      42.726  24.797  27.035  1.00  0.00     0.016 A 
ATOM     38  C   UNL A   1      43.376  27.523  27.163  1.00  0.00     0.010 A 
ATOM     39  C   UNL A   1      42.094  25.623  27.965  1.00  0.00     0.010 A 
ATOM     40  C   UNL A   1      42.432  26.984  28.050  1.00  0.00    -0.014 A 
BRANCH  40  41
ATOM     41  C   UNL A   1      41.910  27.803  29.170  1.00  0.00     0.031 A 
ATOM     42  C   UNL A   1      42.588  27.714  30.507  1.00  0.00     0.074 A 
ATOM     43  C   UNL A   1      40.843  28.605  29.006  1.00  0.00     0.049 A 
ATOM     44  N   UNL A   1      42.284  28.307  31.633  1.00  0.00    -0.248 NA
ATOM     45  C   UNL A   1      43.768  26.839  30.584  1.00  0.00     0.031 C 
ATOM     46  C   UNL A   1      40.108  28.795  27.758  1.00  0.00     0.029 A 
ATOM     47  N   UNL A   1      40.189  29.405  29.910  1.00  0.00    -0.354 N 
ATOM     48  C   UNL A   1      43.235  27.881  32.550  1.00  0.00     0.074 A 
ATOM     49  C   UNL A   1      44.110  26.958  31.858  1.00  0.00     0.031 C 
ATOM     50  C   UNL A   1      39.091  29.648  27.978  1.00  0.00     0.029 A 
ATOM     51  C   UNL A   1      39.092  30.044  29.386  1.00  0.00     0.049 A 
ATOM     52  H   UNL A   1      40.478  29.511  30.845  1.00  0.00     0.167 HD
ATOM     53  C   UNL A   1      43.375  28.230  33.850  1.00  0.00     0.037 A 
ATOM     54  C   UNL A   1      38.183  30.840  29.983  1.00  0.00     0.037 A 
ATOM     55  C   UNL A   1      42.501  29.134  34.548  1.00  0.00     0.049 A 
ATOM     56  C   UNL A   1      38.318  31.158  31.449  1.00  0.00     0.074 A 
ATOM     57  C   UNL A   1      42.572  29.560  35.863  1.00  0.00     0.029 A 
ATOM     58  N   UNL A   1      41.387  29.741  33.990  1.00  0.00    -0.354 N 
ATOM     59  N   UNL A   1      39.243  30.780  32.297  1.00  0.00    -0.248 NA
ATOM     60  C   UNL A   1      37.278  32.014  32.039  1.00  0.00     0.031 C 
ATOM     61  C   UNL A   1      41.478  30.397  36.111  1.00  0.00     0.029 A 
ATOM     62  C   UNL A   1      40.749  30.521  34.939  1.00  0.00     0.049 A 
ATOM     63  H   UNL A   1      41.093  29.633  33.056  1.00  0.00     0.167 HD
ATOM     64  C   UNL A   1      38.913  31.371  33.510  1.00  0.00     0.074 A 
ATOM     65  C   UNL A   1      37.707  32.140  33.288  1.00  0.00     0.031 C 
ATOM     66  C   UNL A   1      39.554  31.287  34.702  1.00  0.00     0.037 A 
BRANCH  53  67
ATOM     67  C   UNL A   1      44.510  27.611  34.606  1.00  0.00     0.057 A 
ATOM     68  C   UNL A   1      44.397  26.343  35.190  1.00  0.00     0.134 A 
ATOM     69  C   UNL A   1      45.733  28.280  34.734  1.00  0.00     0.134 A 
ATOM     70  F   UNL A   1      43.245  25.660  35.116  1.00  0.00    -0.206 F 
ATOM     71  C   UNL A   1      45.458  25.770  35.893  1.00  0.00     0.040 A 
ATOM     72  C   UNL A   1      46.807  27.708  35.418  1.00  0.00     0.040 A 
ATOM     73  F   UNL A   1      45.903  29.497  34.198  1.00  0.00    -0.206 F 
ATOM     74  C   UNL A   1      46.669  26.450  36.003  1.00  0.00     0.006 A 
ENDBRANCH  53  67
BRANCH  54  75
ATOM     75  C   UNL A   1      37.049  31.391  29.199  1.00  0.00     0.057 A 
ATOM     76  C   UNL A   1      37.059  32.715  28.746  1.00  0.00     0.134 A 
ATOM     77  C   UNL A   1      35.919  30.617  28.914  1.00  0.00     0.134 A 
ATOM     78  F   UNL A   1      38.104  33.512  29.014  1.00  0.00    -0.206 F 
ATOM     79  C   UNL A   1      35.978  33.255  28.048  1.00  0.00     0.040 A 
ATOM     80  C   UNL A   1      34.839  31.139  28.200  1.00  0.00     0.040 A 
ATOM     81  F   UNL A   1      35.848  29.343  29.329  1.00  0.00    -0.206 F 
ATOM     82  C   UNL A   1      34.865  32.463  27.770  1.00  0.00     0.006 A 
ENDBRANCH  54  75
BRANCH  66  83
ATOM     83  C   UNL A   1      38.985  32.069  35.848  1.00  0.00     0.057 A 
ATOM     84  C   UNL A   1      38.147  31.478  36.802  1.00  0.00     0.134 A 
ATOM     85  C   UNL A   1      39.320  33.418  36.025  1.00  0.00     0.134 A 
ATOM     86  F   UNL A   1      37.781  30.194  36.681  1.00  0.00    -0.206 F 
ATOM     87  C   UNL A   1      37.649  32.207  37.883  1.00  0.00     0.040 A 
ATOM     88  C   UNL A   1      38.845  34.150  37.114  1.00  0.00     0.040 A 
ATOM     89  F   UNL A   1      40.125  34.040  35.152  1.00  0.00    -0.206 F 
ATOM     90  C   UNL A   1      38.003  33.544  38.045  1.00  0.00     0.006 A 
ENDBRANCH  66  83
ENDBRANCH  40  41
ENDBRANCH  33  35
ENDBRANCH  32  33
ENDBRANCH  31  32
ENDBRANCH  30  31
ENDBRANCH  29  30
ENDBRANCH  28  29
ENDBRANCH   1  28
TORSDOF 21
ENDMDL
