MODEL 1
REMARK VINA RESULT:     -10.4      0.000      0.000
REMARK SMILES CCc1ccc(N2C(=O)C[C@@H](SC[C@@H](NC(C)=O)C(=O)OCCOCCOCCOC(=O)c3ccc(-c4c5nc(c(-c6c(F)cccc6F)c6ccc([nH]6)c(-c6c(F)cccc6F)c6nc(c(-c7c(F)cccc7F)c7ccc4[nH]7)C=C6)C=C5)cc3)C2=O)cc1
REMARK SMILES IDX 24 1 23 2 22 3 21 4 19 5 20 6 14 7 13 8 12 9 11 10 7 11 8 12
REMARK SMILES IDX 87 13 9 14 10 15 88 16 6 17 3 18 4 19 90 20 5 21 89 22 2 23
REMARK SMILES IDX 1 24 15 25 16 26 17 28 18 29 25 30 26 31 27 32 28 33 29 34
REMARK SMILES IDX 30 35 31 36 32 37 33 38 34 39 86 40 35 41 85 42 36 43 37 44
REMARK SMILES IDX 38 45 79 46 39 47 84 48 78 49 80 50 40 51 83 52 77 53 76 54
REMARK SMILES IDX 41 56 67 57 50 58 66 59 51 60 54 61 65 62 81 63 52 64 53 65
REMARK SMILES IDX 64 67 82 68 55 69 42 70 43 71 48 72 44 73 45 74 47 75 49 76
REMARK SMILES IDX 46 77 68 78 69 79 74 80 70 81 71 82 73 83 75 84 72 85 56 86
REMARK SMILES IDX 57 87 62 88 58 89 59 90 61 91 63 92 60 93
REMARK H PARENT 15 27 80 55 54 66
REMARK Flexibility Score: inf
ROOT
ATOM      1  O   UNL A   1      35.029  31.719  29.064  1.00  0.00    -0.376 OA
ENDROOT
BRANCH   1   2
ATOM      2  C   UNL A   1      34.760  30.574  28.259  1.00  0.00     0.202 C 
BRANCH   2   3
ATOM      3  C   UNL A   1      34.092  30.716  26.882  1.00  0.00     0.261 C 
BRANCH   3   4
ATOM      4  O   UNL A   1      33.692  29.482  26.261  1.00  0.00    -0.462 OA
BRANCH   4   5
ATOM      5  C   UNL A   1      32.358  29.299  26.102  1.00  0.00     0.329 C 
ATOM      6  O   UNL A   1      31.516  29.578  26.953  1.00  0.00    -0.250 OA
BRANCH   5   7
ATOM      7  C   UNL A   1      31.969  28.650  24.762  1.00  0.00     0.202 C 
BRANCH   7   8
ATOM      8  C   UNL A   1      31.912  27.117  24.651  1.00  0.00     0.107 C 
BRANCH   8   9
ATOM      9  S   UNL A   1      32.328  26.228  26.231  1.00  0.00    -0.145 SA
BRANCH   9  10
ATOM     10  C   UNL A   1      33.585  25.048  25.647  1.00  0.00     0.146 C 
ATOM     11  N   UNL A   1      33.439  22.998  24.522  1.00  0.00    -0.250 N 
ATOM     12  C   UNL A   1      34.064  23.854  23.650  1.00  0.00     0.235 C 
ATOM     13  C   UNL A   1      33.087  23.620  25.697  1.00  0.00     0.247 C 
ATOM     14  O   UNL A   1      34.583  23.597  22.573  1.00  0.00    -0.274 OA
ATOM     15  C   UNL A   1      33.952  25.252  24.187  1.00  0.00     0.125 C 
ATOM     16  O   UNL A   1      32.603  23.096  26.695  1.00  0.00    -0.273 OA
BRANCH  11  17
ATOM     17  C   UNL A   1      33.279  21.607  24.321  1.00  0.00     0.052 A 
ATOM     18  C   UNL A   1      33.078  18.838  23.804  1.00  0.00    -0.048 A 
ATOM     19  C   UNL A   1      34.047  19.327  24.685  1.00  0.00     0.006 A 
ATOM     20  C   UNL A   1      32.194  19.744  23.206  1.00  0.00     0.006 A 
ATOM     21  C   UNL A   1      34.160  20.699  24.925  1.00  0.00     0.027 A 
ATOM     22  C   UNL A   1      32.278  21.113  23.480  1.00  0.00     0.027 A 
BRANCH  18  23
ATOM     23  C   UNL A   1      32.978  17.359  23.526  1.00  0.00     0.032 C 
ATOM     24  C   UNL A   1      34.328  16.709  23.254  1.00  0.00     0.009 C 
ENDBRANCH  18  23
ENDBRANCH  11  17
ENDBRANCH   9  10
ENDBRANCH   8   9
ENDBRANCH   7   8
BRANCH   7  25
ATOM     25  N   UNL A   1      30.723  29.293  24.355  1.00  0.00    -0.342 N 
ATOM     26  C   UNL A   1      30.207  29.103  23.097  1.00  0.00     0.217 C 
ATOM     27  H   UNL A   1      30.245  29.872  24.992  1.00  0.00     0.164 HD
ATOM     28  C   UNL A   1      28.923  29.828  22.844  1.00  0.00     0.114 C 
ATOM     29  O   UNL A   1      30.742  28.395  22.251  1.00  0.00    -0.275 OA
ENDBRANCH   7  25
ENDBRANCH   5   7
ENDBRANCH   4   5
ENDBRANCH   3   4
ENDBRANCH   2   3
ENDBRANCH   1   2
BRANCH   1  30
ATOM     30  C   UNL A   1      35.242  32.978  28.448  1.00  0.00     0.188 C 
BRANCH  30  31
ATOM     31  C   UNL A   1      34.339  34.156  28.832  1.00  0.00     0.188 C 
BRANCH  31  32
ATOM     32  O   UNL A   1      33.718  34.065  30.090  1.00  0.00    -0.376 OA
BRANCH  32  33
ATOM     33  C   UNL A   1      34.202  34.841  31.175  1.00  0.00     0.202 C 
BRANCH  33  34
ATOM     34  C   UNL A   1      35.263  34.355  32.187  1.00  0.00     0.261 C 
BRANCH  34  35
ATOM     35  O   UNL A   1      35.560  32.954  32.237  1.00  0.00    -0.460 OA
BRANCH  35  36
ATOM     36  C   UNL A   1      36.517  32.549  33.104  1.00  0.00     0.338 C 
ATOM     37  O   UNL A   1      36.474  32.592  34.323  1.00  0.00    -0.246 OA
BRANCH  36  38
ATOM     38  C   UNL A   1      37.525  31.794  32.321  1.00  0.00     0.060 A 
ATOM     39  C   UNL A   1      38.392  30.922  32.997  1.00  0.00     0.016 A 
ATOM     40  C   UNL A   1      37.579  31.901  30.930  1.00  0.00     0.016 A 
ATOM     41  C   UNL A   1      39.327  30.166  32.286  1.00  0.00     0.010 A 
ATOM     42  C   UNL A   1      38.539  31.171  30.223  1.00  0.00     0.010 A 
ATOM     43  C   UNL A   1      39.435  30.321  30.900  1.00  0.00    -0.014 A 
BRANCH  43  44
ATOM     44  C   UNL A   1      40.617  29.778  30.184  1.00  0.00     0.031 A 
ATOM     45  C   UNL A   1      41.787  30.697  29.959  1.00  0.00     0.074 A 
ATOM     46  C   UNL A   1      40.663  28.509  29.743  1.00  0.00     0.049 A 
ATOM     47  N   UNL A   1      42.887  30.495  29.282  1.00  0.00    -0.248 NA
ATOM     48  C   UNL A   1      41.696  32.027  30.581  1.00  0.00     0.031 C 
ATOM     49  C   UNL A   1      39.624  27.502  29.940  1.00  0.00     0.029 A 
ATOM     50  N   UNL A   1      41.632  27.858  29.018  1.00  0.00    -0.354 N 
ATOM     51  C   UNL A   1      43.610  31.677  29.382  1.00  0.00     0.074 A 
ATOM     52  C   UNL A   1      42.813  32.599  30.162  1.00  0.00     0.031 C 
ATOM     53  C   UNL A   1      40.001  26.365  29.327  1.00  0.00     0.029 A 
ATOM     54  C   UNL A   1      41.288  26.576  28.667  1.00  0.00     0.049 A 
ATOM     55  H   UNL A   1      42.492  28.272  28.773  1.00  0.00     0.167 HD
ATOM     56  C   UNL A   1      44.831  31.969  28.873  1.00  0.00     0.037 A 
ATOM     57  C   UNL A   1      41.925  25.690  27.875  1.00  0.00     0.037 A 
ATOM     58  C   UNL A   1      45.621  31.053  28.096  1.00  0.00     0.049 A 
ATOM     59  C   UNL A   1      43.246  26.065  27.249  1.00  0.00     0.074 A 
ATOM     60  C   UNL A   1      46.879  31.249  27.552  1.00  0.00     0.029 A 
ATOM     61  N   UNL A   1      45.226  29.773  27.738  1.00  0.00    -0.354 N 
ATOM     62  N   UNL A   1      43.934  27.176  27.366  1.00  0.00    -0.248 NA
ATOM     63  C   UNL A   1      43.878  25.061  26.379  1.00  0.00     0.031 C 
ATOM     64  C   UNL A   1      47.218  30.111  26.815  1.00  0.00     0.029 A 
ATOM     65  C   UNL A   1      46.202  29.179  26.956  1.00  0.00     0.049 A 
ATOM     66  H   UNL A   1      44.377  29.349  28.003  1.00  0.00     0.167 HD
ATOM     67  C   UNL A   1      45.092  26.991  26.617  1.00  0.00     0.074 A 
ATOM     68  C   UNL A   1      45.018  25.657  26.059  1.00  0.00     0.031 C 
ATOM     69  C   UNL A   1      46.124  27.846  26.413  1.00  0.00     0.037 A 
BRANCH  56  70
ATOM     70  C   UNL A   1      45.364  33.352  29.111  1.00  0.00     0.057 A 
ATOM     71  C   UNL A   1      46.153  33.665  30.226  1.00  0.00     0.134 A 
ATOM     72  C   UNL A   1      45.103  34.379  28.196  1.00  0.00     0.134 A 
ATOM     73  F   UNL A   1      46.427  32.731  31.151  1.00  0.00    -0.206 F 
ATOM     74  C   UNL A   1      46.640  34.957  30.436  1.00  0.00     0.040 A 
ATOM     75  C   UNL A   1      45.610  35.666  28.378  1.00  0.00     0.040 A 
ATOM     76  F   UNL A   1      44.357  34.147  27.105  1.00  0.00    -0.206 F 
ATOM     77  C   UNL A   1      46.375  35.960  29.505  1.00  0.00     0.006 A 
ENDBRANCH  56  70
BRANCH  57  78
ATOM     78  C   UNL A   1      41.317  24.362  27.600  1.00  0.00     0.057 A 
ATOM     79  C   UNL A   1      40.290  24.211  26.662  1.00  0.00     0.134 A 
ATOM     80  C   UNL A   1      41.722  23.216  28.297  1.00  0.00     0.134 A 
ATOM     81  F   UNL A   1      39.834  25.275  25.982  1.00  0.00    -0.206 F 
ATOM     82  C   UNL A   1      39.676  22.976  26.438  1.00  0.00     0.040 A 
ATOM     83  C   UNL A   1      41.139  21.970  28.063  1.00  0.00     0.040 A 
ATOM     84  F   UNL A   1      42.697  23.291  29.215  1.00  0.00    -0.206 F 
ATOM     85  C   UNL A   1      40.105  21.850  27.136  1.00  0.00     0.006 A 
ENDBRANCH  57  78
BRANCH  69  86
ATOM     86  C   UNL A   1      47.284  27.356  25.594  1.00  0.00     0.057 A 
ATOM     87  C   UNL A   1      47.384  27.598  24.218  1.00  0.00     0.134 A 
ATOM     88  C   UNL A   1      48.344  26.670  26.204  1.00  0.00     0.134 A 
ATOM     89  F   UNL A   1      46.402  28.241  23.569  1.00  0.00    -0.206 F 
ATOM     90  C   UNL A   1      48.480  27.156  23.474  1.00  0.00     0.040 A 
ATOM     91  C   UNL A   1      49.461  26.250  25.478  1.00  0.00     0.040 A 
ATOM     92  F   UNL A   1      48.323  26.414  27.521  1.00  0.00    -0.206 F 
ATOM     93  C   UNL A   1      49.527  26.487  24.107  1.00  0.00     0.006 A 
ENDBRANCH  69  86
ENDBRANCH  43  44
ENDBRANCH  36  38
ENDBRANCH  35  36
ENDBRANCH  34  35
ENDBRANCH  33  34
ENDBRANCH  32  33
ENDBRANCH  31  32
ENDBRANCH  30  31
ENDBRANCH   1  30
TORSDOF 23
ENDMDL
MODEL 2
REMARK VINA RESULT:      -9.9      4.666     10.366
REMARK SMILES CCc1ccc(N2C(=O)C[C@@H](SC[C@@H](NC(C)=O)C(=O)OCCOCCOCCOC(=O)c3ccc(-c4c5nc(c(-c6c(F)cccc6F)c6ccc([nH]6)c(-c6c(F)cccc6F)c6nc(c(-c7c(F)cccc7F)c7ccc4[nH]7)C=C6)C=C5)cc3)C2=O)cc1
REMARK SMILES IDX 24 1 23 2 22 3 21 4 19 5 20 6 14 7 13 8 12 9 11 10 7 11 8 12
REMARK SMILES IDX 87 13 9 14 10 15 88 16 6 17 3 18 4 19 90 20 5 21 89 22 2 23
REMARK SMILES IDX 1 24 15 25 16 26 17 28 18 29 25 30 26 31 27 32 28 33 29 34
REMARK SMILES IDX 30 35 31 36 32 37 33 38 34 39 86 40 35 41 85 42 36 43 37 44
REMARK SMILES IDX 38 45 79 46 39 47 84 48 78 49 80 50 40 51 83 52 77 53 76 54
REMARK SMILES IDX 41 56 67 57 50 58 66 59 51 60 54 61 65 62 81 63 52 64 53 65
REMARK SMILES IDX 64 67 82 68 55 69 42 70 43 71 48 72 44 73 45 74 47 75 49 76
REMARK SMILES IDX 46 77 68 78 69 79 74 80 70 81 71 82 73 83 75 84 72 85 56 86
REMARK SMILES IDX 57 87 62 88 58 89 59 90 61 91 63 92 60 93
REMARK H PARENT 15 27 80 55 54 66
REMARK Flexibility Score: inf
ROOT
ATOM      1  O   UNL A   1      38.630  20.982  26.170  1.00  0.00    -0.376 OA
ENDROOT
BRANCH   1   2
ATOM      2  C   UNL A   1      37.802  21.664  25.232  1.00  0.00     0.202 C 
BRANCH   2   3
ATOM      3  C   UNL A   1      36.611  22.514  25.702  1.00  0.00     0.261 C 
BRANCH   3   4
ATOM      4  O   UNL A   1      36.012  23.347  24.692  1.00  0.00    -0.462 OA
BRANCH   4   5
ATOM      5  C   UNL A   1      34.965  22.809  24.021  1.00  0.00     0.329 C 
ATOM      6  O   UNL A   1      34.740  22.994  22.826  1.00  0.00    -0.250 OA
BRANCH   5   7
ATOM      7  C   UNL A   1      34.021  21.969  24.899  1.00  0.00     0.202 C 
BRANCH   7   8
ATOM      8  C   UNL A   1      33.035  22.676  25.845  1.00  0.00     0.107 C 
BRANCH   8   9
ATOM      9  S   UNL A   1      31.250  22.476  25.365  1.00  0.00    -0.145 SA
BRANCH   9  10
ATOM     10  C   UNL A   1      30.883  24.126  24.690  1.00  0.00     0.146 C 
ATOM     11  N   UNL A   1      31.987  26.187  24.844  1.00  0.00    -0.250 N 
ATOM     12  C   UNL A   1      32.050  25.833  23.519  1.00  0.00     0.235 C 
ATOM     13  C   UNL A   1      31.358  25.232  25.607  1.00  0.00     0.247 C 
ATOM     14  O   UNL A   1      32.451  26.495  22.572  1.00  0.00    -0.274 OA
ATOM     15  C   UNL A   1      31.608  24.403  23.384  1.00  0.00     0.125 C 
ATOM     16  O   UNL A   1      31.071  25.307  26.798  1.00  0.00    -0.273 OA
BRANCH  11  17
ATOM     17  C   UNL A   1      32.389  27.437  25.371  1.00  0.00     0.052 A 
ATOM     18  C   UNL A   1      33.156  29.874  26.574  1.00  0.00    -0.048 A 
ATOM     19  C   UNL A   1      34.059  28.810  26.488  1.00  0.00     0.006 A 
ATOM     20  C   UNL A   1      31.876  29.716  26.029  1.00  0.00     0.006 A 
ATOM     21  C   UNL A   1      33.672  27.597  25.910  1.00  0.00     0.027 A 
ATOM     22  C   UNL A   1      31.503  28.517  25.411  1.00  0.00     0.027 A 
BRANCH  18  23
ATOM     23  C   UNL A   1      33.568  31.172  27.223  1.00  0.00     0.032 C 
ATOM     24  C   UNL A   1      34.908  31.082  27.942  1.00  0.00     0.009 C 
ENDBRANCH  18  23
ENDBRANCH  11  17
ENDBRANCH   9  10
ENDBRANCH   8   9
ENDBRANCH   7   8
BRANCH   7  25
ATOM     25  N   UNL A   1      33.361  21.032  23.992  1.00  0.00    -0.342 N 
ATOM     26  C   UNL A   1      33.232  19.705  24.317  1.00  0.00     0.217 C 
ATOM     27  H   UNL A   1      33.004  21.358  23.135  1.00  0.00     0.164 HD
ATOM     28  C   UNL A   1      32.528  18.886  23.283  1.00  0.00     0.114 C 
ATOM     29  O   UNL A   1      33.648  19.227  25.367  1.00  0.00    -0.275 OA
ENDBRANCH   7  25
ENDBRANCH   5   7
ENDBRANCH   4   5
ENDBRANCH   3   4
ENDBRANCH   2   3
ENDBRANCH   1   2
BRANCH   1  30
ATOM     30  C   UNL A   1      39.872  20.442  25.751  1.00  0.00     0.188 C 
BRANCH  30  31
ATOM     31  C   UNL A   1      40.942  20.135  26.805  1.00  0.00     0.188 C 
BRANCH  31  32
ATOM     32  O   UNL A   1      42.012  21.044  26.873  1.00  0.00    -0.376 OA
BRANCH  32  33
ATOM     33  C   UNL A   1      42.158  21.882  28.009  1.00  0.00     0.202 C 
BRANCH  33  34
ATOM     34  C   UNL A   1      43.073  23.125  28.062  1.00  0.00     0.261 C 
BRANCH  34  35
ATOM     35  O   UNL A   1      43.009  24.059  26.976  1.00  0.00    -0.460 OA
BRANCH  35  36
ATOM     36  C   UNL A   1      41.783  24.488  26.594  1.00  0.00     0.338 C 
ATOM     37  O   UNL A   1      41.012  23.931  25.830  1.00  0.00    -0.246 OA
BRANCH  36  38
ATOM     38  C   UNL A   1      41.424  25.625  27.476  1.00  0.00     0.060 A 
ATOM     39  C   UNL A   1      42.161  26.816  27.378  1.00  0.00     0.016 A 
ATOM     40  C   UNL A   1      40.339  25.540  28.348  1.00  0.00     0.016 A 
ATOM     41  C   UNL A   1      41.825  27.919  28.165  1.00  0.00     0.010 A 
ATOM     42  C   UNL A   1      40.025  26.634  29.162  1.00  0.00     0.010 A 
ATOM     43  C   UNL A   1      40.783  27.818  29.093  1.00  0.00    -0.014 A 
BRANCH  43  44
ATOM     44  C   UNL A   1      40.625  28.854  30.145  1.00  0.00     0.031 A 
ATOM     45  C   UNL A   1      41.531  28.784  31.344  1.00  0.00     0.074 A 
ATOM     46  C   UNL A   1      39.711  29.835  30.049  1.00  0.00     0.049 A 
ATOM     47  N   UNL A   1      41.528  29.505  32.434  1.00  0.00    -0.248 NA
ATOM     48  C   UNL A   1      42.580  27.752  31.305  1.00  0.00     0.031 C 
ATOM     49  C   UNL A   1      38.809  30.049  28.920  1.00  0.00     0.029 A 
ATOM     50  N   UNL A   1      39.383  30.829  30.938  1.00  0.00    -0.354 N 
ATOM     51  C   UNL A   1      42.560  29.004  33.217  1.00  0.00     0.074 A 
ATOM     52  C   UNL A   1      43.150  27.901  32.489  1.00  0.00     0.031 C 
ATOM     53  C   UNL A   1      38.011  31.097  29.196  1.00  0.00     0.029 A 
ATOM     54  C   UNL A   1      38.322  31.602  30.533  1.00  0.00     0.049 A 
ATOM     55  H   UNL A   1      39.863  30.976  31.786  1.00  0.00     0.167 HD
ATOM     56  C   UNL A   1      42.982  29.425  34.433  1.00  0.00     0.037 A 
ATOM     57  C   UNL A   1      37.659  32.579  31.182  1.00  0.00     0.037 A 
ATOM     58  C   UNL A   1      42.394  30.519  35.158  1.00  0.00     0.049 A 
ATOM     59  C   UNL A   1      38.092  32.978  32.572  1.00  0.00     0.074 A 
ATOM     60  C   UNL A   1      42.763  31.033  36.388  1.00  0.00     0.029 A 
ATOM     61  N   UNL A   1      41.303  31.257  34.726  1.00  0.00    -0.354 N 
ATOM     62  N   UNL A   1      39.083  32.515  33.296  1.00  0.00    -0.248 NA
ATOM     63  C   UNL A   1      37.314  34.037  33.233  1.00  0.00     0.031 C 
ATOM     64  C   UNL A   1      41.858  32.043  36.729  1.00  0.00     0.029 A 
ATOM     65  C   UNL A   1      40.968  32.204  35.679  1.00  0.00     0.049 A 
ATOM     66  H   UNL A   1      40.838  31.129  33.868  1.00  0.00     0.167 HD
ATOM     67  C   UNL A   1      39.068  33.247  34.479  1.00  0.00     0.074 A 
ATOM     68  C   UNL A   1      37.977  34.193  34.370  1.00  0.00     0.031 C 
ATOM     69  C   UNL A   1      39.886  33.149  35.557  1.00  0.00     0.037 A 
BRANCH  56  70
ATOM     70  C   UNL A   1      44.113  28.669  35.071  1.00  0.00     0.057 A 
ATOM     71  C   UNL A   1      45.452  29.040  34.892  1.00  0.00     0.134 A 
ATOM     72  C   UNL A   1      43.853  27.568  35.895  1.00  0.00     0.134 A 
ATOM     73  F   UNL A   1      45.772  30.076  34.100  1.00  0.00    -0.206 F 
ATOM     74  C   UNL A   1      46.493  28.327  35.489  1.00  0.00     0.040 A 
ATOM     75  C   UNL A   1      44.882  26.866  36.522  1.00  0.00     0.040 A 
ATOM     76  F   UNL A   1      42.593  27.160  36.111  1.00  0.00    -0.206 F 
ATOM     77  C   UNL A   1      46.208  27.240  36.314  1.00  0.00     0.006 A 
ENDBRANCH  56  70
BRANCH  57  78
ATOM     78  C   UNL A   1      36.492  33.242  30.544  1.00  0.00     0.057 A 
ATOM     79  C   UNL A   1      36.656  34.154  29.495  1.00  0.00     0.134 A 
ATOM     80  C   UNL A   1      35.185  33.009  30.991  1.00  0.00     0.134 A 
ATOM     81  F   UNL A   1      37.885  34.445  29.039  1.00  0.00    -0.206 F 
ATOM     82  C   UNL A   1      35.569  34.822  28.926  1.00  0.00     0.040 A 
ATOM     83  C   UNL A   1      34.087  33.647  30.413  1.00  0.00     0.040 A 
ATOM     84  F   UNL A   1      34.957  32.151  31.997  1.00  0.00    -0.206 F 
ATOM     85  C   UNL A   1      34.279  34.564  29.383  1.00  0.00     0.006 A 
ENDBRANCH  57  78
BRANCH  69  86
ATOM     86  C   UNL A   1      39.671  34.117  36.686  1.00  0.00     0.057 A 
ATOM     87  C   UNL A   1      38.906  33.792  37.814  1.00  0.00     0.134 A 
ATOM     88  C   UNL A   1      40.281  35.379  36.665  1.00  0.00     0.134 A 
ATOM     89  F   UNL A   1      38.286  32.605  37.896  1.00  0.00    -0.206 F 
ATOM     90  C   UNL A   1      38.735  34.694  38.866  1.00  0.00     0.040 A 
ATOM     91  C   UNL A   1      40.144  36.277  37.724  1.00  0.00     0.040 A 
ATOM     92  F   UNL A   1      41.039  35.752  35.622  1.00  0.00    -0.206 F 
ATOM     93  C   UNL A   1      39.362  35.938  38.826  1.00  0.00     0.006 A 
ENDBRANCH  69  86
ENDBRANCH  43  44
ENDBRANCH  36  38
ENDBRANCH  35  36
ENDBRANCH  34  35
ENDBRANCH  33  34
ENDBRANCH  32  33
ENDBRANCH  31  32
ENDBRANCH  30  31
ENDBRANCH   1  30
TORSDOF 23
ENDMDL
MODEL 3
REMARK VINA RESULT:      -9.8      4.408      9.473
REMARK SMILES CCc1ccc(N2C(=O)C[C@@H](SC[C@@H](NC(C)=O)C(=O)OCCOCCOCCOC(=O)c3ccc(-c4c5nc(c(-c6c(F)cccc6F)c6ccc([nH]6)c(-c6c(F)cccc6F)c6nc(c(-c7c(F)cccc7F)c7ccc4[nH]7)C=C6)C=C5)cc3)C2=O)cc1
REMARK SMILES IDX 24 1 23 2 22 3 21 4 19 5 20 6 14 7 13 8 12 9 11 10 7 11 8 12
REMARK SMILES IDX 87 13 9 14 10 15 88 16 6 17 3 18 4 19 90 20 5 21 89 22 2 23
REMARK SMILES IDX 1 24 15 25 16 26 17 28 18 29 25 30 26 31 27 32 28 33 29 34
REMARK SMILES IDX 30 35 31 36 32 37 33 38 34 39 86 40 35 41 85 42 36 43 37 44
REMARK SMILES IDX 38 45 79 46 39 47 84 48 78 49 80 50 40 51 83 52 77 53 76 54
REMARK SMILES IDX 41 56 67 57 50 58 66 59 51 60 54 61 65 62 81 63 52 64 53 65
REMARK SMILES IDX 64 67 82 68 55 69 42 70 43 71 48 72 44 73 45 74 47 75 49 76
REMARK SMILES IDX 46 77 68 78 69 79 74 80 70 81 71 82 73 83 75 84 72 85 56 86
REMARK SMILES IDX 57 87 62 88 58 89 59 90 61 91 63 92 60 93
REMARK H PARENT 15 27 80 55 54 66
REMARK Flexibility Score: inf
ROOT
ATOM      1  O   UNL A   1      36.918  23.331  24.333  1.00  0.00    -0.376 OA
ENDROOT
BRANCH   1   2
ATOM      2  C   UNL A   1      35.550  23.724  24.265  1.00  0.00     0.202 C 
BRANCH   2   3
ATOM      3  C   UNL A   1      34.976  24.758  25.248  1.00  0.00     0.261 C 
BRANCH   3   4
ATOM      4  O   UNL A   1      34.380  25.918  24.642  1.00  0.00    -0.462 OA
BRANCH   4   5
ATOM      5  C   UNL A   1      33.504  26.609  25.410  1.00  0.00     0.329 C 
ATOM      6  O   UNL A   1      33.824  27.303  26.373  1.00  0.00    -0.250 OA
BRANCH   5   7
ATOM      7  C   UNL A   1      32.030  26.413  25.012  1.00  0.00     0.202 C 
BRANCH   7   8
ATOM      8  C   UNL A   1      31.026  25.889  26.053  1.00  0.00     0.107 C 
BRANCH   8   9
ATOM      9  S   UNL A   1      30.443  24.152  25.735  1.00  0.00    -0.145 SA
BRANCH   9  10
ATOM     10  C   UNL A   1      31.809  23.507  24.719  1.00  0.00     0.146 C 
ATOM     11  N   UNL A   1      32.392  21.345  24.030  1.00  0.00    -0.250 N 
ATOM     12  C   UNL A   1      32.069  22.023  22.881  1.00  0.00     0.235 C 
ATOM     13  C   UNL A   1      32.232  22.121  25.153  1.00  0.00     0.247 C 
ATOM     14  O   UNL A   1      32.192  21.658  21.720  1.00  0.00    -0.274 OA
ATOM     15  C   UNL A   1      31.425  23.327  23.260  1.00  0.00     0.125 C 
ATOM     16  O   UNL A   1      32.528  21.823  26.306  1.00  0.00    -0.273 OA
BRANCH  11  17
ATOM     17  C   UNL A   1      32.955  20.047  24.076  1.00  0.00     0.052 A 
ATOM     18  C   UNL A   1      33.984  17.428  24.303  1.00  0.00    -0.048 A 
ATOM     19  C   UNL A   1      32.779  17.661  23.634  1.00  0.00     0.006 A 
ATOM     20  C   UNL A   1      34.682  18.520  24.833  1.00  0.00     0.006 A 
ATOM     21  C   UNL A   1      32.260  18.955  23.540  1.00  0.00     0.027 A 
ATOM     22  C   UNL A   1      34.184  19.821  24.700  1.00  0.00     0.027 A 
BRANCH  18  23
ATOM     23  C   UNL A   1      34.528  16.026  24.427  1.00  0.00     0.032 C 
ATOM     24  C   UNL A   1      35.684  15.919  25.413  1.00  0.00     0.009 C 
ENDBRANCH  18  23
ENDBRANCH  11  17
ENDBRANCH   9  10
ENDBRANCH   8   9
ENDBRANCH   7   8
BRANCH   7  25
ATOM     25  N   UNL A   1      31.610  27.675  24.406  1.00  0.00    -0.342 N 
ATOM     26  C   UNL A   1      31.254  27.740  23.082  1.00  0.00     0.217 C 
ATOM     27  H   UNL A   1      31.582  28.491  24.956  1.00  0.00     0.164 HD
ATOM     28  C   UNL A   1      30.844  29.103  22.623  1.00  0.00     0.114 C 
ATOM     29  O   UNL A   1      31.259  26.767  22.336  1.00  0.00    -0.275 OA
ENDBRANCH   7  25
ENDBRANCH   5   7
ENDBRANCH   4   5
ENDBRANCH   3   4
ENDBRANCH   2   3
ENDBRANCH   1   2
BRANCH   1  30
ATOM     30  C   UNL A   1      37.252  22.003  24.700  1.00  0.00     0.188 C 
BRANCH  30  31
ATOM     31  C   UNL A   1      38.435  21.768  25.646  1.00  0.00     0.188 C 
BRANCH  31  32
ATOM     32  O   UNL A   1      39.068  22.926  26.132  1.00  0.00    -0.376 OA
BRANCH  32  33
ATOM     33  C   UNL A   1      40.398  22.854  26.621  1.00  0.00     0.202 C 
BRANCH  33  34
ATOM     34  C   UNL A   1      41.641  23.329  25.836  1.00  0.00     0.261 C 
BRANCH  34  35
ATOM     35  O   UNL A   1      42.353  24.473  26.326  1.00  0.00    -0.460 OA
BRANCH  35  36
ATOM     36  C   UNL A   1      41.843  25.694  26.042  1.00  0.00     0.338 C 
ATOM     37  O   UNL A   1      41.336  26.056  24.992  1.00  0.00    -0.246 OA
BRANCH  36  38
ATOM     38  C   UNL A   1      41.761  26.441  27.321  1.00  0.00     0.060 A 
ATOM     39  C   UNL A   1      40.818  26.039  28.280  1.00  0.00     0.016 A 
ATOM     40  C   UNL A   1      42.641  27.488  27.596  1.00  0.00     0.016 A 
ATOM     41  C   UNL A   1      40.741  26.696  29.510  1.00  0.00     0.010 A 
ATOM     42  C   UNL A   1      42.538  28.168  28.814  1.00  0.00     0.010 A 
ATOM     43  C   UNL A   1      41.571  27.792  29.764  1.00  0.00    -0.014 A 
BRANCH  43  44
ATOM     44  C   UNL A   1      41.285  28.686  30.915  1.00  0.00     0.031 A 
ATOM     45  C   UNL A   1      40.159  29.675  30.776  1.00  0.00     0.074 A 
ATOM     46  C   UNL A   1      41.993  28.630  32.056  1.00  0.00     0.049 A 
ATOM     47  N   UNL A   1      39.776  30.622  31.591  1.00  0.00    -0.248 NA
ATOM     48  C   UNL A   1      39.363  29.581  29.541  1.00  0.00     0.031 C 
ATOM     49  C   UNL A   1      43.072  27.687  32.341  1.00  0.00     0.029 A 
ATOM     50  N   UNL A   1      41.915  29.407  33.186  1.00  0.00    -0.354 N 
ATOM     51  C   UNL A   1      38.707  31.248  30.962  1.00  0.00     0.074 A 
ATOM     52  C   UNL A   1      38.519  30.590  29.687  1.00  0.00     0.031 C 
ATOM     53  C   UNL A   1      43.572  27.957  33.561  1.00  0.00     0.029 A 
ATOM     54  C   UNL A   1      42.874  29.112  34.124  1.00  0.00     0.049 A 
ATOM     55  H   UNL A   1      41.235  30.108  33.313  1.00  0.00     0.167 HD
ATOM     56  C   UNL A   1      37.946  32.276  31.407  1.00  0.00     0.037 A 
ATOM     57  C   UNL A   1      43.173  29.727  35.286  1.00  0.00     0.037 A 
ATOM     58  C   UNL A   1      38.135  32.931  32.673  1.00  0.00     0.049 A 
ATOM     59  C   UNL A   1      42.366  30.925  35.725  1.00  0.00     0.074 A 
ATOM     60  C   UNL A   1      37.403  33.970  33.221  1.00  0.00     0.029 A 
ATOM     61  N   UNL A   1      39.135  32.622  33.582  1.00  0.00    -0.354 N 
ATOM     62  N   UNL A   1      41.342  31.496  35.136  1.00  0.00    -0.248 NA
ATOM     63  C   UNL A   1      42.757  31.562  36.991  1.00  0.00     0.031 C 
ATOM     64  C   UNL A   1      37.998  34.330  34.434  1.00  0.00     0.029 A 
ATOM     65  C   UNL A   1      39.058  33.469  34.674  1.00  0.00     0.049 A 
ATOM     66  H   UNL A   1      39.799  31.904  33.469  1.00  0.00     0.167 HD
ATOM     67  C   UNL A   1      40.948  32.534  35.974  1.00  0.00     0.074 A 
ATOM     68  C   UNL A   1      41.835  32.506  37.118  1.00  0.00     0.031 C 
ATOM     69  C   UNL A   1      39.939  33.427  35.814  1.00  0.00     0.037 A 
BRANCH  56  70
ATOM     70  C   UNL A   1      36.865  32.779  30.494  1.00  0.00     0.057 A 
ATOM     71  C   UNL A   1      37.122  33.701  29.471  1.00  0.00     0.134 A 
ATOM     72  C   UNL A   1      35.551  32.313  30.628  1.00  0.00     0.134 A 
ATOM     73  F   UNL A   1      38.356  34.200  29.298  1.00  0.00    -0.206 F 
ATOM     74  C   UNL A   1      36.106  34.162  28.631  1.00  0.00     0.040 A 
ATOM     75  C   UNL A   1      34.534  32.742  29.776  1.00  0.00     0.040 A 
ATOM     76  F   UNL A   1      35.236  31.427  31.586  1.00  0.00    -0.206 F 
ATOM     77  C   UNL A   1      34.808  33.675  28.779  1.00  0.00     0.006 A 
ENDBRANCH  56  70
BRANCH  57  78
ATOM     78  C   UNL A   1      44.307  29.244  36.116  1.00  0.00     0.057 A 
ATOM     79  C   UNL A   1      45.573  29.835  36.035  1.00  0.00     0.134 A 
ATOM     80  C   UNL A   1      44.162  28.155  36.985  1.00  0.00     0.134 A 
ATOM     81  F   UNL A   1      45.786  30.863  35.199  1.00  0.00    -0.206 F 
ATOM     82  C   UNL A   1      46.657  29.352  36.771  1.00  0.00     0.040 A 
ATOM     83  C   UNL A   1      45.229  27.680  37.750  1.00  0.00     0.040 A 
ATOM     84  F   UNL A   1      42.978  27.538  37.107  1.00  0.00    -0.206 F 
ATOM     85  C   UNL A   1      46.484  28.274  37.636  1.00  0.00     0.006 A 
ENDBRANCH  57  78
BRANCH  69  86
ATOM     86  C   UNL A   1      39.703  34.417  36.919  1.00  0.00     0.057 A 
ATOM     87  C   UNL A   1      38.963  34.097  38.064  1.00  0.00     0.134 A 
ATOM     88  C   UNL A   1      40.268  35.699  36.856  1.00  0.00     0.134 A 
ATOM     89  F   UNL A   1      38.387  32.892  38.187  1.00  0.00    -0.206 F 
ATOM     90  C   UNL A   1      38.772  35.021  39.094  1.00  0.00     0.040 A 
ATOM     91  C   UNL A   1      40.111  36.621  37.892  1.00  0.00     0.040 A 
ATOM     92  F   UNL A   1      41.000  36.070  35.794  1.00  0.00    -0.206 F 
ATOM     93  C   UNL A   1      39.355  36.285  39.012  1.00  0.00     0.006 A 
ENDBRANCH  69  86
ENDBRANCH  43  44
ENDBRANCH  36  38
ENDBRANCH  35  36
ENDBRANCH  34  35
ENDBRANCH  33  34
ENDBRANCH  32  33
ENDBRANCH  31  32
ENDBRANCH  30  31
ENDBRANCH   1  30
TORSDOF 23
ENDMDL
