MODEL 1
REMARK VINA RESULT:     -13.1      0.000      0.000
REMARK SMILES Cc1ccccc1-c1c(Cl)ccc2c1C=C(C(=O)OCCOCCOCCOC(=O)c1ccc(-c3c4nc(c(-c5c(F)cccc5F)c5ccc([nH]5)c(-c5c(F)cccc5F)c5nc(c(-c6c(F)cccc6F)c6ccc3[nH]6)C=C5)C=C4)cc1)[C@@H](C(F)(F)F)O2
REMARK SMILES IDX 24 1 23 2 22 3 21 4 20 5 19 6 17 7 18 8 16 9 8 10 9 11 14 12
REMARK SMILES IDX 10 13 11 14 13 15 15 16 12 17 90 18 85 19 7 20 1 21 2 22
REMARK SMILES IDX 3 23 4 24 6 25 5 26 86 27 87 28 88 29 89 30 25 31 26 32
REMARK SMILES IDX 27 33 28 34 29 35 30 36 31 37 32 38 84 39 33 40 83 41 34 42
REMARK SMILES IDX 35 43 36 44 77 45 37 46 82 47 76 48 78 49 38 50 81 51 75 52
REMARK SMILES IDX 74 53 39 55 65 56 48 57 64 58 49 59 52 60 63 61 79 62 50 63
REMARK SMILES IDX 51 64 62 66 80 67 53 68 40 69 41 70 46 71 42 72 43 73 45 74
REMARK SMILES IDX 47 75 44 76 66 77 67 78 72 79 68 80 69 81 71 82 73 83 70 84
REMARK SMILES IDX 54 85 55 86 60 87 56 88 57 89 59 90 61 91 58 92
REMARK H PARENT 78 54 52 65
REMARK Flexibility Score: inf
ROOT
ATOM      1  C   UNL A   1      36.894  33.445  28.805  1.00  0.00     0.188 C 
ENDROOT
BRANCH   1   2
ATOM      2  C   UNL A   1      35.493  34.017  28.772  1.00  0.00     0.188 C 
BRANCH   2   3
ATOM      3  O   UNL A   1      34.346  33.323  28.275  1.00  0.00    -0.376 OA
BRANCH   3   4
ATOM      4  C   UNL A   1      34.202  32.024  27.690  1.00  0.00     0.202 C 
BRANCH   4   5
ATOM      5  C   UNL A   1      32.902  31.082  27.023  1.00  0.00     0.261 C 
BRANCH   5   6
ATOM      6  O   UNL A   1      32.545  29.375  26.805  1.00  0.00    -0.460 OA
BRANCH   6   7
ATOM      7  C   UNL A   1      33.062  28.162  26.274  1.00  0.00     0.338 C 
ATOM      8  O   UNL A   1      33.909  27.443  26.796  1.00  0.00    -0.246 OA
BRANCH   7   9
ATOM      9  C   UNL A   1      32.611  27.654  24.919  1.00  0.00     0.087 C 
ATOM     10  C   UNL A   1      33.050  23.919  25.323  1.00  0.00     0.012 A 
ATOM     11  C   UNL A   1      32.340  22.868  25.961  1.00  0.00     0.049 A 
ATOM     12  C   UNL A   1      32.428  25.198  25.217  1.00  0.00     0.027 A 
ATOM     13  Cl  UNL A   1      33.055  21.312  26.256  1.00  0.00    -0.084 Cl
ATOM     14  C   UNL A   1      31.041  23.054  26.433  1.00  0.00     0.025 A 
ATOM     15  C   UNL A   1      31.119  25.356  25.707  1.00  0.00     0.128 A 
ATOM     16  C   UNL A   1      33.149  26.422  24.712  1.00  0.00     0.028 C 
ATOM     17  C   UNL A   1      30.430  24.296  26.304  1.00  0.00     0.049 A 
ATOM     18  O   UNL A   1      30.462  26.560  25.691  1.00  0.00    -0.475 OA
ATOM     19  C   UNL A   1      31.062  27.598  24.874  1.00  0.00     0.316 C 
BRANCH  10  20
ATOM     20  C   UNL A   1      34.421  23.702  24.820  1.00  0.00    -0.013 A 
ATOM     21  C   UNL A   1      33.585  23.111  22.487  1.00  0.00     0.045 C 
ATOM     22  C   UNL A   1      34.675  23.267  23.505  1.00  0.00    -0.043 A 
ATOM     23  C   UNL A   1      35.990  22.972  23.110  1.00  0.00     0.004 A 
ATOM     24  C   UNL A   1      37.056  23.161  23.986  1.00  0.00     0.000 A 
ATOM     25  C   UNL A   1      35.514  23.913  25.679  1.00  0.00     0.009 A 
ATOM     26  C   UNL A   1      36.820  23.655  25.264  1.00  0.00     0.001 A 
ENDBRANCH  10  20
BRANCH  19  27
ATOM     27  C   UNL A   1      30.519  27.471  23.437  1.00  0.00     0.430 C 
ATOM     28  F   UNL A   1      30.287  26.176  23.107  1.00  0.00    -0.167 F 
ATOM     29  F   UNL A   1      29.338  28.123  23.308  1.00  0.00    -0.167 F 
ATOM     30  F   UNL A   1      31.356  27.975  22.500  1.00  0.00    -0.167 F 
ENDBRANCH  19  27
ENDBRANCH   7   9
ENDBRANCH   6   7
ENDBRANCH   5   6
ENDBRANCH   4   5
ENDBRANCH   3   4
ENDBRANCH   2   3
ENDBRANCH   1   2
BRANCH   1  31
ATOM     31  O   UNL A   1      37.782  34.377  29.380  1.00  0.00    -0.376 OA
BRANCH  31  32
ATOM     32  C   UNL A   1      38.456  33.877  30.523  1.00  0.00     0.202 C 
BRANCH  32  33
ATOM     33  C   UNL A   1      37.506  33.577  31.696  1.00  0.00     0.261 C 
BRANCH  33  34
ATOM     34  O   UNL A   1      37.457  32.154  31.947  1.00  0.00    -0.460 OA
BRANCH  34  35
ATOM     35  C   UNL A   1      36.307  31.497  31.587  1.00  0.00     0.338 C 
ATOM     36  O   UNL A   1      35.175  31.832  31.900  1.00  0.00    -0.246 OA
BRANCH  35  37
ATOM     37  C   UNL A   1      36.662  30.163  31.008  1.00  0.00     0.060 A 
ATOM     38  C   UNL A   1      37.199  29.087  31.711  1.00  0.00     0.016 A 
ATOM     39  C   UNL A   1      36.797  30.085  29.670  1.00  0.00     0.016 A 
ATOM     40  C   UNL A   1      38.114  28.132  31.087  1.00  0.00     0.010 A 
ATOM     41  C   UNL A   1      37.827  29.262  29.182  1.00  0.00     0.010 A 
ATOM     42  C   UNL A   1      38.660  28.282  29.798  1.00  0.00    -0.014 A 
BRANCH  42  43
ATOM     43  C   UNL A   1      40.181  27.558  29.321  1.00  0.00     0.031 A 
ATOM     44  C   UNL A   1      40.664  26.106  28.506  1.00  0.00     0.074 A 
ATOM     45  C   UNL A   1      41.284  28.361  29.473  1.00  0.00     0.049 A 
ATOM     46  N   UNL A   1      41.902  25.825  28.146  1.00  0.00    -0.248 NA
ATOM     47  C   UNL A   1      39.907  24.897  28.017  1.00  0.00     0.031 C 
ATOM     48  C   UNL A   1      42.695  28.150  29.096  1.00  0.00     0.029 A 
ATOM     49  N   UNL A   1      41.359  29.609  30.109  1.00  0.00    -0.354 N 
ATOM     50  C   UNL A   1      41.949  24.559  27.588  1.00  0.00     0.074 A 
ATOM     51  C   UNL A   1      40.655  24.302  27.095  1.00  0.00     0.031 C 
ATOM     52  C   UNL A   1      43.486  28.972  29.799  1.00  0.00     0.029 A 
ATOM     53  C   UNL A   1      42.633  29.723  30.680  1.00  0.00     0.049 A 
ATOM     54  H   UNL A   1      40.643  30.285  30.148  1.00  0.00     0.167 HD
ATOM     55  C   UNL A   1      42.840  23.582  27.913  1.00  0.00     0.037 A 
ATOM     56  C   UNL A   1      42.763  29.824  32.025  1.00  0.00     0.037 A 
ATOM     57  C   UNL A   1      43.805  24.068  28.864  1.00  0.00     0.049 A 
ATOM     58  C   UNL A   1      43.401  28.571  32.564  1.00  0.00     0.074 A 
ATOM     59  C   UNL A   1      44.995  24.738  28.681  1.00  0.00     0.029 A 
ATOM     60  N   UNL A   1      43.431  24.248  30.199  1.00  0.00    -0.354 N 
ATOM     61  N   UNL A   1      43.322  27.392  32.002  1.00  0.00    -0.248 NA
ATOM     62  C   UNL A   1      44.265  28.594  33.737  1.00  0.00     0.031 C 
ATOM     63  C   UNL A   1      45.322  25.369  29.905  1.00  0.00     0.029 A 
ATOM     64  C   UNL A   1      44.372  25.019  30.855  1.00  0.00     0.049 A 
ATOM     65  H   UNL A   1      42.615  23.881  30.612  1.00  0.00     0.167 HD
ATOM     66  C   UNL A   1      44.128  26.523  32.689  1.00  0.00     0.074 A 
ATOM     67  C   UNL A   1      44.685  27.320  33.769  1.00  0.00     0.031 C 
ATOM     68  C   UNL A   1      44.371  25.236  32.298  1.00  0.00     0.037 A 
BRANCH  55  69
ATOM     69  C   UNL A   1      42.794  22.198  27.283  1.00  0.00     0.057 A 
ATOM     70  C   UNL A   1      43.704  21.863  26.273  1.00  0.00     0.134 A 
ATOM     71  C   UNL A   1      41.816  21.206  27.534  1.00  0.00     0.134 A 
ATOM     72  F   UNL A   1      44.702  22.697  25.948  1.00  0.00    -0.206 F 
ATOM     73  C   UNL A   1      43.595  20.681  25.517  1.00  0.00     0.040 A 
ATOM     74  C   UNL A   1      41.674  20.038  26.768  1.00  0.00     0.040 A 
ATOM     75  F   UNL A   1      40.911  21.339  28.512  1.00  0.00    -0.206 F 
ATOM     76  C   UNL A   1      42.559  19.780  25.739  1.00  0.00     0.006 A 
ENDBRANCH  55  69
BRANCH  56  77
ATOM     77  C   UNL A   1      41.706  30.664  32.655  1.00  0.00     0.057 A 
ATOM     78  C   UNL A   1      40.649  29.996  33.321  1.00  0.00     0.134 A 
ATOM     79  C   UNL A   1      41.837  32.030  32.903  1.00  0.00     0.134 A 
ATOM     80  F   UNL A   1      40.461  28.677  33.139  1.00  0.00    -0.206 F 
ATOM     81  C   UNL A   1      39.848  30.623  34.277  1.00  0.00     0.040 A 
ATOM     82  C   UNL A   1      41.019  32.678  33.844  1.00  0.00     0.040 A 
ATOM     83  F   UNL A   1      42.831  32.736  32.346  1.00  0.00    -0.206 F 
ATOM     84  C   UNL A   1      40.041  31.969  34.549  1.00  0.00     0.006 A 
ENDBRANCH  56  77
BRANCH  68  85
ATOM     85  C   UNL A   1      44.948  24.162  33.200  1.00  0.00     0.057 A 
ATOM     86  C   UNL A   1      44.250  23.011  33.600  1.00  0.00     0.134 A 
ATOM     87  C   UNL A   1      46.295  24.205  33.623  1.00  0.00     0.134 A 
ATOM     88  F   UNL A   1      43.032  22.720  33.122  1.00  0.00    -0.206 F 
ATOM     89  C   UNL A   1      44.792  22.061  34.474  1.00  0.00     0.040 A 
ATOM     90  C   UNL A   1      46.864  23.236  34.454  1.00  0.00     0.040 A 
ATOM     91  F   UNL A   1      47.139  25.168  33.227  1.00  0.00    -0.206 F 
ATOM     92  C   UNL A   1      46.102  22.175  34.911  1.00  0.00     0.006 A 
ENDBRANCH  68  85
ENDBRANCH  42  43
ENDBRANCH  35  37
ENDBRANCH  34  35
ENDBRANCH  33  34
ENDBRANCH  32  33
ENDBRANCH  31  32
ENDBRANCH   1  31
TORSDOF 19
ENDMDL
MODEL 2
REMARK VINA RESULT:     -12.2      4.282      9.301
REMARK SMILES Cc1ccccc1-c1c(Cl)ccc2c1C=C(C(=O)OCCOCCOCCOC(=O)c1ccc(-c3c4nc(c(-c5c(F)cccc5F)c5ccc([nH]5)c(-c5c(F)cccc5F)c5nc(c(-c6c(F)cccc6F)c6ccc3[nH]6)C=C5)C=C4)cc1)[C@@H](C(F)(F)F)O2
REMARK SMILES IDX 24 1 23 2 22 3 21 4 20 5 19 6 17 7 18 8 16 9 8 10 9 11 14 12
REMARK SMILES IDX 10 13 11 14 13 15 15 16 12 17 90 18 85 19 7 20 1 21 2 22
REMARK SMILES IDX 3 23 4 24 6 25 5 26 86 27 87 28 88 29 89 30 25 31 26 32
REMARK SMILES IDX 27 33 28 34 29 35 30 36 31 37 32 38 84 39 33 40 83 41 34 42
REMARK SMILES IDX 35 43 36 44 77 45 37 46 82 47 76 48 78 49 38 50 81 51 75 52
REMARK SMILES IDX 74 53 39 55 65 56 48 57 64 58 49 59 52 60 63 61 79 62 50 63
REMARK SMILES IDX 51 64 62 66 80 67 53 68 40 69 41 70 46 71 42 72 43 73 45 74
REMARK SMILES IDX 47 75 44 76 66 77 67 78 72 79 68 80 69 81 71 82 73 83 70 84
REMARK SMILES IDX 54 85 55 86 60 87 56 88 57 89 59 90 61 91 58 92
REMARK H PARENT 78 54 52 65
REMARK Flexibility Score: inf
ROOT
ATOM      1  C   UNL A   1      41.151  21.338  27.259  1.00  0.00     0.188 C 
ENDROOT
BRANCH   1   2
ATOM      2  C   UNL A   1      41.019  19.893  26.828  1.00  0.00     0.188 C 
BRANCH   2   3
ATOM      3  O   UNL A   1      40.258  19.449  25.702  1.00  0.00    -0.376 OA
BRANCH   3   4
ATOM      4  C   UNL A   1      38.846  19.404  25.469  1.00  0.00     0.202 C 
BRANCH   4   5
ATOM      5  C   UNL A   1      37.602  20.547  25.057  1.00  0.00     0.261 C 
BRANCH   5   6
ATOM      6  O   UNL A   1      37.330  22.269  25.273  1.00  0.00    -0.460 OA
BRANCH   6   7
ATOM      7  C   UNL A   1      36.344  23.232  25.623  1.00  0.00     0.338 C 
ATOM      8  O   UNL A   1      36.520  24.440  25.749  1.00  0.00    -0.246 OA
BRANCH   7   9
ATOM      9  C   UNL A   1      34.921  22.808  25.928  1.00  0.00     0.087 C 
ATOM     10  C   UNL A   1      32.937  25.602  24.328  1.00  0.00     0.012 A 
ATOM     11  C   UNL A   1      32.556  25.962  23.008  1.00  0.00     0.049 A 
ATOM     12  C   UNL A   1      33.524  24.321  24.544  1.00  0.00     0.027 A 
ATOM     13  Cl  UNL A   1      31.953  27.544  22.615  1.00  0.00    -0.084 Cl
ATOM     14  C   UNL A   1      32.698  25.070  21.945  1.00  0.00     0.025 A 
ATOM     15  C   UNL A   1      33.659  23.445  23.452  1.00  0.00     0.128 A 
ATOM     16  C   UNL A   1      34.115  23.903  25.866  1.00  0.00     0.028 C 
ATOM     17  C   UNL A   1      33.246  23.812  22.168  1.00  0.00     0.049 A 
ATOM     18  O   UNL A   1      34.254  22.214  23.559  1.00  0.00    -0.475 OA
ATOM     19  C   UNL A   1      34.469  21.729  24.909  1.00  0.00     0.316 C 
BRANCH  10  20
ATOM     20  C   UNL A   1      32.771  26.556  25.443  1.00  0.00    -0.013 A 
ATOM     21  C   UNL A   1      30.473  25.626  26.034  1.00  0.00     0.045 C 
ATOM     22  C   UNL A   1      31.592  26.609  26.212  1.00  0.00    -0.043 A 
ATOM     23  C   UNL A   1      31.442  27.606  27.190  1.00  0.00     0.004 A 
ATOM     24  C   UNL A   1      32.470  28.507  27.452  1.00  0.00     0.000 A 
ATOM     25  C   UNL A   1      33.808  27.458  25.742  1.00  0.00     0.009 A 
ATOM     26  C   UNL A   1      33.663  28.418  26.744  1.00  0.00     0.001 A 
ENDBRANCH  10  20
BRANCH  19  27
ATOM     27  C   UNL A   1      33.208  20.975  25.371  1.00  0.00     0.430 C 
ATOM     28  F   UNL A   1      32.388  21.776  26.096  1.00  0.00    -0.167 F 
ATOM     29  F   UNL A   1      32.487  20.544  24.306  1.00  0.00    -0.167 F 
ATOM     30  F   UNL A   1      33.479  19.890  26.133  1.00  0.00    -0.167 F 
ENDBRANCH  19  27
ENDBRANCH   7   9
ENDBRANCH   6   7
ENDBRANCH   5   6
ENDBRANCH   4   5
ENDBRANCH   3   4
ENDBRANCH   2   3
ENDBRANCH   1   2
BRANCH   1  31
ATOM     31  O   UNL A   1      41.382  22.156  26.135  1.00  0.00    -0.376 OA
BRANCH  31  32
ATOM     32  C   UNL A   1      41.977  23.401  26.460  1.00  0.00     0.202 C 
BRANCH  32  33
ATOM     33  C   UNL A   1      41.784  23.790  27.937  1.00  0.00     0.261 C 
BRANCH  33  34
ATOM     34  O   UNL A   1      41.308  25.151  28.037  1.00  0.00    -0.460 OA
BRANCH  34  35
ATOM     35  C   UNL A   1      39.956  25.328  28.194  1.00  0.00     0.338 C 
ATOM     36  O   UNL A   1      39.102  24.486  27.962  1.00  0.00    -0.246 OA
BRANCH  35  37
ATOM     37  C   UNL A   1      39.670  26.782  28.410  1.00  0.00     0.060 A 
ATOM     38  C   UNL A   1      40.391  27.843  27.867  1.00  0.00     0.016 A 
ATOM     39  C   UNL A   1      38.888  27.110  29.455  1.00  0.00     0.016 A 
ATOM     40  C   UNL A   1      40.543  29.117  28.568  1.00  0.00     0.010 A 
ATOM     41  C   UNL A   1      39.231  28.274  30.166  1.00  0.00     0.010 A 
ATOM     42  C   UNL A   1      40.128  29.348  29.893  1.00  0.00    -0.014 A 
BRANCH  42  43
ATOM     43  C   UNL A   1      40.858  30.565  30.918  1.00  0.00     0.031 A 
ATOM     44  C   UNL A   1      42.179  30.613  32.041  1.00  0.00     0.074 A 
ATOM     45  C   UNL A   1      40.410  31.847  30.716  1.00  0.00     0.049 A 
ATOM     46  N   UNL A   1      42.626  31.709  32.626  1.00  0.00    -0.248 NA
ATOM     47  C   UNL A   1      43.098  29.556  32.599  1.00  0.00     0.031 C 
ATOM     48  C   UNL A   1      40.847  33.129  31.300  1.00  0.00     0.029 A 
ATOM     49  N   UNL A   1      39.337  32.267  29.917  1.00  0.00    -0.354 N 
ATOM     50  C   UNL A   1      43.635  31.383  33.515  1.00  0.00     0.074 A 
ATOM     51  C   UNL A   1      44.182  30.169  33.058  1.00  0.00     0.031 C 
ATOM     52  C   UNL A   1      39.882  34.049  31.162  1.00  0.00     0.029 A 
ATOM     53  C   UNL A   1      38.773  33.400  30.516  1.00  0.00     0.049 A 
ATOM     54  H   UNL A   1      39.033  31.840  29.082  1.00  0.00     0.167 HD
ATOM     55  C   UNL A   1      43.722  31.811  34.805  1.00  0.00     0.037 A 
ATOM     56  C   UNL A   1      37.497  33.360  30.969  1.00  0.00     0.037 A 
ATOM     57  C   UNL A   1      42.662  32.736  35.109  1.00  0.00     0.049 A 
ATOM     58  C   UNL A   1      37.493  33.425  32.473  1.00  0.00     0.074 A 
ATOM     59  C   UNL A   1      42.574  34.100  34.930  1.00  0.00     0.029 A 
ATOM     60  N   UNL A   1      41.361  32.260  35.296  1.00  0.00    -0.354 N 
ATOM     61  N   UNL A   1      38.472  33.015  33.240  1.00  0.00    -0.248 NA
ATOM     62  C   UNL A   1      36.410  34.059  33.211  1.00  0.00     0.031 C 
ATOM     63  C   UNL A   1      41.203  34.447  34.964  1.00  0.00     0.029 A 
ATOM     64  C   UNL A   1      40.461  33.308  35.241  1.00  0.00     0.049 A 
ATOM     65  H   UNL A   1      41.121  31.316  35.444  1.00  0.00     0.167 HD
ATOM     66  C   UNL A   1      38.184  33.350  34.537  1.00  0.00     0.074 A 
ATOM     67  C   UNL A   1      36.880  33.989  34.466  1.00  0.00     0.031 C 
ATOM     68  C   UNL A   1      39.048  33.173  35.580  1.00  0.00     0.037 A 
BRANCH  55  69
ATOM     69  C   UNL A   1      44.843  31.369  35.734  1.00  0.00     0.057 A 
ATOM     70  C   UNL A   1      44.676  30.233  36.535  1.00  0.00     0.134 A 
ATOM     71  C   UNL A   1      46.046  32.076  35.975  1.00  0.00     0.134 A 
ATOM     72  F   UNL A   1      43.595  29.451  36.397  1.00  0.00    -0.206 F 
ATOM     73  C   UNL A   1      45.585  29.882  37.551  1.00  0.00     0.040 A 
ATOM     74  C   UNL A   1      46.945  31.758  37.005  1.00  0.00     0.040 A 
ATOM     75  F   UNL A   1      46.391  33.147  35.250  1.00  0.00    -0.206 F 
ATOM     76  C   UNL A   1      46.706  30.663  37.812  1.00  0.00     0.006 A 
ENDBRANCH  55  69
BRANCH  56  77
ATOM     77  C   UNL A   1      36.583  32.591  30.078  1.00  0.00     0.057 A 
ATOM     78  C   UNL A   1      36.055  33.260  28.946  1.00  0.00     0.134 A 
ATOM     79  C   UNL A   1      36.455  31.202  30.099  1.00  0.00     0.134 A 
ATOM     80  F   UNL A   1      36.145  34.598  28.849  1.00  0.00    -0.206 F 
ATOM     81  C   UNL A   1      35.545  32.579  27.840  1.00  0.00     0.040 A 
ATOM     82  C   UNL A   1      35.919  30.507  29.001  1.00  0.00     0.040 A 
ATOM     83  F   UNL A   1      36.958  30.483  31.111  1.00  0.00    -0.206 F 
ATOM     84  C   UNL A   1      35.487  31.193  27.861  1.00  0.00     0.006 A 
ENDBRANCH  56  77
BRANCH  68  85
ATOM     85  C   UNL A   1      38.641  33.192  37.041  1.00  0.00     0.057 A 
ATOM     86  C   UNL A   1      38.787  34.305  37.885  1.00  0.00     0.134 A 
ATOM     87  C   UNL A   1      37.978  32.094  37.633  1.00  0.00     0.134 A 
ATOM     88  F   UNL A   1      39.213  35.491  37.426  1.00  0.00    -0.206 F 
ATOM     89  C   UNL A   1      38.447  34.278  39.243  1.00  0.00     0.040 A 
ATOM     90  C   UNL A   1      37.587  32.073  38.975  1.00  0.00     0.040 A 
ATOM     91  F   UNL A   1      37.645  30.999  36.935  1.00  0.00    -0.206 F 
ATOM     92  C   UNL A   1      37.851  33.155  39.795  1.00  0.00     0.006 A 
ENDBRANCH  68  85
ENDBRANCH  42  43
ENDBRANCH  35  37
ENDBRANCH  34  35
ENDBRANCH  33  34
ENDBRANCH  32  33
ENDBRANCH  31  32
ENDBRANCH   1  31
TORSDOF 19
ENDMDL
MODEL 3
REMARK VINA RESULT:     -11.8      2.473      4.244
REMARK SMILES Cc1ccccc1-c1c(Cl)ccc2c1C=C(C(=O)OCCOCCOCCOC(=O)c1ccc(-c3c4nc(c(-c5c(F)cccc5F)c5ccc([nH]5)c(-c5c(F)cccc5F)c5nc(c(-c6c(F)cccc6F)c6ccc3[nH]6)C=C5)C=C4)cc1)[C@@H](C(F)(F)F)O2
REMARK SMILES IDX 24 1 23 2 22 3 21 4 20 5 19 6 17 7 18 8 16 9 8 10 9 11 14 12
REMARK SMILES IDX 10 13 11 14 13 15 15 16 12 17 90 18 85 19 7 20 1 21 2 22
REMARK SMILES IDX 3 23 4 24 6 25 5 26 86 27 87 28 88 29 89 30 25 31 26 32
REMARK SMILES IDX 27 33 28 34 29 35 30 36 31 37 32 38 84 39 33 40 83 41 34 42
REMARK SMILES IDX 35 43 36 44 77 45 37 46 82 47 76 48 78 49 38 50 81 51 75 52
REMARK SMILES IDX 74 53 39 55 65 56 48 57 64 58 49 59 52 60 63 61 79 62 50 63
REMARK SMILES IDX 51 64 62 66 80 67 53 68 40 69 41 70 46 71 42 72 43 73 45 74
REMARK SMILES IDX 47 75 44 76 66 77 67 78 72 79 68 80 69 81 71 82 73 83 70 84
REMARK SMILES IDX 54 85 55 86 60 87 56 88 57 89 59 90 61 91 58 92
REMARK H PARENT 78 54 52 65
REMARK Flexibility Score: inf
ROOT
ATOM      1  C   UNL A   1      32.339  28.823  24.530  1.00  0.00     0.188 C 
ENDROOT
BRANCH   1   2
ATOM      2  C   UNL A   1      30.938  28.260  24.627  1.00  0.00     0.188 C 
BRANCH   2   3
ATOM      3  O   UNL A   1      30.632  26.874  24.801  1.00  0.00    -0.376 OA
BRANCH   3   4
ATOM      4  C   UNL A   1      30.683  26.027  25.954  1.00  0.00     0.202 C 
BRANCH   4   5
ATOM      5  C   UNL A   1      30.426  24.341  26.290  1.00  0.00     0.261 C 
BRANCH   5   6
ATOM      6  O   UNL A   1      31.432  22.927  26.565  1.00  0.00    -0.460 OA
BRANCH   6   7
ATOM      7  C   UNL A   1      32.550  22.451  27.304  1.00  0.00     0.338 C 
ATOM      8  O   UNL A   1      32.570  22.189  28.503  1.00  0.00    -0.246 OA
BRANCH   7   9
ATOM      9  C   UNL A   1      33.896  22.258  26.635  1.00  0.00     0.087 C 
ATOM     10  C   UNL A   1      33.053  19.738  23.944  1.00  0.00     0.012 A 
ATOM     11  C   UNL A   1      32.418  19.770  22.674  1.00  0.00     0.049 A 
ATOM     12  C   UNL A   1      33.377  20.974  24.577  1.00  0.00     0.027 A 
ATOM     13  Cl  UNL A   1      31.865  18.328  21.877  1.00  0.00    -0.084 Cl
ATOM     14  C   UNL A   1      32.159  20.976  22.025  1.00  0.00     0.025 A 
ATOM     15  C   UNL A   1      33.099  22.175  23.900  1.00  0.00     0.128 A 
ATOM     16  C   UNL A   1      33.896  21.060  25.990  1.00  0.00     0.028 C 
ATOM     17  C   UNL A   1      32.501  22.178  22.635  1.00  0.00     0.049 A 
ATOM     18  O   UNL A   1      33.332  23.409  24.452  1.00  0.00    -0.475 OA
ATOM     19  C   UNL A   1      34.157  23.422  25.645  1.00  0.00     0.316 C 
BRANCH  10  20
ATOM     20  C   UNL A   1      33.328  18.451  24.613  1.00  0.00    -0.013 A 
ATOM     21  C   UNL A   1      35.844  18.703  24.293  1.00  0.00     0.045 C 
ATOM     22  C   UNL A   1      34.633  17.933  24.729  1.00  0.00    -0.043 A 
ATOM     23  C   UNL A   1      34.829  16.655  25.278  1.00  0.00     0.004 A 
ATOM     24  C   UNL A   1      33.754  15.916  25.764  1.00  0.00     0.000 A 
ATOM     25  C   UNL A   1      32.260  17.700  25.136  1.00  0.00     0.009 A 
ATOM     26  C   UNL A   1      32.471  16.449  25.715  1.00  0.00     0.001 A 
ENDBRANCH  10  20
BRANCH  19  27
ATOM     27  C   UNL A   1      35.636  23.515  25.222  1.00  0.00     0.430 C 
ATOM     28  F   UNL A   1      36.243  22.303  25.269  1.00  0.00    -0.167 F 
ATOM     29  F   UNL A   1      35.746  23.955  23.945  1.00  0.00    -0.167 F 
ATOM     30  F   UNL A   1      36.365  24.353  25.995  1.00  0.00    -0.167 F 
ENDBRANCH  19  27
ENDBRANCH   7   9
ENDBRANCH   6   7
ENDBRANCH   5   6
ENDBRANCH   4   5
ENDBRANCH   3   4
ENDBRANCH   2   3
ENDBRANCH   1   2
BRANCH   1  31
ATOM     31  O   UNL A   1      33.286  27.784  24.631  1.00  0.00    -0.376 OA
BRANCH  31  32
ATOM     32  C   UNL A   1      33.913  27.718  25.901  1.00  0.00     0.202 C 
BRANCH  32  33
ATOM     33  C   UNL A   1      34.054  29.095  26.573  1.00  0.00     0.261 C 
BRANCH  33  34
ATOM     34  O   UNL A   1      35.243  29.133  27.392  1.00  0.00    -0.460 OA
BRANCH  34  35
ATOM     35  C   UNL A   1      35.430  30.248  28.170  1.00  0.00     0.338 C 
ATOM     36  O   UNL A   1      34.766  31.271  28.108  1.00  0.00    -0.246 OA
BRANCH  35  37
ATOM     37  C   UNL A   1      36.737  30.133  28.892  1.00  0.00     0.060 A 
ATOM     38  C   UNL A   1      37.920  30.779  28.542  1.00  0.00     0.016 A 
ATOM     39  C   UNL A   1      36.892  29.089  29.729  1.00  0.00     0.016 A 
ATOM     40  C   UNL A   1      39.232  30.182  28.788  1.00  0.00     0.010 A 
ATOM     41  C   UNL A   1      38.159  28.481  29.758  1.00  0.00     0.010 A 
ATOM     42  C   UNL A   1      39.432  28.865  29.242  1.00  0.00    -0.014 A 
BRANCH  42  43
ATOM     43  C   UNL A   1      40.894  27.960  28.918  1.00  0.00     0.031 A 
ATOM     44  C   UNL A   1      41.276  26.438  28.180  1.00  0.00     0.074 A 
ATOM     45  C   UNL A   1      42.066  28.637  29.151  1.00  0.00     0.049 A 
ATOM     46  N   UNL A   1      42.499  26.007  27.939  1.00  0.00    -0.248 NA
ATOM     47  C   UNL A   1      40.429  25.307  27.651  1.00  0.00     0.031 C 
ATOM     48  C   UNL A   1      43.470  28.257  28.906  1.00  0.00     0.029 A 
ATOM     49  N   UNL A   1      42.229  29.888  29.765  1.00  0.00    -0.354 N 
ATOM     50  C   UNL A   1      42.448  24.728  27.414  1.00  0.00     0.074 A 
ATOM     51  C   UNL A   1      41.180  24.603  26.813  1.00  0.00     0.031 C 
ATOM     52  C   UNL A   1      44.287  29.006  29.660  1.00  0.00     0.029 A 
ATOM     53  C   UNL A   1      43.453  29.875  30.445  1.00  0.00     0.049 A 
ATOM     54  H   UNL A   1      41.595  30.641  29.725  1.00  0.00     0.167 HD
ATOM     55  C   UNL A   1      43.189  23.667  27.838  1.00  0.00     0.037 A 
ATOM     56  C   UNL A   1      43.477  30.002  31.794  1.00  0.00     0.037 A 
ATOM     57  C   UNL A   1      44.118  24.070  28.861  1.00  0.00     0.049 A 
ATOM     58  C   UNL A   1      43.918  28.703  32.414  1.00  0.00     0.074 A 
ATOM     59  C   UNL A   1      45.389  24.596  28.771  1.00  0.00     0.029 A 
ATOM     60  N   UNL A   1      43.653  24.333  30.153  1.00  0.00    -0.354 N 
ATOM     61  N   UNL A   1      43.753  27.523  31.872  1.00  0.00    -0.248 NA
ATOM     62  C   UNL A   1      44.674  28.665  33.658  1.00  0.00     0.031 C 
ATOM     63  C   UNL A   1      45.679  25.223  30.005  1.00  0.00     0.029 A 
ATOM     64  C   UNL A   1      44.617  25.013  30.873  1.00  0.00     0.049 A 
ATOM     65  H   UNL A   1      42.768  24.073  30.499  1.00  0.00     0.167 HD
ATOM     66  C   UNL A   1      44.391  26.591  32.646  1.00  0.00     0.074 A 
ATOM     67  C   UNL A   1      44.940  27.353  33.755  1.00  0.00     0.031 C 
ATOM     68  C   UNL A   1      44.517  25.273  32.306  1.00  0.00     0.037 A 
BRANCH  55  69
ATOM     69  C   UNL A   1      43.039  22.278  27.236  1.00  0.00     0.057 A 
ATOM     70  C   UNL A   1      43.918  21.856  26.231  1.00  0.00     0.134 A 
ATOM     71  C   UNL A   1      41.990  21.366  27.508  1.00  0.00     0.134 A 
ATOM     72  F   UNL A   1      44.974  22.608  25.886  1.00  0.00    -0.206 F 
ATOM     73  C   UNL A   1      43.719  20.671  25.498  1.00  0.00     0.040 A 
ATOM     74  C   UNL A   1      41.760  20.197  26.766  1.00  0.00     0.040 A 
ATOM     75  F   UNL A   1      41.101  21.585  28.485  1.00  0.00    -0.206 F 
ATOM     76  C   UNL A   1      42.620  19.854  25.740  1.00  0.00     0.006 A 
ENDBRANCH  55  69
BRANCH  56  77
ATOM     77  C   UNL A   1      42.474  30.976  32.309  1.00  0.00     0.057 A 
ATOM     78  C   UNL A   1      42.825  32.348  32.292  1.00  0.00     0.134 A 
ATOM     79  C   UNL A   1      41.127  30.677  32.513  1.00  0.00     0.134 A 
ATOM     80  F   UNL A   1      44.102  32.718  32.095  1.00  0.00    -0.206 F 
ATOM     81  C   UNL A   1      41.874  33.368  32.347  1.00  0.00     0.040 A 
ATOM     82  C   UNL A   1      40.163  31.696  32.595  1.00  0.00     0.040 A 
ATOM     83  F   UNL A   1      40.698  29.408  32.506  1.00  0.00    -0.206 F 
ATOM     84  C   UNL A   1      40.533  33.041  32.487  1.00  0.00     0.006 A 
ENDBRANCH  56  77
BRANCH  68  85
ATOM     85  C   UNL A   1      44.886  24.170  33.278  1.00  0.00     0.057 A 
ATOM     86  C   UNL A   1      44.042  23.098  33.612  1.00  0.00     0.134 A 
ATOM     87  C   UNL A   1      46.177  24.095  33.848  1.00  0.00     0.134 A 
ATOM     88  F   UNL A   1      42.860  22.913  33.005  1.00  0.00    -0.206 F 
ATOM     89  C   UNL A   1      44.391  22.120  34.551  1.00  0.00     0.040 A 
ATOM     90  C   UNL A   1      46.556  23.095  34.747  1.00  0.00     0.040 A 
ATOM     91  F   UNL A   1      47.147  24.966  33.536  1.00  0.00    -0.206 F 
ATOM     92  C   UNL A   1      45.650  22.120  35.129  1.00  0.00     0.006 A 
ENDBRANCH  68  85
ENDBRANCH  42  43
ENDBRANCH  35  37
ENDBRANCH  34  35
ENDBRANCH  33  34
ENDBRANCH  32  33
ENDBRANCH  31  32
ENDBRANCH   1  31
TORSDOF 19
ENDMDL
