MODEL 1
REMARK VINA RESULT:     -10.5      0.000      0.000
REMARK SMILES O=C(OCCOCCOCCOC(=O)[C@H]1CC[C@@H]2CCCC[C@H]2[NH2+]1)c1ccc(-c2c3nc(c(-c4c(F)cccc4F)c4ccc([nH]4)c(-c4c(F)cccc4F)c4nc(c(-c5c(F)cccc5F)c5ccc2[nH]5)C=C4)C=C3)cc1
REMARK SMILES IDX 7 1 6 2 5 3 4 4 3 5 2 6 1 7 25 8 26 9 78 10 27 11 77 12
REMARK SMILES IDX 28 13 29 14 30 15 71 16 31 17 76 18 70 19 72 20 32 21 75 22
REMARK SMILES IDX 69 23 68 24 33 26 59 27 42 28 58 29 43 30 46 31 57 32 73 33
REMARK SMILES IDX 44 34 45 35 56 37 74 38 47 39 34 40 35 41 40 42 36 43 37 44
REMARK SMILES IDX 39 45 41 46 38 47 60 48 61 49 66 50 62 51 63 52 65 53 67 54
REMARK SMILES IDX 64 55 48 56 49 57 54 58 50 59 51 60 53 61 55 62 52 63 8 64
REMARK SMILES IDX 9 65 10 66 11 67 12 68 13 69 14 70 15 71 16 72 24 73 17 74
REMARK SMILES IDX 23 75 18 78 22 79 19 80 21 81 20 82
REMARK H PARENT 72 25 46 36 24 76 24 77
REMARK Flexibility Score: inf
ROOT
ATOM      1  C   UNL A   1      45.937  19.348  25.076  1.00  0.00     0.188 C 
ENDROOT
BRANCH   1   2
ATOM      2  O   UNL A   1      46.751  20.461  24.687  1.00  0.00    -0.376 OA
BRANCH   2   3
ATOM      3  C   UNL A   1      46.033  21.695  24.612  1.00  0.00     0.202 C 
BRANCH   3   4
ATOM      4  C   UNL A   1      45.408  22.155  25.938  1.00  0.00     0.261 C 
BRANCH   4   5
ATOM      5  O   UNL A   1      45.762  23.506  26.288  1.00  0.00    -0.460 OA
BRANCH   5   6
ATOM      6  C   UNL A   1      45.217  24.661  25.825  1.00  0.00     0.338 C 
ATOM      7  O   UNL A   1      45.416  24.986  24.657  1.00  0.00    -0.246 OA
BRANCH   6   8
ATOM      8  C   UNL A   1      44.322  25.525  26.650  1.00  0.00     0.060 A 
ATOM      9  C   UNL A   1      44.266  26.914  26.563  1.00  0.00     0.016 A 
ATOM     10  C   UNL A   1      43.457  24.890  27.555  1.00  0.00     0.016 A 
ATOM     11  C   UNL A   1      43.537  27.667  27.473  1.00  0.00     0.010 A 
ATOM     12  C   UNL A   1      42.644  25.642  28.413  1.00  0.00     0.010 A 
ATOM     13  C   UNL A   1      42.740  27.041  28.427  1.00  0.00    -0.014 A 
BRANCH  13  14
ATOM     14  C   UNL A   1      42.168  27.848  29.530  1.00  0.00     0.031 A 
ATOM     15  C   UNL A   1      42.870  27.844  30.860  1.00  0.00     0.074 A 
ATOM     16  C   UNL A   1      41.133  28.683  29.330  1.00  0.00     0.049 A 
ATOM     17  N   UNL A   1      42.524  28.418  31.983  1.00  0.00    -0.248 NA
ATOM     18  C   UNL A   1      44.151  27.123  30.923  1.00  0.00     0.031 C 
ATOM     19  C   UNL A   1      40.475  28.936  28.049  1.00  0.00     0.029 A 
ATOM     20  N   UNL A   1      40.461  29.493  30.210  1.00  0.00    -0.354 N 
ATOM     21  C   UNL A   1      43.542  28.126  32.881  1.00  0.00     0.074 A 
ATOM     22  C   UNL A   1      44.492  27.282  32.192  1.00  0.00     0.031 C 
ATOM     23  C   UNL A   1      39.478  29.815  28.234  1.00  0.00     0.029 A 
ATOM     24  C   UNL A   1      39.386  30.132  29.646  1.00  0.00     0.049 A 
ATOM     25  H   UNL A   1      40.724  29.605  31.152  1.00  0.00     0.167 HD
ATOM     26  C   UNL A   1      43.691  28.552  34.156  1.00  0.00     0.037 A 
ATOM     27  C   UNL A   1      38.405  30.859  30.203  1.00  0.00     0.037 A 
ATOM     28  C   UNL A   1      42.760  29.413  34.831  1.00  0.00     0.049 A 
ATOM     29  C   UNL A   1      38.473  31.155  31.664  1.00  0.00     0.074 A 
ATOM     30  C   UNL A   1      42.807  29.898  36.125  1.00  0.00     0.029 A 
ATOM     31  N   UNL A   1      41.604  29.923  34.254  1.00  0.00    -0.354 N 
ATOM     32  N   UNL A   1      39.393  30.806  32.528  1.00  0.00    -0.248 NA
ATOM     33  C   UNL A   1      37.386  31.970  32.219  1.00  0.00     0.031 C 
ATOM     34  C   UNL A   1      41.661  30.673  36.342  1.00  0.00     0.029 A 
ATOM     35  C   UNL A   1      40.922  30.703  35.170  1.00  0.00     0.049 A 
ATOM     36  H   UNL A   1      41.314  29.753  33.329  1.00  0.00     0.167 HD
ATOM     37  C   UNL A   1      39.027  31.402  33.723  1.00  0.00     0.074 A 
ATOM     38  C   UNL A   1      37.785  32.109  33.475  1.00  0.00     0.031 C 
ATOM     39  C   UNL A   1      39.685  31.392  34.907  1.00  0.00     0.037 A 
BRANCH  26  40
ATOM     40  C   UNL A   1      44.900  28.055  34.892  1.00  0.00     0.057 A 
ATOM     41  C   UNL A   1      44.880  26.870  35.640  1.00  0.00     0.134 A 
ATOM     42  C   UNL A   1      46.084  28.801  34.892  1.00  0.00     0.134 A 
ATOM     43  F   UNL A   1      43.764  26.127  35.706  1.00  0.00    -0.206 F 
ATOM     44  C   UNL A   1      45.986  26.460  36.386  1.00  0.00     0.040 A 
ATOM     45  C   UNL A   1      47.204  28.390  35.615  1.00  0.00     0.040 A 
ATOM     46  F   UNL A   1      46.166  29.949  34.203  1.00  0.00    -0.206 F 
ATOM     47  C   UNL A   1      47.154  27.220  36.373  1.00  0.00     0.006 A 
ENDBRANCH  26  40
BRANCH  27  48
ATOM     48  C   UNL A   1      37.253  31.298  29.385  1.00  0.00     0.057 A 
ATOM     49  C   UNL A   1      37.191  32.573  28.818  1.00  0.00     0.134 A 
ATOM     50  C   UNL A   1      36.183  30.426  29.150  1.00  0.00     0.134 A 
ATOM     51  F   UNL A   1      38.183  33.450  29.021  1.00  0.00    -0.206 F 
ATOM     52  C   UNL A   1      36.099  32.968  28.043  1.00  0.00     0.040 A 
ATOM     53  C   UNL A   1      35.088  30.808  28.374  1.00  0.00     0.040 A 
ATOM     54  F   UNL A   1      36.191  29.190  29.670  1.00  0.00    -0.206 F 
ATOM     55  C   UNL A   1      35.045  32.084  27.817  1.00  0.00     0.006 A 
ENDBRANCH  27  48
BRANCH  39  56
ATOM     56  C   UNL A   1      39.097  32.233  35.994  1.00  0.00     0.057 A 
ATOM     57  C   UNL A   1      39.455  33.573  36.172  1.00  0.00     0.134 A 
ATOM     58  C   UNL A   1      38.172  31.678  36.887  1.00  0.00     0.134 A 
ATOM     59  F   UNL A   1      40.356  34.150  35.362  1.00  0.00    -0.206 F 
ATOM     60  C   UNL A   1      38.933  34.328  37.222  1.00  0.00     0.040 A 
ATOM     61  C   UNL A   1      37.626  32.428  37.926  1.00  0.00     0.040 A 
ATOM     62  F   UNL A   1      37.793  30.396  36.767  1.00  0.00    -0.206 F 
ATOM     63  C   UNL A   1      38.013  33.756  38.100  1.00  0.00     0.006 A 
ENDBRANCH  39  56
ENDBRANCH  13  14
ENDBRANCH   6   8
ENDBRANCH   5   6
ENDBRANCH   4   5
ENDBRANCH   3   4
ENDBRANCH   2   3
ENDBRANCH   1   2
BRANCH   1  64
ATOM     64  C   UNL A   1      44.830  19.084  24.053  1.00  0.00     0.188 C 
BRANCH  64  65
ATOM     65  O   UNL A   1      43.680  18.400  24.553  1.00  0.00    -0.376 OA
BRANCH  65  66
ATOM     66  C   UNL A   1      43.313  18.657  25.905  1.00  0.00     0.202 C 
BRANCH  66  67
ATOM     67  C   UNL A   1      41.920  19.254  26.143  1.00  0.00     0.261 C 
BRANCH  67  68
ATOM     68  O   UNL A   1      41.795  20.658  25.854  1.00  0.00    -0.459 OA
BRANCH  68  69
ATOM     69  C   UNL A   1      41.471  21.435  26.925  1.00  0.00     0.364 C 
ATOM     70  O   UNL A   1      42.159  21.549  27.939  1.00  0.00    -0.245 OA
BRANCH  69  71
ATOM     71  C   UNL A   1      40.089  22.091  26.827  1.00  0.00     0.293 C 
ATOM     72  C   UNL A   1      40.066  23.616  26.937  1.00  0.00     0.078 C 
ATOM     73  N   UNL A   1      39.399  21.648  25.591  1.00  0.00    -0.332 N 
ATOM     74  C   UNL A   1      38.616  24.128  26.930  1.00  0.00     0.016 C 
ATOM     75  C   UNL A   1      37.981  22.030  25.664  1.00  0.00     0.186 C 
ATOM     76  H   UNL A   1      39.474  20.634  25.504  1.00  0.00     0.347 HD
ATOM     77  H   UNL A   1      39.832  22.090  24.781  1.00  0.00     0.347 HD
ATOM     78  C   UNL A   1      37.842  23.565  25.728  1.00  0.00     0.048 C 
ATOM     79  C   UNL A   1      37.231  21.444  24.468  1.00  0.00     0.065 C 
ATOM     80  C   UNL A   1      36.360  23.963  25.755  1.00  0.00     0.010 C 
ATOM     81  C   UNL A   1      35.769  21.877  24.453  1.00  0.00     0.006 C 
ATOM     82  C   UNL A   1      35.614  23.392  24.549  1.00  0.00     0.001 C 
ENDBRANCH  69  71
ENDBRANCH  68  69
ENDBRANCH  67  68
ENDBRANCH  66  67
ENDBRANCH  65  66
ENDBRANCH  64  65
ENDBRANCH   1  64
TORSDOF 17
ENDMDL
MODEL 2
REMARK VINA RESULT:     -10.3      2.164      7.319
REMARK SMILES O=C(OCCOCCOCCOC(=O)[C@H]1CC[C@@H]2CCCC[C@H]2[NH2+]1)c1ccc(-c2c3nc(c(-c4c(F)cccc4F)c4ccc([nH]4)c(-c4c(F)cccc4F)c4nc(c(-c5c(F)cccc5F)c5ccc2[nH]5)C=C4)C=C3)cc1
REMARK SMILES IDX 7 1 6 2 5 3 4 4 3 5 2 6 1 7 25 8 26 9 78 10 27 11 77 12
REMARK SMILES IDX 28 13 29 14 30 15 71 16 31 17 76 18 70 19 72 20 32 21 75 22
REMARK SMILES IDX 69 23 68 24 33 26 59 27 42 28 58 29 43 30 46 31 57 32 73 33
REMARK SMILES IDX 44 34 45 35 56 37 74 38 47 39 34 40 35 41 40 42 36 43 37 44
REMARK SMILES IDX 39 45 41 46 38 47 60 48 61 49 66 50 62 51 63 52 65 53 67 54
REMARK SMILES IDX 64 55 48 56 49 57 54 58 50 59 51 60 53 61 55 62 52 63 8 64
REMARK SMILES IDX 9 65 10 66 11 67 12 68 13 69 14 70 15 71 16 72 24 73 17 74
REMARK SMILES IDX 23 75 18 78 22 79 19 80 21 81 20 82
REMARK H PARENT 72 25 46 36 24 76 24 77
REMARK Flexibility Score: inf
ROOT
ATOM      1  C   UNL A   1      42.001  18.885  26.014  1.00  0.00     0.188 C 
ENDROOT
BRANCH   1   2
ATOM      2  O   UNL A   1      41.187  19.647  26.914  1.00  0.00    -0.376 OA
BRANCH   2   3
ATOM      3  C   UNL A   1      41.710  20.948  27.195  1.00  0.00     0.202 C 
BRANCH   3   4
ATOM      4  C   UNL A   1      41.244  22.049  26.230  1.00  0.00     0.261 C 
BRANCH   4   5
ATOM      5  O   UNL A   1      40.982  23.301  26.890  1.00  0.00    -0.460 OA
BRANCH   5   6
ATOM      6  C   UNL A   1      41.674  24.465  26.783  1.00  0.00     0.338 C 
ATOM      7  O   UNL A   1      42.560  24.555  25.936  1.00  0.00    -0.246 OA
BRANCH   6   8
ATOM      8  C   UNL A   1      41.360  25.675  27.600  1.00  0.00     0.060 A 
ATOM      9  C   UNL A   1      42.158  26.815  27.660  1.00  0.00     0.016 A 
ATOM     10  C   UNL A   1      40.164  25.673  28.334  1.00  0.00     0.016 A 
ATOM     11  C   UNL A   1      41.897  27.834  28.567  1.00  0.00     0.010 A 
ATOM     12  C   UNL A   1      39.843  26.742  29.180  1.00  0.00     0.010 A 
ATOM     13  C   UNL A   1      40.752  27.795  29.358  1.00  0.00    -0.014 A 
BRANCH  13  14
ATOM     14  C   UNL A   1      40.618  28.757  30.477  1.00  0.00     0.031 A 
ATOM     15  C   UNL A   1      39.577  29.837  30.373  1.00  0.00     0.074 A 
ATOM     16  C   UNL A   1      41.298  28.601  31.627  1.00  0.00     0.049 A 
ATOM     17  N   UNL A   1      39.319  30.824  31.192  1.00  0.00    -0.248 NA
ATOM     18  C   UNL A   1      38.684  29.777  29.204  1.00  0.00     0.031 C 
ATOM     19  C   UNL A   1      42.199  27.493  31.943  1.00  0.00     0.029 A 
ATOM     20  N   UNL A   1      41.322  29.378  32.758  1.00  0.00    -0.354 N 
ATOM     21  C   UNL A   1      38.239  31.498  30.637  1.00  0.00     0.074 A 
ATOM     22  C   UNL A   1      37.921  30.843  29.388  1.00  0.00     0.031 C 
ATOM     23  C   UNL A   1      42.706  27.678  33.171  1.00  0.00     0.029 A 
ATOM     24  C   UNL A   1      42.223  28.941  33.695  1.00  0.00     0.049 A 
ATOM     25  H   UNL A   1      40.751  30.169  32.883  1.00  0.00     0.167 HD
ATOM     26  C   UNL A   1      37.550  32.547  31.140  1.00  0.00     0.037 A 
ATOM     27  C   UNL A   1      42.652  29.510  34.833  1.00  0.00     0.037 A 
ATOM     28  C   UNL A   1      37.851  33.180  32.394  1.00  0.00     0.049 A 
ATOM     29  C   UNL A   1      42.021  30.786  35.279  1.00  0.00     0.074 A 
ATOM     30  C   UNL A   1      37.223  34.256  32.995  1.00  0.00     0.029 A 
ATOM     31  N   UNL A   1      38.872  32.783  33.247  1.00  0.00    -0.354 N 
ATOM     32  N   UNL A   1      41.058  31.466  34.709  1.00  0.00    -0.248 NA
ATOM     33  C   UNL A   1      42.512  31.355  36.539  1.00  0.00     0.031 C 
ATOM     34  C   UNL A   1      37.889  34.533  34.196  1.00  0.00     0.029 A 
ATOM     35  C   UNL A   1      38.904  33.604  34.361  1.00  0.00     0.049 A 
ATOM     36  H   UNL A   1      39.483  32.030  33.083  1.00  0.00     0.167 HD
ATOM     37  C   UNL A   1      40.787  32.520  35.565  1.00  0.00     0.074 A 
ATOM     38  C   UNL A   1      41.710  32.402  36.678  1.00  0.00     0.031 C 
ATOM     39  C   UNL A   1      39.834  33.476  35.453  1.00  0.00     0.037 A 
BRANCH  26  40
ATOM     40  C   UNL A   1      36.427  33.077  30.299  1.00  0.00     0.057 A 
ATOM     41  C   UNL A   1      35.089  32.747  30.553  1.00  0.00     0.134 A 
ATOM     42  C   UNL A   1      36.695  33.888  29.190  1.00  0.00     0.134 A 
ATOM     43  F   UNL A   1      34.769  31.947  31.582  1.00  0.00    -0.206 F 
ATOM     44  C   UNL A   1      34.059  33.181  29.715  1.00  0.00     0.040 A 
ATOM     45  C   UNL A   1      35.673  34.346  28.359  1.00  0.00     0.040 A 
ATOM     46  F   UNL A   1      37.955  34.232  28.888  1.00  0.00    -0.206 F 
ATOM     47  C   UNL A   1      34.351  33.985  28.615  1.00  0.00     0.006 A 
ENDBRANCH  26  40
BRANCH  27  48
ATOM     48  C   UNL A   1      43.773  28.905  35.587  1.00  0.00     0.057 A 
ATOM     49  C   UNL A   1      45.101  29.268  35.355  1.00  0.00     0.134 A 
ATOM     50  C   UNL A   1      43.520  27.944  36.573  1.00  0.00     0.134 A 
ATOM     51  F   UNL A   1      45.399  30.175  34.415  1.00  0.00    -0.206 F 
ATOM     52  C   UNL A   1      46.146  28.692  36.080  1.00  0.00     0.040 A 
ATOM     53  C   UNL A   1      44.555  27.363  37.307  1.00  0.00     0.040 A 
ATOM     54  F   UNL A   1      42.263  27.559  36.836  1.00  0.00    -0.206 F 
ATOM     55  C   UNL A   1      45.874  27.739  37.061  1.00  0.00     0.006 A 
ENDBRANCH  27  48
BRANCH  39  56
ATOM     56  C   UNL A   1      39.707  34.417  36.606  1.00  0.00     0.057 A 
ATOM     57  C   UNL A   1      40.307  35.681  36.603  1.00  0.00     0.134 A 
ATOM     58  C   UNL A   1      38.987  34.037  37.745  1.00  0.00     0.134 A 
ATOM     59  F   UNL A   1      41.030  36.088  35.549  1.00  0.00    -0.206 F 
ATOM     60  C   UNL A   1      40.218  36.526  37.708  1.00  0.00     0.040 A 
ATOM     61  C   UNL A   1      38.872  34.882  38.847  1.00  0.00     0.040 A 
ATOM     62  F   UNL A   1      38.393  32.836  37.807  1.00  0.00    -0.206 F 
ATOM     63  C   UNL A   1      39.497  36.128  38.833  1.00  0.00     0.006 A 
ENDBRANCH  39  56
ENDBRANCH  13  14
ENDBRANCH   6   8
ENDBRANCH   5   6
ENDBRANCH   4   5
ENDBRANCH   3   4
ENDBRANCH   2   3
ENDBRANCH   1   2
BRANCH   1  64
ATOM     64  C   UNL A   1      43.059  18.077  26.769  1.00  0.00     0.188 C 
BRANCH  64  65
ATOM     65  O   UNL A   1      44.281  17.856  26.065  1.00  0.00    -0.376 OA
BRANCH  65  66
ATOM     66  C   UNL A   1      44.735  18.904  25.214  1.00  0.00     0.202 C 
BRANCH  66  67
ATOM     67  C   UNL A   1      46.134  19.466  25.494  1.00  0.00     0.261 C 
BRANCH  67  68
ATOM     68  O   UNL A   1      46.460  20.682  24.796  1.00  0.00    -0.459 OA
BRANCH  68  69
ATOM     69  C   UNL A   1      45.529  21.669  24.903  1.00  0.00     0.364 C 
ATOM     70  O   UNL A   1      44.607  21.850  24.107  1.00  0.00    -0.245 OA
BRANCH  69  71
ATOM     71  C   UNL A   1      45.781  22.645  26.059  1.00  0.00     0.293 C 
ATOM     72  C   UNL A   1      46.104  24.085  25.657  1.00  0.00     0.078 C 
ATOM     73  N   UNL A   1      44.646  22.613  27.012  1.00  0.00    -0.332 N 
ATOM     74  C   UNL A   1      46.438  24.922  26.902  1.00  0.00     0.016 C 
ATOM     75  C   UNL A   1      45.033  23.306  28.250  1.00  0.00     0.186 C 
ATOM     76  H   UNL A   1      44.406  21.645  27.225  1.00  0.00     0.347 HD
ATOM     77  H   UNL A   1      43.839  23.079  26.598  1.00  0.00     0.347 HD
ATOM     78  C   UNL A   1      45.335  24.790  27.963  1.00  0.00     0.048 C 
ATOM     79  C   UNL A   1      43.928  23.144  29.294  1.00  0.00     0.065 C 
ATOM     80  C   UNL A   1      45.692  25.521  29.265  1.00  0.00     0.010 C 
ATOM     81  C   UNL A   1      44.245  23.912  30.573  1.00  0.00     0.006 C 
ATOM     82  C   UNL A   1      44.578  25.376  30.302  1.00  0.00     0.001 C 
ENDBRANCH  69  71
ENDBRANCH  68  69
ENDBRANCH  67  68
ENDBRANCH  66  67
ENDBRANCH  65  66
ENDBRANCH  64  65
ENDBRANCH   1  64
TORSDOF 17
ENDMDL
MODEL 3
REMARK VINA RESULT:     -10.1      2.292      3.847
REMARK SMILES O=C(OCCOCCOCCOC(=O)[C@H]1CC[C@@H]2CCCC[C@H]2[NH2+]1)c1ccc(-c2c3nc(c(-c4c(F)cccc4F)c4ccc([nH]4)c(-c4c(F)cccc4F)c4nc(c(-c5c(F)cccc5F)c5ccc2[nH]5)C=C4)C=C3)cc1
REMARK SMILES IDX 7 1 6 2 5 3 4 4 3 5 2 6 1 7 25 8 26 9 78 10 27 11 77 12
REMARK SMILES IDX 28 13 29 14 30 15 71 16 31 17 76 18 70 19 72 20 32 21 75 22
REMARK SMILES IDX 69 23 68 24 33 26 59 27 42 28 58 29 43 30 46 31 57 32 73 33
REMARK SMILES IDX 44 34 45 35 56 37 74 38 47 39 34 40 35 41 40 42 36 43 37 44
REMARK SMILES IDX 39 45 41 46 38 47 60 48 61 49 66 50 62 51 63 52 65 53 67 54
REMARK SMILES IDX 64 55 48 56 49 57 54 58 50 59 51 60 53 61 55 62 52 63 8 64
REMARK SMILES IDX 9 65 10 66 11 67 12 68 13 69 14 70 15 71 16 72 24 73 17 74
REMARK SMILES IDX 23 75 18 78 22 79 19 80 21 81 20 82
REMARK H PARENT 72 25 46 36 24 76 24 77
REMARK Flexibility Score: inf
ROOT
ATOM      1  C   UNL A   1      40.353  21.540  26.776  1.00  0.00     0.188 C 
ENDROOT
BRANCH   1   2
ATOM      2  O   UNL A   1      41.259  20.941  25.842  1.00  0.00    -0.376 OA
BRANCH   2   3
ATOM      3  C   UNL A   1      42.615  20.915  26.297  1.00  0.00     0.202 C 
BRANCH   3   4
ATOM      4  C   UNL A   1      43.636  21.493  25.305  1.00  0.00     0.261 C 
BRANCH   4   5
ATOM      5  O   UNL A   1      43.229  22.757  24.752  1.00  0.00    -0.460 OA
BRANCH   5   6
ATOM      6  C   UNL A   1      43.754  23.986  24.994  1.00  0.00     0.338 C 
ATOM      7  O   UNL A   1      44.803  24.305  24.438  1.00  0.00    -0.246 OA
BRANCH   6   8
ATOM      8  C   UNL A   1      43.077  25.005  25.850  1.00  0.00     0.060 A 
ATOM      9  C   UNL A   1      43.471  26.337  25.952  1.00  0.00     0.016 A 
ATOM     10  C   UNL A   1      41.949  24.598  26.579  1.00  0.00     0.016 A 
ATOM     11  C   UNL A   1      42.905  27.189  26.891  1.00  0.00     0.010 A 
ATOM     12  C   UNL A   1      41.310  25.480  27.460  1.00  0.00     0.010 A 
ATOM     13  C   UNL A   1      41.837  26.761  27.676  1.00  0.00    -0.014 A 
BRANCH  13  14
ATOM     14  C   UNL A   1      41.412  27.592  28.827  1.00  0.00     0.031 A 
ATOM     15  C   UNL A   1      42.199  27.505  30.105  1.00  0.00     0.074 A 
ATOM     16  C   UNL A   1      40.439  28.514  28.710  1.00  0.00     0.049 A 
ATOM     17  N   UNL A   1      41.980  28.085  31.257  1.00  0.00    -0.248 NA
ATOM     18  C   UNL A   1      43.417  26.679  30.069  1.00  0.00     0.031 C 
ATOM     19  C   UNL A   1      39.718  28.844  27.481  1.00  0.00     0.029 A 
ATOM     20  N   UNL A   1      39.899  29.360  29.645  1.00  0.00    -0.354 N 
ATOM     21  C   UNL A   1      43.029  27.692  32.077  1.00  0.00     0.074 A 
ATOM     22  C   UNL A   1      43.856  26.786  31.313  1.00  0.00     0.031 C 
ATOM     23  C   UNL A   1      38.814  29.799  27.746  1.00  0.00     0.029 A 
ATOM     24  C   UNL A   1      38.846  30.097  29.165  1.00  0.00     0.049 A 
ATOM     25  H   UNL A   1      40.234  29.431  30.568  1.00  0.00     0.167 HD
ATOM     26  C   UNL A   1      43.300  28.080  33.345  1.00  0.00     0.037 A 
ATOM     27  C   UNL A   1      37.969  30.891  29.799  1.00  0.00     0.037 A 
ATOM     28  C   UNL A   1      42.492  29.002  34.094  1.00  0.00     0.049 A 
ATOM     29  C   UNL A   1      38.161  31.153  31.255  1.00  0.00     0.074 A 
ATOM     30  C   UNL A   1      42.668  29.458  35.387  1.00  0.00     0.029 A 
ATOM     31  N   UNL A   1      41.347  29.617  33.605  1.00  0.00    -0.354 N 
ATOM     32  N   UNL A   1      39.105  30.713  32.049  1.00  0.00    -0.248 NA
ATOM     33  C   UNL A   1      37.187  32.045  31.895  1.00  0.00     0.031 C 
ATOM     34  C   UNL A   1      41.609  30.321  35.694  1.00  0.00     0.029 A 
ATOM     35  C   UNL A   1      40.796  30.433  34.577  1.00  0.00     0.049 A 
ATOM     36  H   UNL A   1      40.981  29.490  32.700  1.00  0.00     0.167 HD
ATOM     37  C   UNL A   1      38.873  31.314  33.274  1.00  0.00     0.074 A 
ATOM     38  C   UNL A   1      37.680  32.127  33.123  1.00  0.00     0.031 C 
ATOM     39  C   UNL A   1      39.607  31.227  34.410  1.00  0.00     0.037 A 
BRANCH  26  40
ATOM     40  C   UNL A   1      44.510  27.471  33.988  1.00  0.00     0.057 A 
ATOM     41  C   UNL A   1      45.777  28.062  33.899  1.00  0.00     0.134 A 
ATOM     42  C   UNL A   1      44.411  26.250  34.664  1.00  0.00     0.134 A 
ATOM     43  F   UNL A   1      45.943  29.218  33.236  1.00  0.00    -0.206 F 
ATOM     44  C   UNL A   1      46.909  27.445  34.433  1.00  0.00     0.040 A 
ATOM     45  C   UNL A   1      45.532  25.633  35.223  1.00  0.00     0.040 A 
ATOM     46  F   UNL A   1      43.229  25.627  34.778  1.00  0.00    -0.206 F 
ATOM     47  C   UNL A   1      46.787  26.226  35.100  1.00  0.00     0.006 A 
ENDBRANCH  26  40
BRANCH  27  48
ATOM     48  C   UNL A   1      36.805  31.440  29.069  1.00  0.00     0.057 A 
ATOM     49  C   UNL A   1      35.693  30.656  28.753  1.00  0.00     0.134 A 
ATOM     50  C   UNL A   1      36.788  32.784  28.678  1.00  0.00     0.134 A 
ATOM     51  F   UNL A   1      35.663  29.360  29.094  1.00  0.00    -0.206 F 
ATOM     52  C   UNL A   1      34.600  31.191  28.069  1.00  0.00     0.040 A 
ATOM     53  C   UNL A   1      35.700  33.332  27.997  1.00  0.00     0.040 A 
ATOM     54  F   UNL A   1      37.829  33.582  28.956  1.00  0.00    -0.206 F 
ATOM     55  C   UNL A   1      34.600  32.534  27.692  1.00  0.00     0.006 A 
ENDBRANCH  27  48
BRANCH  39  56
ATOM     56  C   UNL A   1      39.167  32.093  35.545  1.00  0.00     0.057 A 
ATOM     57  C   UNL A   1      39.558  33.432  35.653  1.00  0.00     0.134 A 
ATOM     58  C   UNL A   1      38.355  31.565  36.556  1.00  0.00     0.134 A 
ATOM     59  F   UNL A   1      40.357  33.984  34.727  1.00  0.00    -0.206 F 
ATOM     60  C   UNL A   1      39.178  34.211  36.746  1.00  0.00     0.040 A 
ATOM     61  C   UNL A   1      37.949  32.339  37.641  1.00  0.00     0.040 A 
ATOM     62  F   UNL A   1      37.951  30.286  36.507  1.00  0.00    -0.206 F 
ATOM     63  C   UNL A   1      38.369  33.664  37.742  1.00  0.00     0.006 A 
ENDBRANCH  39  56
ENDBRANCH  13  14
ENDBRANCH   6   8
ENDBRANCH   5   6
ENDBRANCH   4   5
ENDBRANCH   3   4
ENDBRANCH   2   3
ENDBRANCH   1   2
BRANCH   1  64
ATOM     64  C   UNL A   1      39.027  21.908  26.107  1.00  0.00     0.188 C 
BRANCH  64  65
ATOM     65  O   UNL A   1      38.647  23.281  26.208  1.00  0.00    -0.376 OA
BRANCH  65  66
ATOM     66  C   UNL A   1      37.303  23.606  25.870  1.00  0.00     0.202 C 
BRANCH  66  67
ATOM     67  C   UNL A   1      36.392  22.443  25.457  1.00  0.00     0.261 C 
BRANCH  67  68
ATOM     68  O   UNL A   1      35.422  22.753  24.440  1.00  0.00    -0.459 OA
BRANCH  68  69
ATOM     69  C   UNL A   1      34.147  22.376  24.733  1.00  0.00     0.364 C 
ATOM     70  O   UNL A   1      33.740  21.214  24.716  1.00  0.00    -0.245 OA
BRANCH  69  71
ATOM     71  C   UNL A   1      33.189  23.548  24.984  1.00  0.00     0.293 C 
ATOM     72  C   UNL A   1      31.925  23.217  25.778  1.00  0.00     0.078 C 
ATOM     73  N   UNL A   1      33.917  24.677  25.612  1.00  0.00    -0.332 N 
ATOM     74  C   UNL A   1      31.012  24.450  25.862  1.00  0.00     0.016 C 
ATOM     75  C   UNL A   1      33.077  25.882  25.563  1.00  0.00     0.186 C 
ATOM     76  H   UNL A   1      34.786  24.846  25.106  1.00  0.00     0.347 HD
ATOM     77  H   UNL A   1      34.131  24.448  26.583  1.00  0.00     0.347 HD
ATOM     78  C   UNL A   1      31.787  25.672  26.380  1.00  0.00     0.048 C 
ATOM     79  C   UNL A   1      33.876  27.084  26.066  1.00  0.00     0.065 C 
ATOM     80  C   UNL A   1      30.935  26.948  26.367  1.00  0.00     0.010 C 
ATOM     81  C   UNL A   1      33.025  28.348  26.109  1.00  0.00     0.006 C 
ATOM     82  C   UNL A   1      31.728  28.146  26.888  1.00  0.00     0.001 C 
ENDBRANCH  69  71
ENDBRANCH  68  69
ENDBRANCH  67  68
ENDBRANCH  66  67
ENDBRANCH  65  66
ENDBRANCH  64  65
ENDBRANCH   1  64
TORSDOF 17
ENDMDL
