MODEL 1
REMARK VINA RESULT:     -11.4      0.000      0.000
REMARK SMILES CC(=O)c1cccc(-c2ccc(C(=O)OCCOCCOCCOC(=O)c3ccc(-c4c5nc(c(-c6c(F)cccc6F)c6ccc([nH]6)c(-c6c(F)cccc6F)c6nc(c(-c7c(F)cccc7F)c7ccc4[nH]7)C=C6)C=C5)cc3)cc2F)c1
REMARK SMILES IDX 19 1 18 2 17 3 16 4 15 5 13 6 14 7 12 8 9 9 10 10 82 11
REMARK SMILES IDX 11 12 81 13 83 14 8 15 4 16 5 17 84 18 6 19 7 20 2 21 1 22
REMARK SMILES IDX 3 23 20 24 21 25 22 26 23 27 24 28 25 29 26 30 27 31 28 32
REMARK SMILES IDX 80 33 29 34 79 35 30 36 31 37 32 38 73 39 33 40 78 41 72 42
REMARK SMILES IDX 74 43 34 44 77 45 71 46 70 47 35 49 61 50 44 51 60 52 45 53
REMARK SMILES IDX 48 54 59 55 75 56 46 57 47 58 58 60 76 61 49 62 36 63 37 64
REMARK SMILES IDX 42 65 38 66 39 67 41 68 43 69 40 70 62 71 63 72 68 73 64 74
REMARK SMILES IDX 65 75 67 76 69 77 66 78 50 79 51 80 56 81 52 82 53 83 55 84
REMARK SMILES IDX 57 85 54 86
REMARK H PARENT 74 48 48 59
REMARK Flexibility Score: inf
ROOT
ATOM      1  C   UNL A   1      32.836  36.765  31.550  1.00  0.00     0.188 C 
ENDROOT
BRANCH   1   2
ATOM      2  O   UNL A   1      32.942  36.730  30.129  1.00  0.00    -0.376 OA
BRANCH   2   3
ATOM      3  C   UNL A   1      32.956  35.483  29.444  1.00  0.00     0.202 C 
BRANCH   3   4
ATOM      4  C   UNL A   1      34.237  34.639  29.457  1.00  0.00     0.261 C 
BRANCH   4   5
ATOM      5  O   UNL A   1      34.047  33.266  29.079  1.00  0.00    -0.460 OA
BRANCH   5   6
ATOM      6  C   UNL A   1      34.867  32.818  28.098  1.00  0.00     0.338 C 
ATOM      7  O   UNL A   1      35.907  33.327  27.716  1.00  0.00    -0.246 OA
BRANCH   6   8
ATOM      8  C   UNL A   1      34.421  31.489  27.625  1.00  0.00     0.063 A 
ATOM      9  C   UNL A   1      33.742  28.969  26.572  1.00  0.00     0.018 A 
ATOM     10  C   UNL A   1      35.040  29.215  27.042  1.00  0.00     0.012 A 
ATOM     11  C   UNL A   1      32.784  29.991  26.713  1.00  0.00     0.131 A 
ATOM     12  C   UNL A   1      35.380  30.470  27.552  1.00  0.00     0.016 A 
ATOM     13  C   UNL A   1      33.105  31.241  27.239  1.00  0.00     0.055 A 
ATOM     14  F   UNL A   1      31.526  29.791  26.290  1.00  0.00    -0.206 F 
BRANCH   9  15
ATOM     15  C   UNL A   1      33.440  27.736  25.831  1.00  0.00    -0.015 A 
ATOM     16  C   UNL A   1      33.287  26.593  23.676  1.00  0.00     0.018 A 
ATOM     17  C   UNL A   1      32.942  25.407  24.330  1.00  0.00     0.012 A 
ATOM     18  C   UNL A   1      33.528  27.746  24.427  1.00  0.00     0.020 A 
ATOM     19  C   UNL A   1      32.865  25.374  25.725  1.00  0.00     0.001 A 
ATOM     20  C   UNL A   1      33.116  26.530  26.470  1.00  0.00     0.009 A 
BRANCH  16  21
ATOM     21  C   UNL A   1      33.396  26.594  22.190  1.00  0.00     0.159 C 
ATOM     22  C   UNL A   1      32.656  25.535  21.411  1.00  0.00     0.093 C 
ATOM     23  O   UNL A   1      34.038  27.476  21.627  1.00  0.00    -0.295 OA
ENDBRANCH  16  21
ENDBRANCH   9  15
ENDBRANCH   6   8
ENDBRANCH   5   6
ENDBRANCH   4   5
ENDBRANCH   3   4
ENDBRANCH   2   3
ENDBRANCH   1   2
BRANCH   1  24
ATOM     24  C   UNL A   1      33.850  37.574  32.385  1.00  0.00     0.188 C 
BRANCH  24  25
ATOM     25  O   UNL A   1      34.319  36.887  33.522  1.00  0.00    -0.376 OA
BRANCH  25  26
ATOM     26  C   UNL A   1      34.649  35.514  33.409  1.00  0.00     0.202 C 
BRANCH  26  27
ATOM     27  C   UNL A   1      35.986  35.039  32.807  1.00  0.00     0.261 C 
BRANCH  27  28
ATOM     28  O   UNL A   1      36.004  33.766  32.150  1.00  0.00    -0.460 OA
BRANCH  28  29
ATOM     29  C   UNL A   1      36.329  32.692  32.903  1.00  0.00     0.338 C 
ATOM     30  O   UNL A   1      35.839  32.358  33.963  1.00  0.00    -0.246 OA
BRANCH  29  31
ATOM     31  C   UNL A   1      37.292  31.871  32.137  1.00  0.00     0.060 A 
ATOM     32  C   UNL A   1      38.332  31.237  32.827  1.00  0.00     0.016 A 
ATOM     33  C   UNL A   1      37.185  31.752  30.748  1.00  0.00     0.016 A 
ATOM     34  C   UNL A   1      39.295  30.514  32.122  1.00  0.00     0.010 A 
ATOM     35  C   UNL A   1      38.161  31.039  30.042  1.00  0.00     0.010 A 
ATOM     36  C   UNL A   1      39.239  30.448  30.722  1.00  0.00    -0.014 A 
BRANCH  36  37
ATOM     37  C   UNL A   1      40.406  29.930  29.965  1.00  0.00     0.031 A 
ATOM     38  C   UNL A   1      41.559  30.860  29.701  1.00  0.00     0.074 A 
ATOM     39  C   UNL A   1      40.459  28.656  29.542  1.00  0.00     0.049 A 
ATOM     40  N   UNL A   1      42.677  30.639  29.060  1.00  0.00    -0.248 NA
ATOM     41  C   UNL A   1      41.430  32.225  30.237  1.00  0.00     0.031 C 
ATOM     42  C   UNL A   1      39.427  27.645  29.763  1.00  0.00     0.029 A 
ATOM     43  N   UNL A   1      41.431  27.996  28.831  1.00  0.00    -0.354 N 
ATOM     44  C   UNL A   1      43.384  31.834  29.112  1.00  0.00     0.074 A 
ATOM     45  C   UNL A   1      42.554  32.787  29.819  1.00  0.00     0.031 C 
ATOM     46  C   UNL A   1      39.820  26.491  29.195  1.00  0.00     0.029 A 
ATOM     47  C   UNL A   1      41.117  26.690  28.549  1.00  0.00     0.049 A 
ATOM     48  H   UNL A   1      42.274  28.420  28.551  1.00  0.00     0.167 HD
ATOM     49  C   UNL A   1      44.614  32.114  28.624  1.00  0.00     0.037 A 
ATOM     50  C   UNL A   1      41.794  25.769  27.837  1.00  0.00     0.037 A 
ATOM     51  C   UNL A   1      45.438  31.174  27.912  1.00  0.00     0.049 A 
ATOM     52  C   UNL A   1      43.127  26.128  27.232  1.00  0.00     0.074 A 
ATOM     53  C   UNL A   1      46.707  31.357  27.392  1.00  0.00     0.029 A 
ATOM     54  N   UNL A   1      45.065  29.873  27.609  1.00  0.00    -0.354 N 
ATOM     55  N   UNL A   1      43.801  27.249  27.317  1.00  0.00    -0.248 NA
ATOM     56  C   UNL A   1      43.793  25.089  26.432  1.00  0.00     0.031 C 
ATOM     57  C   UNL A   1      47.083  30.182  26.732  1.00  0.00     0.029 A 
ATOM     58  C   UNL A   1      46.070  29.250  26.887  1.00  0.00     0.049 A 
ATOM     59  H   UNL A   1      44.213  29.454  27.869  1.00  0.00     0.167 HD
ATOM     60  C   UNL A   1      44.983  27.038  26.615  1.00  0.00     0.074 A 
ATOM     61  C   UNL A   1      44.936  25.680  26.117  1.00  0.00     0.031 C 
ATOM     62  C   UNL A   1      46.016  27.893  26.406  1.00  0.00     0.037 A 
BRANCH  49  63
ATOM     63  C   UNL A   1      45.129  33.509  28.822  1.00  0.00     0.057 A 
ATOM     64  C   UNL A   1      45.918  33.858  29.927  1.00  0.00     0.134 A 
ATOM     65  C   UNL A   1      44.835  34.517  27.895  1.00  0.00     0.134 A 
ATOM     66  F   UNL A   1      46.221  32.944  30.861  1.00  0.00    -0.206 F 
ATOM     67  C   UNL A   1      46.374  35.164  30.115  1.00  0.00     0.040 A 
ATOM     68  C   UNL A   1      45.308  35.820  28.058  1.00  0.00     0.040 A 
ATOM     69  F   UNL A   1      44.086  34.250  26.815  1.00  0.00    -0.206 F 
ATOM     70  C   UNL A   1      46.072  36.148  29.176  1.00  0.00     0.006 A 
ENDBRANCH  49  63
BRANCH  50  71
ATOM     71  C   UNL A   1      41.232  24.407  27.651  1.00  0.00     0.057 A 
ATOM     72  C   UNL A   1      41.729  23.314  28.371  1.00  0.00     0.134 A 
ATOM     73  C   UNL A   1      40.211  24.158  26.726  1.00  0.00     0.134 A 
ATOM     74  F   UNL A   1      42.726  23.486  29.253  1.00  0.00    -0.206 F 
ATOM     75  C   UNL A   1      41.243  22.022  28.169  1.00  0.00     0.040 A 
ATOM     76  C   UNL A   1      39.699  22.874  26.530  1.00  0.00     0.040 A 
ATOM     77  F   UNL A   1      39.694  25.161  26.001  1.00  0.00    -0.206 F 
ATOM     78  C   UNL A   1      40.221  21.800  27.248  1.00  0.00     0.006 A 
ENDBRANCH  50  71
BRANCH  62  79
ATOM     79  C   UNL A   1      47.201  27.369  25.647  1.00  0.00     0.057 A 
ATOM     80  C   UNL A   1      47.341  27.555  24.267  1.00  0.00     0.134 A 
ATOM     81  C   UNL A   1      48.235  26.701  26.317  1.00  0.00     0.134 A 
ATOM     82  F   UNL A   1      46.382  28.176  23.564  1.00  0.00    -0.206 F 
ATOM     83  C   UNL A   1      48.455  27.074  23.575  1.00  0.00     0.040 A 
ATOM     84  C   UNL A   1      49.365  26.240  25.642  1.00  0.00     0.040 A 
ATOM     85  F   UNL A   1      48.169  26.499  27.642  1.00  0.00    -0.206 F 
ATOM     86  C   UNL A   1      49.474  26.420  24.265  1.00  0.00     0.006 A 
ENDBRANCH  62  79
ENDBRANCH  36  37
ENDBRANCH  29  31
ENDBRANCH  28  29
ENDBRANCH  27  28
ENDBRANCH  26  27
ENDBRANCH  25  26
ENDBRANCH  24  25
ENDBRANCH   1  24
TORSDOF 19
ENDMDL
MODEL 2
REMARK VINA RESULT:     -10.5      4.314      7.967
REMARK SMILES CC(=O)c1cccc(-c2ccc(C(=O)OCCOCCOCCOC(=O)c3ccc(-c4c5nc(c(-c6c(F)cccc6F)c6ccc([nH]6)c(-c6c(F)cccc6F)c6nc(c(-c7c(F)cccc7F)c7ccc4[nH]7)C=C6)C=C5)cc3)cc2F)c1
REMARK SMILES IDX 19 1 18 2 17 3 16 4 15 5 13 6 14 7 12 8 9 9 10 10 82 11
REMARK SMILES IDX 11 12 81 13 83 14 8 15 4 16 5 17 84 18 6 19 7 20 2 21 1 22
REMARK SMILES IDX 3 23 20 24 21 25 22 26 23 27 24 28 25 29 26 30 27 31 28 32
REMARK SMILES IDX 80 33 29 34 79 35 30 36 31 37 32 38 73 39 33 40 78 41 72 42
REMARK SMILES IDX 74 43 34 44 77 45 71 46 70 47 35 49 61 50 44 51 60 52 45 53
REMARK SMILES IDX 48 54 59 55 75 56 46 57 47 58 58 60 76 61 49 62 36 63 37 64
REMARK SMILES IDX 42 65 38 66 39 67 41 68 43 69 40 70 62 71 63 72 68 73 64 74
REMARK SMILES IDX 65 75 67 76 69 77 66 78 50 79 51 80 56 81 52 82 53 83 55 84
REMARK SMILES IDX 57 85 54 86
REMARK H PARENT 74 48 48 59
REMARK Flexibility Score: inf
ROOT
ATOM      1  C   UNL A   1      35.075  34.948  33.924  1.00  0.00     0.188 C 
ENDROOT
BRANCH   1   2
ATOM      2  O   UNL A   1      36.419  34.811  34.378  1.00  0.00    -0.376 OA
BRANCH   2   3
ATOM      3  C   UNL A   1      36.803  33.672  35.139  1.00  0.00     0.202 C 
BRANCH   3   4
ATOM      4  C   UNL A   1      37.003  32.329  34.424  1.00  0.00     0.261 C 
BRANCH   4   5
ATOM      5  O   UNL A   1      38.360  31.858  34.417  1.00  0.00    -0.460 OA
BRANCH   5   6
ATOM      6  C   UNL A   1      38.533  30.603  33.935  1.00  0.00     0.338 C 
ATOM      7  O   UNL A   1      37.805  30.002  33.164  1.00  0.00    -0.246 OA
BRANCH   6   8
ATOM      8  C   UNL A   1      39.853  30.075  34.344  1.00  0.00     0.063 A 
ATOM      9  C   UNL A   1      42.272  28.862  35.119  1.00  0.00     0.018 A 
ATOM     10  C   UNL A   1      41.620  28.458  33.944  1.00  0.00     0.012 A 
ATOM     11  C   UNL A   1      41.718  29.933  35.847  1.00  0.00     0.131 A 
ATOM     12  C   UNL A   1      40.413  29.052  33.568  1.00  0.00     0.016 A 
ATOM     13  C   UNL A   1      40.525  30.547  35.470  1.00  0.00     0.055 A 
ATOM     14  F   UNL A   1      42.320  30.360  36.967  1.00  0.00    -0.206 F 
BRANCH   9  15
ATOM     15  C   UNL A   1      43.413  28.094  35.637  1.00  0.00    -0.015 A 
ATOM     16  C   UNL A   1      44.381  25.911  36.161  1.00  0.00     0.018 A 
ATOM     17  C   UNL A   1      45.568  26.534  36.557  1.00  0.00     0.012 A 
ATOM     18  C   UNL A   1      43.313  26.692  35.711  1.00  0.00     0.020 A 
ATOM     19  C   UNL A   1      45.689  27.923  36.478  1.00  0.00     0.001 A 
ATOM     20  C   UNL A   1      44.621  28.697  36.017  1.00  0.00     0.009 A 
BRANCH  16  21
ATOM     21  C   UNL A   1      44.287  24.426  36.224  1.00  0.00     0.159 C 
ATOM     22  C   UNL A   1      43.134  23.744  35.530  1.00  0.00     0.093 C 
ATOM     23  O   UNL A   1      45.167  23.784  36.791  1.00  0.00    -0.295 OA
ENDBRANCH  16  21
ENDBRANCH   9  15
ENDBRANCH   6   8
ENDBRANCH   5   6
ENDBRANCH   4   5
ENDBRANCH   3   4
ENDBRANCH   2   3
ENDBRANCH   1   2
BRANCH   1  24
ATOM     24  C   UNL A   1      34.758  35.802  32.679  1.00  0.00     0.188 C 
BRANCH  24  25
ATOM     25  O   UNL A   1      33.387  36.093  32.530  1.00  0.00    -0.376 OA
BRANCH  25  26
ATOM     26  C   UNL A   1      32.963  36.861  31.418  1.00  0.00     0.202 C 
BRANCH  26  27
ATOM     27  C   UNL A   1      32.878  36.272  29.997  1.00  0.00     0.261 C 
BRANCH  27  28
ATOM     28  O   UNL A   1      32.579  34.876  29.873  1.00  0.00    -0.460 OA
BRANCH  28  29
ATOM     29  C   UNL A   1      33.193  34.205  28.873  1.00  0.00     0.338 C 
ATOM     30  O   UNL A   1      32.806  34.069  27.729  1.00  0.00    -0.246 OA
BRANCH  29  31
ATOM     31  C   UNL A   1      34.525  33.782  29.356  1.00  0.00     0.060 A 
ATOM     32  C   UNL A   1      35.656  34.163  28.626  1.00  0.00     0.016 A 
ATOM     33  C   UNL A   1      34.654  32.995  30.504  1.00  0.00     0.016 A 
ATOM     34  C   UNL A   1      36.920  33.720  29.018  1.00  0.00     0.010 A 
ATOM     35  C   UNL A   1      35.920  32.539  30.887  1.00  0.00     0.010 A 
ATOM     36  C   UNL A   1      37.054  32.870  30.125  1.00  0.00    -0.014 A 
BRANCH  36  37
ATOM     37  C   UNL A   1      38.344  32.178  30.367  1.00  0.00     0.031 A 
ATOM     38  C   UNL A   1      39.342  32.823  31.289  1.00  0.00     0.074 A 
ATOM     39  C   UNL A   1      38.619  30.989  29.804  1.00  0.00     0.049 A 
ATOM     40  N   UNL A   1      40.532  32.414  31.646  1.00  0.00    -0.248 NA
ATOM     41  C   UNL A   1      38.939  34.105  31.891  1.00  0.00     0.031 C 
ATOM     42  C   UNL A   1      37.725  30.241  28.922  1.00  0.00     0.029 A 
ATOM     43  N   UNL A   1      39.740  30.201  29.895  1.00  0.00    -0.354 N 
ATOM     44  C   UNL A   1      41.021  33.386  32.510  1.00  0.00     0.074 A 
ATOM     45  C   UNL A   1      40.013  34.421  32.598  1.00  0.00     0.031 C 
ATOM     46  C   UNL A   1      38.335  29.102  28.549  1.00  0.00     0.029 A 
ATOM     47  C   UNL A   1      39.671  29.054  29.144  1.00  0.00     0.049 A 
ATOM     48  H   UNL A   1      40.520  30.437  30.447  1.00  0.00     0.167 HD
ATOM     49  C   UNL A   1      42.198  33.413  33.177  1.00  0.00     0.037 A 
ATOM     50  C   UNL A   1      40.588  28.087  28.950  1.00  0.00     0.037 A 
ATOM     51  C   UNL A   1      43.207  32.392  33.085  1.00  0.00     0.049 A 
ATOM     52  C   UNL A   1      41.925  28.180  29.639  1.00  0.00     0.074 A 
ATOM     53  C   UNL A   1      44.427  32.321  33.735  1.00  0.00     0.029 A 
ATOM     54  N   UNL A   1      43.117  31.267  32.280  1.00  0.00    -0.354 N 
ATOM     55  N   UNL A   1      42.363  29.084  30.481  1.00  0.00    -0.248 NA
ATOM     56  C   UNL A   1      42.894  27.112  29.350  1.00  0.00     0.031 C 
ATOM     57  C   UNL A   1      45.095  31.176  33.286  1.00  0.00     0.029 A 
ATOM     58  C   UNL A   1      44.270  30.508  32.397  1.00  0.00     0.049 A 
ATOM     59  H   UNL A   1      42.347  31.041  31.709  1.00  0.00     0.167 HD
ATOM     60  C   UNL A   1      43.640  28.677  30.849  1.00  0.00     0.074 A 
ATOM     61  C   UNL A   1      43.903  27.440  30.144  1.00  0.00     0.031 C 
ATOM     62  C   UNL A   1      44.515  29.272  31.698  1.00  0.00     0.037 A 
BRANCH  49  63
ATOM     63  C   UNL A   1      42.466  34.607  34.046  1.00  0.00     0.057 A 
ATOM     64  C   UNL A   1      43.004  35.793  33.530  1.00  0.00     0.134 A 
ATOM     65  C   UNL A   1      42.177  34.571  35.416  1.00  0.00     0.134 A 
ATOM     66  F   UNL A   1      43.320  35.887  32.230  1.00  0.00    -0.206 F 
ATOM     67  C   UNL A   1      43.270  36.891  34.351  1.00  0.00     0.040 A 
ATOM     68  C   UNL A   1      42.413  35.671  36.241  1.00  0.00     0.040 A 
ATOM     69  F   UNL A   1      41.658  33.466  35.974  1.00  0.00    -0.206 F 
ATOM     70  C   UNL A   1      42.970  36.833  35.710  1.00  0.00     0.006 A 
ENDBRANCH  49  63
BRANCH  50  71
ATOM     71  C   UNL A   1      40.282  26.935  28.063  1.00  0.00     0.057 A 
ATOM     72  C   UNL A   1      39.476  25.879  28.502  1.00  0.00     0.134 A 
ATOM     73  C   UNL A   1      40.816  26.845  26.772  1.00  0.00     0.134 A 
ATOM     74  F   UNL A   1      38.957  25.895  29.739  1.00  0.00    -0.206 F 
ATOM     75  C   UNL A   1      39.223  24.768  27.696  1.00  0.00     0.040 A 
ATOM     76  C   UNL A   1      40.553  25.751  25.946  1.00  0.00     0.040 A 
ATOM     77  F   UNL A   1      41.600  27.823  26.293  1.00  0.00    -0.206 F 
ATOM     78  C   UNL A   1      39.759  24.705  26.411  1.00  0.00     0.006 A 
ENDBRANCH  50  71
BRANCH  62  79
ATOM     79  C   UNL A   1      45.817  28.569  31.950  1.00  0.00     0.057 A 
ATOM     80  C   UNL A   1      47.038  29.078  31.488  1.00  0.00     0.134 A 
ATOM     81  C   UNL A   1      45.853  27.386  32.700  1.00  0.00     0.134 A 
ATOM     82  F   UNL A   1      47.073  30.200  30.756  1.00  0.00    -0.206 F 
ATOM     83  C   UNL A   1      48.244  28.421  31.742  1.00  0.00     0.040 A 
ATOM     84  C   UNL A   1      47.054  26.735  32.982  1.00  0.00     0.040 A 
ATOM     85  F   UNL A   1      44.721  26.851  33.181  1.00  0.00    -0.206 F 
ATOM     86  C   UNL A   1      48.254  27.249  32.496  1.00  0.00     0.006 A 
ENDBRANCH  62  79
ENDBRANCH  36  37
ENDBRANCH  29  31
ENDBRANCH  28  29
ENDBRANCH  27  28
ENDBRANCH  26  27
ENDBRANCH  25  26
ENDBRANCH  24  25
ENDBRANCH   1  24
TORSDOF 19
ENDMDL
MODEL 3
REMARK VINA RESULT:     -10.5      5.164     10.526
REMARK SMILES CC(=O)c1cccc(-c2ccc(C(=O)OCCOCCOCCOC(=O)c3ccc(-c4c5nc(c(-c6c(F)cccc6F)c6ccc([nH]6)c(-c6c(F)cccc6F)c6nc(c(-c7c(F)cccc7F)c7ccc4[nH]7)C=C6)C=C5)cc3)cc2F)c1
REMARK SMILES IDX 19 1 18 2 17 3 16 4 15 5 13 6 14 7 12 8 9 9 10 10 82 11
REMARK SMILES IDX 11 12 81 13 83 14 8 15 4 16 5 17 84 18 6 19 7 20 2 21 1 22
REMARK SMILES IDX 3 23 20 24 21 25 22 26 23 27 24 28 25 29 26 30 27 31 28 32
REMARK SMILES IDX 80 33 29 34 79 35 30 36 31 37 32 38 73 39 33 40 78 41 72 42
REMARK SMILES IDX 74 43 34 44 77 45 71 46 70 47 35 49 61 50 44 51 60 52 45 53
REMARK SMILES IDX 48 54 59 55 75 56 46 57 47 58 58 60 76 61 49 62 36 63 37 64
REMARK SMILES IDX 42 65 38 66 39 67 41 68 43 69 40 70 62 71 63 72 68 73 64 74
REMARK SMILES IDX 65 75 67 76 69 77 66 78 50 79 51 80 56 81 52 82 53 83 55 84
REMARK SMILES IDX 57 85 54 86
REMARK H PARENT 74 48 48 59
REMARK Flexibility Score: inf
ROOT
ATOM      1  C   UNL A   1      39.305  22.071  26.129  1.00  0.00     0.188 C 
ENDROOT
BRANCH   1   2
ATOM      2  O   UNL A   1      37.904  21.812  26.121  1.00  0.00    -0.376 OA
BRANCH   2   3
ATOM      3  C   UNL A   1      37.298  21.196  24.991  1.00  0.00     0.202 C 
BRANCH   3   4
ATOM      4  C   UNL A   1      35.812  20.818  25.054  1.00  0.00     0.261 C 
BRANCH   4   5
ATOM      5  O   UNL A   1      34.912  21.910  24.808  1.00  0.00    -0.460 OA
BRANCH   5   6
ATOM      6  C   UNL A   1      34.050  22.187  25.816  1.00  0.00     0.338 C 
ATOM      7  O   UNL A   1      33.698  21.440  26.712  1.00  0.00    -0.246 OA
BRANCH   6   8
ATOM      8  C   UNL A   1      33.686  23.621  25.798  1.00  0.00     0.063 A 
ATOM      9  C   UNL A   1      32.783  26.285  25.701  1.00  0.00     0.018 A 
ATOM     10  C   UNL A   1      32.117  25.339  26.494  1.00  0.00     0.012 A 
ATOM     11  C   UNL A   1      33.947  25.877  25.023  1.00  0.00     0.131 A 
ATOM     12  C   UNL A   1      32.558  24.014  26.531  1.00  0.00     0.016 A 
ATOM     13  C   UNL A   1      34.409  24.562  25.069  1.00  0.00     0.055 A 
ATOM     14  F   UNL A   1      34.623  26.755  24.267  1.00  0.00    -0.206 F 
BRANCH   9  15
ATOM     15  C   UNL A   1      32.196  27.615  25.480  1.00  0.00    -0.015 A 
ATOM     16  C   UNL A   1      30.712  29.035  24.155  1.00  0.00     0.018 A 
ATOM     17  C   UNL A   1      30.976  30.108  25.012  1.00  0.00     0.012 A 
ATOM     18  C   UNL A   1      31.325  27.802  24.391  1.00  0.00     0.020 A 
ATOM     19  C   UNL A   1      31.826  29.936  26.106  1.00  0.00     0.001 A 
ATOM     20  C   UNL A   1      32.429  28.697  26.341  1.00  0.00     0.009 A 
BRANCH  16  21
ATOM     21  C   UNL A   1      29.776  29.235  23.014  1.00  0.00     0.159 C 
ATOM     22  C   UNL A   1      28.709  30.294  23.131  1.00  0.00     0.093 C 
ATOM     23  O   UNL A   1      29.917  28.575  21.988  1.00  0.00    -0.295 OA
ENDBRANCH  16  21
ENDBRANCH   9  15
ENDBRANCH   6   8
ENDBRANCH   5   6
ENDBRANCH   4   5
ENDBRANCH   3   4
ENDBRANCH   2   3
ENDBRANCH   1   2
BRANCH   1  24
ATOM     24  C   UNL A   1      40.302  20.949  26.491  1.00  0.00     0.188 C 
BRANCH  24  25
ATOM     25  O   UNL A   1      41.546  21.427  26.947  1.00  0.00    -0.376 OA
BRANCH  25  26
ATOM     26  C   UNL A   1      42.719  21.083  26.233  1.00  0.00     0.202 C 
BRANCH  26  27
ATOM     27  C   UNL A   1      43.468  22.097  25.346  1.00  0.00     0.261 C 
BRANCH  27  28
ATOM     28  O   UNL A   1      42.856  23.376  25.137  1.00  0.00    -0.460 OA
BRANCH  28  29
ATOM     29  C   UNL A   1      43.647  24.463  25.273  1.00  0.00     0.338 C 
ATOM     30  O   UNL A   1      44.636  24.743  24.625  1.00  0.00    -0.246 OA
BRANCH  29  31
ATOM     31  C   UNL A   1      43.014  25.369  26.256  1.00  0.00     0.060 A 
ATOM     32  C   UNL A   1      43.575  26.634  26.463  1.00  0.00     0.016 A 
ATOM     33  C   UNL A   1      41.893  24.962  26.985  1.00  0.00     0.016 A 
ATOM     34  C   UNL A   1      43.041  27.483  27.434  1.00  0.00     0.010 A 
ATOM     35  C   UNL A   1      41.368  25.809  27.969  1.00  0.00     0.010 A 
ATOM     36  C   UNL A   1      41.962  27.057  28.221  1.00  0.00    -0.014 A 
BRANCH  36  37
ATOM     37  C   UNL A   1      41.585  27.832  29.429  1.00  0.00     0.031 A 
ATOM     38  C   UNL A   1      40.394  28.748  29.350  1.00  0.00     0.074 A 
ATOM     39  C   UNL A   1      42.265  27.711  30.582  1.00  0.00     0.049 A 
ATOM     40  N   UNL A   1      39.879  29.527  30.266  1.00  0.00    -0.248 NA
ATOM     41  C   UNL A   1      39.687  28.786  28.058  1.00  0.00     0.031 C 
ATOM     42  C   UNL A   1      43.413  26.834  30.802  1.00  0.00     0.029 A 
ATOM     43  N   UNL A   1      42.081  28.336  31.791  1.00  0.00    -0.354 N 
ATOM     44  C   UNL A   1      38.792  30.149  29.664  1.00  0.00     0.074 A 
ATOM     45  C   UNL A   1      38.741  29.682  28.295  1.00  0.00     0.031 C 
ATOM     46  C   UNL A   1      43.834  26.980  32.071  1.00  0.00     0.029 A 
ATOM     47  C   UNL A   1      43.004  27.979  32.743  1.00  0.00     0.049 A 
ATOM     48  H   UNL A   1      41.356  28.981  31.959  1.00  0.00     0.167 HD
ATOM     49  C   UNL A   1      37.911  31.024  30.202  1.00  0.00     0.037 A 
ATOM     50  C   UNL A   1      43.165  28.421  34.005  1.00  0.00     0.037 A 
ATOM     51  C   UNL A   1      37.964  31.498  31.559  1.00  0.00     0.049 A 
ATOM     52  C   UNL A   1      42.220  29.458  34.556  1.00  0.00     0.074 A 
ATOM     53  C   UNL A   1      37.107  32.373  32.203  1.00  0.00     0.029 A 
ATOM     54  N   UNL A   1      38.940  31.145  32.479  1.00  0.00    -0.354 N 
ATOM     55  N   UNL A   1      41.175  30.013  33.991  1.00  0.00    -0.248 NA
ATOM     56  C   UNL A   1      42.478  29.926  35.926  1.00  0.00     0.031 C 
ATOM     57  C   UNL A   1      37.591  32.586  33.498  1.00  0.00     0.029 A 
ATOM     58  C   UNL A   1      38.720  31.804  33.677  1.00  0.00     0.049 A 
ATOM     59  H   UNL A   1      39.679  30.518  32.305  1.00  0.00     0.167 HD
ATOM     60  C   UNL A   1      40.633  30.866  34.945  1.00  0.00     0.074 A 
ATOM     61  C   UNL A   1      41.459  30.750  36.128  1.00  0.00     0.031 C 
ATOM     62  C   UNL A   1      39.545  31.670  34.851  1.00  0.00     0.037 A 
BRANCH  49  63
ATOM     63  C   UNL A   1      36.828  31.545  29.303  1.00  0.00     0.057 A 
ATOM     64  C   UNL A   1      36.871  32.836  28.762  1.00  0.00     0.134 A 
ATOM     65  C   UNL A   1      35.729  30.742  28.972  1.00  0.00     0.134 A 
ATOM     66  F   UNL A   1      37.887  33.662  29.055  1.00  0.00    -0.206 F 
ATOM     67  C   UNL A   1      35.848  33.320  27.945  1.00  0.00     0.040 A 
ATOM     68  C   UNL A   1      34.713  31.205  28.134  1.00  0.00     0.040 A 
ATOM     69  F   UNL A   1      35.626  29.495  29.455  1.00  0.00    -0.206 F 
ATOM     70  C   UNL A   1      34.767  32.501  27.626  1.00  0.00     0.006 A 
ENDBRANCH  49  63
BRANCH  50  71
ATOM     71  C   UNL A   1      44.266  27.889  34.848  1.00  0.00     0.057 A 
ATOM     72  C   UNL A   1      45.501  28.543  34.921  1.00  0.00     0.134 A 
ATOM     73  C   UNL A   1      44.123  26.699  35.571  1.00  0.00     0.134 A 
ATOM     74  F   UNL A   1      45.707  29.674  34.229  1.00  0.00    -0.206 F 
ATOM     75  C   UNL A   1      46.559  28.026  35.670  1.00  0.00     0.040 A 
ATOM     76  C   UNL A   1      45.165  26.182  36.342  1.00  0.00     0.040 A 
ATOM     77  F   UNL A   1      42.965  26.022  35.538  1.00  0.00    -0.206 F 
ATOM     78  C   UNL A   1      46.390  26.843  36.387  1.00  0.00     0.006 A 
ENDBRANCH  50  71
BRANCH  62  79
ATOM     79  C   UNL A   1      39.156  32.450  36.074  1.00  0.00     0.057 A 
ATOM     80  C   UNL A   1      38.306  31.921  37.054  1.00  0.00     0.134 A 
ATOM     81  C   UNL A   1      39.671  33.735  36.292  1.00  0.00     0.134 A 
ATOM     82  F   UNL A   1      37.770  30.701  36.902  1.00  0.00    -0.206 F 
ATOM     83  C   UNL A   1      37.963  32.651  38.193  1.00  0.00     0.040 A 
ATOM     84  C   UNL A   1      39.356  34.464  37.439  1.00  0.00     0.040 A 
ATOM     85  F   UNL A   1      40.499  34.296  35.398  1.00  0.00    -0.206 F 
ATOM     86  C   UNL A   1      38.494  33.925  38.391  1.00  0.00     0.006 A 
ENDBRANCH  62  79
ENDBRANCH  36  37
ENDBRANCH  29  31
ENDBRANCH  28  29
ENDBRANCH  27  28
ENDBRANCH  26  27
ENDBRANCH  25  26
ENDBRANCH  24  25
ENDBRANCH   1  24
TORSDOF 19
ENDMDL
