MODEL 1
REMARK VINA RESULT:     -10.9      0.000      0.000
REMARK SMILES O=C(OCCOCCOCCOC(=O)[C@@H]1[C@H](C(=O)NCc2ccccc2Cl)[C@@H]2C=C[C@H]1C2)c1ccc(-c2c3nc(c(-c4c(F)cccc4F)c4ccc([nH]4)c(-c4c(F)cccc4F)c4nc(c(-c5c(F)cccc5F)c5ccc2[nH]5)C=C4)C=C3)cc1
REMARK SMILES IDX 8 1 7 2 6 3 5 4 4 5 3 6 2 7 1 8 33 9 34 10 86 11 35 12 85 13
REMARK SMILES IDX 36 14 37 15 38 16 79 17 39 18 84 19 78 20 80 21 40 22 83 23
REMARK SMILES IDX 77 24 76 25 41 27 67 28 50 29 66 30 51 31 54 32 65 33 81 34
REMARK SMILES IDX 52 35 53 36 64 38 82 39 55 40 42 41 43 42 48 43 44 44 45 45
REMARK SMILES IDX 47 46 49 47 46 48 68 49 69 50 74 51 70 52 71 53 73 54 75 55
REMARK SMILES IDX 72 56 56 57 57 58 62 59 58 60 59 61 61 62 63 63 60 64 9 65
REMARK SMILES IDX 10 66 11 67 12 68 13 69 14 70 15 71 16 72 31 73 28 74 30 75
REMARK SMILES IDX 32 76 29 77 17 78 18 79 19 80 20 82 21 83 22 84 26 85 23 86
REMARK SMILES IDX 25 87 27 88 24 89
REMARK H PARENT 80 26 54 37 19 81
REMARK Flexibility Score: inf
ROOT
ATOM      1  C   UNL A   1      35.111  32.034  28.251  1.00  0.00     0.188 C 
ENDROOT
BRANCH   1   2
ATOM      2  C   UNL A   1      34.077  33.161  28.012  1.00  0.00     0.188 C 
BRANCH   2   3
ATOM      3  O   UNL A   1      34.132  34.110  29.077  1.00  0.00    -0.376 OA
BRANCH   3   4
ATOM      4  C   UNL A   1      33.978  35.483  28.737  1.00  0.00     0.202 C 
BRANCH   4   5
ATOM      5  C   UNL A   1      32.903  36.157  29.587  1.00  0.00     0.261 C 
BRANCH   5   6
ATOM      6  O   UNL A   1      32.575  35.303  30.694  1.00  0.00    -0.460 OA
BRANCH   6   7
ATOM      7  C   UNL A   1      32.753  35.822  31.935  1.00  0.00     0.338 C 
ATOM      8  O   UNL A   1      32.152  36.756  32.444  1.00  0.00    -0.246 OA
BRANCH   7   9
ATOM      9  C   UNL A   1      33.857  35.058  32.556  1.00  0.00     0.060 A 
ATOM     10  C   UNL A   1      35.131  35.638  32.583  1.00  0.00     0.016 A 
ATOM     11  C   UNL A   1      33.656  33.791  33.109  1.00  0.00     0.016 A 
ATOM     12  C   UNL A   1      36.209  34.952  33.115  1.00  0.00     0.010 A 
ATOM     13  C   UNL A   1      34.753  33.078  33.611  1.00  0.00     0.010 A 
ATOM     14  C   UNL A   1      36.033  33.651  33.599  1.00  0.00    -0.014 A 
BRANCH  14  15
ATOM     15  C   UNL A   1      37.259  32.915  33.973  1.00  0.00     0.031 A 
ATOM     16  C   UNL A   1      37.964  32.138  32.918  1.00  0.00     0.074 A 
ATOM     17  C   UNL A   1      37.786  33.026  35.203  1.00  0.00     0.049 A 
ATOM     18  N   UNL A   1      39.062  31.448  33.032  1.00  0.00    -0.248 NA
ATOM     19  C   UNL A   1      37.318  32.055  31.597  1.00  0.00     0.031 C 
ATOM     20  C   UNL A   1      37.103  33.650  36.318  1.00  0.00     0.029 A 
ATOM     21  N   UNL A   1      39.018  32.700  35.715  1.00  0.00    -0.354 N 
ATOM     22  C   UNL A   1      39.163  30.733  31.854  1.00  0.00     0.074 A 
ATOM     23  C   UNL A   1      38.090  31.168  30.986  1.00  0.00     0.031 C 
ATOM     24  C   UNL A   1      37.977  33.834  37.317  1.00  0.00     0.029 A 
ATOM     25  C   UNL A   1      39.253  33.247  36.962  1.00  0.00     0.049 A 
ATOM     26  H   UNL A   1      39.669  32.132  35.241  1.00  0.00     0.167 HD
ATOM     27  C   UNL A   1      40.016  29.719  31.598  1.00  0.00     0.037 A 
ATOM     28  C   UNL A   1      40.364  33.256  37.729  1.00  0.00     0.037 A 
ATOM     29  C   UNL A   1      41.040  29.296  32.519  1.00  0.00     0.049 A 
ATOM     30  C   UNL A   1      41.426  32.278  37.318  1.00  0.00     0.074 A 
ATOM     31  C   UNL A   1      41.943  28.259  32.385  1.00  0.00     0.029 A 
ATOM     32  N   UNL A   1      41.284  29.885  33.754  1.00  0.00    -0.354 N 
ATOM     33  N   UNL A   1      41.498  31.564  36.220  1.00  0.00    -0.248 NA
ATOM     34  C   UNL A   1      42.471  31.980  38.305  1.00  0.00     0.031 C 
ATOM     35  C   UNL A   1      42.706  28.195  33.555  1.00  0.00     0.029 A 
ATOM     36  C   UNL A   1      42.323  29.231  34.393  1.00  0.00     0.049 A 
ATOM     37  H   UNL A   1      40.791  30.655  34.119  1.00  0.00     0.167 HD
ATOM     38  C   UNL A   1      42.519  30.656  36.431  1.00  0.00     0.074 A 
ATOM     39  C   UNL A   1      43.122  30.994  37.706  1.00  0.00     0.031 C 
ATOM     40  C   UNL A   1      42.875  29.588  35.676  1.00  0.00     0.037 A 
BRANCH  27  41
ATOM     41  C   UNL A   1      39.758  28.921  30.361  1.00  0.00     0.057 A 
ATOM     42  C   UNL A   1      39.027  27.730  30.366  1.00  0.00     0.134 A 
ATOM     43  C   UNL A   1      40.295  29.348  29.137  1.00  0.00     0.134 A 
ATOM     44  F   UNL A   1      38.528  27.244  31.513  1.00  0.00    -0.206 F 
ATOM     45  C   UNL A   1      38.847  26.983  29.200  1.00  0.00     0.040 A 
ATOM     46  C   UNL A   1      40.101  28.625  27.962  1.00  0.00     0.040 A 
ATOM     47  F   UNL A   1      41.029  30.470  29.070  1.00  0.00    -0.206 F 
ATOM     48  C   UNL A   1      39.376  27.436  27.992  1.00  0.00     0.006 A 
ENDBRANCH  27  41
BRANCH  28  49
ATOM     49  C   UNL A   1      40.497  34.059  38.986  1.00  0.00     0.057 A 
ATOM     50  C   UNL A   1      40.002  33.573  40.209  1.00  0.00     0.134 A 
ATOM     51  C   UNL A   1      41.073  35.336  39.019  1.00  0.00     0.134 A 
ATOM     52  F   UNL A   1      39.386  32.382  40.266  1.00  0.00    -0.206 F 
ATOM     53  C   UNL A   1      40.083  34.316  41.394  1.00  0.00     0.040 A 
ATOM     54  C   UNL A   1      41.220  36.059  40.205  1.00  0.00     0.040 A 
ATOM     55  F   UNL A   1      41.503  35.919  37.890  1.00  0.00    -0.206 F 
ATOM     56  C   UNL A   1      40.713  35.556  41.398  1.00  0.00     0.006 A 
ENDBRANCH  28  49
BRANCH  40  57
ATOM     57  C   UNL A   1      43.948  28.717  36.245  1.00  0.00     0.057 A 
ATOM     58  C   UNL A   1      45.304  29.058  36.140  1.00  0.00     0.134 A 
ATOM     59  C   UNL A   1      43.620  27.531  36.908  1.00  0.00     0.134 A 
ATOM     60  F   UNL A   1      45.678  30.175  35.495  1.00  0.00    -0.206 F 
ATOM     61  C   UNL A   1      46.300  28.232  36.658  1.00  0.00     0.040 A 
ATOM     62  C   UNL A   1      44.606  26.711  37.452  1.00  0.00     0.040 A 
ATOM     63  F   UNL A   1      42.339  27.156  37.039  1.00  0.00    -0.206 F 
ATOM     64  C   UNL A   1      45.950  27.057  37.321  1.00  0.00     0.006 A 
ENDBRANCH  40  57
ENDBRANCH  14  15
ENDBRANCH   7   9
ENDBRANCH   6   7
ENDBRANCH   5   6
ENDBRANCH   4   5
ENDBRANCH   3   4
ENDBRANCH   2   3
ENDBRANCH   1   2
BRANCH   1  65
ATOM     65  O   UNL A   1      34.439  30.785  28.084  1.00  0.00    -0.376 OA
BRANCH  65  66
ATOM     66  C   UNL A   1      33.312  30.712  27.228  1.00  0.00     0.202 C 
BRANCH  66  67
ATOM     67  C   UNL A   1      32.332  29.520  27.250  1.00  0.00     0.261 C 
BRANCH  67  68
ATOM     68  O   UNL A   1      32.653  28.319  26.553  1.00  0.00    -0.463 OA
BRANCH  68  69
ATOM     69  C   UNL A   1      32.272  28.276  25.266  1.00  0.00     0.310 C 
ATOM     70  O   UNL A   1      32.837  28.882  24.359  1.00  0.00    -0.252 OA
BRANCH  69  71
ATOM     71  C   UNL A   1      31.015  27.487  25.030  1.00  0.00     0.119 C 
ATOM     72  C   UNL A   1      30.774  26.029  25.533  1.00  0.00     0.100 C 
ATOM     73  C   UNL A   1      30.439  27.481  23.592  1.00  0.00     0.027 C 
ATOM     74  C   UNL A   1      29.906  25.446  24.409  1.00  0.00     0.025 C 
ATOM     75  C   UNL A   1      31.060  26.436  22.712  1.00  0.00    -0.027 C 
ATOM     76  C   UNL A   1      29.151  26.701  23.876  1.00  0.00     0.017 C 
ATOM     77  C   UNL A   1      30.774  25.230  23.221  1.00  0.00    -0.027 C 
BRANCH  72  78
ATOM     78  C   UNL A   1      31.839  25.188  26.269  1.00  0.00     0.224 C 
ATOM     79  O   UNL A   1      31.400  24.493  27.209  1.00  0.00    -0.275 OA
ATOM     80  N   UNL A   1      33.170  25.035  26.117  1.00  0.00    -0.352 N 
ATOM     81  H   UNL A   1      33.513  24.485  26.857  1.00  0.00     0.163 HD
BRANCH  80  82
ATOM     82  C   UNL A   1      34.289  25.397  25.237  1.00  0.00     0.153 C 
BRANCH  82  83
ATOM     83  C   UNL A   1      35.272  24.254  25.018  1.00  0.00    -0.010 A 
ATOM     84  C   UNL A   1      36.180  23.812  25.991  1.00  0.00     0.007 A 
ATOM     85  C   UNL A   1      35.279  23.556  23.815  1.00  0.00     0.046 A 
ATOM     86  C   UNL A   1      37.088  22.768  25.717  1.00  0.00     0.000 A 
ATOM     87  C   UNL A   1      36.227  22.578  23.506  1.00  0.00     0.021 A 
ATOM     88  Cl  UNL A   1      33.984  23.762  22.749  1.00  0.00    -0.084 Cl
ATOM     89  C   UNL A   1      37.143  22.180  24.458  1.00  0.00     0.002 A 
ENDBRANCH  82  83
ENDBRANCH  80  82
ENDBRANCH  72  78
ENDBRANCH  69  71
ENDBRANCH  68  69
ENDBRANCH  67  68
ENDBRANCH  66  67
ENDBRANCH  65  66
ENDBRANCH   1  65
TORSDOF 20
ENDMDL
MODEL 2
REMARK VINA RESULT:     -10.9      2.943      7.682
REMARK SMILES O=C(OCCOCCOCCOC(=O)[C@@H]1[C@H](C(=O)NCc2ccccc2Cl)[C@@H]2C=C[C@H]1C2)c1ccc(-c2c3nc(c(-c4c(F)cccc4F)c4ccc([nH]4)c(-c4c(F)cccc4F)c4nc(c(-c5c(F)cccc5F)c5ccc2[nH]5)C=C4)C=C3)cc1
REMARK SMILES IDX 8 1 7 2 6 3 5 4 4 5 3 6 2 7 1 8 33 9 34 10 86 11 35 12 85 13
REMARK SMILES IDX 36 14 37 15 38 16 79 17 39 18 84 19 78 20 80 21 40 22 83 23
REMARK SMILES IDX 77 24 76 25 41 27 67 28 50 29 66 30 51 31 54 32 65 33 81 34
REMARK SMILES IDX 52 35 53 36 64 38 82 39 55 40 42 41 43 42 48 43 44 44 45 45
REMARK SMILES IDX 47 46 49 47 46 48 68 49 69 50 74 51 70 52 71 53 73 54 75 55
REMARK SMILES IDX 72 56 56 57 57 58 62 59 58 60 59 61 61 62 63 63 60 64 9 65
REMARK SMILES IDX 10 66 11 67 12 68 13 69 14 70 15 71 16 72 31 73 28 74 30 75
REMARK SMILES IDX 32 76 29 77 17 78 18 79 19 80 20 82 21 83 22 84 26 85 23 86
REMARK SMILES IDX 25 87 27 88 24 89
REMARK H PARENT 80 26 54 37 19 81
REMARK Flexibility Score: inf
ROOT
ATOM      1  C   UNL A   1      34.677  21.570  26.915  1.00  0.00     0.188 C 
ENDROOT
BRANCH   1   2
ATOM      2  C   UNL A   1      35.655  21.617  25.716  1.00  0.00     0.188 C 
BRANCH   2   3
ATOM      3  O   UNL A   1      36.856  22.292  26.090  1.00  0.00    -0.376 OA
BRANCH   3   4
ATOM      4  C   UNL A   1      38.079  21.791  25.561  1.00  0.00     0.202 C 
BRANCH   4   5
ATOM      5  C   UNL A   1      39.285  22.311  26.340  1.00  0.00     0.261 C 
BRANCH   5   6
ATOM      6  O   UNL A   1      39.161  23.732  26.504  1.00  0.00    -0.460 OA
BRANCH   6   7
ATOM      7  C   UNL A   1      40.317  24.431  26.635  1.00  0.00     0.338 C 
ATOM      8  O   UNL A   1      41.384  24.214  26.080  1.00  0.00    -0.246 OA
BRANCH   7   9
ATOM      9  C   UNL A   1      40.054  25.501  27.621  1.00  0.00     0.060 A 
ATOM     10  C   UNL A   1      40.753  26.707  27.493  1.00  0.00     0.016 A 
ATOM     11  C   UNL A   1      39.134  25.335  28.660  1.00  0.00     0.016 A 
ATOM     12  C   UNL A   1      40.577  27.727  28.411  1.00  0.00     0.010 A 
ATOM     13  C   UNL A   1      38.985  26.351  29.614  1.00  0.00     0.010 A 
ATOM     14  C   UNL A   1      39.718  27.541  29.499  1.00  0.00    -0.014 A 
BRANCH  14  15
ATOM     15  C   UNL A   1      39.727  28.595  30.535  1.00  0.00     0.031 A 
ATOM     16  C   UNL A   1      38.605  29.572  30.558  1.00  0.00     0.074 A 
ATOM     17  C   UNL A   1      40.665  28.612  31.497  1.00  0.00     0.049 A 
ATOM     18  N   UNL A   1      38.414  30.550  31.395  1.00  0.00    -0.248 NA
ATOM     19  C   UNL A   1      37.623  29.495  29.464  1.00  0.00     0.031 C 
ATOM     20  C   UNL A   1      41.855  27.788  31.477  1.00  0.00     0.029 A 
ATOM     21  N   UNL A   1      40.745  29.273  32.699  1.00  0.00    -0.354 N 
ATOM     22  C   UNL A   1      37.383  31.293  30.851  1.00  0.00     0.074 A 
ATOM     23  C   UNL A   1      36.902  30.584  29.685  1.00  0.00     0.031 C 
ATOM     24  C   UNL A   1      42.445  27.842  32.678  1.00  0.00     0.029 A 
ATOM     25  C   UNL A   1      41.742  28.787  33.522  1.00  0.00     0.049 A 
ATOM     26  H   UNL A   1      40.152  30.019  32.948  1.00  0.00     0.167 HD
ATOM     27  C   UNL A   1      36.979  32.520  31.245  1.00  0.00     0.037 A 
ATOM     28  C   UNL A   1      42.057  29.086  34.801  1.00  0.00     0.037 A 
ATOM     29  C   UNL A   1      37.525  33.201  32.390  1.00  0.00     0.049 A 
ATOM     30  C   UNL A   1      41.431  30.343  35.332  1.00  0.00     0.074 A 
ATOM     31  C   UNL A   1      37.220  34.460  32.869  1.00  0.00     0.029 A 
ATOM     32  N   UNL A   1      38.503  32.678  33.229  1.00  0.00    -0.354 N 
ATOM     33  N   UNL A   1      40.485  31.074  34.792  1.00  0.00    -0.248 NA
ATOM     34  C   UNL A   1      42.015  30.910  36.553  1.00  0.00     0.031 C 
ATOM     35  C   UNL A   1      38.041  34.716  33.972  1.00  0.00     0.029 A 
ATOM     36  C   UNL A   1      38.814  33.592  34.221  1.00  0.00     0.049 A 
ATOM     37  H   UNL A   1      38.913  31.788  33.132  1.00  0.00     0.167 HD
ATOM     38  C   UNL A   1      40.439  32.236  35.540  1.00  0.00     0.074 A 
ATOM     39  C   UNL A   1      41.361  32.058  36.646  1.00  0.00     0.031 C 
ATOM     40  C   UNL A   1      39.758  33.381  35.290  1.00  0.00     0.037 A 
BRANCH  27  41
ATOM     41  C   UNL A   1      36.033  33.238  30.338  1.00  0.00     0.057 A 
ATOM     42  C   UNL A   1      36.437  33.838  29.142  1.00  0.00     0.134 A 
ATOM     43  C   UNL A   1      34.684  33.359  30.703  1.00  0.00     0.134 A 
ATOM     44  F   UNL A   1      37.723  33.798  28.763  1.00  0.00    -0.206 F 
ATOM     45  C   UNL A   1      35.535  34.544  28.344  1.00  0.00     0.040 A 
ATOM     46  C   UNL A   1      33.769  34.039  29.901  1.00  0.00     0.040 A 
ATOM     47  F   UNL A   1      34.238  32.828  31.852  1.00  0.00    -0.206 F 
ATOM     48  C   UNL A   1      34.195  34.638  28.718  1.00  0.00     0.006 A 
ENDBRANCH  27  41
BRANCH  28  49
ATOM     49  C   UNL A   1      43.066  28.326  35.605  1.00  0.00     0.057 A 
ATOM     50  C   UNL A   1      42.665  27.335  36.519  1.00  0.00     0.134 A 
ATOM     51  C   UNL A   1      44.444  28.573  35.532  1.00  0.00     0.134 A 
ATOM     52  F   UNL A   1      41.362  27.066  36.696  1.00  0.00    -0.206 F 
ATOM     53  C   UNL A   1      43.583  26.632  37.308  1.00  0.00     0.040 A 
ATOM     54  C   UNL A   1      45.376  27.833  36.264  1.00  0.00     0.040 A 
ATOM     55  F   UNL A   1      44.920  29.552  34.749  1.00  0.00    -0.206 F 
ATOM     56  C   UNL A   1      44.947  26.866  37.166  1.00  0.00     0.006 A 
ENDBRANCH  28  49
BRANCH  40  57
ATOM     57  C   UNL A   1      40.020  34.514  36.228  1.00  0.00     0.057 A 
ATOM     58  C   UNL A   1      39.263  34.692  37.395  1.00  0.00     0.134 A 
ATOM     59  C   UNL A   1      41.043  35.429  35.965  1.00  0.00     0.134 A 
ATOM     60  F   UNL A   1      38.255  33.855  37.688  1.00  0.00    -0.206 F 
ATOM     61  C   UNL A   1      39.502  35.761  38.256  1.00  0.00     0.040 A 
ATOM     62  C   UNL A   1      41.307  36.486  36.833  1.00  0.00     0.040 A 
ATOM     63  F   UNL A   1      41.799  35.307  34.864  1.00  0.00    -0.206 F 
ATOM     64  C   UNL A   1      40.532  36.658  37.977  1.00  0.00     0.006 A 
ENDBRANCH  40  57
ENDBRANCH  14  15
ENDBRANCH   7   9
ENDBRANCH   6   7
ENDBRANCH   5   6
ENDBRANCH   4   5
ENDBRANCH   3   4
ENDBRANCH   2   3
ENDBRANCH   1   2
BRANCH   1  65
ATOM     65  O   UNL A   1      33.801  22.693  26.805  1.00  0.00    -0.376 OA
BRANCH  65  66
ATOM     66  C   UNL A   1      32.445  22.484  26.450  1.00  0.00     0.202 C 
BRANCH  66  67
ATOM     67  C   UNL A   1      31.451  23.648  26.255  1.00  0.00     0.261 C 
BRANCH  67  68
ATOM     68  O   UNL A   1      31.920  24.994  26.258  1.00  0.00    -0.463 OA
BRANCH  68  69
ATOM     69  C   UNL A   1      31.218  25.853  25.501  1.00  0.00     0.310 C 
ATOM     70  O   UNL A   1      30.639  25.543  24.463  1.00  0.00    -0.252 OA
BRANCH  69  71
ATOM     71  C   UNL A   1      31.275  27.275  25.984  1.00  0.00     0.119 C 
ATOM     72  C   UNL A   1      31.149  28.531  25.067  1.00  0.00     0.100 C 
ATOM     73  C   UNL A   1      32.416  27.647  26.964  1.00  0.00     0.027 C 
ATOM     74  C   UNL A   1      32.076  29.532  25.770  1.00  0.00     0.025 C 
ATOM     75  C   UNL A   1      33.696  28.009  26.270  1.00  0.00    -0.027 C 
ATOM     76  C   UNL A   1      31.987  29.088  27.261  1.00  0.00     0.017 C 
ATOM     77  C   UNL A   1      33.480  29.107  25.531  1.00  0.00    -0.027 C 
BRANCH  72  78
ATOM     78  C   UNL A   1      31.032  28.462  23.529  1.00  0.00     0.224 C 
ATOM     79  O   UNL A   1      29.934  28.841  23.070  1.00  0.00    -0.275 OA
ATOM     80  N   UNL A   1      31.872  28.073  22.549  1.00  0.00    -0.352 N 
ATOM     81  H   UNL A   1      31.387  28.077  21.693  1.00  0.00     0.163 HD
BRANCH  80  82
ATOM     82  C   UNL A   1      33.257  27.647  22.306  1.00  0.00     0.153 C 
BRANCH  82  83
ATOM     83  C   UNL A   1      33.477  26.159  22.552  1.00  0.00    -0.010 A 
ATOM     84  C   UNL A   1      34.117  25.645  23.689  1.00  0.00     0.007 A 
ATOM     85  C   UNL A   1      33.000  25.220  21.644  1.00  0.00     0.046 A 
ATOM     86  C   UNL A   1      34.319  24.258  23.845  1.00  0.00     0.000 A 
ATOM     87  C   UNL A   1      33.266  23.854  21.749  1.00  0.00     0.021 A 
ATOM     88  Cl  UNL A   1      31.899  25.719  20.462  1.00  0.00    -0.084 Cl
ATOM     89  C   UNL A   1      33.934  23.364  22.852  1.00  0.00     0.002 A 
ENDBRANCH  82  83
ENDBRANCH  80  82
ENDBRANCH  72  78
ENDBRANCH  69  71
ENDBRANCH  68  69
ENDBRANCH  67  68
ENDBRANCH  66  67
ENDBRANCH  65  66
ENDBRANCH   1  65
TORSDOF 20
ENDMDL
MODEL 3
REMARK VINA RESULT:     -10.8      2.793      4.862
REMARK SMILES O=C(OCCOCCOCCOC(=O)[C@@H]1[C@H](C(=O)NCc2ccccc2Cl)[C@@H]2C=C[C@H]1C2)c1ccc(-c2c3nc(c(-c4c(F)cccc4F)c4ccc([nH]4)c(-c4c(F)cccc4F)c4nc(c(-c5c(F)cccc5F)c5ccc2[nH]5)C=C4)C=C3)cc1
REMARK SMILES IDX 8 1 7 2 6 3 5 4 4 5 3 6 2 7 1 8 33 9 34 10 86 11 35 12 85 13
REMARK SMILES IDX 36 14 37 15 38 16 79 17 39 18 84 19 78 20 80 21 40 22 83 23
REMARK SMILES IDX 77 24 76 25 41 27 67 28 50 29 66 30 51 31 54 32 65 33 81 34
REMARK SMILES IDX 52 35 53 36 64 38 82 39 55 40 42 41 43 42 48 43 44 44 45 45
REMARK SMILES IDX 47 46 49 47 46 48 68 49 69 50 74 51 70 52 71 53 73 54 75 55
REMARK SMILES IDX 72 56 56 57 57 58 62 59 58 60 59 61 61 62 63 63 60 64 9 65
REMARK SMILES IDX 10 66 11 67 12 68 13 69 14 70 15 71 16 72 31 73 28 74 30 75
REMARK SMILES IDX 32 76 29 77 17 78 18 79 19 80 20 82 21 83 22 84 26 85 23 86
REMARK SMILES IDX 25 87 27 88 24 89
REMARK H PARENT 80 26 54 37 19 81
REMARK Flexibility Score: inf
ROOT
ATOM      1  C   UNL A   1      29.736  29.034  22.195  1.00  0.00     0.188 C 
ENDROOT
BRANCH   1   2
ATOM      2  C   UNL A   1      30.307  29.663  23.491  1.00  0.00     0.188 C 
BRANCH   2   3
ATOM      3  O   UNL A   1      31.695  29.352  23.614  1.00  0.00    -0.376 OA
BRANCH   3   4
ATOM      4  C   UNL A   1      32.242  29.322  24.928  1.00  0.00     0.202 C 
BRANCH   4   5
ATOM      5  C   UNL A   1      31.667  30.432  25.804  1.00  0.00     0.261 C 
BRANCH   5   6
ATOM      6  O   UNL A   1      32.410  30.492  27.032  1.00  0.00    -0.460 OA
BRANCH   6   7
ATOM      7  C   UNL A   1      32.996  31.680  27.329  1.00  0.00     0.338 C 
ATOM      8  O   UNL A   1      32.550  32.800  27.130  1.00  0.00    -0.246 OA
BRANCH   7   9
ATOM      9  C   UNL A   1      34.317  31.363  27.914  1.00  0.00     0.060 A 
ATOM     10  C   UNL A   1      34.647  30.017  28.114  1.00  0.00     0.016 A 
ATOM     11  C   UNL A   1      35.227  32.363  28.264  1.00  0.00     0.016 A 
ATOM     12  C   UNL A   1      35.852  29.663  28.696  1.00  0.00     0.010 A 
ATOM     13  C   UNL A   1      36.430  32.010  28.891  1.00  0.00     0.010 A 
ATOM     14  C   UNL A   1      36.736  30.661  29.122  1.00  0.00    -0.014 A 
BRANCH  14  15
ATOM     15  C   UNL A   1      37.908  30.214  29.903  1.00  0.00     0.031 A 
ATOM     16  C   UNL A   1      39.052  29.605  29.172  1.00  0.00     0.074 A 
ATOM     17  C   UNL A   1      37.989  30.444  31.224  1.00  0.00     0.049 A 
ATOM     18  N   UNL A   1      40.177  29.174  29.665  1.00  0.00    -0.248 NA
ATOM     19  C   UNL A   1      38.884  29.376  27.727  1.00  0.00     0.031 C 
ATOM     20  C   UNL A   1      36.879  30.908  32.030  1.00  0.00     0.029 A 
ATOM     21  N   UNL A   1      39.039  30.398  32.108  1.00  0.00    -0.354 N 
ATOM     22  C   UNL A   1      40.787  28.493  28.628  1.00  0.00     0.074 A 
ATOM     23  C   UNL A   1      39.974  28.677  27.446  1.00  0.00     0.031 C 
ATOM     24  C   UNL A   1      37.339  31.285  33.231  1.00  0.00     0.029 A 
ATOM     25  C   UNL A   1      38.754  30.990  33.324  1.00  0.00     0.049 A 
ATOM     26  H   UNL A   1      39.908  29.985  31.897  1.00  0.00     0.167 HD
ATOM     27  C   UNL A   1      41.868  27.689  28.718  1.00  0.00     0.037 A 
ATOM     28  C   UNL A   1      39.543  31.246  34.389  1.00  0.00     0.037 A 
ATOM     29  C   UNL A   1      42.617  27.505  29.935  1.00  0.00     0.049 A 
ATOM     30  C   UNL A   1      40.859  30.523  34.394  1.00  0.00     0.074 A 
ATOM     31  C   UNL A   1      43.710  26.692  30.158  1.00  0.00     0.029 A 
ATOM     32  N   UNL A   1      42.336  28.140  31.139  1.00  0.00    -0.354 N 
ATOM     33  N   UNL A   1      41.415  29.837  33.424  1.00  0.00    -0.248 NA
ATOM     34  C   UNL A   1      41.580  30.466  35.670  1.00  0.00     0.031 C 
ATOM     35  C   UNL A   1      44.065  26.803  31.506  1.00  0.00     0.029 A 
ATOM     36  C   UNL A   1      43.234  27.733  32.110  1.00  0.00     0.049 A 
ATOM     37  H   UNL A   1      41.605  28.785  31.280  1.00  0.00     0.167 HD
ATOM     38  C   UNL A   1      42.485  29.177  34.001  1.00  0.00     0.074 A 
ATOM     39  C   UNL A   1      42.575  29.645  35.371  1.00  0.00     0.031 C 
ATOM     40  C   UNL A   1      43.271  28.209  33.471  1.00  0.00     0.037 A 
BRANCH  27  41
ATOM     41  C   UNL A   1      42.180  26.848  27.523  1.00  0.00     0.057 A 
ATOM     42  C   UNL A   1      41.666  25.560  27.347  1.00  0.00     0.134 A 
ATOM     43  C   UNL A   1      43.055  27.337  26.542  1.00  0.00     0.134 A 
ATOM     44  F   UNL A   1      40.862  25.017  28.275  1.00  0.00    -0.206 F 
ATOM     45  C   UNL A   1      42.018  24.782  26.243  1.00  0.00     0.040 A 
ATOM     46  C   UNL A   1      43.394  26.581  25.422  1.00  0.00     0.040 A 
ATOM     47  F   UNL A   1      43.604  28.556  26.665  1.00  0.00    -0.206 F 
ATOM     48  C   UNL A   1      42.877  25.296  25.271  1.00  0.00     0.006 A 
ENDBRANCH  27  41
BRANCH  28  49
ATOM     49  C   UNL A   1      39.107  32.065  35.565  1.00  0.00     0.057 A 
ATOM     50  C   UNL A   1      38.321  31.502  36.586  1.00  0.00     0.134 A 
ATOM     51  C   UNL A   1      39.412  33.426  35.703  1.00  0.00     0.134 A 
ATOM     52  F   UNL A   1      37.934  30.219  36.513  1.00  0.00    -0.206 F 
ATOM     53  C   UNL A   1      37.871  32.252  37.680  1.00  0.00     0.040 A 
ATOM     54  C   UNL A   1      39.026  34.169  36.822  1.00  0.00     0.040 A 
ATOM     55  F   UNL A   1      40.090  34.073  34.744  1.00  0.00    -0.206 F 
ATOM     56  C   UNL A   1      38.242  33.586  37.811  1.00  0.00     0.006 A 
ENDBRANCH  28  49
BRANCH  40  57
ATOM     57  C   UNL A   1      44.269  27.597  34.400  1.00  0.00     0.057 A 
ATOM     58  C   UNL A   1      45.542  28.155  34.582  1.00  0.00     0.134 A 
ATOM     59  C   UNL A   1      43.949  26.446  35.124  1.00  0.00     0.134 A 
ATOM     60  F   UNL A   1      45.912  29.249  33.896  1.00  0.00    -0.206 F 
ATOM     61  C   UNL A   1      46.473  27.570  35.437  1.00  0.00     0.040 A 
ATOM     62  C   UNL A   1      44.863  25.867  36.002  1.00  0.00     0.040 A 
ATOM     63  F   UNL A   1      42.744  25.871  34.991  1.00  0.00    -0.206 F 
ATOM     64  C   UNL A   1      46.131  26.424  36.155  1.00  0.00     0.006 A 
ENDBRANCH  40  57
ENDBRANCH  14  15
ENDBRANCH   7   9
ENDBRANCH   6   7
ENDBRANCH   5   6
ENDBRANCH   4   5
ENDBRANCH   3   4
ENDBRANCH   2   3
ENDBRANCH   1   2
BRANCH   1  65
ATOM     65  O   UNL A   1      28.823  28.006  22.578  1.00  0.00    -0.376 OA
BRANCH  65  66
ATOM     66  C   UNL A   1      29.137  27.173  23.681  1.00  0.00     0.202 C 
BRANCH  66  67
ATOM     67  C   UNL A   1      30.095  25.969  23.563  1.00  0.00     0.261 C 
BRANCH  67  68
ATOM     68  O   UNL A   1      31.394  26.031  24.145  1.00  0.00    -0.463 OA
BRANCH  68  69
ATOM     69  C   UNL A   1      32.421  25.970  23.281  1.00  0.00     0.310 C 
ATOM     70  O   UNL A   1      32.358  26.339  22.111  1.00  0.00    -0.252 OA
BRANCH  69  71
ATOM     71  C   UNL A   1      33.650  25.315  23.843  1.00  0.00     0.119 C 
ATOM     72  C   UNL A   1      34.038  23.819  23.625  1.00  0.00     0.100 C 
ATOM     73  C   UNL A   1      33.967  25.564  25.339  1.00  0.00     0.027 C 
ATOM     74  C   UNL A   1      34.722  23.471  24.955  1.00  0.00     0.025 C 
ATOM     75  C   UNL A   1      33.249  24.621  26.259  1.00  0.00    -0.027 C 
ATOM     76  C   UNL A   1      35.317  24.842  25.399  1.00  0.00     0.017 C 
ATOM     77  C   UNL A   1      33.671  23.375  26.002  1.00  0.00    -0.027 C 
BRANCH  72  78
ATOM     78  C   UNL A   1      33.155  22.805  22.867  1.00  0.00     0.224 C 
ATOM     79  O   UNL A   1      32.935  23.092  21.672  1.00  0.00    -0.275 OA
ATOM     80  N   UNL A   1      32.553  21.651  23.219  1.00  0.00    -0.352 N 
ATOM     81  H   UNL A   1      31.985  21.348  22.475  1.00  0.00     0.163 HD
BRANCH  80  82
ATOM     82  C   UNL A   1      32.447  20.684  24.320  1.00  0.00     0.153 C 
BRANCH  82  83
ATOM     83  C   UNL A   1      33.049  19.325  23.985  1.00  0.00    -0.010 A 
ATOM     84  C   UNL A   1      32.448  18.401  23.119  1.00  0.00     0.007 A 
ATOM     85  C   UNL A   1      34.282  18.954  24.512  1.00  0.00     0.046 A 
ATOM     86  C   UNL A   1      33.039  17.145  22.871  1.00  0.00     0.000 A 
ATOM     87  C   UNL A   1      34.834  17.685  24.338  1.00  0.00     0.021 A 
ATOM     88  Cl  UNL A   1      35.242  20.138  25.241  1.00  0.00    -0.084 Cl
ATOM     89  C   UNL A   1      34.212  16.768  23.516  1.00  0.00     0.002 A 
ENDBRANCH  82  83
ENDBRANCH  80  82
ENDBRANCH  72  78
ENDBRANCH  69  71
ENDBRANCH  68  69
ENDBRANCH  67  68
ENDBRANCH  66  67
ENDBRANCH  65  66
ENDBRANCH   1  65
TORSDOF 20
ENDMDL
