MODEL 1
REMARK VINA RESULT:     -10.7      0.000      0.000
REMARK SMILES O=C(OCCOCCOCCOC(=O)c1ccc(-c2c3nc(c(-c4c(F)cccc4F)c4ccc([nH]4)c(-c4c(F)cccc4F)c4nc(c(-c5c(F)cccc5F)c5ccc2[nH]5)C=C4)C=C3)cc1)C1=NN(c2ccc([N+](=O)[O-])cc2)[C@H](c2ccccc2)C1
REMARK SMILES IDX 7 1 6 2 5 3 4 4 3 5 2 6 1 7 69 8 70 9 88 10 71 11 81 12
REMARK SMILES IDX 72 13 73 14 80 15 74 16 79 17 75 18 76 19 77 20 78 21 82 22
REMARK SMILES IDX 83 23 87 24 84 25 86 26 85 27 8 28 9 29 10 30 11 31 12 32
REMARK SMILES IDX 13 33 14 34 15 35 16 36 68 37 17 38 67 39 18 40 19 41 20 42
REMARK SMILES IDX 61 43 21 44 66 45 60 46 62 47 22 48 65 49 59 50 58 51 23 53
REMARK SMILES IDX 49 54 32 55 48 56 33 57 36 58 47 59 63 60 34 61 35 62 46 64
REMARK SMILES IDX 64 65 37 66 24 67 25 68 30 69 26 70 27 71 29 72 31 73 28 74
REMARK SMILES IDX 50 75 51 76 56 77 52 78 53 79 55 80 57 81 54 82 38 83 39 84
REMARK SMILES IDX 44 85 40 86 41 87 43 88 45 89 42 90
REMARK H PARENT 62 52 36 63
REMARK Flexibility Score: inf
ROOT
ATOM      1  C   UNL A   1      33.590  35.214  29.805  1.00  0.00     0.188 C 
ENDROOT
BRANCH   1   2
ATOM      2  O   UNL A   1      34.491  34.366  29.128  1.00  0.00    -0.376 OA
BRANCH   2   3
ATOM      3  C   UNL A   1      34.001  33.321  28.300  1.00  0.00     0.202 C 
BRANCH   3   4
ATOM      4  C   UNL A   1      34.364  31.837  28.506  1.00  0.00     0.261 C 
BRANCH   4   5
ATOM      5  O   UNL A   1      33.800  30.805  27.664  1.00  0.00    -0.459 OA
BRANCH   5   6
ATOM      6  C   UNL A   1      34.317  29.627  27.322  1.00  0.00     0.354 C 
ATOM      7  O   UNL A   1      35.514  29.465  27.124  1.00  0.00    -0.245 OA
BRANCH   6   8
ATOM      8  C   UNL A   1      33.407  28.473  27.010  1.00  0.00     0.148 C 
ATOM      9  N   UNL A   1      33.773  27.390  26.408  1.00  0.00    -0.169 NA
ATOM     10  C   UNL A   1      31.973  28.505  27.469  1.00  0.00     0.098 C 
ATOM     11  N   UNL A   1      32.670  26.612  26.387  1.00  0.00    -0.257 N 
ATOM     12  C   UNL A   1      31.440  27.382  26.568  1.00  0.00     0.144 C 
BRANCH  11  13
ATOM     13  C   UNL A   1      32.768  25.265  26.109  1.00  0.00     0.061 A 
ATOM     14  C   UNL A   1      33.980  24.714  25.674  1.00  0.00     0.035 A 
ATOM     15  C   UNL A   1      31.650  24.431  26.216  1.00  0.00     0.035 A 
ATOM     16  C   UNL A   1      34.083  23.355  25.365  1.00  0.00     0.088 A 
ATOM     17  C   UNL A   1      31.739  23.066  25.938  1.00  0.00     0.088 A 
ATOM     18  C   UNL A   1      32.960  22.533  25.511  1.00  0.00     0.269 A 
BRANCH  18  19
ATOM     19  N   UNL A   1      33.063  21.101  25.212  1.00  0.00     0.062 N 
ATOM     20  O   UNL A   1      34.194  20.634  25.009  1.00  0.00    -0.258 OA
ATOM     21  O   UNL A   1      32.014  20.441  25.184  1.00  0.00    -0.258 OA
ENDBRANCH  18  19
ENDBRANCH  11  13
BRANCH  12  22
ATOM     22  C   UNL A   1      30.959  27.819  25.182  1.00  0.00    -0.023 A 
ATOM     23  C   UNL A   1      30.212  26.986  24.330  1.00  0.00     0.006 A 
ATOM     24  C   UNL A   1      31.123  29.166  24.813  1.00  0.00     0.006 A 
ATOM     25  C   UNL A   1      29.604  27.495  23.182  1.00  0.00     0.000 A 
ATOM     26  C   UNL A   1      30.504  29.675  23.671  1.00  0.00     0.000 A 
ATOM     27  C   UNL A   1      29.736  28.842  22.863  1.00  0.00     0.000 A 
ENDBRANCH  12  22
ENDBRANCH   6   8
ENDBRANCH   5   6
ENDBRANCH   4   5
ENDBRANCH   3   4
ENDBRANCH   2   3
ENDBRANCH   1   2
BRANCH   1  28
ATOM     28  C   UNL A   1      33.524  34.941  31.310  1.00  0.00     0.188 C 
BRANCH  28  29
ATOM     29  O   UNL A   1      34.492  35.597  32.122  1.00  0.00    -0.376 OA
BRANCH  29  30
ATOM     30  C   UNL A   1      35.598  34.819  32.584  1.00  0.00     0.202 C 
BRANCH  30  31
ATOM     31  C   UNL A   1      35.349  33.803  33.714  1.00  0.00     0.261 C 
BRANCH  31  32
ATOM     32  O   UNL A   1      36.128  32.591  33.641  1.00  0.00    -0.460 OA
BRANCH  32  33
ATOM     33  C   UNL A   1      36.119  31.970  32.442  1.00  0.00     0.338 C 
ATOM     34  O   UNL A   1      35.137  31.601  31.798  1.00  0.00    -0.246 OA
BRANCH  33  35
ATOM     35  C   UNL A   1      37.477  31.834  31.896  1.00  0.00     0.060 A 
ATOM     36  C   UNL A   1      37.706  32.141  30.549  1.00  0.00     0.016 A 
ATOM     37  C   UNL A   1      38.468  31.205  32.654  1.00  0.00     0.016 A 
ATOM     38  C   UNL A   1      38.914  31.784  29.944  1.00  0.00     0.010 A 
ATOM     39  C   UNL A   1      39.679  30.853  32.047  1.00  0.00     0.010 A 
ATOM     40  C   UNL A   1      39.893  31.101  30.679  1.00  0.00    -0.014 A 
BRANCH  40  41
ATOM     41  C   UNL A   1      41.063  30.498  29.988  1.00  0.00     0.031 A 
ATOM     42  C   UNL A   1      42.281  31.345  29.730  1.00  0.00     0.074 A 
ATOM     43  C   UNL A   1      41.056  29.212  29.594  1.00  0.00     0.049 A 
ATOM     44  N   UNL A   1      43.381  31.046  29.086  1.00  0.00    -0.248 NA
ATOM     45  C   UNL A   1      42.253  32.714  30.269  1.00  0.00     0.031 C 
ATOM     46  C   UNL A   1      39.961  28.268  29.809  1.00  0.00     0.029 A 
ATOM     47  N   UNL A   1      42.002  28.481  28.918  1.00  0.00    -0.354 N 
ATOM     48  C   UNL A   1      44.168  32.191  29.129  1.00  0.00     0.074 A 
ATOM     49  C   UNL A   1      43.410  33.198  29.840  1.00  0.00     0.031 C 
ATOM     50  C   UNL A   1      40.290  27.086  29.259  1.00  0.00     0.029 A 
ATOM     51  C   UNL A   1      41.606  27.198  28.631  1.00  0.00     0.049 A 
ATOM     52  H   UNL A   1      42.881  28.844  28.663  1.00  0.00     0.167 HD
ATOM     53  C   UNL A   1      45.412  32.386  28.630  1.00  0.00     0.037 A 
ATOM     54  C   UNL A   1      42.224  26.232  27.923  1.00  0.00     0.037 A 
ATOM     55  C   UNL A   1      46.180  31.389  27.933  1.00  0.00     0.049 A 
ATOM     56  C   UNL A   1      43.585  26.491  27.329  1.00  0.00     0.074 A 
ATOM     57  C   UNL A   1      47.461  31.491  27.418  1.00  0.00     0.029 A 
ATOM     58  N   UNL A   1      45.736  30.107  27.649  1.00  0.00    -0.354 N 
ATOM     59  N   UNL A   1      44.327  27.568  27.399  1.00  0.00    -0.248 NA
ATOM     60  C   UNL A   1      44.193  25.395  26.558  1.00  0.00     0.031 C 
ATOM     61  C   UNL A   1      47.777  30.284  26.786  1.00  0.00     0.029 A 
ATOM     62  C   UNL A   1      46.710  29.416  26.946  1.00  0.00     0.049 A 
ATOM     63  H   UNL A   1      44.860  29.742  27.908  1.00  0.00     0.167 HD
ATOM     64  C   UNL A   1      45.497  27.271  26.708  1.00  0.00     0.074 A 
ATOM     65  C   UNL A   1      45.371  25.910  26.235  1.00  0.00     0.031 C 
ATOM     66  C   UNL A   1      46.580  28.057  26.488  1.00  0.00     0.037 A 
BRANCH  53  67
ATOM     67  C   UNL A   1      46.017  33.747  28.804  1.00  0.00     0.057 A 
ATOM     68  C   UNL A   1      46.816  34.065  29.909  1.00  0.00     0.134 A 
ATOM     69  C   UNL A   1      45.825  34.741  27.835  1.00  0.00     0.134 A 
ATOM     70  F   UNL A   1      47.028  33.161  30.877  1.00  0.00    -0.206 F 
ATOM     71  C   UNL A   1      47.387  35.331  30.056  1.00  0.00     0.040 A 
ATOM     72  C   UNL A   1      46.409  36.002  27.959  1.00  0.00     0.040 A 
ATOM     73  F   UNL A   1      45.075  34.498  26.750  1.00  0.00    -0.206 F 
ATOM     74  C   UNL A   1      47.188  36.301  29.075  1.00  0.00     0.006 A 
ENDBRANCH  53  67
BRANCH  54  75
ATOM     75  C   UNL A   1      41.557  24.921  27.718  1.00  0.00     0.057 A 
ATOM     76  C   UNL A   1      40.543  24.765  26.767  1.00  0.00     0.134 A 
ATOM     77  C   UNL A   1      41.897  23.805  28.490  1.00  0.00     0.134 A 
ATOM     78  F   UNL A   1      40.157  25.806  26.014  1.00  0.00    -0.206 F 
ATOM     79  C   UNL A   1      39.878  23.550  26.602  1.00  0.00     0.040 A 
ATOM     80  C   UNL A   1      41.257  22.577  28.321  1.00  0.00     0.040 A 
ATOM     81  F   UNL A   1      42.863  23.890  29.417  1.00  0.00    -0.206 F 
ATOM     82  C   UNL A   1      40.237  22.449  27.379  1.00  0.00     0.006 A 
ENDBRANCH  54  75
BRANCH  66  83
ATOM     83  C   UNL A   1      47.732  27.459  25.734  1.00  0.00     0.057 A 
ATOM     84  C   UNL A   1      47.824  27.539  24.338  1.00  0.00     0.134 A 
ATOM     85  C   UNL A   1      48.784  26.836  26.416  1.00  0.00     0.134 A 
ATOM     86  F   UNL A   1      46.843  28.111  23.624  1.00  0.00    -0.206 F 
ATOM     87  C   UNL A   1      48.915  27.007  23.648  1.00  0.00     0.040 A 
ATOM     88  C   UNL A   1      49.892  26.321  25.740  1.00  0.00     0.040 A 
ATOM     89  F   UNL A   1      48.762  26.734  27.754  1.00  0.00    -0.206 F 
ATOM     90  C   UNL A   1      49.955  26.402  24.350  1.00  0.00     0.006 A 
ENDBRANCH  66  83
ENDBRANCH  40  41
ENDBRANCH  33  35
ENDBRANCH  32  33
ENDBRANCH  31  32
ENDBRANCH  30  31
ENDBRANCH  29  30
ENDBRANCH  28  29
ENDBRANCH   1  28
TORSDOF 20
ENDMDL
MODEL 2
REMARK VINA RESULT:     -10.5      2.170      8.478
REMARK SMILES O=C(OCCOCCOCCOC(=O)c1ccc(-c2c3nc(c(-c4c(F)cccc4F)c4ccc([nH]4)c(-c4c(F)cccc4F)c4nc(c(-c5c(F)cccc5F)c5ccc2[nH]5)C=C4)C=C3)cc1)C1=NN(c2ccc([N+](=O)[O-])cc2)[C@H](c2ccccc2)C1
REMARK SMILES IDX 7 1 6 2 5 3 4 4 3 5 2 6 1 7 69 8 70 9 88 10 71 11 81 12
REMARK SMILES IDX 72 13 73 14 80 15 74 16 79 17 75 18 76 19 77 20 78 21 82 22
REMARK SMILES IDX 83 23 87 24 84 25 86 26 85 27 8 28 9 29 10 30 11 31 12 32
REMARK SMILES IDX 13 33 14 34 15 35 16 36 68 37 17 38 67 39 18 40 19 41 20 42
REMARK SMILES IDX 61 43 21 44 66 45 60 46 62 47 22 48 65 49 59 50 58 51 23 53
REMARK SMILES IDX 49 54 32 55 48 56 33 57 36 58 47 59 63 60 34 61 35 62 46 64
REMARK SMILES IDX 64 65 37 66 24 67 25 68 30 69 26 70 27 71 29 72 31 73 28 74
REMARK SMILES IDX 50 75 51 76 56 77 52 78 53 79 55 80 57 81 54 82 38 83 39 84
REMARK SMILES IDX 44 85 40 86 41 87 43 88 45 89 42 90
REMARK H PARENT 62 52 36 63
REMARK Flexibility Score: inf
ROOT
ATOM      1  C   UNL A   1      34.985  21.454  25.559  1.00  0.00     0.188 C 
ENDROOT
BRANCH   1   2
ATOM      2  O   UNL A   1      34.103  20.438  25.132  1.00  0.00    -0.376 OA
BRANCH   2   3
ATOM      3  C   UNL A   1      32.758  20.755  24.801  1.00  0.00     0.202 C 
BRANCH   3   4
ATOM      4  C   UNL A   1      32.373  21.704  23.648  1.00  0.00     0.261 C 
BRANCH   4   5
ATOM      5  O   UNL A   1      32.464  23.139  23.800  1.00  0.00    -0.459 OA
BRANCH   5   6
ATOM      6  C   UNL A   1      33.171  24.014  23.086  1.00  0.00     0.354 C 
ATOM      7  O   UNL A   1      34.120  23.680  22.388  1.00  0.00    -0.245 OA
BRANCH   6   8
ATOM      8  C   UNL A   1      32.917  25.485  23.242  1.00  0.00     0.148 C 
ATOM      9  N   UNL A   1      32.910  26.115  24.371  1.00  0.00    -0.169 NA
ATOM     10  C   UNL A   1      32.716  26.345  22.021  1.00  0.00     0.098 C 
ATOM     11  N   UNL A   1      32.702  27.409  24.047  1.00  0.00    -0.257 N 
ATOM     12  C   UNL A   1      32.103  27.564  22.721  1.00  0.00     0.144 C 
BRANCH  11  13
ATOM     13  C   UNL A   1      32.949  28.408  24.964  1.00  0.00     0.061 A 
ATOM     14  C   UNL A   1      34.126  28.404  25.722  1.00  0.00     0.035 A 
ATOM     15  C   UNL A   1      32.011  29.423  25.185  1.00  0.00     0.035 A 
ATOM     16  C   UNL A   1      34.374  29.398  26.672  1.00  0.00     0.088 A 
ATOM     17  C   UNL A   1      32.253  30.440  26.110  1.00  0.00     0.088 A 
ATOM     18  C   UNL A   1      33.438  30.422  26.853  1.00  0.00     0.269 A 
BRANCH  18  19
ATOM     19  N   UNL A   1      33.699  31.482  27.831  1.00  0.00     0.062 N 
ATOM     20  O   UNL A   1      33.123  32.569  27.671  1.00  0.00    -0.258 OA
ATOM     21  O   UNL A   1      34.478  31.228  28.762  1.00  0.00    -0.258 OA
ENDBRANCH  18  19
ENDBRANCH  11  13
BRANCH  12  22
ATOM     22  C   UNL A   1      30.583  27.532  22.894  1.00  0.00    -0.023 A 
ATOM     23  C   UNL A   1      29.911  26.521  23.605  1.00  0.00     0.006 A 
ATOM     24  C   UNL A   1      29.840  28.650  22.473  1.00  0.00     0.006 A 
ATOM     25  C   UNL A   1      28.561  26.650  23.932  1.00  0.00     0.000 A 
ATOM     26  C   UNL A   1      28.493  28.782  22.812  1.00  0.00     0.000 A 
ATOM     27  C   UNL A   1      27.857  27.788  23.550  1.00  0.00     0.000 A 
ENDBRANCH  12  22
ENDBRANCH   6   8
ENDBRANCH   5   6
ENDBRANCH   4   5
ENDBRANCH   3   4
ENDBRANCH   2   3
ENDBRANCH   1   2
BRANCH   1  28
ATOM     28  C   UNL A   1      36.168  21.659  24.608  1.00  0.00     0.188 C 
BRANCH  28  29
ATOM     29  O   UNL A   1      37.444  21.240  25.078  1.00  0.00    -0.376 OA
BRANCH  29  30
ATOM     30  C   UNL A   1      37.766  19.853  24.961  1.00  0.00     0.202 C 
BRANCH  30  31
ATOM     31  C   UNL A   1      39.189  19.404  25.340  1.00  0.00     0.261 C 
BRANCH  31  32
ATOM     32  O   UNL A   1      39.634  19.794  26.656  1.00  0.00    -0.460 OA
BRANCH  32  33
ATOM     33  C   UNL A   1      40.906  20.243  26.725  1.00  0.00     0.338 C 
ATOM     34  O   UNL A   1      41.928  19.652  26.377  1.00  0.00    -0.246 OA
BRANCH  33  35
ATOM     35  C   UNL A   1      40.961  21.628  27.215  1.00  0.00     0.060 A 
ATOM     36  C   UNL A   1      40.294  22.632  26.502  1.00  0.00     0.016 A 
ATOM     37  C   UNL A   1      41.840  21.962  28.248  1.00  0.00     0.016 A 
ATOM     38  C   UNL A   1      40.534  23.977  26.795  1.00  0.00     0.010 A 
ATOM     39  C   UNL A   1      42.075  23.310  28.543  1.00  0.00     0.010 A 
ATOM     40  C   UNL A   1      41.457  24.326  27.790  1.00  0.00    -0.014 A 
BRANCH  40  41
ATOM     41  C   UNL A   1      41.906  25.736  27.934  1.00  0.00     0.031 A 
ATOM     42  C   UNL A   1      43.237  26.145  27.362  1.00  0.00     0.074 A 
ATOM     43  C   UNL A   1      41.145  26.651  28.560  1.00  0.00     0.049 A 
ATOM     44  N   UNL A   1      43.853  27.299  27.431  1.00  0.00    -0.248 NA
ATOM     45  C   UNL A   1      43.973  25.114  26.612  1.00  0.00     0.031 C 
ATOM     46  C   UNL A   1      39.822  26.404  29.131  1.00  0.00     0.029 A 
ATOM     47  N   UNL A   1      41.385  27.976  28.830  1.00  0.00    -0.354 N 
ATOM     48  C   UNL A   1      45.053  27.128  26.749  1.00  0.00     0.074 A 
ATOM     49  C   UNL A   1      45.089  25.755  26.295  1.00  0.00     0.031 C 
ATOM     50  C   UNL A   1      39.374  27.537  29.699  1.00  0.00     0.029 A 
ATOM     51  C   UNL A   1      40.388  28.580  29.557  1.00  0.00     0.049 A 
ATOM     52  H   UNL A   1      42.196  28.448  28.531  1.00  0.00     0.167 HD
ATOM     53  C   UNL A   1      46.032  28.033  26.515  1.00  0.00     0.037 A 
ATOM     54  C   UNL A   1      40.313  29.825  30.068  1.00  0.00     0.037 A 
ATOM     55  C   UNL A   1      46.001  29.404  26.950  1.00  0.00     0.049 A 
ATOM     56  C   UNL A   1      41.441  30.799  29.840  1.00  0.00     0.074 A 
ATOM     57  C   UNL A   1      46.938  30.400  26.731  1.00  0.00     0.029 A 
ATOM     58  N   UNL A   1      44.981  29.972  27.697  1.00  0.00    -0.354 N 
ATOM     59  N   UNL A   1      42.557  30.633  29.173  1.00  0.00    -0.248 NA
ATOM     60  C   UNL A   1      41.296  32.136  30.439  1.00  0.00     0.031 C 
ATOM     61  C   UNL A   1      46.504  31.560  27.381  1.00  0.00     0.029 A 
ATOM     62  C   UNL A   1      45.276  31.299  27.967  1.00  0.00     0.049 A 
ATOM     63  H   UNL A   1      44.168  29.503  27.992  1.00  0.00     0.167 HD
ATOM     64  C   UNL A   1      43.230  31.847  29.248  1.00  0.00     0.074 A 
ATOM     65  C   UNL A   1      42.395  32.744  30.016  1.00  0.00     0.031 C 
ATOM     66  C   UNL A   1      44.434  32.188  28.724  1.00  0.00     0.037 A 
BRANCH  53  67
ATOM     67  C   UNL A   1      47.240  27.560  25.763  1.00  0.00     0.057 A 
ATOM     68  C   UNL A   1      48.349  27.007  26.415  1.00  0.00     0.134 A 
ATOM     69  C   UNL A   1      47.279  27.629  24.363  1.00  0.00     0.134 A 
ATOM     70  F   UNL A   1      48.378  26.926  27.754  1.00  0.00    -0.206 F 
ATOM     71  C   UNL A   1      49.463  26.557  25.705  1.00  0.00     0.040 A 
ATOM     72  C   UNL A   1      48.377  27.161  23.641  1.00  0.00     0.040 A 
ATOM     73  F   UNL A   1      46.247  28.143  23.678  1.00  0.00    -0.206 F 
ATOM     74  C   UNL A   1      49.476  26.629  24.312  1.00  0.00     0.006 A 
ENDBRANCH  53  67
BRANCH  54  75
ATOM     75  C   UNL A   1      39.128  30.230  30.864  1.00  0.00     0.057 A 
ATOM     76  C   UNL A   1      38.060  30.917  30.276  1.00  0.00     0.134 A 
ATOM     77  C   UNL A   1      39.049  29.966  32.236  1.00  0.00     0.134 A 
ATOM     78  F   UNL A   1      38.090  31.220  28.970  1.00  0.00    -0.206 F 
ATOM     79  C   UNL A   1      36.965  31.344  31.027  1.00  0.00     0.040 A 
ATOM     80  C   UNL A   1      37.950  30.365  32.996  1.00  0.00     0.040 A 
ATOM     81  F   UNL A   1      40.040  29.308  32.857  1.00  0.00    -0.206 F 
ATOM     82  C   UNL A   1      36.906  31.065  32.392  1.00  0.00     0.006 A 
ENDBRANCH  54  75
BRANCH  66  83
ATOM     83  C   UNL A   1      44.907  33.597  28.928  1.00  0.00     0.057 A 
ATOM     84  C   UNL A   1      44.558  34.630  28.049  1.00  0.00     0.134 A 
ATOM     85  C   UNL A   1      45.682  33.934  30.045  1.00  0.00     0.134 A 
ATOM     86  F   UNL A   1      43.828  34.372  26.954  1.00  0.00    -0.206 F 
ATOM     87  C   UNL A   1      44.977  35.945  28.265  1.00  0.00     0.040 A 
ATOM     88  C   UNL A   1      46.088  35.248  30.285  1.00  0.00     0.040 A 
ATOM     89  F   UNL A   1      46.045  32.994  30.931  1.00  0.00    -0.206 F 
ATOM     90  C   UNL A   1      45.739  36.257  29.389  1.00  0.00     0.006 A 
ENDBRANCH  66  83
ENDBRANCH  40  41
ENDBRANCH  33  35
ENDBRANCH  32  33
ENDBRANCH  31  32
ENDBRANCH  30  31
ENDBRANCH  29  30
ENDBRANCH  28  29
ENDBRANCH   1  28
TORSDOF 20
ENDMDL
MODEL 3
REMARK VINA RESULT:     -10.5      2.336      8.573
REMARK SMILES O=C(OCCOCCOCCOC(=O)c1ccc(-c2c3nc(c(-c4c(F)cccc4F)c4ccc([nH]4)c(-c4c(F)cccc4F)c4nc(c(-c5c(F)cccc5F)c5ccc2[nH]5)C=C4)C=C3)cc1)C1=NN(c2ccc([N+](=O)[O-])cc2)[C@H](c2ccccc2)C1
REMARK SMILES IDX 7 1 6 2 5 3 4 4 3 5 2 6 1 7 69 8 70 9 88 10 71 11 81 12
REMARK SMILES IDX 72 13 73 14 80 15 74 16 79 17 75 18 76 19 77 20 78 21 82 22
REMARK SMILES IDX 83 23 87 24 84 25 86 26 85 27 8 28 9 29 10 30 11 31 12 32
REMARK SMILES IDX 13 33 14 34 15 35 16 36 68 37 17 38 67 39 18 40 19 41 20 42
REMARK SMILES IDX 61 43 21 44 66 45 60 46 62 47 22 48 65 49 59 50 58 51 23 53
REMARK SMILES IDX 49 54 32 55 48 56 33 57 36 58 47 59 63 60 34 61 35 62 46 64
REMARK SMILES IDX 64 65 37 66 24 67 25 68 30 69 26 70 27 71 29 72 31 73 28 74
REMARK SMILES IDX 50 75 51 76 56 77 52 78 53 79 55 80 57 81 54 82 38 83 39 84
REMARK SMILES IDX 44 85 40 86 41 87 43 88 45 89 42 90
REMARK H PARENT 62 52 36 63
REMARK Flexibility Score: inf
ROOT
ATOM      1  C   UNL A   1      35.181  22.169  25.455  1.00  0.00     0.188 C 
ENDROOT
BRANCH   1   2
ATOM      2  O   UNL A   1      34.395  21.014  25.657  1.00  0.00    -0.376 OA
BRANCH   2   3
ATOM      3  C   UNL A   1      33.081  21.130  26.185  1.00  0.00     0.202 C 
BRANCH   3   4
ATOM      4  C   UNL A   1      31.893  21.694  25.380  1.00  0.00     0.261 C 
BRANCH   4   5
ATOM      5  O   UNL A   1      31.734  23.117  25.180  1.00  0.00    -0.459 OA
BRANCH   5   6
ATOM      6  C   UNL A   1      31.721  24.094  26.085  1.00  0.00     0.354 C 
ATOM      7  O   UNL A   1      31.398  23.907  27.252  1.00  0.00    -0.245 OA
BRANCH   6   8
ATOM      8  C   UNL A   1      31.955  25.514  25.657  1.00  0.00     0.148 C 
ATOM      9  N   UNL A   1      31.974  26.530  26.456  1.00  0.00    -0.169 NA
ATOM     10  C   UNL A   1      32.261  25.820  24.214  1.00  0.00     0.098 C 
ATOM     11  N   UNL A   1      32.270  27.587  25.670  1.00  0.00    -0.257 N 
ATOM     12  C   UNL A   1      31.987  27.330  24.258  1.00  0.00     0.144 C 
BRANCH  11  13
ATOM     13  C   UNL A   1      32.684  28.778  26.226  1.00  0.00     0.061 A 
ATOM     14  C   UNL A   1      33.977  28.910  26.747  1.00  0.00     0.035 A 
ATOM     15  C   UNL A   1      31.808  29.865  26.318  1.00  0.00     0.035 A 
ATOM     16  C   UNL A   1      34.397  30.106  27.336  1.00  0.00     0.088 A 
ATOM     17  C   UNL A   1      32.217  31.077  26.879  1.00  0.00     0.088 A 
ATOM     18  C   UNL A   1      33.515  31.191  27.388  1.00  0.00     0.269 A 
BRANCH  18  19
ATOM     19  N   UNL A   1      33.953  32.457  27.983  1.00  0.00     0.062 N 
ATOM     20  O   UNL A   1      35.109  32.515  28.429  1.00  0.00    -0.258 OA
ATOM     21  O   UNL A   1      33.143  33.396  28.002  1.00  0.00    -0.258 OA
ENDBRANCH  18  19
ENDBRANCH  11  13
BRANCH  12  22
ATOM     22  C   UNL A   1      30.539  27.747  23.993  1.00  0.00    -0.023 A 
ATOM     23  C   UNL A   1      30.186  28.991  23.440  1.00  0.00     0.006 A 
ATOM     24  C   UNL A   1      29.528  26.782  24.150  1.00  0.00     0.006 A 
ATOM     25  C   UNL A   1      28.883  29.239  23.006  1.00  0.00     0.000 A 
ATOM     26  C   UNL A   1      28.229  27.029  23.705  1.00  0.00     0.000 A 
ATOM     27  C   UNL A   1      27.910  28.253  23.124  1.00  0.00     0.000 A 
ENDBRANCH  12  22
ENDBRANCH   6   8
ENDBRANCH   5   6
ENDBRANCH   4   5
ENDBRANCH   3   4
ENDBRANCH   2   3
ENDBRANCH   1   2
BRANCH   1  28
ATOM     28  C   UNL A   1      36.187  22.016  24.310  1.00  0.00     0.188 C 
BRANCH  28  29
ATOM     29  O   UNL A   1      37.488  21.559  24.660  1.00  0.00    -0.376 OA
BRANCH  29  30
ATOM     30  C   UNL A   1      37.630  20.180  25.006  1.00  0.00     0.202 C 
BRANCH  30  31
ATOM     31  C   UNL A   1      39.045  19.573  25.002  1.00  0.00     0.261 C 
BRANCH  31  32
ATOM     32  O   UNL A   1      39.795  19.739  26.224  1.00  0.00    -0.460 OA
BRANCH  32  33
ATOM     33  C   UNL A   1      41.120  19.494  26.126  1.00  0.00     0.338 C 
ATOM     34  O   UNL A   1      41.662  18.454  25.751  1.00  0.00    -0.246 OA
BRANCH  33  35
ATOM     35  C   UNL A   1      41.913  20.687  26.453  1.00  0.00     0.060 A 
ATOM     36  C   UNL A   1      42.046  21.072  27.794  1.00  0.00     0.016 A 
ATOM     37  C   UNL A   1      42.342  21.536  25.431  1.00  0.00     0.016 A 
ATOM     38  C   UNL A   1      42.573  22.326  28.113  1.00  0.00     0.010 A 
ATOM     39  C   UNL A   1      42.873  22.790  25.754  1.00  0.00     0.010 A 
ATOM     40  C   UNL A   1      42.953  23.210  27.094  1.00  0.00    -0.014 A 
BRANCH  40  41
ATOM     41  C   UNL A   1      43.272  24.627  27.412  1.00  0.00     0.031 A 
ATOM     42  C   UNL A   1      44.697  25.101  27.302  1.00  0.00     0.074 A 
ATOM     43  C   UNL A   1      42.313  25.491  27.790  1.00  0.00     0.049 A 
ATOM     44  N   UNL A   1      45.209  26.270  27.596  1.00  0.00    -0.248 NA
ATOM     45  C   UNL A   1      45.675  24.125  26.796  1.00  0.00     0.031 C 
ATOM     46  C   UNL A   1      40.890  25.179  27.905  1.00  0.00     0.029 A 
ATOM     47  N   UNL A   1      42.399  26.811  28.159  1.00  0.00    -0.354 N 
ATOM     48  C   UNL A   1      46.568  26.166  27.324  1.00  0.00     0.074 A 
ATOM     49  C   UNL A   1      46.805  24.813  26.867  1.00  0.00     0.031 C 
ATOM     50  C   UNL A   1      40.237  26.273  28.334  1.00  0.00     0.029 A 
ATOM     51  C   UNL A   1      41.198  27.353  28.549  1.00  0.00     0.049 A 
ATOM     52  H   UNL A   1      43.241  27.320  28.146  1.00  0.00     0.167 HD
ATOM     53  C   UNL A   1      47.532  27.111  27.438  1.00  0.00     0.037 A 
ATOM     54  C   UNL A   1      40.912  28.574  29.044  1.00  0.00     0.037 A 
ATOM     55  C   UNL A   1      47.305  28.461  27.878  1.00  0.00     0.049 A 
ATOM     56  C   UNL A   1      42.011  29.591  29.213  1.00  0.00     0.074 A 
ATOM     57  C   UNL A   1      48.220  29.495  27.996  1.00  0.00     0.029 A 
ATOM     58  N   UNL A   1      46.079  28.966  28.279  1.00  0.00    -0.354 N 
ATOM     59  N   UNL A   1      43.286  29.488  28.930  1.00  0.00    -0.248 NA
ATOM     60  C   UNL A   1      41.628  30.898  29.772  1.00  0.00     0.031 C 
ATOM     61  C   UNL A   1      47.553  30.614  28.506  1.00  0.00     0.029 A 
ATOM     62  C   UNL A   1      46.216  30.289  28.666  1.00  0.00     0.049 A 
ATOM     63  H   UNL A   1      45.235  28.459  28.288  1.00  0.00     0.167 HD
ATOM     64  C   UNL A   1      43.849  30.720  29.248  1.00  0.00     0.074 A 
ATOM     65  C   UNL A   1      42.776  31.558  29.737  1.00  0.00     0.031 C 
ATOM     66  C   UNL A   1      45.141  31.120  29.141  1.00  0.00     0.037 A 
BRANCH  53  67
ATOM     67  C   UNL A   1      48.935  26.707  27.094  1.00  0.00     0.057 A 
ATOM     68  C   UNL A   1      49.824  26.223  28.061  1.00  0.00     0.134 A 
ATOM     69  C   UNL A   1      49.390  26.774  25.770  1.00  0.00     0.134 A 
ATOM     70  F   UNL A   1      49.452  26.147  29.348  1.00  0.00    -0.206 F 
ATOM     71  C   UNL A   1      51.123  25.837  27.729  1.00  0.00     0.040 A 
ATOM     72  C   UNL A   1      50.679  26.369  25.422  1.00  0.00     0.040 A 
ATOM     73  F   UNL A   1      48.586  27.224  24.796  1.00  0.00    -0.206 F 
ATOM     74  C   UNL A   1      51.551  25.904  26.403  1.00  0.00     0.006 A 
ENDBRANCH  53  67
BRANCH  54  75
ATOM     75  C   UNL A   1      39.520  28.908  29.435  1.00  0.00     0.057 A 
ATOM     76  C   UNL A   1      38.623  29.464  28.516  1.00  0.00     0.134 A 
ATOM     77  C   UNL A   1      39.064  28.708  30.743  1.00  0.00     0.134 A 
ATOM     78  F   UNL A   1      39.010  29.702  27.254  1.00  0.00    -0.206 F 
ATOM     79  C   UNL A   1      37.328  29.826  28.888  1.00  0.00     0.040 A 
ATOM     80  C   UNL A   1      37.765  29.043  31.124  1.00  0.00     0.040 A 
ATOM     81  F   UNL A   1      39.876  28.176  31.669  1.00  0.00    -0.206 F 
ATOM     82  C   UNL A   1      36.894  29.612  30.196  1.00  0.00     0.006 A 
ENDBRANCH  54  75
BRANCH  66  83
ATOM     83  C   UNL A   1      45.464  32.534  29.525  1.00  0.00     0.057 A 
ATOM     84  C   UNL A   1      45.944  32.864  30.799  1.00  0.00     0.134 A 
ATOM     85  C   UNL A   1      45.338  33.572  28.593  1.00  0.00     0.134 A 
ATOM     86  F   UNL A   1      46.076  31.919  31.741  1.00  0.00    -0.206 F 
ATOM     87  C   UNL A   1      46.272  34.179  31.136  1.00  0.00     0.040 A 
ATOM     88  C   UNL A   1      45.685  34.887  28.910  1.00  0.00     0.040 A 
ATOM     89  F   UNL A   1      44.892  33.323  27.352  1.00  0.00    -0.206 F 
ATOM     90  C   UNL A   1      46.149  35.193  30.188  1.00  0.00     0.006 A 
ENDBRANCH  66  83
ENDBRANCH  40  41
ENDBRANCH  33  35
ENDBRANCH  32  33
ENDBRANCH  31  32
ENDBRANCH  30  31
ENDBRANCH  29  30
ENDBRANCH  28  29
ENDBRANCH   1  28
TORSDOF 20
ENDMDL
