MODEL 1
REMARK VINA RESULT:     -10.7      0.000      0.000
REMARK SMILES Cc1nonc1C[C@@H](C(=O)OCCOCCOCCOC(=O)c1ccc(-c2c3nc(c(-c4c(F)cccc4F)c4ccc([nH]4)c(-c4c(F)cccc4F)c4nc(c(-c5c(F)cccc5F)c5ccc2[nH]5)C=C4)C=C3)cc1)c1ccccc1Br
REMARK SMILES IDX 15 1 14 2 13 3 12 4 11 5 9 6 10 7 8 8 7 9 6 10 1 11 2 12
REMARK SMILES IDX 3 13 4 14 5 15 77 16 78 17 82 18 79 19 81 20 83 21 80 22
REMARK SMILES IDX 16 23 17 24 18 25 19 26 20 27 21 28 22 29 23 30 24 31 76 32
REMARK SMILES IDX 25 33 75 34 26 35 27 36 28 37 69 38 29 39 74 40 68 41 70 42
REMARK SMILES IDX 30 43 73 44 67 45 66 46 31 48 57 49 40 50 56 51 41 52 44 53
REMARK SMILES IDX 55 54 71 55 42 56 43 57 54 59 72 60 45 61 32 62 33 63 38 64
REMARK SMILES IDX 34 65 35 66 37 67 39 68 36 69 58 70 59 71 64 72 60 73 61 74
REMARK SMILES IDX 63 75 65 76 62 77 46 78 47 79 52 80 48 81 49 82 51 83 53 84
REMARK SMILES IDX 50 85
REMARK H PARENT 70 47 44 58
REMARK Flexibility Score: inf
ROOT
ATOM      1  C   UNL A   1      31.474  29.682  24.490  1.00  0.00     0.188 C 
ENDROOT
BRANCH   1   2
ATOM      2  O   UNL A   1      31.837  28.692  23.543  1.00  0.00    -0.376 OA
BRANCH   2   3
ATOM      3  C   UNL A   1      33.219  28.424  23.326  1.00  0.00     0.202 C 
BRANCH   3   4
ATOM      4  C   UNL A   1      33.619  27.066  22.750  1.00  0.00     0.261 C 
BRANCH   4   5
ATOM      5  O   UNL A   1      33.665  26.063  23.775  1.00  0.00    -0.463 OA
BRANCH   5   6
ATOM      6  C   UNL A   1      33.751  24.783  23.338  1.00  0.00     0.313 C 
ATOM      7  O   UNL A   1      33.915  24.459  22.166  1.00  0.00    -0.252 OA
BRANCH   6   8
ATOM      8  C   UNL A   1      33.669  23.776  24.477  1.00  0.00     0.136 C 
BRANCH   8   9
ATOM      9  C   UNL A   1      33.280  24.457  25.817  1.00  0.00     0.082 C 
BRANCH   9  10
ATOM     10  C   UNL A   1      31.994  24.160  26.507  1.00  0.00     0.109 A 
ATOM     11  C   UNL A   1      30.381  25.950  25.472  1.00  0.00     0.073 C 
ATOM     12  C   UNL A   1      30.742  24.787  26.310  1.00  0.00     0.105 A 
ATOM     13  N   UNL A   1      29.805  24.137  27.004  1.00  0.00    -0.055 NA
ATOM     14  O   UNL A   1      30.476  23.083  27.614  1.00  0.00    -0.244 OA
ATOM     15  N   UNL A   1      31.828  23.098  27.294  1.00  0.00    -0.055 NA
ENDBRANCH   9  10
ENDBRANCH   8   9
BRANCH   8  16
ATOM     16  C   UNL A   1      34.884  22.809  24.654  1.00  0.00    -0.019 A 
ATOM     17  C   UNL A   1      36.187  23.379  24.706  1.00  0.00     0.006 A 
ATOM     18  C   UNL A   1      34.829  21.414  24.862  1.00  0.00     0.022 A 
ATOM     19  C   UNL A   1      37.350  22.620  24.876  1.00  0.00     0.000 A 
ATOM     20  C   UNL A   1      36.007  20.651  25.009  1.00  0.00     0.016 A 
ATOM     21  Br  UNL A   1      33.241  20.390  25.065  1.00  0.00    -0.051 Br
ATOM     22  C   UNL A   1      37.262  21.249  25.011  1.00  0.00     0.001 A 
ENDBRANCH   8  16
ENDBRANCH   6   8
ENDBRANCH   5   6
ENDBRANCH   4   5
ENDBRANCH   3   4
ENDBRANCH   2   3
ENDBRANCH   1   2
BRANCH   1  23
ATOM     23  C   UNL A   1      32.425  30.048  25.642  1.00  0.00     0.188 C 
BRANCH  23  24
ATOM     24  O   UNL A   1      32.033  30.824  26.757  1.00  0.00    -0.376 OA
BRANCH  24  25
ATOM     25  C   UNL A   1      31.340  32.046  26.566  1.00  0.00     0.202 C 
BRANCH  25  26
ATOM     26  C   UNL A   1      32.045  33.383  26.818  1.00  0.00     0.261 C 
BRANCH  26  27
ATOM     27  O   UNL A   1      32.205  33.712  28.200  1.00  0.00    -0.460 OA
BRANCH  27  28
ATOM     28  C   UNL A   1      33.244  34.545  28.465  1.00  0.00     0.338 C 
ATOM     29  O   UNL A   1      33.223  35.753  28.593  1.00  0.00    -0.246 OA
BRANCH  28  30
ATOM     30  C   UNL A   1      34.419  33.717  28.801  1.00  0.00     0.060 A 
ATOM     31  C   UNL A   1      34.189  32.396  29.213  1.00  0.00     0.016 A 
ATOM     32  C   UNL A   1      35.716  34.217  28.686  1.00  0.00     0.016 A 
ATOM     33  C   UNL A   1      35.263  31.570  29.525  1.00  0.00     0.010 A 
ATOM     34  C   UNL A   1      36.791  33.398  29.033  1.00  0.00     0.010 A 
ATOM     35  C   UNL A   1      36.565  32.083  29.477  1.00  0.00    -0.014 A 
BRANCH  35  36
ATOM     36  C   UNL A   1      37.665  31.318  30.100  1.00  0.00     0.031 A 
ATOM     37  C   UNL A   1      37.956  31.564  31.553  1.00  0.00     0.074 A 
ATOM     38  C   UNL A   1      38.377  30.418  29.403  1.00  0.00     0.049 A 
ATOM     39  N   UNL A   1      38.897  31.061  32.308  1.00  0.00    -0.248 NA
ATOM     40  C   UNL A   1      37.062  32.508  32.245  1.00  0.00     0.031 C 
ATOM     41  C   UNL A   1      38.161  30.065  28.002  1.00  0.00     0.029 A 
ATOM     42  N   UNL A   1      39.438  29.640  29.790  1.00  0.00    -0.354 N 
ATOM     43  C   UNL A   1      38.714  31.633  33.560  1.00  0.00     0.074 A 
ATOM     44  C   UNL A   1      37.586  32.533  33.461  1.00  0.00     0.031 C 
ATOM     45  C   UNL A   1      39.073  29.144  27.641  1.00  0.00     0.029 A 
ATOM     46  C   UNL A   1      39.954  28.871  28.775  1.00  0.00     0.049 A 
ATOM     47  H   UNL A   1      39.797  29.633  30.706  1.00  0.00     0.167 HD
ATOM     48  C   UNL A   1      39.424  31.427  34.693  1.00  0.00     0.037 A 
ATOM     49  C   UNL A   1      41.032  28.064  28.767  1.00  0.00     0.037 A 
ATOM     50  C   UNL A   1      40.555  30.547  34.787  1.00  0.00     0.049 A 
ATOM     51  C   UNL A   1      41.855  27.912  30.020  1.00  0.00     0.074 A 
ATOM     52  C   UNL A   1      41.340  30.268  35.892  1.00  0.00     0.029 A 
ATOM     53  N   UNL A   1      41.069  29.812  33.731  1.00  0.00    -0.354 N 
ATOM     54  N   UNL A   1      41.665  28.440  31.206  1.00  0.00    -0.248 NA
ATOM     55  C   UNL A   1      43.050  27.059  29.931  1.00  0.00     0.031 C 
ATOM     56  C   UNL A   1      42.358  29.396  35.492  1.00  0.00     0.029 A 
ATOM     57  C   UNL A   1      42.178  29.096  34.150  1.00  0.00     0.049 A 
ATOM     58  H   UNL A   1      40.701  29.799  32.818  1.00  0.00     0.167 HD
ATOM     59  C   UNL A   1      42.700  27.967  32.005  1.00  0.00     0.074 A 
ATOM     60  C   UNL A   1      43.505  27.097  31.174  1.00  0.00     0.031 C 
ATOM     61  C   UNL A   1      42.962  28.229  33.310  1.00  0.00     0.037 A 
BRANCH  48  62
ATOM     62  C   UNL A   1      39.012  32.202  35.906  1.00  0.00     0.057 A 
ATOM     63  C   UNL A   1      38.178  31.649  36.887  1.00  0.00     0.134 A 
ATOM     64  C   UNL A   1      39.458  33.515  36.097  1.00  0.00     0.134 A 
ATOM     65  F   UNL A   1      37.698  30.404  36.749  1.00  0.00    -0.206 F 
ATOM     66  C   UNL A   1      37.788  32.384  38.008  1.00  0.00     0.040 A 
ATOM     67  C   UNL A   1      39.093  34.251  37.225  1.00  0.00     0.040 A 
ATOM     68  F   UNL A   1      40.254  34.102  35.192  1.00  0.00    -0.206 F 
ATOM     69  C   UNL A   1      38.251  33.687  38.181  1.00  0.00     0.006 A 
ENDBRANCH  48  62
BRANCH  49  70
ATOM     70  C   UNL A   1      41.420  27.348  27.525  1.00  0.00     0.057 A 
ATOM     71  C   UNL A   1      41.034  26.021  27.305  1.00  0.00     0.134 A 
ATOM     72  C   UNL A   1      42.219  27.959  26.551  1.00  0.00     0.134 A 
ATOM     73  F   UNL A   1      40.291  25.375  28.215  1.00  0.00    -0.206 F 
ATOM     74  C   UNL A   1      41.444  25.320  26.169  1.00  0.00     0.040 A 
ATOM     75  C   UNL A   1      42.614  27.278  25.399  1.00  0.00     0.040 A 
ATOM     76  F   UNL A   1      42.623  29.228  26.705  1.00  0.00    -0.206 F 
ATOM     77  C   UNL A   1      42.234  25.951  25.210  1.00  0.00     0.006 A 
ENDBRANCH  49  70
BRANCH  61  78
ATOM     78  C   UNL A   1      44.148  27.547  33.927  1.00  0.00     0.057 A 
ATOM     79  C   UNL A   1      44.050  26.272  34.500  1.00  0.00     0.134 A 
ATOM     80  C   UNL A   1      45.412  28.150  33.900  1.00  0.00     0.134 A 
ATOM     81  F   UNL A   1      42.867  25.645  34.567  1.00  0.00    -0.206 F 
ATOM     82  C   UNL A   1      45.167  25.631  35.041  1.00  0.00     0.040 A 
ATOM     83  C   UNL A   1      46.538  27.509  34.415  1.00  0.00     0.040 A 
ATOM     84  F   UNL A   1      45.574  29.366  33.356  1.00  0.00    -0.206 F 
ATOM     85  C   UNL A   1      46.416  26.246  34.993  1.00  0.00     0.006 A 
ENDBRANCH  61  78
ENDBRANCH  35  36
ENDBRANCH  28  30
ENDBRANCH  27  28
ENDBRANCH  26  27
ENDBRANCH  25  26
ENDBRANCH  24  25
ENDBRANCH  23  24
ENDBRANCH   1  23
TORSDOF 20
ENDMDL
MODEL 2
REMARK VINA RESULT:      -9.9      3.085      8.167
REMARK SMILES Cc1nonc1C[C@@H](C(=O)OCCOCCOCCOC(=O)c1ccc(-c2c3nc(c(-c4c(F)cccc4F)c4ccc([nH]4)c(-c4c(F)cccc4F)c4nc(c(-c5c(F)cccc5F)c5ccc2[nH]5)C=C4)C=C3)cc1)c1ccccc1Br
REMARK SMILES IDX 15 1 14 2 13 3 12 4 11 5 9 6 10 7 8 8 7 9 6 10 1 11 2 12
REMARK SMILES IDX 3 13 4 14 5 15 77 16 78 17 82 18 79 19 81 20 83 21 80 22
REMARK SMILES IDX 16 23 17 24 18 25 19 26 20 27 21 28 22 29 23 30 24 31 76 32
REMARK SMILES IDX 25 33 75 34 26 35 27 36 28 37 69 38 29 39 74 40 68 41 70 42
REMARK SMILES IDX 30 43 73 44 67 45 66 46 31 48 57 49 40 50 56 51 41 52 44 53
REMARK SMILES IDX 55 54 71 55 42 56 43 57 54 59 72 60 45 61 32 62 33 63 38 64
REMARK SMILES IDX 34 65 35 66 37 67 39 68 36 69 58 70 59 71 64 72 60 73 61 74
REMARK SMILES IDX 63 75 65 76 62 77 46 78 47 79 52 80 48 81 49 82 51 83 53 84
REMARK SMILES IDX 50 85
REMARK H PARENT 70 47 44 58
REMARK Flexibility Score: inf
ROOT
ATOM      1  C   UNL A   1      41.083  21.812  27.458  1.00  0.00     0.188 C 
ENDROOT
BRANCH   1   2
ATOM      2  O   UNL A   1      40.167  22.860  27.187  1.00  0.00    -0.376 OA
BRANCH   2   3
ATOM      3  C   UNL A   1      38.959  22.554  26.499  1.00  0.00     0.202 C 
BRANCH   3   4
ATOM      4  C   UNL A   1      38.018  23.699  26.128  1.00  0.00     0.261 C 
BRANCH   4   5
ATOM      5  O   UNL A   1      36.650  23.268  26.134  1.00  0.00    -0.463 OA
BRANCH   5   6
ATOM      6  C   UNL A   1      36.074  23.129  24.915  1.00  0.00     0.313 C 
ATOM      7  O   UNL A   1      36.683  22.847  23.888  1.00  0.00    -0.252 OA
BRANCH   6   8
ATOM      8  C   UNL A   1      34.564  23.314  24.963  1.00  0.00     0.136 C 
BRANCH   8   9
ATOM      9  C   UNL A   1      34.052  23.463  26.422  1.00  0.00     0.082 C 
BRANCH   9  10
ATOM     10  C   UNL A   1      32.638  23.816  26.728  1.00  0.00     0.109 A 
ATOM     11  C   UNL A   1      32.410  26.190  25.638  1.00  0.00     0.073 C 
ATOM     12  C   UNL A   1      31.934  24.980  26.340  1.00  0.00     0.105 A 
ATOM     13  N   UNL A   1      30.649  24.855  26.676  1.00  0.00    -0.055 NA
ATOM     14  O   UNL A   1      30.548  23.593  27.251  1.00  0.00    -0.244 OA
ATOM     15  N   UNL A   1      31.781  22.952  27.271  1.00  0.00    -0.055 NA
ENDBRANCH   9  10
ENDBRANCH   8   9
BRANCH   8  16
ATOM     16  C   UNL A   1      33.701  22.294  24.152  1.00  0.00    -0.019 A 
ATOM     17  C   UNL A   1      33.629  20.954  24.626  1.00  0.00     0.006 A 
ATOM     18  C   UNL A   1      32.895  22.578  23.028  1.00  0.00     0.022 A 
ATOM     19  C   UNL A   1      32.879  19.956  23.995  1.00  0.00     0.000 A 
ATOM     20  C   UNL A   1      32.160  21.561  22.382  1.00  0.00     0.016 A 
ATOM     21  Br  UNL A   1      32.602  24.303  22.287  1.00  0.00    -0.051 Br
ATOM     22  C   UNL A   1      32.154  20.255  22.859  1.00  0.00     0.001 A 
ENDBRANCH   8  16
ENDBRANCH   6   8
ENDBRANCH   5   6
ENDBRANCH   4   5
ENDBRANCH   3   4
ENDBRANCH   2   3
ENDBRANCH   1   2
BRANCH   1  23
ATOM     23  C   UNL A   1      42.057  21.326  26.372  1.00  0.00     0.188 C 
BRANCH  23  24
ATOM     24  O   UNL A   1      43.281  21.970  26.080  1.00  0.00    -0.376 OA
BRANCH  24  25
ATOM     25  C   UNL A   1      43.407  22.768  24.915  1.00  0.00     0.202 C 
BRANCH  25  26
ATOM     26  C   UNL A   1      43.275  24.292  25.004  1.00  0.00     0.261 C 
BRANCH  26  27
ATOM     27  O   UNL A   1      42.659  24.761  26.205  1.00  0.00    -0.460 OA
BRANCH  27  28
ATOM     28  C   UNL A   1      41.830  25.823  26.037  1.00  0.00     0.338 C 
ATOM     29  O   UNL A   1      41.102  26.063  25.093  1.00  0.00    -0.246 OA
BRANCH  28  30
ATOM     30  C   UNL A   1      41.775  26.566  27.310  1.00  0.00     0.060 A 
ATOM     31  C   UNL A   1      40.891  26.105  28.297  1.00  0.00     0.016 A 
ATOM     32  C   UNL A   1      42.594  27.672  27.542  1.00  0.00     0.016 A 
ATOM     33  C   UNL A   1      40.814  26.761  29.521  1.00  0.00     0.010 A 
ATOM     34  C   UNL A   1      42.491  28.350  28.757  1.00  0.00     0.010 A 
ATOM     35  C   UNL A   1      41.583  27.910  29.737  1.00  0.00    -0.014 A 
BRANCH  35  36
ATOM     36  C   UNL A   1      41.277  28.776  30.895  1.00  0.00     0.031 A 
ATOM     37  C   UNL A   1      40.139  29.748  30.762  1.00  0.00     0.074 A 
ATOM     38  C   UNL A   1      41.975  28.692  32.039  1.00  0.00     0.049 A 
ATOM     39  N   UNL A   1      39.711  30.645  31.611  1.00  0.00    -0.248 NA
ATOM     40  C   UNL A   1      39.385  29.700  29.499  1.00  0.00     0.031 C 
ATOM     41  C   UNL A   1      43.071  27.762  32.298  1.00  0.00     0.029 A 
ATOM     42  N   UNL A   1      41.862  29.417  33.198  1.00  0.00    -0.354 N 
ATOM     43  C   UNL A   1      38.644  31.273  30.982  1.00  0.00     0.074 A 
ATOM     44  C   UNL A   1      38.501  30.669  29.675  1.00  0.00     0.031 C 
ATOM     45  C   UNL A   1      43.540  27.979  33.540  1.00  0.00     0.029 A 
ATOM     46  C   UNL A   1      42.799  29.086  34.145  1.00  0.00     0.049 A 
ATOM     47  H   UNL A   1      41.176  30.109  33.338  1.00  0.00     0.167 HD
ATOM     48  C   UNL A   1      37.855  32.266  31.450  1.00  0.00     0.037 A 
ATOM     49  C   UNL A   1      43.041  29.638  35.350  1.00  0.00     0.037 A 
ATOM     50  C   UNL A   1      38.008  32.879  32.741  1.00  0.00     0.049 A 
ATOM     51  C   UNL A   1      42.199  30.797  35.817  1.00  0.00     0.074 A 
ATOM     52  C   UNL A   1      37.257  33.891  33.309  1.00  0.00     0.029 A 
ATOM     53  N   UNL A   1      38.990  32.541  33.659  1.00  0.00    -0.354 N 
ATOM     54  N   UNL A   1      41.179  31.373  35.225  1.00  0.00    -0.248 NA
ATOM     55  C   UNL A   1      42.548  31.389  37.117  1.00  0.00     0.031 C 
ATOM     56  C   UNL A   1      37.813  34.198  34.555  1.00  0.00     0.029 A 
ATOM     57  C   UNL A   1      38.881  33.342  34.782  1.00  0.00     0.049 A 
ATOM     58  H   UNL A   1      39.665  31.836  33.532  1.00  0.00     0.167 HD
ATOM     59  C   UNL A   1      40.754  32.377  36.088  1.00  0.00     0.074 A 
ATOM     60  C   UNL A   1      41.615  32.321  37.251  1.00  0.00     0.031 C 
ATOM     61  C   UNL A   1      39.743  33.267  35.933  1.00  0.00     0.037 A 
BRANCH  48  62
ATOM     62  C   UNL A   1      36.780  32.771  30.538  1.00  0.00     0.057 A 
ATOM     63  C   UNL A   1      37.041  33.729  29.549  1.00  0.00     0.134 A 
ATOM     64  C   UNL A   1      35.471  32.289  30.646  1.00  0.00     0.134 A 
ATOM     65  F   UNL A   1      38.270  34.247  29.411  1.00  0.00    -0.206 F 
ATOM     66  C   UNL A   1      36.029  34.204  28.712  1.00  0.00     0.040 A 
ATOM     67  C   UNL A   1      34.457  32.739  29.800  1.00  0.00     0.040 A 
ATOM     68  F   UNL A   1      35.156  31.374  31.575  1.00  0.00    -0.206 F 
ATOM     69  C   UNL A   1      34.734  33.703  28.833  1.00  0.00     0.006 A 
ENDBRANCH  48  62
BRANCH  49  70
ATOM     70  C   UNL A   1      44.145  29.124  36.200  1.00  0.00     0.057 A 
ATOM     71  C   UNL A   1      45.402  29.737  36.201  1.00  0.00     0.134 A 
ATOM     72  C   UNL A   1      43.980  27.984  36.997  1.00  0.00     0.134 A 
ATOM     73  F   UNL A   1      45.628  30.816  35.437  1.00  0.00    -0.206 F 
ATOM     74  C   UNL A   1      46.464  29.225  36.950  1.00  0.00     0.040 A 
ATOM     75  C   UNL A   1      45.025  27.478  37.770  1.00  0.00     0.040 A 
ATOM     76  F   UNL A   1      42.800  27.350  37.037  1.00  0.00    -0.206 F 
ATOM     77  C   UNL A   1      46.275  28.093  37.741  1.00  0.00     0.006 A 
ENDBRANCH  49  70
BRANCH  61  78
ATOM     78  C   UNL A   1      39.492  34.231  37.055  1.00  0.00     0.057 A 
ATOM     79  C   UNL A   1      38.745  33.872  38.184  1.00  0.00     0.134 A 
ATOM     80  C   UNL A   1      40.050  35.516  37.029  1.00  0.00     0.134 A 
ATOM     81  F   UNL A   1      38.175  32.661  38.266  1.00  0.00    -0.206 F 
ATOM     82  C   UNL A   1      38.546  34.764  39.240  1.00  0.00     0.040 A 
ATOM     83  C   UNL A   1      39.879  36.407  38.089  1.00  0.00     0.040 A 
ATOM     84  F   UNL A   1      40.784  35.919  35.981  1.00  0.00    -0.206 F 
ATOM     85  C   UNL A   1      39.120  36.034  39.197  1.00  0.00     0.006 A 
ENDBRANCH  61  78
ENDBRANCH  35  36
ENDBRANCH  28  30
ENDBRANCH  27  28
ENDBRANCH  26  27
ENDBRANCH  25  26
ENDBRANCH  24  25
ENDBRANCH  23  24
ENDBRANCH   1  23
TORSDOF 20
ENDMDL
MODEL 3
REMARK VINA RESULT:      -9.9      1.297      2.692
REMARK SMILES Cc1nonc1C[C@@H](C(=O)OCCOCCOCCOC(=O)c1ccc(-c2c3nc(c(-c4c(F)cccc4F)c4ccc([nH]4)c(-c4c(F)cccc4F)c4nc(c(-c5c(F)cccc5F)c5ccc2[nH]5)C=C4)C=C3)cc1)c1ccccc1Br
REMARK SMILES IDX 15 1 14 2 13 3 12 4 11 5 9 6 10 7 8 8 7 9 6 10 1 11 2 12
REMARK SMILES IDX 3 13 4 14 5 15 77 16 78 17 82 18 79 19 81 20 83 21 80 22
REMARK SMILES IDX 16 23 17 24 18 25 19 26 20 27 21 28 22 29 23 30 24 31 76 32
REMARK SMILES IDX 25 33 75 34 26 35 27 36 28 37 69 38 29 39 74 40 68 41 70 42
REMARK SMILES IDX 30 43 73 44 67 45 66 46 31 48 57 49 40 50 56 51 41 52 44 53
REMARK SMILES IDX 55 54 71 55 42 56 43 57 54 59 72 60 45 61 32 62 33 63 38 64
REMARK SMILES IDX 34 65 35 66 37 67 39 68 36 69 58 70 59 71 64 72 60 73 61 74
REMARK SMILES IDX 63 75 65 76 62 77 46 78 47 79 52 80 48 81 49 82 51 83 53 84
REMARK SMILES IDX 50 85
REMARK H PARENT 70 47 44 58
REMARK Flexibility Score: inf
ROOT
ATOM      1  C   UNL A   1      32.121  29.225  26.005  1.00  0.00     0.188 C 
ENDROOT
BRANCH   1   2
ATOM      2  O   UNL A   1      32.139  28.683  24.696  1.00  0.00    -0.376 OA
BRANCH   2   3
ATOM      3  C   UNL A   1      32.901  29.343  23.690  1.00  0.00     0.202 C 
BRANCH   3   4
ATOM      4  C   UNL A   1      33.571  28.498  22.607  1.00  0.00     0.261 C 
BRANCH   4   5
ATOM      5  O   UNL A   1      34.008  27.237  23.131  1.00  0.00    -0.463 OA
BRANCH   5   6
ATOM      6  C   UNL A   1      33.557  26.141  22.473  1.00  0.00     0.313 C 
ATOM      7  O   UNL A   1      33.563  26.013  21.253  1.00  0.00    -0.252 OA
BRANCH   6   8
ATOM      8  C   UNL A   1      33.081  25.050  23.422  1.00  0.00     0.136 C 
BRANCH   8   9
ATOM      9  C   UNL A   1      33.123  23.650  22.751  1.00  0.00     0.082 C 
BRANCH   9  10
ATOM     10  C   UNL A   1      33.712  22.466  23.436  1.00  0.00     0.109 A 
ATOM     11  C   UNL A   1      36.193  23.225  23.822  1.00  0.00     0.073 C 
ATOM     12  C   UNL A   1      35.028  22.320  23.932  1.00  0.00     0.105 A 
ATOM     13  N   UNL A   1      35.123  21.177  24.613  1.00  0.00    -0.055 NA
ATOM     14  O   UNL A   1      33.849  20.623  24.564  1.00  0.00    -0.244 OA
ATOM     15  N   UNL A   1      32.979  21.430  23.842  1.00  0.00    -0.055 NA
ENDBRANCH   9  10
ENDBRANCH   8   9
BRANCH   8  16
ATOM     16  C   UNL A   1      31.724  25.295  24.157  1.00  0.00    -0.019 A 
ATOM     17  C   UNL A   1      30.665  25.895  23.419  1.00  0.00     0.006 A 
ATOM     18  C   UNL A   1      31.392  24.900  25.471  1.00  0.00     0.022 A 
ATOM     19  C   UNL A   1      29.401  26.152  23.962  1.00  0.00     0.000 A 
ATOM     20  C   UNL A   1      30.123  25.184  26.020  1.00  0.00     0.016 A 
ATOM     21  Br  UNL A   1      32.504  23.888  26.633  1.00  0.00    -0.051 Br
ATOM     22  C   UNL A   1      29.133  25.810  25.272  1.00  0.00     0.001 A 
ENDBRANCH   8  16
ENDBRANCH   6   8
ENDBRANCH   5   6
ENDBRANCH   4   5
ENDBRANCH   3   4
ENDBRANCH   2   3
ENDBRANCH   1   2
BRANCH   1  23
ATOM     23  C   UNL A   1      33.319  30.033  26.533  1.00  0.00     0.188 C 
BRANCH  23  24
ATOM     24  O   UNL A   1      33.185  31.148  27.391  1.00  0.00    -0.376 OA
BRANCH  24  25
ATOM     25  C   UNL A   1      32.138  32.082  27.189  1.00  0.00     0.202 C 
BRANCH  25  26
ATOM     26  C   UNL A   1      32.422  33.587  27.246  1.00  0.00     0.261 C 
BRANCH  26  27
ATOM     27  O   UNL A   1      32.406  34.140  28.564  1.00  0.00    -0.460 OA
BRANCH  27  28
ATOM     28  C   UNL A   1      33.496  34.888  28.875  1.00  0.00     0.338 C 
ATOM     29  O   UNL A   1      33.554  36.089  29.054  1.00  0.00    -0.246 OA
BRANCH  28  30
ATOM     30  C   UNL A   1      34.607  33.969  29.189  1.00  0.00     0.060 A 
ATOM     31  C   UNL A   1      34.329  32.867  30.010  1.00  0.00     0.016 A 
ATOM     32  C   UNL A   1      35.884  34.168  28.663  1.00  0.00     0.016 A 
ATOM     33  C   UNL A   1      35.338  31.962  30.322  1.00  0.00     0.010 A 
ATOM     34  C   UNL A   1      36.903  33.279  29.004  1.00  0.00     0.010 A 
ATOM     35  C   UNL A   1      36.638  32.191  29.854  1.00  0.00    -0.014 A 
BRANCH  35  36
ATOM     36  C   UNL A   1      37.758  31.419  30.432  1.00  0.00     0.031 A 
ATOM     37  C   UNL A   1      38.134  31.692  31.860  1.00  0.00     0.074 A 
ATOM     38  C   UNL A   1      38.413  30.490  29.718  1.00  0.00     0.049 A 
ATOM     39  N   UNL A   1      39.108  31.188  32.573  1.00  0.00    -0.248 NA
ATOM     40  C   UNL A   1      37.299  32.667  32.580  1.00  0.00     0.031 C 
ATOM     41  C   UNL A   1      38.112  30.111  28.339  1.00  0.00     0.029 A 
ATOM     42  N   UNL A   1      39.481  29.701  30.062  1.00  0.00    -0.354 N 
ATOM     43  C   UNL A   1      39.007  31.791  33.820  1.00  0.00     0.074 A 
ATOM     44  C   UNL A   1      37.890  32.710  33.763  1.00  0.00     0.031 C 
ATOM     45  C   UNL A   1      38.985  29.165  27.949  1.00  0.00     0.029 A 
ATOM     46  C   UNL A   1      39.925  28.900  29.039  1.00  0.00     0.049 A 
ATOM     47  H   UNL A   1      39.891  29.708  30.957  1.00  0.00     0.167 HD
ATOM     48  C   UNL A   1      39.776  31.597  34.915  1.00  0.00     0.037 A 
ATOM     49  C   UNL A   1      40.986  28.072  28.988  1.00  0.00     0.037 A 
ATOM     50  C   UNL A   1      40.895  30.698  34.966  1.00  0.00     0.049 A 
ATOM     51  C   UNL A   1      41.876  27.934  30.197  1.00  0.00     0.074 A 
ATOM     52  C   UNL A   1      41.736  30.429  36.031  1.00  0.00     0.029 A 
ATOM     53  N   UNL A   1      41.335  29.930  33.901  1.00  0.00    -0.354 N 
ATOM     54  N   UNL A   1      41.763  28.492  31.379  1.00  0.00    -0.248 NA
ATOM     55  C   UNL A   1      43.048  27.056  30.060  1.00  0.00     0.031 C 
ATOM     56  C   UNL A   1      42.714  29.530  35.595  1.00  0.00     0.029 A 
ATOM     57  C   UNL A   1      42.453  29.204  34.273  1.00  0.00     0.049 A 
ATOM     58  H   UNL A   1      40.916  29.904  33.010  1.00  0.00     0.167 HD
ATOM     59  C   UNL A   1      42.833  28.017  32.129  1.00  0.00     0.074 A 
ATOM     60  C   UNL A   1      43.574  27.113  31.275  1.00  0.00     0.031 C 
ATOM     61  C   UNL A   1      43.173  28.303  33.411  1.00  0.00     0.037 A 
BRANCH  48  62
ATOM     62  C   UNL A   1      39.446  32.407  36.131  1.00  0.00     0.057 A 
ATOM     63  C   UNL A   1      38.472  31.996  37.050  1.00  0.00     0.134 A 
ATOM     64  C   UNL A   1      40.116  33.609  36.388  1.00  0.00     0.134 A 
ATOM     65  F   UNL A   1      37.779  30.865  36.847  1.00  0.00    -0.206 F 
ATOM     66  C   UNL A   1      38.162  32.764  38.174  1.00  0.00     0.040 A 
ATOM     67  C   UNL A   1      39.831  34.374  37.520  1.00  0.00     0.040 A 
ATOM     68  F   UNL A   1      41.056  34.059  35.544  1.00  0.00    -0.206 F 
ATOM     69  C   UNL A   1      38.847  33.954  38.413  1.00  0.00     0.006 A 
ENDBRANCH  48  62
BRANCH  49  70
ATOM     70  C   UNL A   1      41.290  27.322  27.744  1.00  0.00     0.057 A 
ATOM     71  C   UNL A   1      40.850  26.006  27.568  1.00  0.00     0.134 A 
ATOM     72  C   UNL A   1      42.062  27.888  26.722  1.00  0.00     0.134 A 
ATOM     73  F   UNL A   1      40.130  25.401  28.524  1.00  0.00    -0.206 F 
ATOM     74  C   UNL A   1      41.182  25.271  26.427  1.00  0.00     0.040 A 
ATOM     75  C   UNL A   1      42.379  27.173  25.566  1.00  0.00     0.040 A 
ATOM     76  F   UNL A   1      42.516  29.145  26.832  1.00  0.00    -0.206 F 
ATOM     77  C   UNL A   1      41.946  25.857  25.420  1.00  0.00     0.006 A 
ENDBRANCH  49  70
BRANCH  61  78
ATOM     78  C   UNL A   1      44.379  27.612  33.976  1.00  0.00     0.057 A 
ATOM     79  C   UNL A   1      45.653  28.193  33.927  1.00  0.00     0.134 A 
ATOM     80  C   UNL A   1      44.255  26.376  34.624  1.00  0.00     0.134 A 
ATOM     81  F   UNL A   1      45.842  29.369  33.312  1.00  0.00    -0.206 F 
ATOM     82  C   UNL A   1      46.764  27.558  34.487  1.00  0.00     0.040 A 
ATOM     83  C   UNL A   1      45.352  25.745  35.208  1.00  0.00     0.040 A 
ATOM     84  F   UNL A   1      43.060  25.772  34.714  1.00  0.00    -0.206 F 
ATOM     85  C   UNL A   1      46.614  26.334  35.136  1.00  0.00     0.006 A 
ENDBRANCH  61  78
ENDBRANCH  35  36
ENDBRANCH  28  30
ENDBRANCH  27  28
ENDBRANCH  26  27
ENDBRANCH  25  26
ENDBRANCH  24  25
ENDBRANCH  23  24
ENDBRANCH   1  23
TORSDOF 20
ENDMDL
