MODEL 1
REMARK VINA RESULT:     -10.6      0.000      0.000
REMARK SMILES C[NH2+][C@]1(C(=O)OCCOCCOCCOC(=O)c2ccc(-c3c4nc(c(-c5c(F)cccc5F)c5ccc([nH]5)c(-c5c(F)cccc5F)c5nc(c(-c6c(F)cccc6F)c6ccc3[nH]6)C=C5)C=C4)cc2)CCC[C@H]([N@H+]2CCC[C@@H]2C2CCCC2)C1
REMARK SMILES IDX 10 1 9 2 8 3 7 4 6 5 4 6 5 7 3 8 72 9 86 10 73 11 75 12
REMARK SMILES IDX 74 13 2 14 1 15 76 18 77 19 80 20 78 22 79 23 81 24 82 25
REMARK SMILES IDX 85 26 83 27 84 28 11 29 12 30 13 31 14 32 15 33 16 34 17 35
REMARK SMILES IDX 18 36 19 37 71 38 20 39 70 40 21 41 22 42 23 43 64 44 24 45
REMARK SMILES IDX 69 46 63 47 65 48 25 49 68 50 62 51 61 52 26 54 52 55 35 56
REMARK SMILES IDX 51 57 36 58 39 59 50 60 66 61 37 62 38 63 49 65 67 66 40 67
REMARK SMILES IDX 27 68 28 69 33 70 29 71 30 72 32 73 34 74 31 75 53 76 54 77
REMARK SMILES IDX 59 78 55 79 56 80 58 81 60 82 57 83 41 84 42 85 47 86 43 87
REMARK SMILES IDX 44 88 46 89 48 90 45 91
REMARK H PARENT 2 16 2 17 76 21 65 53 39 64
REMARK Flexibility Score: inf
ROOT
ATOM      1  C   UNL A   1      33.699  22.964  25.651  1.00  0.00     0.188 C 
ENDROOT
BRANCH   1   2
ATOM      2  O   UNL A   1      32.778  22.947  24.566  1.00  0.00    -0.376 OA
BRANCH   2   3
ATOM      3  C   UNL A   1      33.263  22.407  23.338  1.00  0.00     0.202 C 
BRANCH   3   4
ATOM      4  C   UNL A   1      33.094  23.313  22.106  1.00  0.00     0.261 C 
BRANCH   4   5
ATOM      5  O   UNL A   1      33.552  24.651  22.382  1.00  0.00    -0.459 OA
BRANCH   5   6
ATOM      6  C   UNL A   1      33.008  25.709  21.696  1.00  0.00     0.368 C 
ATOM      7  O   UNL A   1      32.996  25.811  20.477  1.00  0.00    -0.245 OA
BRANCH   6   8
ATOM      8  C   UNL A   1      32.384  26.742  22.711  1.00  0.00     0.199 C 
ATOM      9  C   UNL A   1      30.832  26.467  22.656  1.00  0.00     0.081 C 
ATOM     10  C   UNL A   1      32.848  26.530  24.166  1.00  0.00     0.146 C 
ATOM     11  C   UNL A   1      29.954  26.476  23.918  1.00  0.00     0.013 C 
ATOM     12  C   UNL A   1      31.934  27.168  25.259  1.00  0.00     0.191 C 
ATOM     13  C   UNL A   1      30.668  26.317  25.238  1.00  0.00     0.065 C 
BRANCH   8  14
ATOM     14  N   UNL A   1      33.027  28.060  22.505  1.00  0.00    -0.334 N 
ATOM     15  C   UNL A   1      34.438  28.275  22.535  1.00  0.00     0.331 C 
ATOM     16  H   UNL A   1      32.717  28.377  21.586  1.00  0.00     0.347 HD
ATOM     17  H   UNL A   1      32.738  28.549  23.352  1.00  0.00     0.347 HD
ENDBRANCH   8  14
BRANCH  12  18
ATOM     18  N   UNL A   1      31.499  28.576  25.495  1.00  0.00    -0.330 N 
ATOM     19  C   UNL A   1      32.364  29.220  26.498  1.00  0.00     0.262 C 
ATOM     20  C   UNL A   1      31.188  29.654  24.519  1.00  0.00     0.187 C 
ATOM     21  H   UNL A   1      30.546  28.265  25.682  1.00  0.00     0.348 HD
ATOM     22  C   UNL A   1      31.621  30.503  26.768  1.00  0.00     0.067 C 
ATOM     23  C   UNL A   1      31.171  30.937  25.392  1.00  0.00     0.071 C 
BRANCH  20  24
ATOM     24  C   UNL A   1      29.917  29.636  23.623  1.00  0.00     0.047 C 
ATOM     25  C   UNL A   1      28.806  30.688  23.765  1.00  0.00     0.010 C 
ATOM     26  C   UNL A   1      30.195  29.801  22.112  1.00  0.00     0.010 C 
ATOM     27  C   UNL A   1      27.868  30.300  22.615  1.00  0.00     0.001 C 
ATOM     28  C   UNL A   1      28.802  29.879  21.479  1.00  0.00     0.001 C 
ENDBRANCH  20  24
ENDBRANCH  12  18
ENDBRANCH   6   8
ENDBRANCH   5   6
ENDBRANCH   4   5
ENDBRANCH   3   4
ENDBRANCH   2   3
ENDBRANCH   1   2
BRANCH   1  29
ATOM     29  C   UNL A   1      34.302  21.618  26.083  1.00  0.00     0.188 C 
BRANCH  29  30
ATOM     30  O   UNL A   1      35.646  21.463  25.643  1.00  0.00    -0.376 OA
BRANCH  30  31
ATOM     31  C   UNL A   1      35.901  20.231  24.975  1.00  0.00     0.202 C 
BRANCH  31  32
ATOM     32  C   UNL A   1      37.400  19.920  24.950  1.00  0.00     0.261 C 
BRANCH  32  33
ATOM     33  O   UNL A   1      38.235  21.045  25.280  1.00  0.00    -0.460 OA
BRANCH  33  34
ATOM     34  C   UNL A   1      39.315  20.778  26.041  1.00  0.00     0.338 C 
ATOM     35  O   UNL A   1      39.875  19.693  26.172  1.00  0.00    -0.246 OA
BRANCH  34  36
ATOM     36  C   UNL A   1      39.833  22.037  26.596  1.00  0.00     0.060 A 
ATOM     37  C   UNL A   1      39.319  23.238  26.108  1.00  0.00     0.016 A 
ATOM     38  C   UNL A   1      40.855  22.043  27.544  1.00  0.00     0.016 A 
ATOM     39  C   UNL A   1      39.835  24.460  26.546  1.00  0.00     0.010 A 
ATOM     40  C   UNL A   1      41.386  23.263  27.978  1.00  0.00     0.010 A 
ATOM     41  C   UNL A   1      40.894  24.478  27.465  1.00  0.00    -0.014 A 
BRANCH  41  42
ATOM     42  C   UNL A   1      41.584  25.754  27.782  1.00  0.00     0.031 A 
ATOM     43  C   UNL A   1      40.849  26.804  28.568  1.00  0.00     0.074 A 
ATOM     44  C   UNL A   1      42.853  25.978  27.395  1.00  0.00     0.049 A 
ATOM     45  N   UNL A   1      41.205  28.029  28.856  1.00  0.00    -0.248 NA
ATOM     46  C   UNL A   1      39.535  26.415  29.103  1.00  0.00     0.031 C 
ATOM     47  C   UNL A   1      43.706  25.025  26.691  1.00  0.00     0.029 A 
ATOM     48  N   UNL A   1      43.640  27.095  27.539  1.00  0.00    -0.354 N 
ATOM     49  C   UNL A   1      40.154  28.565  29.589  1.00  0.00     0.074 A 
ATOM     50  C   UNL A   1      39.142  27.534  29.693  1.00  0.00     0.031 C 
ATOM     51  C   UNL A   1      44.897  25.603  26.450  1.00  0.00     0.029 A 
ATOM     52  C   UNL A   1      44.873  26.978  26.943  1.00  0.00     0.049 A 
ATOM     53  H   UNL A   1      43.349  27.903  28.021  1.00  0.00     0.167 HD
ATOM     54  C   UNL A   1      40.041  29.802  30.129  1.00  0.00     0.037 A 
ATOM     55  C   UNL A   1      45.853  27.889  26.785  1.00  0.00     0.037 A 
ATOM     56  C   UNL A   1      41.042  30.830  30.030  1.00  0.00     0.049 A 
ATOM     57  C   UNL A   1      45.669  29.287  27.318  1.00  0.00     0.074 A 
ATOM     58  C   UNL A   1      41.005  32.120  30.531  1.00  0.00     0.029 A 
ATOM     59  N   UNL A   1      42.260  30.683  29.388  1.00  0.00    -0.354 N 
ATOM     60  N   UNL A   1      44.662  29.792  27.986  1.00  0.00    -0.248 NA
ATOM     61  C   UNL A   1      46.758  30.244  27.062  1.00  0.00     0.031 C 
ATOM     62  C   UNL A   1      42.190  32.767  30.158  1.00  0.00     0.029 A 
ATOM     63  C   UNL A   1      42.979  31.866  29.463  1.00  0.00     0.049 A 
ATOM     64  H   UNL A   1      42.571  29.861  28.943  1.00  0.00     0.167 HD
ATOM     65  C   UNL A   1      45.002  31.115  28.249  1.00  0.00     0.074 A 
ATOM     66  C   UNL A   1      46.316  31.331  27.679  1.00  0.00     0.031 C 
ATOM     67  C   UNL A   1      44.289  32.065  28.901  1.00  0.00     0.037 A 
BRANCH  54  68
ATOM     68  C   UNL A   1      38.763  30.118  30.846  1.00  0.00     0.057 A 
ATOM     69  C   UNL A   1      38.582  29.822  32.202  1.00  0.00     0.134 A 
ATOM     70  C   UNL A   1      37.705  30.738  30.170  1.00  0.00     0.134 A 
ATOM     71  F   UNL A   1      39.552  29.210  32.899  1.00  0.00    -0.206 F 
ATOM     72  C   UNL A   1      37.384  30.110  32.857  1.00  0.00     0.040 A 
ATOM     73  C   UNL A   1      36.511  31.054  30.819  1.00  0.00     0.040 A 
ATOM     74  F   UNL A   1      37.816  31.050  28.870  1.00  0.00    -0.206 F 
ATOM     75  C   UNL A   1      36.346  30.734  32.166  1.00  0.00     0.006 A 
ENDBRANCH  54  68
BRANCH  55  76
ATOM     76  C   UNL A   1      47.094  27.529  26.052  1.00  0.00     0.057 A 
ATOM     77  C   UNL A   1      47.159  27.599  24.657  1.00  0.00     0.134 A 
ATOM     78  C   UNL A   1      48.231  27.070  26.730  1.00  0.00     0.134 A 
ATOM     79  F   UNL A   1      46.092  28.002  23.950  1.00  0.00    -0.206 F 
ATOM     80  C   UNL A   1      48.304  27.212  23.958  1.00  0.00     0.040 A 
ATOM     81  C   UNL A   1      49.391  26.703  26.047  1.00  0.00     0.040 A 
ATOM     82  F   UNL A   1      48.230  26.974  28.068  1.00  0.00    -0.206 F 
ATOM     83  C   UNL A   1      49.427  26.767  24.655  1.00  0.00     0.006 A 
ENDBRANCH  55  76
BRANCH  67  84
ATOM     84  C   UNL A   1      44.924  33.415  29.066  1.00  0.00     0.057 A 
ATOM     85  C   UNL A   1      45.765  33.708  30.147  1.00  0.00     0.134 A 
ATOM     86  C   UNL A   1      44.727  34.418  28.109  1.00  0.00     0.134 A 
ATOM     87  F   UNL A   1      45.984  32.795  31.105  1.00  0.00    -0.206 F 
ATOM     88  C   UNL A   1      46.375  34.958  30.278  1.00  0.00     0.040 A 
ATOM     89  C   UNL A   1      45.349  35.663  28.216  1.00  0.00     0.040 A 
ATOM     90  F   UNL A   1      43.940  34.199  27.045  1.00  0.00    -0.206 F 
ATOM     91  C   UNL A   1      46.172  35.936  29.307  1.00  0.00     0.006 A 
ENDBRANCH  67  84
ENDBRANCH  41  42
ENDBRANCH  34  36
ENDBRANCH  33  34
ENDBRANCH  32  33
ENDBRANCH  31  32
ENDBRANCH  30  31
ENDBRANCH  29  30
ENDBRANCH   1  29
TORSDOF 20
ENDMDL
MODEL 2
REMARK VINA RESULT:     -10.5      4.258      9.705
REMARK SMILES C[NH2+][C@]1(C(=O)OCCOCCOCCOC(=O)c2ccc(-c3c4nc(c(-c5c(F)cccc5F)c5ccc([nH]5)c(-c5c(F)cccc5F)c5nc(c(-c6c(F)cccc6F)c6ccc3[nH]6)C=C5)C=C4)cc2)CCC[C@H]([N@H+]2CCC[C@@H]2C2CCCC2)C1
REMARK SMILES IDX 10 1 9 2 8 3 7 4 6 5 4 6 5 7 3 8 72 9 86 10 73 11 75 12
REMARK SMILES IDX 74 13 2 14 1 15 76 18 77 19 80 20 78 22 79 23 81 24 82 25
REMARK SMILES IDX 85 26 83 27 84 28 11 29 12 30 13 31 14 32 15 33 16 34 17 35
REMARK SMILES IDX 18 36 19 37 71 38 20 39 70 40 21 41 22 42 23 43 64 44 24 45
REMARK SMILES IDX 69 46 63 47 65 48 25 49 68 50 62 51 61 52 26 54 52 55 35 56
REMARK SMILES IDX 51 57 36 58 39 59 50 60 66 61 37 62 38 63 49 65 67 66 40 67
REMARK SMILES IDX 27 68 28 69 33 70 29 71 30 72 32 73 34 74 31 75 53 76 54 77
REMARK SMILES IDX 59 78 55 79 56 80 58 81 60 82 57 83 41 84 42 85 47 86 43 87
REMARK SMILES IDX 44 88 46 89 48 90 45 91
REMARK H PARENT 2 16 2 17 76 21 65 53 39 64
REMARK Flexibility Score: inf
ROOT
ATOM      1  C   UNL A   1      33.582  28.205  26.096  1.00  0.00     0.188 C 
ENDROOT
BRANCH   1   2
ATOM      2  O   UNL A   1      32.748  27.275  25.413  1.00  0.00    -0.376 OA
BRANCH   2   3
ATOM      3  C   UNL A   1      31.366  27.295  25.760  1.00  0.00     0.202 C 
BRANCH   3   4
ATOM      4  C   UNL A   1      30.729  25.920  26.022  1.00  0.00     0.261 C 
BRANCH   4   5
ATOM      5  O   UNL A   1      31.671  25.026  26.646  1.00  0.00    -0.459 OA
BRANCH   5   6
ATOM      6  C   UNL A   1      31.370  23.689  26.751  1.00  0.00     0.368 C 
ATOM      7  O   UNL A   1      30.361  23.246  27.279  1.00  0.00    -0.245 OA
BRANCH   6   8
ATOM      8  C   UNL A   1      32.501  22.831  26.065  1.00  0.00     0.199 C 
ATOM      9  C   UNL A   1      31.774  22.090  24.876  1.00  0.00     0.081 C 
ATOM     10  C   UNL A   1      33.638  23.680  25.464  1.00  0.00     0.146 C 
ATOM     11  C   UNL A   1      32.431  21.916  23.498  1.00  0.00     0.013 C 
ATOM     12  C   UNL A   1      34.508  22.965  24.382  1.00  0.00     0.191 C 
ATOM     13  C   UNL A   1      33.582  22.838  23.176  1.00  0.00     0.065 C 
BRANCH   8  14
ATOM     14  N   UNL A   1      33.304  22.170  27.119  1.00  0.00    -0.334 N 
ATOM     15  C   UNL A   1      34.344  22.816  27.854  1.00  0.00     0.331 C 
ATOM     16  H   UNL A   1      32.632  21.846  27.815  1.00  0.00     0.347 HD
ATOM     17  H   UNL A   1      33.843  21.506  26.563  1.00  0.00     0.347 HD
ENDBRANCH   8  14
BRANCH  12  18
ATOM     18  N   UNL A   1      35.325  21.718  24.427  1.00  0.00    -0.330 N 
ATOM     19  C   UNL A   1      36.717  22.028  24.798  1.00  0.00     0.262 C 
ATOM     20  C   UNL A   1      35.042  20.415  25.086  1.00  0.00     0.187 C 
ATOM     21  H   UNL A   1      35.031  21.474  23.482  1.00  0.00     0.348 HD
ATOM     22  C   UNL A   1      37.405  20.712  24.543  1.00  0.00     0.067 C 
ATOM     23  C   UNL A   1      36.418  19.698  25.075  1.00  0.00     0.071 C 
BRANCH  20  24
ATOM     24  C   UNL A   1      33.955  19.430  24.570  1.00  0.00     0.047 C 
ATOM     25  C   UNL A   1      34.317  18.099  23.894  1.00  0.00     0.010 C 
ATOM     26  C   UNL A   1      33.015  18.881  25.666  1.00  0.00     0.010 C 
ATOM     27  C   UNL A   1      32.931  17.476  23.681  1.00  0.00     0.001 C 
ATOM     28  C   UNL A   1      32.139  17.858  24.933  1.00  0.00     0.001 C 
ENDBRANCH  20  24
ENDBRANCH  12  18
ENDBRANCH   6   8
ENDBRANCH   5   6
ENDBRANCH   4   5
ENDBRANCH   3   4
ENDBRANCH   2   3
ENDBRANCH   1   2
BRANCH   1  29
ATOM     29  C   UNL A   1      32.887  29.278  26.947  1.00  0.00     0.188 C 
BRANCH  29  30
ATOM     30  O   UNL A   1      32.751  30.513  26.253  1.00  0.00    -0.376 OA
BRANCH  30  31
ATOM     31  C   UNL A   1      31.451  31.087  26.338  1.00  0.00     0.202 C 
BRANCH  31  32
ATOM     32  C   UNL A   1      31.517  32.522  26.870  1.00  0.00     0.261 C 
BRANCH  32  33
ATOM     33  O   UNL A   1      32.831  33.106  26.807  1.00  0.00    -0.460 OA
BRANCH  33  34
ATOM     34  C   UNL A   1      33.250  33.743  27.918  1.00  0.00     0.338 C 
ATOM     35  O   UNL A   1      32.655  34.627  28.531  1.00  0.00    -0.246 OA
BRANCH  34  36
ATOM     36  C   UNL A   1      34.489  33.113  28.394  1.00  0.00     0.060 A 
ATOM     37  C   UNL A   1      34.407  31.854  28.990  1.00  0.00     0.016 A 
ATOM     38  C   UNL A   1      35.715  33.772  28.312  1.00  0.00     0.016 A 
ATOM     39  C   UNL A   1      35.544  31.249  29.529  1.00  0.00     0.010 A 
ATOM     40  C   UNL A   1      36.856  33.177  28.862  1.00  0.00     0.010 A 
ATOM     41  C   UNL A   1      36.773  31.922  29.492  1.00  0.00    -0.014 A 
BRANCH  41  42
ATOM     42  C   UNL A   1      37.939  31.385  30.238  1.00  0.00     0.031 A 
ATOM     43  C   UNL A   1      38.836  30.383  29.564  1.00  0.00     0.074 A 
ATOM     44  C   UNL A   1      38.217  31.789  31.491  1.00  0.00     0.049 A 
ATOM     45  N   UNL A   1      39.833  29.695  30.057  1.00  0.00    -0.248 NA
ATOM     46  C   UNL A   1      38.570  30.126  28.140  1.00  0.00     0.031 C 
ATOM     47  C   UNL A   1      37.477  32.803  32.238  1.00  0.00     0.029 A 
ATOM     48  N   UNL A   1      39.200  31.381  32.358  1.00  0.00    -0.354 N 
ATOM     49  C   UNL A   1      40.303  28.911  29.012  1.00  0.00     0.074 A 
ATOM     50  C   UNL A   1      39.475  29.200  27.860  1.00  0.00     0.031 C 
ATOM     51  C   UNL A   1      38.025  32.928  33.460  1.00  0.00     0.029 A 
ATOM     52  C   UNL A   1      39.123  31.974  33.595  1.00  0.00     0.049 A 
ATOM     53  H   UNL A   1      39.894  30.724  32.118  1.00  0.00     0.167 HD
ATOM     54  C   UNL A   1      41.333  28.031  29.008  1.00  0.00     0.037 A 
ATOM     55  C   UNL A   1      39.836  31.746  34.716  1.00  0.00     0.037 A 
ATOM     56  C   UNL A   1      42.160  27.738  30.148  1.00  0.00     0.049 A 
ATOM     57  C   UNL A   1      40.919  30.698  34.714  1.00  0.00     0.074 A 
ATOM     58  C   UNL A   1      43.214  26.847  30.243  1.00  0.00     0.029 A 
ATOM     59  N   UNL A   1      42.025  28.334  31.392  1.00  0.00    -0.354 N 
ATOM     60  N   UNL A   1      41.338  29.943  33.730  1.00  0.00    -0.248 NA
ATOM     61  C   UNL A   1      41.619  30.465  35.988  1.00  0.00     0.031 C 
ATOM     62  C   UNL A   1      43.695  26.876  31.557  1.00  0.00     0.029 A 
ATOM     63  C   UNL A   1      42.967  27.817  32.266  1.00  0.00     0.049 A 
ATOM     64  H   UNL A   1      41.360  29.023  31.620  1.00  0.00     0.167 HD
ATOM     65  C   UNL A   1      42.363  29.163  34.255  1.00  0.00     0.074 A 
ATOM     66  C   UNL A   1      42.510  29.546  35.644  1.00  0.00     0.031 C 
ATOM     67  C   UNL A   1      43.111  28.213  33.644  1.00  0.00     0.037 A 
BRANCH  54  68
ATOM     68  C   UNL A   1      41.593  27.290  27.732  1.00  0.00     0.057 A 
ATOM     69  C   UNL A   1      42.413  27.815  26.725  1.00  0.00     0.134 A 
ATOM     70  C   UNL A   1      41.022  26.031  27.512  1.00  0.00     0.134 A 
ATOM     71  F   UNL A   1      42.972  29.026  26.868  1.00  0.00    -0.206 F 
ATOM     72  C   UNL A   1      42.639  27.123  25.535  1.00  0.00     0.040 A 
ATOM     73  C   UNL A   1      41.260  25.317  26.337  1.00  0.00     0.040 A 
ATOM     74  F   UNL A   1      40.228  25.472  28.438  1.00  0.00    -0.206 F 
ATOM     75  C   UNL A   1      42.066  25.866  25.341  1.00  0.00     0.006 A 
ENDBRANCH  54  68
BRANCH  55  76
ATOM     76  C   UNL A   1      39.527  32.496  35.960  1.00  0.00     0.057 A 
ATOM     77  C   UNL A   1      38.577  32.027  36.874  1.00  0.00     0.134 A 
ATOM     78  C   UNL A   1      40.149  33.718  36.245  1.00  0.00     0.134 A 
ATOM     79  F   UNL A   1      37.925  30.878  36.640  1.00  0.00    -0.206 F 
ATOM     80  C   UNL A   1      38.243  32.753  38.019  1.00  0.00     0.040 A 
ATOM     81  C   UNL A   1      39.844  34.442  37.398  1.00  0.00     0.040 A 
ATOM     82  F   UNL A   1      41.064  34.225  35.406  1.00  0.00    -0.206 F 
ATOM     83  C   UNL A   1      38.883  33.963  38.286  1.00  0.00     0.006 A 
ENDBRANCH  55  76
BRANCH  67  84
ATOM     84  C   UNL A   1      44.180  27.544  34.457  1.00  0.00     0.057 A 
ATOM     85  C   UNL A   1      43.942  26.352  35.153  1.00  0.00     0.134 A 
ATOM     86  C   UNL A   1      45.476  28.074  34.505  1.00  0.00     0.134 A 
ATOM     87  F   UNL A   1      42.719  25.800  35.157  1.00  0.00    -0.206 F 
ATOM     88  C   UNL A   1      44.951  25.720  35.882  1.00  0.00     0.040 A 
ATOM     89  C   UNL A   1      46.499  27.440  35.212  1.00  0.00     0.040 A 
ATOM     90  F   UNL A   1      45.773  29.208  33.854  1.00  0.00    -0.206 F 
ATOM     91  C   UNL A   1      46.235  26.261  35.908  1.00  0.00     0.006 A 
ENDBRANCH  67  84
ENDBRANCH  41  42
ENDBRANCH  34  36
ENDBRANCH  33  34
ENDBRANCH  32  33
ENDBRANCH  31  32
ENDBRANCH  30  31
ENDBRANCH  29  30
ENDBRANCH   1  29
TORSDOF 20
ENDMDL
MODEL 3
REMARK VINA RESULT:     -10.4      2.161      2.911
REMARK SMILES C[NH2+][C@]1(C(=O)OCCOCCOCCOC(=O)c2ccc(-c3c4nc(c(-c5c(F)cccc5F)c5ccc([nH]5)c(-c5c(F)cccc5F)c5nc(c(-c6c(F)cccc6F)c6ccc3[nH]6)C=C5)C=C4)cc2)CCC[C@H]([N@H+]2CCC[C@@H]2C2CCCC2)C1
REMARK SMILES IDX 10 1 9 2 8 3 7 4 6 5 4 6 5 7 3 8 72 9 86 10 73 11 75 12
REMARK SMILES IDX 74 13 2 14 1 15 76 18 77 19 80 20 78 22 79 23 81 24 82 25
REMARK SMILES IDX 85 26 83 27 84 28 11 29 12 30 13 31 14 32 15 33 16 34 17 35
REMARK SMILES IDX 18 36 19 37 71 38 20 39 70 40 21 41 22 42 23 43 64 44 24 45
REMARK SMILES IDX 69 46 63 47 65 48 25 49 68 50 62 51 61 52 26 54 52 55 35 56
REMARK SMILES IDX 51 57 36 58 39 59 50 60 66 61 37 62 38 63 49 65 67 66 40 67
REMARK SMILES IDX 27 68 28 69 33 70 29 71 30 72 32 73 34 74 31 75 53 76 54 77
REMARK SMILES IDX 59 78 55 79 56 80 58 81 60 82 57 83 41 84 42 85 47 86 43 87
REMARK SMILES IDX 44 88 46 89 48 90 45 91
REMARK H PARENT 2 16 2 17 76 21 65 53 39 64
REMARK Flexibility Score: inf
ROOT
ATOM      1  C   UNL A   1      35.757  21.945  24.589  1.00  0.00     0.188 C 
ENDROOT
BRANCH   1   2
ATOM      2  O   UNL A   1      34.972  22.378  25.695  1.00  0.00    -0.376 OA
BRANCH   2   3
ATOM      3  C   UNL A   1      34.129  21.396  26.291  1.00  0.00     0.202 C 
BRANCH   3   4
ATOM      4  C   UNL A   1      33.050  20.803  25.369  1.00  0.00     0.261 C 
BRANCH   4   5
ATOM      5  O   UNL A   1      31.982  21.747  25.151  1.00  0.00    -0.459 OA
BRANCH   5   6
ATOM      6  C   UNL A   1      31.942  22.466  23.982  1.00  0.00     0.368 C 
ATOM      7  O   UNL A   1      31.845  21.972  22.867  1.00  0.00    -0.245 OA
BRANCH   6   8
ATOM      8  C   UNL A   1      32.006  24.009  24.300  1.00  0.00     0.199 C 
ATOM      9  C   UNL A   1      30.733  24.616  23.594  1.00  0.00     0.081 C 
ATOM     10  C   UNL A   1      31.907  24.331  25.804  1.00  0.00     0.146 C 
ATOM     11  C   UNL A   1      29.874  25.707  24.253  1.00  0.00     0.013 C 
ATOM     12  C   UNL A   1      31.484  25.794  26.150  1.00  0.00     0.191 C 
ATOM     13  C   UNL A   1      30.014  25.866  25.748  1.00  0.00     0.065 C 
BRANCH   8  14
ATOM     14  N   UNL A   1      33.397  24.478  24.104  1.00  0.00    -0.334 N 
ATOM     15  C   UNL A   1      33.925  24.910  22.851  1.00  0.00     0.331 C 
ATOM     16  H   UNL A   1      33.514  25.267  24.741  1.00  0.00     0.347 HD
ATOM     17  H   UNL A   1      33.915  23.611  24.245  1.00  0.00     0.347 HD
ENDBRANCH   8  14
BRANCH  12  18
ATOM     18  N   UNL A   1      32.088  27.112  25.803  1.00  0.00    -0.330 N 
ATOM     19  C   UNL A   1      33.500  27.156  26.220  1.00  0.00     0.262 C 
ATOM     20  C   UNL A   1      32.050  27.874  24.527  1.00  0.00     0.187 C 
ATOM     21  H   UNL A   1      31.337  27.601  26.290  1.00  0.00     0.348 HD
ATOM     22  C   UNL A   1      33.838  28.611  26.019  1.00  0.00     0.067 C 
ATOM     23  C   UNL A   1      33.158  28.944  24.710  1.00  0.00     0.071 C 
BRANCH  20  24
ATOM     24  C   UNL A   1      30.761  28.565  23.998  1.00  0.00     0.047 C 
ATOM     25  C   UNL A   1      30.476  30.054  24.247  1.00  0.00     0.010 C 
ATOM     26  C   UNL A   1      30.614  28.559  22.460  1.00  0.00     0.010 C 
ATOM     27  C   UNL A   1      29.180  30.255  23.452  1.00  0.00     0.001 C 
ATOM     28  C   UNL A   1      29.357  29.397  22.199  1.00  0.00     0.001 C 
ENDBRANCH  20  24
ENDBRANCH  12  18
ENDBRANCH   6   8
ENDBRANCH   5   6
ENDBRANCH   4   5
ENDBRANCH   3   4
ENDBRANCH   2   3
ENDBRANCH   1   2
BRANCH   1  29
ATOM     29  C   UNL A   1      37.092  21.252  24.902  1.00  0.00     0.188 C 
BRANCH  29  30
ATOM     30  O   UNL A   1      36.949  19.842  25.035  1.00  0.00    -0.376 OA
BRANCH  30  31
ATOM     31  C   UNL A   1      38.174  19.122  24.942  1.00  0.00     0.202 C 
BRANCH  31  32
ATOM     32  C   UNL A   1      39.344  19.959  25.469  1.00  0.00     0.261 C 
BRANCH  32  33
ATOM     33  O   UNL A   1      40.405  19.177  26.049  1.00  0.00    -0.460 OA
BRANCH  33  34
ATOM     34  C   UNL A   1      41.656  19.633  25.845  1.00  0.00     0.338 C 
ATOM     35  O   UNL A   1      42.533  19.104  25.165  1.00  0.00    -0.246 OA
BRANCH  34  36
ATOM     36  C   UNL A   1      41.786  20.966  26.449  1.00  0.00     0.060 A 
ATOM     37  C   UNL A   1      42.238  22.016  25.649  1.00  0.00     0.016 A 
ATOM     38  C   UNL A   1      41.524  21.177  27.802  1.00  0.00     0.016 A 
ATOM     39  C   UNL A   1      42.453  23.283  26.196  1.00  0.00     0.010 A 
ATOM     40  C   UNL A   1      41.750  22.440  28.360  1.00  0.00     0.010 A 
ATOM     41  C   UNL A   1      42.236  23.495  27.565  1.00  0.00    -0.014 A 
BRANCH  41  42
ATOM     42  C   UNL A   1      42.654  24.772  28.196  1.00  0.00     0.031 A 
ATOM     43  C   UNL A   1      41.622  25.842  28.425  1.00  0.00     0.074 A 
ATOM     44  C   UNL A   1      43.926  24.980  28.581  1.00  0.00     0.049 A 
ATOM     45  N   UNL A   1      41.777  27.071  28.847  1.00  0.00    -0.248 NA
ATOM     46  C   UNL A   1      40.227  25.473  28.141  1.00  0.00     0.031 C 
ATOM     47  C   UNL A   1      45.010  24.008  28.484  1.00  0.00     0.029 A 
ATOM     48  N   UNL A   1      44.517  26.094  29.125  1.00  0.00    -0.354 N 
ATOM     49  C   UNL A   1      40.505  27.627  28.863  1.00  0.00     0.074 A 
ATOM     50  C   UNL A   1      39.590  26.606  28.397  1.00  0.00     0.031 C 
ATOM     51  C   UNL A   1      46.143  24.572  28.942  1.00  0.00     0.029 A 
ATOM     52  C   UNL A   1      45.870  25.958  29.320  1.00  0.00     0.049 A 
ATOM     53  H   UNL A   1      44.020  26.913  29.352  1.00  0.00     0.167 HD
ATOM     54  C   UNL A   1      40.130  28.875  29.232  1.00  0.00     0.037 A 
ATOM     55  C   UNL A   1      46.787  26.859  29.725  1.00  0.00     0.037 A 
ATOM     56  C   UNL A   1      41.033  29.895  29.695  1.00  0.00     0.049 A 
ATOM     57  C   UNL A   1      46.360  28.268  30.047  1.00  0.00     0.074 A 
ATOM     58  C   UNL A   1      40.745  31.195  30.074  1.00  0.00     0.029 A 
ATOM     59  N   UNL A   1      42.400  29.727  29.844  1.00  0.00    -0.354 N 
ATOM     60  N   UNL A   1      45.160  28.793  30.032  1.00  0.00    -0.248 NA
ATOM     61  C   UNL A   1      47.422  29.213  30.429  1.00  0.00     0.031 C 
ATOM     62  C   UNL A   1      41.946  31.826  30.417  1.00  0.00     0.029 A 
ATOM     63  C   UNL A   1      42.973  30.906  30.293  1.00  0.00     0.049 A 
ATOM     64  H   UNL A   1      42.892  28.895  29.659  1.00  0.00     0.167 HD
ATOM     65  C   UNL A   1      45.317  30.119  30.424  1.00  0.00     0.074 A 
ATOM     66  C   UNL A   1      46.729  30.314  30.681  1.00  0.00     0.031 C 
ATOM     67  C   UNL A   1      44.378  31.086  30.555  1.00  0.00     0.037 A 
BRANCH  54  68
ATOM     68  C   UNL A   1      38.676  29.215  29.109  1.00  0.00     0.057 A 
ATOM     69  C   UNL A   1      37.798  29.115  30.196  1.00  0.00     0.134 A 
ATOM     70  C   UNL A   1      38.150  29.657  27.889  1.00  0.00     0.134 A 
ATOM     71  F   UNL A   1      38.237  28.677  31.386  1.00  0.00    -0.206 F 
ATOM     72  C   UNL A   1      36.443  29.422  30.068  1.00  0.00     0.040 A 
ATOM     73  C   UNL A   1      36.802  29.991  27.755  1.00  0.00     0.040 A 
ATOM     74  F   UNL A   1      38.939  29.777  26.811  1.00  0.00    -0.206 F 
ATOM     75  C   UNL A   1      35.942  29.867  28.845  1.00  0.00     0.006 A 
ENDBRANCH  54  68
BRANCH  55  76
ATOM     76  C   UNL A   1      48.219  26.476  29.814  1.00  0.00     0.057 A 
ATOM     77  C   UNL A   1      49.084  26.641  28.727  1.00  0.00     0.134 A 
ATOM     78  C   UNL A   1      48.747  25.900  30.977  1.00  0.00     0.134 A 
ATOM     79  F   UNL A   1      48.630  27.158  27.575  1.00  0.00    -0.206 F 
ATOM     80  C   UNL A   1      50.419  26.235  28.786  1.00  0.00     0.040 A 
ATOM     81  C   UNL A   1      50.085  25.513  31.059  1.00  0.00     0.040 A 
ATOM     82  F   UNL A   1      47.968  25.710  32.052  1.00  0.00    -0.206 F 
ATOM     83  C   UNL A   1      50.923  25.673  29.958  1.00  0.00     0.006 A 
ENDBRANCH  55  76
BRANCH  67  84
ATOM     84  C   UNL A   1      44.835  32.435  31.029  1.00  0.00     0.057 A 
ATOM     85  C   UNL A   1      45.197  33.449  30.134  1.00  0.00     0.134 A 
ATOM     86  C   UNL A   1      44.867  32.736  32.396  1.00  0.00     0.134 A 
ATOM     87  F   UNL A   1      45.200  33.219  28.812  1.00  0.00    -0.206 F 
ATOM     88  C   UNL A   1      45.592  34.710  30.583  1.00  0.00     0.040 A 
ATOM     89  C   UNL A   1      45.238  34.000  32.857  1.00  0.00     0.040 A 
ATOM     90  F   UNL A   1      44.524  31.812  33.306  1.00  0.00    -0.206 F 
ATOM     91  C   UNL A   1      45.607  34.990  31.948  1.00  0.00     0.006 A 
ENDBRANCH  67  84
ENDBRANCH  41  42
ENDBRANCH  34  36
ENDBRANCH  33  34
ENDBRANCH  32  33
ENDBRANCH  31  32
ENDBRANCH  30  31
ENDBRANCH  29  30
ENDBRANCH   1  29
TORSDOF 20
ENDMDL
