MODEL 1
REMARK VINA RESULT:      -9.8      0.000      0.000
REMARK SMILES C[C@@H](NC(=O)c1ccc(S(=O)(=O)N(C)C)o1)C(=O)OCCOCCOCCOC(=O)c1ccc(-c2c3nc(c(-c4c(F)cccc4F)c4ccc([nH]4)c(-c4c(F)cccc4F)c4nc(c(-c5c(F)cccc5F)c5ccc2[nH]5)C=C4)C=C3)cc1
REMARK SMILES IDX 23 1 22 2 21 3 20 4 19 5 17 6 18 7 2 8 1 9 3 10 4 11 5 13
REMARK SMILES IDX 6 14 7 15 16 16 8 17 9 18 10 19 11 20 12 21 13 22 14 23
REMARK SMILES IDX 15 24 24 25 25 26 26 27 27 28 28 29 29 30 30 31 31 32 32 33
REMARK SMILES IDX 84 34 33 35 83 36 34 37 35 38 36 39 77 40 37 41 82 42 76 43
REMARK SMILES IDX 78 44 38 45 81 46 75 47 74 48 39 50 65 51 48 52 64 53 49 54
REMARK SMILES IDX 52 55 63 56 79 57 50 58 51 59 62 61 80 62 53 63 40 64 41 65
REMARK SMILES IDX 46 66 42 67 43 68 45 69 47 70 44 71 66 72 67 73 72 74 68 75
REMARK SMILES IDX 69 76 71 77 73 78 70 79 54 80 55 81 60 82 56 83 57 84 59 85
REMARK SMILES IDX 61 86 58 87
REMARK H PARENT 3 12 78 49 52 60
REMARK Flexibility Score: inf
ROOT
ATOM      1  C   UNL A   1      34.645  31.176  27.817  1.00  0.00     0.188 C 
ENDROOT
BRANCH   1   2
ATOM      2  O   UNL A   1      33.445  30.450  27.635  1.00  0.00    -0.376 OA
BRANCH   2   3
ATOM      3  C   UNL A   1      32.671  30.806  26.515  1.00  0.00     0.202 C 
BRANCH   3   4
ATOM      4  C   UNL A   1      31.870  29.707  25.819  1.00  0.00     0.261 C 
BRANCH   4   5
ATOM      5  O   UNL A   1      32.324  28.350  25.881  1.00  0.00    -0.462 OA
BRANCH   5   6
ATOM      6  C   UNL A   1      31.517  27.433  26.477  1.00  0.00     0.328 C 
ATOM      7  O   UNL A   1      31.050  27.558  27.603  1.00  0.00    -0.250 OA
BRANCH   6   8
ATOM      8  C   UNL A   1      31.373  26.157  25.613  1.00  0.00     0.189 C 
ATOM      9  C   UNL A   1      30.276  25.185  26.057  1.00  0.00     0.043 C 
BRANCH   8  10
ATOM     10  N   UNL A   1      31.298  26.377  24.158  1.00  0.00    -0.336 N 
ATOM     11  C   UNL A   1      32.369  26.326  23.289  1.00  0.00     0.287 C 
ATOM     12  H   UNL A   1      30.412  26.575  23.776  1.00  0.00     0.164 HD
ATOM     13  O   UNL A   1      32.550  27.276  22.531  1.00  0.00    -0.266 OA
BRANCH  11  14
ATOM     14  C   UNL A   1      33.106  25.085  23.214  1.00  0.00     0.193 A 
ATOM     15  C   UNL A   1      32.887  23.955  22.452  1.00  0.00     0.058 A 
ATOM     16  O   UNL A   1      34.230  24.914  23.969  1.00  0.00    -0.438 OA
ATOM     17  C   UNL A   1      33.929  23.052  22.760  1.00  0.00     0.065 A 
ATOM     18  C   UNL A   1      34.733  23.644  23.730  1.00  0.00     0.234 A 
BRANCH  18  19
ATOM     19  S   UNL A   1      36.134  22.989  24.658  1.00  0.00     0.275 S 
ATOM     20  O   UNL A   1      37.007  22.405  23.679  1.00  0.00    -0.204 OA
ATOM     21  O   UNL A   1      36.556  24.084  25.521  1.00  0.00    -0.204 OA
BRANCH  19  22
ATOM     22  N   UNL A   1      35.568  21.726  25.696  1.00  0.00    -0.201 NA
ATOM     23  C   UNL A   1      34.285  22.002  26.381  1.00  0.00     0.124 C 
ATOM     24  C   UNL A   1      35.544  20.410  25.006  1.00  0.00     0.124 C 
ENDBRANCH  19  22
ENDBRANCH  18  19
ENDBRANCH  11  14
ENDBRANCH   8  10
ENDBRANCH   6   8
ENDBRANCH   5   6
ENDBRANCH   4   5
ENDBRANCH   3   4
ENDBRANCH   2   3
ENDBRANCH   1   2
BRANCH   1  25
ATOM     25  C   UNL A   1      34.397  32.676  28.035  1.00  0.00     0.188 C 
BRANCH  25  26
ATOM     26  O   UNL A   1      33.655  33.152  29.152  1.00  0.00    -0.376 OA
BRANCH  26  27
ATOM     27  C   UNL A   1      34.192  34.179  29.973  1.00  0.00     0.202 C 
BRANCH  27  28
ATOM     28  C   UNL A   1      34.536  33.847  31.432  1.00  0.00     0.261 C 
BRANCH  28  29
ATOM     29  O   UNL A   1      34.804  32.460  31.684  1.00  0.00    -0.460 OA
BRANCH  29  30
ATOM     30  C   UNL A   1      35.819  32.212  32.549  1.00  0.00     0.338 C 
ATOM     31  O   UNL A   1      35.818  32.357  33.759  1.00  0.00    -0.246 OA
BRANCH  30  32
ATOM     32  C   UNL A   1      36.900  31.508  31.822  1.00  0.00     0.060 A 
ATOM     33  C   UNL A   1      37.798  30.736  32.577  1.00  0.00     0.016 A 
ATOM     34  C   UNL A   1      37.017  31.569  30.433  1.00  0.00     0.016 A 
ATOM     35  C   UNL A   1      38.809  30.016  31.943  1.00  0.00     0.010 A 
ATOM     36  C   UNL A   1      38.060  30.885  29.803  1.00  0.00     0.010 A 
ATOM     37  C   UNL A   1      38.969  30.121  30.556  1.00  0.00    -0.014 A 
BRANCH  37  38
ATOM     38  C   UNL A   1      40.204  29.606  29.923  1.00  0.00     0.031 A 
ATOM     39  C   UNL A   1      41.343  30.565  29.718  1.00  0.00     0.074 A 
ATOM     40  C   UNL A   1      40.315  28.325  29.532  1.00  0.00     0.049 A 
ATOM     41  N   UNL A   1      42.489  30.374  29.122  1.00  0.00    -0.248 NA
ATOM     42  C   UNL A   1      41.162  31.922  30.261  1.00  0.00     0.031 C 
ATOM     43  C   UNL A   1      39.303  27.287  29.717  1.00  0.00     0.029 A 
ATOM     44  N   UNL A   1      41.338  27.685  28.877  1.00  0.00    -0.354 N 
ATOM     45  C   UNL A   1      43.166  31.583  29.217  1.00  0.00     0.074 A 
ATOM     46  C   UNL A   1      42.300  32.504  29.919  1.00  0.00     0.031 C 
ATOM     47  C   UNL A   1      39.744  26.145  29.159  1.00  0.00     0.029 A 
ATOM     48  C   UNL A   1      41.054  26.380  28.554  1.00  0.00     0.049 A 
ATOM     49  H   UNL A   1      42.194  28.120  28.659  1.00  0.00     0.167 HD
ATOM     50  C   UNL A   1      44.398  31.899  28.760  1.00  0.00     0.037 A 
ATOM     51  C   UNL A   1      41.760  25.496  27.823  1.00  0.00     0.037 A 
ATOM     52  C   UNL A   1      45.255  30.994  28.047  1.00  0.00     0.049 A 
ATOM     53  C   UNL A   1      43.088  25.906  27.238  1.00  0.00     0.074 A 
ATOM     54  C   UNL A   1      46.532  31.217  27.564  1.00  0.00     0.029 A 
ATOM     55  N   UNL A   1      44.912  29.697  27.702  1.00  0.00    -0.354 N 
ATOM     56  N   UNL A   1      43.734  27.040  27.364  1.00  0.00    -0.248 NA
ATOM     57  C   UNL A   1      43.779  24.914  26.399  1.00  0.00     0.031 C 
ATOM     58  C   UNL A   1      46.947  30.066  26.886  1.00  0.00     0.029 A 
ATOM     59  C   UNL A   1      45.942  29.117  26.980  1.00  0.00     0.049 A 
ATOM     60  H   UNL A   1      44.065  29.255  27.935  1.00  0.00     0.167 HD
ATOM     61  C   UNL A   1      44.909  26.891  26.636  1.00  0.00     0.074 A 
ATOM     62  C   UNL A   1      44.896  25.554  26.083  1.00  0.00     0.031 C 
ATOM     63  C   UNL A   1      45.909  27.784  26.440  1.00  0.00     0.037 A 
BRANCH  50  64
ATOM     64  C   UNL A   1      44.877  33.296  28.994  1.00  0.00     0.057 A 
ATOM     65  C   UNL A   1      45.631  33.636  30.124  1.00  0.00     0.134 A 
ATOM     66  C   UNL A   1      44.609  34.305  28.061  1.00  0.00     0.134 A 
ATOM     67  F   UNL A   1      45.901  32.715  31.061  1.00  0.00    -0.206 F 
ATOM     68  C   UNL A   1      46.095  34.936  30.323  1.00  0.00     0.040 A 
ATOM     69  C   UNL A   1      45.081  35.604  28.241  1.00  0.00     0.040 A 
ATOM     70  F   UNL A   1      43.886  34.041  26.962  1.00  0.00    -0.206 F 
ATOM     71  C   UNL A   1      45.826  35.922  29.375  1.00  0.00     0.006 A 
ENDBRANCH  50  64
BRANCH  51  72
ATOM     72  C   UNL A   1      41.214  24.143  27.546  1.00  0.00     0.057 A 
ATOM     73  C   UNL A   1      40.156  23.955  26.650  1.00  0.00     0.134 A 
ATOM     74  C   UNL A   1      41.695  23.016  28.223  1.00  0.00     0.134 A 
ATOM     75  F   UNL A   1      39.633  25.003  25.995  1.00  0.00    -0.206 F 
ATOM     76  C   UNL A   1      39.582  22.699  26.451  1.00  0.00     0.040 A 
ATOM     77  C   UNL A   1      41.144  21.750  28.018  1.00  0.00     0.040 A 
ATOM     78  F   UNL A   1      42.702  23.131  29.102  1.00  0.00    -0.206 F 
ATOM     79  C   UNL A   1      40.077  21.591  27.136  1.00  0.00     0.006 A 
ENDBRANCH  51  72
BRANCH  63  80
ATOM     80  C   UNL A   1      47.075  27.342  25.609  1.00  0.00     0.057 A 
ATOM     81  C   UNL A   1      47.140  27.607  24.236  1.00  0.00     0.134 A 
ATOM     82  C   UNL A   1      48.169  26.694  26.198  1.00  0.00     0.134 A 
ATOM     83  F   UNL A   1      46.118  28.213  23.613  1.00  0.00    -0.206 F 
ATOM     84  C   UNL A   1      48.246  27.231  23.474  1.00  0.00     0.040 A 
ATOM     85  C   UNL A   1      49.290  26.333  25.450  1.00  0.00     0.040 A 
ATOM     86  F   UNL A   1      48.173  26.421  27.511  1.00  0.00    -0.206 F 
ATOM     87  C   UNL A   1      49.328  26.599  24.083  1.00  0.00     0.006 A 
ENDBRANCH  63  80
ENDBRANCH  37  38
ENDBRANCH  30  32
ENDBRANCH  29  30
ENDBRANCH  28  29
ENDBRANCH  27  28
ENDBRANCH  26  27
ENDBRANCH  25  26
ENDBRANCH   1  25
TORSDOF 21
ENDMDL
MODEL 2
REMARK VINA RESULT:      -9.8      4.300      9.344
REMARK SMILES C[C@@H](NC(=O)c1ccc(S(=O)(=O)N(C)C)o1)C(=O)OCCOCCOCCOC(=O)c1ccc(-c2c3nc(c(-c4c(F)cccc4F)c4ccc([nH]4)c(-c4c(F)cccc4F)c4nc(c(-c5c(F)cccc5F)c5ccc2[nH]5)C=C4)C=C3)cc1
REMARK SMILES IDX 23 1 22 2 21 3 20 4 19 5 17 6 18 7 2 8 1 9 3 10 4 11 5 13
REMARK SMILES IDX 6 14 7 15 16 16 8 17 9 18 10 19 11 20 12 21 13 22 14 23
REMARK SMILES IDX 15 24 24 25 25 26 26 27 27 28 28 29 29 30 30 31 31 32 32 33
REMARK SMILES IDX 84 34 33 35 83 36 34 37 35 38 36 39 77 40 37 41 82 42 76 43
REMARK SMILES IDX 78 44 38 45 81 46 75 47 74 48 39 50 65 51 48 52 64 53 49 54
REMARK SMILES IDX 52 55 63 56 79 57 50 58 51 59 62 61 80 62 53 63 40 64 41 65
REMARK SMILES IDX 46 66 42 67 43 68 45 69 47 70 44 71 66 72 67 73 72 74 68 75
REMARK SMILES IDX 69 76 71 77 73 78 70 79 54 80 55 81 60 82 56 83 57 84 59 85
REMARK SMILES IDX 61 86 58 87
REMARK H PARENT 3 12 78 49 52 60
REMARK Flexibility Score: inf
ROOT
ATOM      1  C   UNL A   1      37.768  21.982  25.337  1.00  0.00     0.188 C 
ENDROOT
BRANCH   1   2
ATOM      2  O   UNL A   1      37.350  23.291  25.000  1.00  0.00    -0.376 OA
BRANCH   2   3
ATOM      3  C   UNL A   1      36.314  23.830  25.786  1.00  0.00     0.202 C 
BRANCH   3   4
ATOM      4  C   UNL A   1      35.055  24.319  25.073  1.00  0.00     0.261 C 
BRANCH   4   5
ATOM      5  O   UNL A   1      34.269  25.365  25.656  1.00  0.00    -0.462 OA
BRANCH   5   6
ATOM      6  C   UNL A   1      33.511  26.131  24.829  1.00  0.00     0.328 C 
ATOM      7  O   UNL A   1      33.804  26.383  23.666  1.00  0.00    -0.250 OA
BRANCH   6   8
ATOM      8  C   UNL A   1      32.307  26.753  25.576  1.00  0.00     0.189 C 
ATOM      9  C   UNL A   1      31.258  27.425  24.685  1.00  0.00     0.043 C 
BRANCH   8  10
ATOM     10  N   UNL A   1      31.648  25.880  26.563  1.00  0.00    -0.336 N 
ATOM     11  C   UNL A   1      30.777  24.852  26.262  1.00  0.00     0.287 C 
ATOM     12  H   UNL A   1      31.847  26.042  27.514  1.00  0.00     0.164 HD
ATOM     13  O   UNL A   1      29.686  24.828  26.827  1.00  0.00    -0.266 OA
BRANCH  11  14
ATOM     14  C   UNL A   1      31.274  23.783  25.426  1.00  0.00     0.193 A 
ATOM     15  C   UNL A   1      31.096  23.540  24.079  1.00  0.00     0.058 A 
ATOM     16  O   UNL A   1      32.077  22.817  25.961  1.00  0.00    -0.438 OA
ATOM     17  C   UNL A   1      31.825  22.366  23.781  1.00  0.00     0.065 A 
ATOM     18  C   UNL A   1      32.397  21.908  24.963  1.00  0.00     0.234 A 
BRANCH  18  19
ATOM     19  S   UNL A   1      33.323  20.401  25.316  1.00  0.00     0.275 S 
ATOM     20  O   UNL A   1      34.478  20.450  24.465  1.00  0.00    -0.204 OA
ATOM     21  O   UNL A   1      33.429  20.359  26.768  1.00  0.00    -0.204 OA
BRANCH  19  22
ATOM     22  N   UNL A   1      32.365  19.040  24.847  1.00  0.00    -0.201 NA
ATOM     23  C   UNL A   1      32.395  18.717  23.403  1.00  0.00     0.124 C 
ATOM     24  C   UNL A   1      32.658  17.843  25.678  1.00  0.00     0.124 C 
ENDBRANCH  19  22
ENDBRANCH  18  19
ENDBRANCH  11  14
ENDBRANCH   8  10
ENDBRANCH   6   8
ENDBRANCH   5   6
ENDBRANCH   4   5
ENDBRANCH   3   4
ENDBRANCH   2   3
ENDBRANCH   1   2
BRANCH   1  25
ATOM     25  C   UNL A   1      39.074  21.974  26.148  1.00  0.00     0.188 C 
BRANCH  25  26
ATOM     26  O   UNL A   1      40.021  20.920  26.022  1.00  0.00    -0.376 OA
BRANCH  26  27
ATOM     27  C   UNL A   1      41.322  21.067  26.573  1.00  0.00     0.202 C 
BRANCH  27  28
ATOM     28  C   UNL A   1      42.412  21.724  25.714  1.00  0.00     0.261 C 
BRANCH  28  29
ATOM     29  O   UNL A   1      42.150  23.087  25.352  1.00  0.00    -0.460 OA
BRANCH  29  30
ATOM     30  C   UNL A   1      43.211  23.928  25.443  1.00  0.00     0.338 C 
ATOM     31  O   UNL A   1      44.133  24.047  24.655  1.00  0.00    -0.246 OA
BRANCH  30  32
ATOM     32  C   UNL A   1      42.978  24.869  26.561  1.00  0.00     0.060 A 
ATOM     33  C   UNL A   1      42.034  24.505  27.535  1.00  0.00     0.016 A 
ATOM     34  C   UNL A   1      43.688  26.066  26.678  1.00  0.00     0.016 A 
ATOM     35  C   UNL A   1      41.805  25.332  28.634  1.00  0.00     0.010 A 
ATOM     36  C   UNL A   1      43.423  26.916  27.756  1.00  0.00     0.010 A 
ATOM     37  C   UNL A   1      42.469  26.560  28.726  1.00  0.00    -0.014 A 
BRANCH  37  38
ATOM     38  C   UNL A   1      42.016  27.561  29.718  1.00  0.00     0.031 A 
ATOM     39  C   UNL A   1      42.710  27.597  31.050  1.00  0.00     0.074 A 
ATOM     40  C   UNL A   1      41.010  28.412  29.452  1.00  0.00     0.049 A 
ATOM     41  N   UNL A   1      42.446  28.325  32.103  1.00  0.00    -0.248 NA
ATOM     42  C   UNL A   1      43.859  26.690  31.215  1.00  0.00     0.031 C 
ATOM     43  C   UNL A   1      40.289  28.509  28.185  1.00  0.00     0.029 A 
ATOM     44  N   UNL A   1      40.411  29.352  30.254  1.00  0.00    -0.354 N 
ATOM     45  C   UNL A   1      43.393  27.965  33.053  1.00  0.00     0.074 A 
ATOM     46  C   UNL A   1      44.232  26.948  32.458  1.00  0.00     0.031 C 
ATOM     47  C   UNL A   1      39.321  29.437  28.305  1.00  0.00     0.029 A 
ATOM     48  C   UNL A   1      39.338  29.975  29.664  1.00  0.00     0.049 A 
ATOM     49  H   UNL A   1      40.720  29.559  31.166  1.00  0.00     0.167 HD
ATOM     50  C   UNL A   1      43.549  28.438  34.310  1.00  0.00     0.037 A 
ATOM     51  C   UNL A   1      38.454  30.852  30.180  1.00  0.00     0.037 A 
ATOM     52  C   UNL A   1      42.709  29.435  34.912  1.00  0.00     0.049 A 
ATOM     53  C   UNL A   1      38.592  31.288  31.617  1.00  0.00     0.074 A 
ATOM     54  C   UNL A   1      42.805  29.995  36.173  1.00  0.00     0.029 A 
ATOM     55  N   UNL A   1      41.609  30.007  34.296  1.00  0.00    -0.354 N 
ATOM     56  N   UNL A   1      39.511  30.967  32.496  1.00  0.00    -0.248 NA
ATOM     57  C   UNL A   1      37.560  32.198  32.136  1.00  0.00     0.031 C 
ATOM     58  C   UNL A   1      41.732  30.876  36.339  1.00  0.00     0.029 A 
ATOM     59  C   UNL A   1      40.993  30.891  35.167  1.00  0.00     0.049 A 
ATOM     60  H   UNL A   1      41.309  29.815  33.379  1.00  0.00     0.167 HD
ATOM     61  C   UNL A   1      39.177  31.648  33.661  1.00  0.00     0.074 A 
ATOM     62  C   UNL A   1      37.980  32.410  33.375  1.00  0.00     0.031 C 
ATOM     63  C   UNL A   1      39.803  31.641  34.862  1.00  0.00     0.037 A 
BRANCH  50  64
ATOM     64  C   UNL A   1      44.658  27.855  35.127  1.00  0.00     0.057 A 
ATOM     65  C   UNL A   1      44.471  26.710  35.909  1.00  0.00     0.134 A 
ATOM     66  C   UNL A   1      45.935  28.429  35.104  1.00  0.00     0.134 A 
ATOM     67  F   UNL A   1      43.264  26.129  35.985  1.00  0.00    -0.206 F 
ATOM     68  C   UNL A   1      45.517  26.158  36.649  1.00  0.00     0.040 A 
ATOM     69  C   UNL A   1      46.992  27.877  35.827  1.00  0.00     0.040 A 
ATOM     70  F   UNL A   1      46.174  29.531  34.378  1.00  0.00    -0.206 F 
ATOM     71  C   UNL A   1      46.783  26.738  36.603  1.00  0.00     0.006 A 
ENDBRANCH  50  64
BRANCH  51  72
ATOM     72  C   UNL A   1      37.321  31.348  29.360  1.00  0.00     0.057 A 
ATOM     73  C   UNL A   1      37.330  32.634  28.809  1.00  0.00     0.134 A 
ATOM     74  C   UNL A   1      36.174  30.570  29.165  1.00  0.00     0.134 A 
ATOM     75  F   UNL A   1      38.389  33.438  28.990  1.00  0.00    -0.206 F 
ATOM     76  C   UNL A   1      36.231  33.138  28.111  1.00  0.00     0.040 A 
ATOM     77  C   UNL A   1      35.076  31.053  28.451  1.00  0.00     0.040 A 
ATOM     78  F   UNL A   1      36.099  29.332  29.675  1.00  0.00    -0.206 F 
ATOM     79  C   UNL A   1      35.100  32.345  27.929  1.00  0.00     0.006 A 
ENDBRANCH  51  72
BRANCH  63  80
ATOM     80  C   UNL A   1      39.219  32.489  35.950  1.00  0.00     0.057 A 
ATOM     81  C   UNL A   1      38.292  31.975  36.864  1.00  0.00     0.134 A 
ATOM     82  C   UNL A   1      39.629  33.819  36.120  1.00  0.00     0.134 A 
ATOM     83  F   UNL A   1      37.851  30.713  36.747  1.00  0.00    -0.206 F 
ATOM     84  C   UNL A   1      37.782  32.756  37.901  1.00  0.00     0.040 A 
ATOM     85  C   UNL A   1      39.143  34.602  37.166  1.00  0.00     0.040 A 
ATOM     86  F   UNL A   1      40.523  34.367  35.283  1.00  0.00    -0.206 F 
ATOM     87  C   UNL A   1      38.213  34.072  38.058  1.00  0.00     0.006 A 
ENDBRANCH  63  80
ENDBRANCH  37  38
ENDBRANCH  30  32
ENDBRANCH  29  30
ENDBRANCH  28  29
ENDBRANCH  27  28
ENDBRANCH  26  27
ENDBRANCH  25  26
ENDBRANCH   1  25
TORSDOF 21
ENDMDL
MODEL 3
REMARK VINA RESULT:      -9.7      1.746      3.146
REMARK SMILES C[C@@H](NC(=O)c1ccc(S(=O)(=O)N(C)C)o1)C(=O)OCCOCCOCCOC(=O)c1ccc(-c2c3nc(c(-c4c(F)cccc4F)c4ccc([nH]4)c(-c4c(F)cccc4F)c4nc(c(-c5c(F)cccc5F)c5ccc2[nH]5)C=C4)C=C3)cc1
REMARK SMILES IDX 23 1 22 2 21 3 20 4 19 5 17 6 18 7 2 8 1 9 3 10 4 11 5 13
REMARK SMILES IDX 6 14 7 15 16 16 8 17 9 18 10 19 11 20 12 21 13 22 14 23
REMARK SMILES IDX 15 24 24 25 25 26 26 27 27 28 28 29 29 30 30 31 31 32 32 33
REMARK SMILES IDX 84 34 33 35 83 36 34 37 35 38 36 39 77 40 37 41 82 42 76 43
REMARK SMILES IDX 78 44 38 45 81 46 75 47 74 48 39 50 65 51 48 52 64 53 49 54
REMARK SMILES IDX 52 55 63 56 79 57 50 58 51 59 62 61 80 62 53 63 40 64 41 65
REMARK SMILES IDX 46 66 42 67 43 68 45 69 47 70 44 71 66 72 67 73 72 74 68 75
REMARK SMILES IDX 69 76 71 77 73 78 70 79 54 80 55 81 60 82 56 83 57 84 59 85
REMARK SMILES IDX 61 86 58 87
REMARK H PARENT 3 12 78 49 52 60
REMARK Flexibility Score: inf
ROOT
ATOM      1  C   UNL A   1      34.593  30.401  27.747  1.00  0.00     0.188 C 
ENDROOT
BRANCH   1   2
ATOM      2  O   UNL A   1      33.415  29.699  27.399  1.00  0.00    -0.376 OA
BRANCH   2   3
ATOM      3  C   UNL A   1      33.049  29.744  26.040  1.00  0.00     0.202 C 
BRANCH   3   4
ATOM      4  C   UNL A   1      33.099  28.443  25.241  1.00  0.00     0.261 C 
BRANCH   4   5
ATOM      5  O   UNL A   1      33.856  27.333  25.739  1.00  0.00    -0.462 OA
BRANCH   5   6
ATOM      6  C   UNL A   1      33.256  26.114  25.769  1.00  0.00     0.328 C 
ATOM      7  O   UNL A   1      32.268  25.851  26.445  1.00  0.00    -0.250 OA
BRANCH   6   8
ATOM      8  C   UNL A   1      34.053  25.069  24.953  1.00  0.00     0.189 C 
ATOM      9  C   UNL A   1      33.765  23.606  25.302  1.00  0.00     0.043 C 
BRANCH   8  10
ATOM     10  N   UNL A   1      34.037  25.254  23.491  1.00  0.00    -0.336 N 
ATOM     11  C   UNL A   1      32.956  25.005  22.669  1.00  0.00     0.287 C 
ATOM     12  H   UNL A   1      34.862  25.583  23.067  1.00  0.00     0.164 HD
ATOM     13  O   UNL A   1      33.124  24.284  21.687  1.00  0.00    -0.266 OA
BRANCH  11  14
ATOM     14  C   UNL A   1      31.740  25.743  22.926  1.00  0.00     0.193 A 
ATOM     15  C   UNL A   1      30.522  25.323  23.418  1.00  0.00     0.058 A 
ATOM     16  O   UNL A   1      31.699  27.087  22.694  1.00  0.00    -0.438 OA
ATOM     17  C   UNL A   1      29.697  26.468  23.487  1.00  0.00     0.065 A 
ATOM     18  C   UNL A   1      30.426  27.548  23.000  1.00  0.00     0.234 A 
BRANCH  18  19
ATOM     19  S   UNL A   1      29.934  29.254  22.681  1.00  0.00     0.275 S 
ATOM     20  O   UNL A   1      29.944  29.904  23.961  1.00  0.00    -0.204 OA
ATOM     21  O   UNL A   1      30.784  29.689  21.581  1.00  0.00    -0.204 OA
BRANCH  19  22
ATOM     22  N   UNL A   1      28.310  29.259  22.087  1.00  0.00    -0.201 NA
ATOM     23  C   UNL A   1      27.262  29.063  23.115  1.00  0.00     0.124 C 
ATOM     24  C   UNL A   1      28.030  30.452  21.247  1.00  0.00     0.124 C 
ENDBRANCH  19  22
ENDBRANCH  18  19
ENDBRANCH  11  14
ENDBRANCH   8  10
ENDBRANCH   6   8
ENDBRANCH   5   6
ENDBRANCH   4   5
ENDBRANCH   3   4
ENDBRANCH   2   3
ENDBRANCH   1   2
BRANCH   1  25
ATOM     25  C   UNL A   1      34.419  31.925  27.649  1.00  0.00     0.188 C 
BRANCH  25  26
ATOM     26  O   UNL A   1      33.699  32.657  28.633  1.00  0.00    -0.376 OA
BRANCH  26  27
ATOM     27  C   UNL A   1      34.283  33.806  29.229  1.00  0.00     0.202 C 
BRANCH  27  28
ATOM     28  C   UNL A   1      34.647  33.755  30.719  1.00  0.00     0.261 C 
BRANCH  28  29
ATOM     29  O   UNL A   1      34.705  32.435  31.277  1.00  0.00    -0.460 OA
BRANCH  29  30
ATOM     30  C   UNL A   1      35.682  32.234  32.197  1.00  0.00     0.338 C 
ATOM     31  O   UNL A   1      35.628  32.442  33.396  1.00  0.00    -0.246 OA
BRANCH  30  32
ATOM     32  C   UNL A   1      36.795  31.498  31.555  1.00  0.00     0.060 A 
ATOM     33  C   UNL A   1      37.766  30.924  32.391  1.00  0.00     0.016 A 
ATOM     34  C   UNL A   1      36.874  31.340  30.170  1.00  0.00     0.016 A 
ATOM     35  C   UNL A   1      38.812  30.182  31.846  1.00  0.00     0.010 A 
ATOM     36  C   UNL A   1      37.949  30.636  29.622  1.00  0.00     0.010 A 
ATOM     37  C   UNL A   1      38.930  30.070  30.456  1.00  0.00    -0.014 A 
BRANCH  37  38
ATOM     38  C   UNL A   1      40.185  29.545  29.871  1.00  0.00     0.031 A 
ATOM     39  C   UNL A   1      41.338  30.496  29.710  1.00  0.00     0.074 A 
ATOM     40  C   UNL A   1      40.300  28.264  29.484  1.00  0.00     0.049 A 
ATOM     41  N   UNL A   1      42.505  30.296  29.159  1.00  0.00    -0.248 NA
ATOM     42  C   UNL A   1      41.147  31.854  30.247  1.00  0.00     0.031 C 
ATOM     43  C   UNL A   1      39.274  27.234  29.629  1.00  0.00     0.029 A 
ATOM     44  N   UNL A   1      41.344  27.616  28.868  1.00  0.00    -0.354 N 
ATOM     45  C   UNL A   1      43.187  31.500  29.281  1.00  0.00     0.074 A 
ATOM     46  C   UNL A   1      42.302  32.428  29.950  1.00  0.00     0.031 C 
ATOM     47  C   UNL A   1      39.728  26.088  29.087  1.00  0.00     0.029 A 
ATOM     48  C   UNL A   1      41.062  26.314  28.533  1.00  0.00     0.049 A 
ATOM     49  H   UNL A   1      42.211  28.045  28.683  1.00  0.00     0.167 HD
ATOM     50  C   UNL A   1      44.439  31.806  28.872  1.00  0.00     0.037 A 
ATOM     51  C   UNL A   1      41.789  25.424  27.829  1.00  0.00     0.037 A 
ATOM     52  C   UNL A   1      45.315  30.895  28.192  1.00  0.00     0.049 A 
ATOM     53  C   UNL A   1      43.141  25.824  27.296  1.00  0.00     0.074 A 
ATOM     54  C   UNL A   1      46.612  31.108  27.759  1.00  0.00     0.029 A 
ATOM     55  N   UNL A   1      44.976  29.601  27.833  1.00  0.00    -0.354 N 
ATOM     56  N   UNL A   1      43.790  26.953  27.448  1.00  0.00    -0.248 NA
ATOM     57  C   UNL A   1      43.856  24.828  26.484  1.00  0.00     0.031 C 
ATOM     58  C   UNL A   1      47.043  29.954  27.096  1.00  0.00     0.029 A 
ATOM     59  C   UNL A   1      46.028  29.013  27.151  1.00  0.00     0.049 A 
ATOM     60  H   UNL A   1      44.116  29.165  28.033  1.00  0.00     0.167 HD
ATOM     61  C   UNL A   1      44.992  26.796  26.766  1.00  0.00     0.074 A 
ATOM     62  C   UNL A   1      44.989  25.459  26.212  1.00  0.00     0.031 C 
ATOM     63  C   UNL A   1      46.005  27.680  26.609  1.00  0.00     0.037 A 
BRANCH  50  64
ATOM     64  C   UNL A   1      44.919  33.200  29.125  1.00  0.00     0.057 A 
ATOM     65  C   UNL A   1      45.616  33.537  30.292  1.00  0.00     0.134 A 
ATOM     66  C   UNL A   1      44.710  34.207  28.176  1.00  0.00     0.134 A 
ATOM     67  F   UNL A   1      45.827  32.617  31.246  1.00  0.00    -0.206 F 
ATOM     68  C   UNL A   1      46.082  34.833  30.509  1.00  0.00     0.040 A 
ATOM     69  C   UNL A   1      45.186  35.502  28.375  1.00  0.00     0.040 A 
ATOM     70  F   UNL A   1      44.044  33.945  27.041  1.00  0.00    -0.206 F 
ATOM     71  C   UNL A   1      45.874  35.818  29.545  1.00  0.00     0.006 A 
ENDBRANCH  50  64
BRANCH  51  72
ATOM     72  C   UNL A   1      41.243  24.076  27.531  1.00  0.00     0.057 A 
ATOM     73  C   UNL A   1      40.217  23.897  26.596  1.00  0.00     0.134 A 
ATOM     74  C   UNL A   1      41.691  22.945  28.223  1.00  0.00     0.134 A 
ATOM     75  F   UNL A   1      39.726  24.949  25.924  1.00  0.00    -0.206 F 
ATOM     76  C   UNL A   1      39.641  22.645  26.374  1.00  0.00     0.040 A 
ATOM     77  C   UNL A   1      41.139  21.683  27.996  1.00  0.00     0.040 A 
ATOM     78  F   UNL A   1      42.666  23.051  29.138  1.00  0.00    -0.206 F 
ATOM     79  C   UNL A   1      40.103  21.533  27.076  1.00  0.00     0.006 A 
ENDBRANCH  51  72
BRANCH  63  80
ATOM     80  C   UNL A   1      47.199  27.230  25.823  1.00  0.00     0.057 A 
ATOM     81  C   UNL A   1      47.300  27.459  24.446  1.00  0.00     0.134 A 
ATOM     82  C   UNL A   1      48.283  26.610  26.460  1.00  0.00     0.134 A 
ATOM     83  F   UNL A   1      46.290  28.037  23.778  1.00  0.00    -0.206 F 
ATOM     84  C   UNL A   1      48.431  27.075  23.725  1.00  0.00     0.040 A 
ATOM     85  C   UNL A   1      49.428  26.242  25.754  1.00  0.00     0.040 A 
ATOM     86  F   UNL A   1      48.252  26.372  27.779  1.00  0.00    -0.206 F 
ATOM     87  C   UNL A   1      49.502  26.472  24.381  1.00  0.00     0.006 A 
ENDBRANCH  63  80
ENDBRANCH  37  38
ENDBRANCH  30  32
ENDBRANCH  29  30
ENDBRANCH  28  29
ENDBRANCH  27  28
ENDBRANCH  26  27
ENDBRANCH  25  26
ENDBRANCH   1  25
TORSDOF 21
ENDMDL
