MODEL 1
REMARK VINA RESULT:     -11.1      0.000      0.000
REMARK SMILES O=C(OCCOCCOCCOC(=O)c1[nH]ncc1C[N@H+]1CCC[C@@H](C(=O)c2ccc(Oc3ccccc3)cc2)C1)c1ccc(-c2c3nc(c(-c4c(F)cccc4F)c4ccc([nH]4)c(-c4c(F)cccc4F)c4nc(c(-c5c(F)cccc5F)c5ccc2[nH]5)C=C4)C=C3)cc1
REMARK SMILES IDX 10 1 9 2 8 3 7 4 6 5 5 6 4 7 3 8 2 9 1 10 42 11 43 12 95 13
REMARK SMILES IDX 44 14 94 15 45 16 46 17 47 18 88 19 48 20 93 21 87 22 89 23
REMARK SMILES IDX 49 24 92 25 86 26 85 27 50 29 76 30 59 31 75 32 60 33 63 34
REMARK SMILES IDX 74 35 90 36 61 37 62 38 73 40 91 41 64 42 51 43 52 44 57 45
REMARK SMILES IDX 53 46 54 47 56 48 58 49 55 50 77 51 78 52 83 53 79 54 80 55
REMARK SMILES IDX 82 56 84 57 81 58 65 59 66 60 71 61 67 62 68 63 70 64 72 65
REMARK SMILES IDX 69 66 11 67 12 68 13 69 14 70 15 71 16 72 19 73 17 74 18 76
REMARK SMILES IDX 20 77 21 78 22 79 41 80 23 82 25 83 24 84 26 85 27 86 28 87
REMARK SMILES IDX 29 88 40 89 30 90 39 91 31 92 32 93 33 94 34 95 38 96 35 97
REMARK SMILES IDX 37 98 36 99
REMARK H PARENT 89 28 63 39 16 75 21 81
REMARK Flexibility Score: inf
ROOT
ATOM      1  C   UNL A   1      34.391  29.401  27.238  1.00  0.00     0.202 C 
ENDROOT
BRANCH   1   2
ATOM      2  O   UNL A   1      34.230  30.806  27.432  1.00  0.00    -0.376 OA
BRANCH   2   3
ATOM      3  C   UNL A   1      35.213  31.467  28.233  1.00  0.00     0.188 C 
BRANCH   3   4
ATOM      4  C   UNL A   1      35.176  32.994  28.131  1.00  0.00     0.188 C 
BRANCH   4   5
ATOM      5  O   UNL A   1      34.314  33.536  29.146  1.00  0.00    -0.376 OA
BRANCH   5   6
ATOM      6  C   UNL A   1      33.298  34.393  28.614  1.00  0.00     0.202 C 
BRANCH   6   7
ATOM      7  C   UNL A   1      33.138  35.714  29.377  1.00  0.00     0.261 C 
BRANCH   7   8
ATOM      8  O   UNL A   1      32.314  35.557  30.543  1.00  0.00    -0.460 OA
BRANCH   8   9
ATOM      9  C   UNL A   1      32.691  35.673  31.841  1.00  0.00     0.338 C 
ATOM     10  O   UNL A   1      31.970  36.293  32.622  1.00  0.00    -0.246 OA
BRANCH   9  11
ATOM     11  C   UNL A   1      33.895  34.990  32.395  1.00  0.00     0.060 A 
ATOM     12  C   UNL A   1      35.174  35.545  32.431  1.00  0.00     0.016 A 
ATOM     13  C   UNL A   1      33.701  33.729  32.983  1.00  0.00     0.016 A 
ATOM     14  C   UNL A   1      36.260  34.801  32.896  1.00  0.00     0.010 A 
ATOM     15  C   UNL A   1      34.775  33.013  33.526  1.00  0.00     0.010 A 
ATOM     16  C   UNL A   1      36.073  33.526  33.443  1.00  0.00    -0.014 A 
BRANCH  16  17
ATOM     17  C   UNL A   1      37.260  32.741  33.871  1.00  0.00     0.031 A 
ATOM     18  C   UNL A   1      37.853  31.720  32.946  1.00  0.00     0.074 A 
ATOM     19  C   UNL A   1      37.871  33.028  35.036  1.00  0.00     0.049 A 
ATOM     20  N   UNL A   1      38.939  31.005  33.096  1.00  0.00    -0.248 NA
ATOM     21  C   UNL A   1      37.143  31.479  31.680  1.00  0.00     0.031 C 
ATOM     22  C   UNL A   1      37.409  34.028  35.993  1.00  0.00     0.029 A 
ATOM     23  N   UNL A   1      39.025  32.544  35.597  1.00  0.00    -0.354 N 
ATOM     24  C   UNL A   1      39.053  30.248  31.939  1.00  0.00     0.074 A 
ATOM     25  C   UNL A   1      37.903  30.552  31.115  1.00  0.00     0.031 C 
ATOM     26  C   UNL A   1      38.287  34.119  37.004  1.00  0.00     0.029 A 
ATOM     27  C   UNL A   1      39.364  33.165  36.776  1.00  0.00     0.049 A 
ATOM     28  H   UNL A   1      39.560  31.822  35.193  1.00  0.00     0.167 HD
ATOM     29  C   UNL A   1      40.038  29.391  31.583  1.00  0.00     0.037 A 
ATOM     30  C   UNL A   1      40.430  32.992  37.576  1.00  0.00     0.037 A 
ATOM     31  C   UNL A   1      41.173  29.072  32.406  1.00  0.00     0.049 A 
ATOM     32  C   UNL A   1      41.476  31.990  37.186  1.00  0.00     0.074 A 
ATOM     33  C   UNL A   1      42.182  28.155  32.173  1.00  0.00     0.029 A 
ATOM     34  N   UNL A   1      41.449  29.674  33.624  1.00  0.00    -0.354 N 
ATOM     35  N   UNL A   1      41.540  31.246  36.111  1.00  0.00    -0.248 NA
ATOM     36  C   UNL A   1      42.591  31.801  38.124  1.00  0.00     0.031 C 
ATOM     37  C   UNL A   1      43.063  28.191  33.261  1.00  0.00     0.029 A 
ATOM     38  C   UNL A   1      42.613  29.147  34.158  1.00  0.00     0.049 A 
ATOM     39  H   UNL A   1      40.900  30.372  34.047  1.00  0.00     0.167 HD
ATOM     40  C   UNL A   1      42.699  30.496  36.241  1.00  0.00     0.074 A 
ATOM     41  C   UNL A   1      43.322  30.897  37.487  1.00  0.00     0.031 C 
ATOM     42  C   UNL A   1      43.201  29.553  35.407  1.00  0.00     0.037 A 
BRANCH  29  43
ATOM     43  C   UNL A   1      39.904  28.735  30.243  1.00  0.00     0.057 A 
ATOM     44  C   UNL A   1      39.207  27.530  30.089  1.00  0.00     0.134 A 
ATOM     45  C   UNL A   1      40.498  29.295  29.106  1.00  0.00     0.134 A 
ATOM     46  F   UNL A   1      38.640  26.933  31.149  1.00  0.00    -0.206 F 
ATOM     47  C   UNL A   1      39.120  26.893  28.851  1.00  0.00     0.040 A 
ATOM     48  C   UNL A   1      40.405  28.673  27.860  1.00  0.00     0.040 A 
ATOM     49  F   UNL A   1      41.186  30.441  29.192  1.00  0.00    -0.206 F 
ATOM     50  C   UNL A   1      39.719  27.467  27.732  1.00  0.00     0.006 A 
ENDBRANCH  29  43
BRANCH  30  51
ATOM     51  C   UNL A   1      40.571  33.787  38.820  1.00  0.00     0.057 A 
ATOM     52  C   UNL A   1      39.938  33.399  40.005  1.00  0.00     0.134 A 
ATOM     53  C   UNL A   1      41.325  34.966  38.844  1.00  0.00     0.134 A 
ATOM     54  F   UNL A   1      39.184  32.291  40.036  1.00  0.00    -0.206 F 
ATOM     55  C   UNL A   1      40.041  34.162  41.170  1.00  0.00     0.040 A 
ATOM     56  C   UNL A   1      41.443  35.733  40.004  1.00  0.00     0.040 A 
ATOM     57  F   UNL A   1      41.960  35.384  37.740  1.00  0.00    -0.206 F 
ATOM     58  C   UNL A   1      40.799  35.331  41.171  1.00  0.00     0.006 A 
ENDBRANCH  30  51
BRANCH  42  59
ATOM     59  C   UNL A   1      44.471  28.890  35.836  1.00  0.00     0.057 A 
ATOM     60  C   UNL A   1      45.719  29.402  35.462  1.00  0.00     0.134 A 
ATOM     61  C   UNL A   1      44.446  27.743  36.637  1.00  0.00     0.134 A 
ATOM     62  F   UNL A   1      45.801  30.490  34.682  1.00  0.00    -0.206 F 
ATOM     63  C   UNL A   1      46.904  28.782  35.856  1.00  0.00     0.040 A 
ATOM     64  C   UNL A   1      45.625  27.122  37.049  1.00  0.00     0.040 A 
ATOM     65  F   UNL A   1      43.279  27.208  37.024  1.00  0.00    -0.206 F 
ATOM     66  C   UNL A   1      46.858  27.640  36.656  1.00  0.00     0.006 A 
ENDBRANCH  42  59
ENDBRANCH  16  17
ENDBRANCH   9  11
ENDBRANCH   8   9
ENDBRANCH   7   8
ENDBRANCH   6   7
ENDBRANCH   5   6
ENDBRANCH   4   5
ENDBRANCH   3   4
ENDBRANCH   2   3
ENDBRANCH   1   2
BRANCH   1  67
ATOM     67  C   UNL A   1      34.068  28.924  25.824  1.00  0.00     0.261 C 
BRANCH  67  68
ATOM     68  O   UNL A   1      33.179  27.795  25.833  1.00  0.00    -0.459 OA
BRANCH  68  69
ATOM     69  C   UNL A   1      31.860  28.095  25.959  1.00  0.00     0.356 C 
ATOM     70  O   UNL A   1      31.262  28.293  27.005  1.00  0.00    -0.244 OA
BRANCH  69  71
ATOM     71  C   UNL A   1      31.255  28.086  24.665  1.00  0.00     0.152 A 
ATOM     72  N   UNL A   1      31.598  28.918  23.640  1.00  0.00    -0.271 N 
ATOM     73  C   UNL A   1      30.204  27.311  24.201  1.00  0.00     0.059 A 
ATOM     74  N   UNL A   1      30.833  28.766  22.548  1.00  0.00    -0.183 NA
ATOM     75  H   UNL A   1      32.336  29.568  23.696  1.00  0.00     0.190 HD
ATOM     76  C   UNL A   1      29.983  27.798  22.892  1.00  0.00     0.145 A 
BRANCH  73  77
ATOM     77  C   UNL A   1      29.513  26.200  24.926  1.00  0.00     0.303 C 
BRANCH  77  78
ATOM     78  N   UNL A   1      30.150  24.885  24.769  1.00  0.00    -0.330 N 
ATOM     79  C   UNL A   1      30.695  24.654  23.427  1.00  0.00     0.262 C 
ATOM     80  C   UNL A   1      31.128  24.608  25.820  1.00  0.00     0.274 C 
ATOM     81  H   UNL A   1      29.397  24.206  24.877  1.00  0.00     0.348 HD
ATOM     82  C   UNL A   1      31.222  23.224  23.294  1.00  0.00     0.062 C 
ATOM     83  C   UNL A   1      31.695  23.188  25.772  1.00  0.00     0.116 C 
ATOM     84  C   UNL A   1      32.253  22.899  24.372  1.00  0.00     0.023 C 
BRANCH  83  85
ATOM     85  C   UNL A   1      32.779  22.884  26.816  1.00  0.00     0.171 C 
ATOM     86  O   UNL A   1      32.493  22.664  27.993  1.00  0.00    -0.294 OA
BRANCH  85  87
ATOM     87  C   UNL A   1      34.202  22.736  26.418  1.00  0.00     0.018 A 
ATOM     88  C   UNL A   1      34.728  21.455  26.251  1.00  0.00     0.015 A 
ATOM     89  C   UNL A   1      35.020  23.851  26.226  1.00  0.00     0.015 A 
ATOM     90  C   UNL A   1      36.053  21.297  25.833  1.00  0.00     0.048 A 
ATOM     91  C   UNL A   1      36.329  23.693  25.767  1.00  0.00     0.048 A 
ATOM     92  C   UNL A   1      36.853  22.415  25.565  1.00  0.00     0.127 A 
BRANCH  92  93
ATOM     93  O   UNL A   1      38.144  22.142  25.162  1.00  0.00    -0.457 OA
BRANCH  93  94
ATOM     94  C   UNL A   1      39.135  22.174  26.112  1.00  0.00     0.127 A 
ATOM     95  C   UNL A   1      39.381  23.369  26.786  1.00  0.00     0.047 A 
ATOM     96  C   UNL A   1      39.944  21.057  26.336  1.00  0.00     0.047 A 
ATOM     97  C   UNL A   1      40.408  23.433  27.727  1.00  0.00     0.004 A 
ATOM     98  C   UNL A   1      40.951  21.115  27.299  1.00  0.00     0.004 A 
ATOM     99  C   UNL A   1      41.182  22.302  27.995  1.00  0.00     0.000 A 
ENDBRANCH  93  94
ENDBRANCH  92  93
ENDBRANCH  85  87
ENDBRANCH  83  85
ENDBRANCH  77  78
ENDBRANCH  73  77
ENDBRANCH  69  71
ENDBRANCH  68  69
ENDBRANCH  67  68
ENDBRANCH   1  67
TORSDOF 23
ENDMDL
MODEL 2
REMARK VINA RESULT:     -10.9      1.316      2.546
REMARK SMILES O=C(OCCOCCOCCOC(=O)c1[nH]ncc1C[N@H+]1CCC[C@@H](C(=O)c2ccc(Oc3ccccc3)cc2)C1)c1ccc(-c2c3nc(c(-c4c(F)cccc4F)c4ccc([nH]4)c(-c4c(F)cccc4F)c4nc(c(-c5c(F)cccc5F)c5ccc2[nH]5)C=C4)C=C3)cc1
REMARK SMILES IDX 10 1 9 2 8 3 7 4 6 5 5 6 4 7 3 8 2 9 1 10 42 11 43 12 95 13
REMARK SMILES IDX 44 14 94 15 45 16 46 17 47 18 88 19 48 20 93 21 87 22 89 23
REMARK SMILES IDX 49 24 92 25 86 26 85 27 50 29 76 30 59 31 75 32 60 33 63 34
REMARK SMILES IDX 74 35 90 36 61 37 62 38 73 40 91 41 64 42 51 43 52 44 57 45
REMARK SMILES IDX 53 46 54 47 56 48 58 49 55 50 77 51 78 52 83 53 79 54 80 55
REMARK SMILES IDX 82 56 84 57 81 58 65 59 66 60 71 61 67 62 68 63 70 64 72 65
REMARK SMILES IDX 69 66 11 67 12 68 13 69 14 70 15 71 16 72 19 73 17 74 18 76
REMARK SMILES IDX 20 77 21 78 22 79 41 80 23 82 25 83 24 84 26 85 27 86 28 87
REMARK SMILES IDX 29 88 40 89 30 90 39 91 31 92 32 93 33 94 34 95 38 96 35 97
REMARK SMILES IDX 37 98 36 99
REMARK H PARENT 89 28 63 39 16 75 21 81
REMARK Flexibility Score: inf
ROOT
ATOM      1  C   UNL A   1      33.306  29.861  27.126  1.00  0.00     0.202 C 
ENDROOT
BRANCH   1   2
ATOM      2  O   UNL A   1      33.307  31.251  27.452  1.00  0.00    -0.376 OA
BRANCH   2   3
ATOM      3  C   UNL A   1      34.324  31.707  28.349  1.00  0.00     0.188 C 
BRANCH   3   4
ATOM      4  C   UNL A   1      34.509  33.227  28.360  1.00  0.00     0.188 C 
BRANCH   4   5
ATOM      5  O   UNL A   1      33.644  33.823  29.340  1.00  0.00    -0.376 OA
BRANCH   5   6
ATOM      6  C   UNL A   1      32.901  34.933  28.826  1.00  0.00     0.202 C 
BRANCH   6   7
ATOM      7  C   UNL A   1      32.903  36.161  29.745  1.00  0.00     0.261 C 
BRANCH   7   8
ATOM      8  O   UNL A   1      32.347  35.860  31.035  1.00  0.00    -0.460 OA
BRANCH   8   9
ATOM      9  C   UNL A   1      32.980  35.894  32.234  1.00  0.00     0.338 C 
ATOM     10  O   UNL A   1      32.544  36.625  33.122  1.00  0.00    -0.246 OA
BRANCH   9  11
ATOM     11  C   UNL A   1      34.127  35.000  32.567  1.00  0.00     0.060 A 
ATOM     12  C   UNL A   1      34.002  33.695  33.041  1.00  0.00     0.016 A 
ATOM     13  C   UNL A   1      35.417  35.495  32.314  1.00  0.00     0.016 A 
ATOM     14  C   UNL A   1      35.130  32.958  33.402  1.00  0.00     0.010 A 
ATOM     15  C   UNL A   1      36.553  34.727  32.598  1.00  0.00     0.010 A 
ATOM     16  C   UNL A   1      36.417  33.468  33.190  1.00  0.00    -0.014 A 
BRANCH  16  17
ATOM     17  C   UNL A   1      37.592  32.679  33.644  1.00  0.00     0.031 A 
ATOM     18  C   UNL A   1      38.208  31.663  32.729  1.00  0.00     0.074 A 
ATOM     19  C   UNL A   1      38.174  32.959  34.827  1.00  0.00     0.049 A 
ATOM     20  N   UNL A   1      39.289  30.946  32.903  1.00  0.00    -0.248 NA
ATOM     21  C   UNL A   1      37.530  31.429  31.444  1.00  0.00     0.031 C 
ATOM     22  C   UNL A   1      37.687  33.955  35.776  1.00  0.00     0.029 A 
ATOM     23  N   UNL A   1      39.312  32.471  35.413  1.00  0.00    -0.354 N 
ATOM     24  C   UNL A   1      39.433  30.195  31.745  1.00  0.00     0.074 A 
ATOM     25  C   UNL A   1      38.304  30.505  30.894  1.00  0.00     0.031 C 
ATOM     26  C   UNL A   1      38.539  34.039  36.809  1.00  0.00     0.029 A 
ATOM     27  C   UNL A   1      39.621  33.086  36.604  1.00  0.00     0.049 A 
ATOM     28  H   UNL A   1      39.857  31.751  35.020  1.00  0.00     0.167 HD
ATOM     29  C   UNL A   1      40.426  29.339  31.410  1.00  0.00     0.037 A 
ATOM     30  C   UNL A   1      40.667  32.908  37.431  1.00  0.00     0.037 A 
ATOM     31  C   UNL A   1      41.538  29.015  32.260  1.00  0.00     0.049 A 
ATOM     32  C   UNL A   1      41.721  31.907  37.062  1.00  0.00     0.074 A 
ATOM     33  C   UNL A   1      42.553  28.098  32.048  1.00  0.00     0.029 A 
ATOM     34  N   UNL A   1      41.784  29.610  33.488  1.00  0.00    -0.354 N 
ATOM     35  N   UNL A   1      41.813  31.168  35.985  1.00  0.00    -0.248 NA
ATOM     36  C   UNL A   1      42.812  31.712  38.028  1.00  0.00     0.031 C 
ATOM     37  C   UNL A   1      43.406  28.128  33.159  1.00  0.00     0.029 A 
ATOM     38  C   UNL A   1      42.933  29.079  34.049  1.00  0.00     0.049 A 
ATOM     39  H   UNL A   1      41.225  30.307  33.900  1.00  0.00     0.167 HD
ATOM     40  C   UNL A   1      42.967  30.417  36.140  1.00  0.00     0.074 A 
ATOM     41  C   UNL A   1      43.558  30.810  37.405  1.00  0.00     0.031 C 
ATOM     42  C   UNL A   1      43.489  29.478  35.314  1.00  0.00     0.037 A 
BRANCH  29  43
ATOM     43  C   UNL A   1      40.326  28.690  30.064  1.00  0.00     0.057 A 
ATOM     44  C   UNL A   1      41.021  29.197  28.959  1.00  0.00     0.134 A 
ATOM     45  C   UNL A   1      39.510  27.571  29.864  1.00  0.00     0.134 A 
ATOM     46  F   UNL A   1      41.798  30.284  29.084  1.00  0.00    -0.206 F 
ATOM     47  C   UNL A   1      40.893  28.622  27.693  1.00  0.00     0.040 A 
ATOM     48  C   UNL A   1      39.385  26.980  28.605  1.00  0.00     0.040 A 
ATOM     49  F   UNL A   1      38.812  27.047  30.881  1.00  0.00    -0.206 F 
ATOM     50  C   UNL A   1      40.074  27.509  27.516  1.00  0.00     0.006 A 
ENDBRANCH  29  43
BRANCH  30  51
ATOM     51  C   UNL A   1      40.776  33.696  38.682  1.00  0.00     0.057 A 
ATOM     52  C   UNL A   1      41.602  34.822  38.761  1.00  0.00     0.134 A 
ATOM     53  C   UNL A   1      40.074  33.326  39.834  1.00  0.00     0.134 A 
ATOM     54  F   UNL A   1      42.316  35.211  37.694  1.00  0.00    -0.206 F 
ATOM     55  C   UNL A   1      41.733  35.549  39.945  1.00  0.00     0.040 A 
ATOM     56  C   UNL A   1      40.189  34.049  41.023  1.00  0.00     0.040 A 
ATOM     57  F   UNL A   1      39.262  32.260  39.817  1.00  0.00    -0.206 F 
ATOM     58  C   UNL A   1      41.022  35.163  41.080  1.00  0.00     0.006 A 
ENDBRANCH  30  51
BRANCH  42  59
ATOM     59  C   UNL A   1      44.747  28.812  35.773  1.00  0.00     0.057 A 
ATOM     60  C   UNL A   1      44.711  27.627  36.517  1.00  0.00     0.134 A 
ATOM     61  C   UNL A   1      46.000  29.350  35.459  1.00  0.00     0.134 A 
ATOM     62  F   UNL A   1      43.537  27.076  36.860  1.00  0.00    -0.206 F 
ATOM     63  C   UNL A   1      45.882  27.007  36.951  1.00  0.00     0.040 A 
ATOM     64  C   UNL A   1      47.179  28.731  35.875  1.00  0.00     0.040 A 
ATOM     65  F   UNL A   1      46.095  30.484  34.749  1.00  0.00    -0.206 F 
ATOM     66  C   UNL A   1      47.121  27.558  36.626  1.00  0.00     0.006 A 
ENDBRANCH  42  59
ENDBRANCH  16  17
ENDBRANCH   9  11
ENDBRANCH   8   9
ENDBRANCH   7   8
ENDBRANCH   6   7
ENDBRANCH   5   6
ENDBRANCH   4   5
ENDBRANCH   3   4
ENDBRANCH   2   3
ENDBRANCH   1   2
BRANCH   1  67
ATOM     67  C   UNL A   1      33.370  29.570  25.630  1.00  0.00     0.261 C 
BRANCH  67  68
ATOM     68  O   UNL A   1      32.888  28.252  25.323  1.00  0.00    -0.459 OA
BRANCH  68  69
ATOM     69  C   UNL A   1      32.031  28.176  24.271  1.00  0.00     0.356 C 
ATOM     70  O   UNL A   1      30.959  28.750  24.172  1.00  0.00    -0.244 OA
BRANCH  69  71
ATOM     71  C   UNL A   1      32.557  27.263  23.307  1.00  0.00     0.152 A 
ATOM     72  N   UNL A   1      33.264  27.623  22.197  1.00  0.00    -0.271 N 
ATOM     73  C   UNL A   1      32.429  25.884  23.255  1.00  0.00     0.059 A 
ATOM     74  N   UNL A   1      33.585  26.587  21.407  1.00  0.00    -0.183 NA
ATOM     75  H   UNL A   1      33.514  28.554  21.995  1.00  0.00     0.190 HD
ATOM     76  C   UNL A   1      33.071  25.534  22.044  1.00  0.00     0.145 A 
BRANCH  73  77
ATOM     77  C   UNL A   1      31.791  24.997  24.276  1.00  0.00     0.303 C 
BRANCH  77  78
ATOM     78  N   UNL A   1      32.731  24.406  25.239  1.00  0.00    -0.330 N 
ATOM     79  C   UNL A   1      32.113  23.421  26.133  1.00  0.00     0.262 C 
ATOM     80  C   UNL A   1      33.938  23.889  24.595  1.00  0.00     0.274 C 
ATOM     81  H   UNL A   1      33.021  25.176  25.841  1.00  0.00     0.348 HD
ATOM     82  C   UNL A   1      33.112  22.946  27.189  1.00  0.00     0.062 C 
ATOM     83  C   UNL A   1      35.002  23.407  25.584  1.00  0.00     0.116 C 
ATOM     84  C   UNL A   1      34.385  22.392  26.555  1.00  0.00     0.023 C 
BRANCH  83  85
ATOM     85  C   UNL A   1      36.254  22.790  24.943  1.00  0.00     0.171 C 
ATOM     86  O   UNL A   1      36.235  22.346  23.796  1.00  0.00    -0.294 OA
BRANCH  85  87
ATOM     87  C   UNL A   1      37.561  22.810  25.649  1.00  0.00     0.018 A 
ATOM     88  C   UNL A   1      38.368  21.673  25.608  1.00  0.00     0.015 A 
ATOM     89  C   UNL A   1      37.983  23.934  26.360  1.00  0.00     0.015 A 
ATOM     90  C   UNL A   1      39.621  21.690  26.228  1.00  0.00     0.048 A 
ATOM     91  C   UNL A   1      39.251  23.964  26.942  1.00  0.00     0.048 A 
ATOM     92  C   UNL A   1      40.080  22.843  26.877  1.00  0.00     0.127 A 
BRANCH  92  93
ATOM     93  O   UNL A   1      41.328  22.746  27.457  1.00  0.00    -0.457 OA
BRANCH  93  94
ATOM     94  C   UNL A   1      42.086  23.887  27.550  1.00  0.00     0.127 A 
ATOM     95  C   UNL A   1      42.239  24.490  28.798  1.00  0.00     0.047 A 
ATOM     96  C   UNL A   1      42.620  24.485  26.406  1.00  0.00     0.047 A 
ATOM     97  C   UNL A   1      42.973  25.671  28.909  1.00  0.00     0.004 A 
ATOM     98  C   UNL A   1      43.378  25.649  26.525  1.00  0.00     0.004 A 
ATOM     99  C   UNL A   1      43.555  26.241  27.776  1.00  0.00     0.000 A 
ENDBRANCH  93  94
ENDBRANCH  92  93
ENDBRANCH  85  87
ENDBRANCH  83  85
ENDBRANCH  77  78
ENDBRANCH  73  77
ENDBRANCH  69  71
ENDBRANCH  68  69
ENDBRANCH  67  68
ENDBRANCH   1  67
TORSDOF 23
ENDMDL
MODEL 3
REMARK VINA RESULT:     -10.6      2.611      7.663
REMARK SMILES O=C(OCCOCCOCCOC(=O)c1[nH]ncc1C[N@H+]1CCC[C@@H](C(=O)c2ccc(Oc3ccccc3)cc2)C1)c1ccc(-c2c3nc(c(-c4c(F)cccc4F)c4ccc([nH]4)c(-c4c(F)cccc4F)c4nc(c(-c5c(F)cccc5F)c5ccc2[nH]5)C=C4)C=C3)cc1
REMARK SMILES IDX 10 1 9 2 8 3 7 4 6 5 5 6 4 7 3 8 2 9 1 10 42 11 43 12 95 13
REMARK SMILES IDX 44 14 94 15 45 16 46 17 47 18 88 19 48 20 93 21 87 22 89 23
REMARK SMILES IDX 49 24 92 25 86 26 85 27 50 29 76 30 59 31 75 32 60 33 63 34
REMARK SMILES IDX 74 35 90 36 61 37 62 38 73 40 91 41 64 42 51 43 52 44 57 45
REMARK SMILES IDX 53 46 54 47 56 48 58 49 55 50 77 51 78 52 83 53 79 54 80 55
REMARK SMILES IDX 82 56 84 57 81 58 65 59 66 60 71 61 67 62 68 63 70 64 72 65
REMARK SMILES IDX 69 66 11 67 12 68 13 69 14 70 15 71 16 72 19 73 17 74 18 76
REMARK SMILES IDX 20 77 21 78 22 79 41 80 23 82 25 83 24 84 26 85 27 86 28 87
REMARK SMILES IDX 29 88 40 89 30 90 39 91 31 92 32 93 33 94 34 95 38 96 35 97
REMARK SMILES IDX 37 98 36 99
REMARK H PARENT 89 28 63 39 16 75 21 81
REMARK Flexibility Score: inf
ROOT
ATOM      1  C   UNL A   1      35.225  24.499  25.375  1.00  0.00     0.202 C 
ENDROOT
BRANCH   1   2
ATOM      2  O   UNL A   1      35.393  23.081  25.347  1.00  0.00    -0.376 OA
BRANCH   2   3
ATOM      3  C   UNL A   1      36.337  22.558  24.408  1.00  0.00     0.188 C 
BRANCH   3   4
ATOM      4  C   UNL A   1      37.423  21.682  25.038  1.00  0.00     0.188 C 
BRANCH   4   5
ATOM      5  O   UNL A   1      38.526  22.497  25.468  1.00  0.00    -0.376 OA
BRANCH   5   6
ATOM      6  C   UNL A   1      39.526  21.753  26.173  1.00  0.00     0.202 C 
BRANCH   6   7
ATOM      7  C   UNL A   1      40.126  22.499  27.371  1.00  0.00     0.261 C 
BRANCH   7   8
ATOM      8  O   UNL A   1      41.394  23.091  27.046  1.00  0.00    -0.460 OA
BRANCH   8   9
ATOM      9  C   UNL A   1      41.632  24.367  26.654  1.00  0.00     0.338 C 
ATOM     10  O   UNL A   1      41.894  24.593  25.474  1.00  0.00    -0.246 OA
BRANCH   9  11
ATOM     11  C   UNL A   1      41.487  25.534  27.572  1.00  0.00     0.060 A 
ATOM     12  C   UNL A   1      42.364  26.616  27.623  1.00  0.00     0.016 A 
ATOM     13  C   UNL A   1      40.343  25.566  28.388  1.00  0.00     0.016 A 
ATOM     14  C   UNL A   1      42.194  27.626  28.570  1.00  0.00     0.010 A 
ATOM     15  C   UNL A   1      40.125  26.621  29.282  1.00  0.00     0.010 A 
ATOM     16  C   UNL A   1      41.076  27.637  29.413  1.00  0.00    -0.014 A 
BRANCH  16  17
ATOM     17  C   UNL A   1      40.962  28.695  30.450  1.00  0.00     0.031 A 
ATOM     18  C   UNL A   1      39.903  29.751  30.325  1.00  0.00     0.074 A 
ATOM     19  C   UNL A   1      41.728  28.640  31.556  1.00  0.00     0.049 A 
ATOM     20  N   UNL A   1      39.581  30.698  31.169  1.00  0.00    -0.248 NA
ATOM     21  C   UNL A   1      39.088  29.733  29.100  1.00  0.00     0.031 C 
ATOM     22  C   UNL A   1      42.758  27.635  31.803  1.00  0.00     0.029 A 
ATOM     23  N   UNL A   1      41.737  29.408  32.692  1.00  0.00    -0.354 N 
ATOM     24  C   UNL A   1      38.517  31.373  30.589  1.00  0.00     0.074 A 
ATOM     25  C   UNL A   1      38.276  30.761  29.300  1.00  0.00     0.031 C 
ATOM     26  C   UNL A   1      43.274  27.818  33.028  1.00  0.00     0.029 A 
ATOM     27  C   UNL A   1      42.625  28.967  33.644  1.00  0.00     0.049 A 
ATOM     28  H   UNL A   1      41.162  30.198  32.813  1.00  0.00     0.167 HD
ATOM     29  C   UNL A   1      37.790  32.399  31.091  1.00  0.00     0.037 A 
ATOM     30  C   UNL A   1      42.878  29.431  34.881  1.00  0.00     0.037 A 
ATOM     31  C   UNL A   1      38.038  33.021  32.363  1.00  0.00     0.049 A 
ATOM     32  C   UNL A   1      42.099  30.609  35.387  1.00  0.00     0.074 A 
ATOM     33  C   UNL A   1      37.413  34.119  32.927  1.00  0.00     0.029 A 
ATOM     34  N   UNL A   1      38.989  32.588  33.274  1.00  0.00    -0.354 N 
ATOM     35  N   UNL A   1      41.130  31.266  34.802  1.00  0.00    -0.248 NA
ATOM     36  C   UNL A   1      42.454  31.110  36.722  1.00  0.00     0.031 C 
ATOM     37  C   UNL A   1      37.999  34.361  34.176  1.00  0.00     0.029 A 
ATOM     38  C   UNL A   1      38.972  33.399  34.397  1.00  0.00     0.049 A 
ATOM     39  H   UNL A   1      39.589  31.819  33.143  1.00  0.00     0.167 HD
ATOM     40  C   UNL A   1      40.758  32.262  35.692  1.00  0.00     0.074 A 
ATOM     41  C   UNL A   1      41.589  32.103  36.870  1.00  0.00     0.031 C 
ATOM     42  C   UNL A   1      39.819  33.227  35.546  1.00  0.00     0.037 A 
BRANCH  29  43
ATOM     43  C   UNL A   1      36.669  32.906  30.239  1.00  0.00     0.057 A 
ATOM     44  C   UNL A   1      35.348  32.493  30.453  1.00  0.00     0.134 A 
ATOM     45  C   UNL A   1      36.913  33.791  29.183  1.00  0.00     0.134 A 
ATOM     46  F   UNL A   1      35.057  31.625  31.434  1.00  0.00    -0.206 F 
ATOM     47  C   UNL A   1      34.308  32.929  29.630  1.00  0.00     0.040 A 
ATOM     48  C   UNL A   1      35.878  34.244  28.362  1.00  0.00     0.040 A 
ATOM     49  F   UNL A   1      38.158  34.215  28.923  1.00  0.00    -0.206 F 
ATOM     50  C   UNL A   1      34.573  33.808  28.583  1.00  0.00     0.006 A 
ENDBRANCH  29  43
BRANCH  30  51
ATOM     51  C   UNL A   1      43.906  28.782  35.730  1.00  0.00     0.057 A 
ATOM     52  C   UNL A   1      45.252  29.153  35.651  1.00  0.00     0.134 A 
ATOM     53  C   UNL A   1      43.566  27.760  36.623  1.00  0.00     0.134 A 
ATOM     54  F   UNL A   1      45.639  30.111  34.796  1.00  0.00    -0.206 F 
ATOM     55  C   UNL A   1      46.228  28.523  36.425  1.00  0.00     0.040 A 
ATOM     56  C   UNL A   1      44.531  27.127  37.409  1.00  0.00     0.040 A 
ATOM     57  F   UNL A   1      42.291  27.367  36.747  1.00  0.00    -0.206 F 
ATOM     58  C   UNL A   1      45.867  27.508  37.309  1.00  0.00     0.006 A 
ENDBRANCH  30  51
BRANCH  42  59
ATOM     59  C   UNL A   1      39.665  34.186  36.684  1.00  0.00     0.057 A 
ATOM     60  C   UNL A   1      40.292  35.437  36.668  1.00  0.00     0.134 A 
ATOM     61  C   UNL A   1      38.879  33.861  37.794  1.00  0.00     0.134 A 
ATOM     62  F   UNL A   1      41.071  35.794  35.636  1.00  0.00    -0.206 F 
ATOM     63  C   UNL A   1      40.155  36.330  37.730  1.00  0.00     0.040 A 
ATOM     64  C   UNL A   1      38.723  34.752  38.857  1.00  0.00     0.040 A 
ATOM     65  F   UNL A   1      38.256  32.675  37.864  1.00  0.00    -0.206 F 
ATOM     66  C   UNL A   1      39.365  35.988  38.827  1.00  0.00     0.006 A 
ENDBRANCH  42  59
ENDBRANCH  16  17
ENDBRANCH   9  11
ENDBRANCH   8   9
ENDBRANCH   7   8
ENDBRANCH   6   7
ENDBRANCH   5   6
ENDBRANCH   4   5
ENDBRANCH   3   4
ENDBRANCH   2   3
ENDBRANCH   1   2
BRANCH   1  67
ATOM     67  C   UNL A   1      33.991  24.966  26.143  1.00  0.00     0.261 C 
BRANCH  67  68
ATOM     68  O   UNL A   1      33.848  26.394  26.101  1.00  0.00    -0.459 OA
BRANCH  68  69
ATOM     69  C   UNL A   1      32.700  26.880  26.644  1.00  0.00     0.356 C 
ATOM     70  O   UNL A   1      31.781  26.217  27.099  1.00  0.00    -0.244 OA
BRANCH  69  71
ATOM     71  C   UNL A   1      32.706  28.305  26.548  1.00  0.00     0.152 A 
ATOM     72  N   UNL A   1      33.179  29.148  27.511  1.00  0.00    -0.271 N 
ATOM     73  C   UNL A   1      32.210  29.111  25.536  1.00  0.00     0.059 A 
ATOM     74  N   UNL A   1      33.007  30.446  27.218  1.00  0.00    -0.183 NA
ATOM     75  H   UNL A   1      33.607  28.834  28.340  1.00  0.00     0.190 HD
ATOM     76  C   UNL A   1      32.411  30.422  26.025  1.00  0.00     0.145 A 
BRANCH  73  77
ATOM     77  C   UNL A   1      31.639  28.667  24.227  1.00  0.00     0.303 C 
BRANCH  77  78
ATOM     78  N   UNL A   1      31.184  27.270  24.206  1.00  0.00    -0.330 N 
ATOM     79  C   UNL A   1      29.784  27.115  23.798  1.00  0.00     0.262 C 
ATOM     80  C   UNL A   1      32.081  26.401  23.445  1.00  0.00     0.274 C 
ATOM     81  H   UNL A   1      31.220  26.959  25.176  1.00  0.00     0.348 HD
ATOM     82  C   UNL A   1      29.339  25.657  23.925  1.00  0.00     0.062 C 
ATOM     83  C   UNL A   1      31.719  24.917  23.533  1.00  0.00     0.116 C 
ATOM     84  C   UNL A   1      30.250  24.718  23.138  1.00  0.00     0.023 C 
BRANCH  83  85
ATOM     85  C   UNL A   1      32.596  23.983  22.688  1.00  0.00     0.171 C 
ATOM     86  O   UNL A   1      33.514  24.418  21.992  1.00  0.00    -0.294 OA
BRANCH  85  87
ATOM     87  C   UNL A   1      32.438  22.508  22.768  1.00  0.00     0.018 A 
ATOM     88  C   UNL A   1      32.070  21.804  21.621  1.00  0.00     0.015 A 
ATOM     89  C   UNL A   1      32.634  21.823  23.968  1.00  0.00     0.015 A 
ATOM     90  C   UNL A   1      31.960  20.411  21.668  1.00  0.00     0.048 A 
ATOM     91  C   UNL A   1      32.567  20.429  24.003  1.00  0.00     0.048 A 
ATOM     92  C   UNL A   1      32.232  19.714  22.852  1.00  0.00     0.127 A 
BRANCH  92  93
ATOM     93  O   UNL A   1      32.089  18.343  22.784  1.00  0.00    -0.457 OA
BRANCH  93  94
ATOM     94  C   UNL A   1      32.804  17.576  23.670  1.00  0.00     0.127 A 
ATOM     95  C   UNL A   1      34.038  17.064  23.271  1.00  0.00     0.047 A 
ATOM     96  C   UNL A   1      32.268  17.238  24.915  1.00  0.00     0.047 A 
ATOM     97  C   UNL A   1      34.764  16.252  24.142  1.00  0.00     0.004 A 
ATOM     98  C   UNL A   1      33.009  16.449  25.795  1.00  0.00     0.004 A 
ATOM     99  C   UNL A   1      34.256  15.957  25.409  1.00  0.00     0.000 A 
ENDBRANCH  93  94
ENDBRANCH  92  93
ENDBRANCH  85  87
ENDBRANCH  83  85
ENDBRANCH  77  78
ENDBRANCH  73  77
ENDBRANCH  69  71
ENDBRANCH  68  69
ENDBRANCH  67  68
ENDBRANCH   1  67
TORSDOF 23
ENDMDL
