MODEL 1
REMARK VINA RESULT:     -12.1      0.000      0.000
REMARK SMILES C[C@]1(O)CC[C@H]2[C@H]3CCC4=C/C(=N/OCC(=O)N[C@@H](CO)C(=O)OCCOCCOCCOC(=O)c5ccc(-c6c7nc(c(-c8c(F)cccc8F)c8ccc([nH]8)c(-c8c(F)cccc8F)c8nc(c(-c9c(F)cccc9F)c9ccc6[nH]9)C=C8)C=C7)cc5)CC[C@@]4(C)[C@@H]3CC[C@]21C
REMARK SMILES IDX 27 1 26 2 25 3 24 4 22 5 23 6 19 7 18 8 16 9 17 10 15 12
REMARK SMILES IDX 14 13 13 14 93 15 92 16 91 17 10 18 94 19 90 20 11 21 9 22
REMARK SMILES IDX 7 23 95 24 12 25 8 26 6 27 96 28 97 29 5 30 2 31 98 32 4 33
REMARK SMILES IDX 1 34 3 35 20 37 21 38 28 40 29 41 30 42 31 43 32 44 33 45
REMARK SMILES IDX 34 46 35 47 36 48 37 49 89 50 38 51 88 52 39 53 40 54 41 55
REMARK SMILES IDX 82 56 42 57 87 58 81 59 83 60 43 61 86 62 80 63 79 64 44 66
REMARK SMILES IDX 70 67 53 68 69 69 54 70 57 71 68 72 84 73 55 74 56 75 67 77
REMARK SMILES IDX 85 78 58 79 45 80 46 81 51 82 47 83 48 84 50 85 52 86 49 87
REMARK SMILES IDX 71 88 72 89 77 90 73 91 74 92 76 93 78 94 75 95 59 96 60 97
REMARK SMILES IDX 65 98 61 99 62 100 64 101 66 102 63 103
REMARK H PARENT 18 11 3 36 21 39 83 65 57 76
REMARK Flexibility Score: inf
ROOT
ATOM      1  O   UNL A   1      44.339  18.421  25.528  1.00  0.00    -0.376 OA
ENDROOT
BRANCH   1   2
ATOM      2  C   UNL A   1      42.952  18.700  25.617  1.00  0.00     0.202 C 
BRANCH   2   3
ATOM      3  C   UNL A   1      42.631  19.107  27.048  1.00  0.00     0.261 C 
BRANCH   3   4
ATOM      4  O   UNL A   1      41.284  19.605  27.190  1.00  0.00    -0.462 OA
BRANCH   4   5
ATOM      5  C   UNL A   1      41.118  20.964  27.324  1.00  0.00     0.331 C 
ATOM      6  O   UNL A   1      41.092  21.565  28.390  1.00  0.00    -0.250 OA
BRANCH   5   7
ATOM      7  C   UNL A   1      40.834  21.572  25.937  1.00  0.00     0.218 C 
BRANCH   7   8
ATOM      8  N   UNL A   1      39.550  22.343  26.041  1.00  0.00    -0.338 N 
ATOM      9  C   UNL A   1      38.237  22.323  25.699  1.00  0.00     0.261 C 
ATOM     10  O   UNL A   1      37.604  23.240  26.257  1.00  0.00    -0.271 OA
ATOM     11  H   UNL A   1      39.727  23.171  26.544  1.00  0.00     0.164 HD
BRANCH   9  12
ATOM     12  C   UNL A   1      37.427  21.311  24.806  1.00  0.00     0.363 C 
BRANCH  12  13
ATOM     13  O   UNL A   1      36.025  21.338  24.563  1.00  0.00    -0.385 OA
BRANCH  13  14
ATOM     14  N   UNL A   1      35.196  21.009  25.715  1.00  0.00    -0.091 NA
ATOM     15  C   UNL A   1      34.195  23.471  26.817  1.00  0.00     0.016 C 
ATOM     16  C   UNL A   1      33.167  23.437  25.623  1.00  0.00    -0.008 C 
ATOM     17  C   UNL A   1      33.563  22.874  24.198  1.00  0.00     0.018 C 
ATOM     18  C   UNL A   1      32.159  22.421  26.114  1.00  0.00    -0.062 C 
ATOM     19  C   UNL A   1      32.789  24.917  25.322  1.00  0.00     0.002 C 
ATOM     20  C   UNL A   1      33.584  21.366  23.967  1.00  0.00     0.061 C 
ATOM     21  C   UNL A   1      32.649  21.140  26.207  1.00  0.00     0.027 C 
ATOM     22  C   UNL A   1      30.794  22.970  26.464  1.00  0.00     0.032 C 
ATOM     23  C   UNL A   1      31.596  25.435  26.112  1.00  0.00    -0.003 C 
ATOM     24  C   UNL A   1      34.017  25.823  25.455  1.00  0.00     0.005 C 
ATOM     25  C   UNL A   1      33.937  20.983  25.351  1.00  0.00     0.080 C 
ATOM     26  C   UNL A   1      30.457  24.404  25.907  1.00  0.00     0.008 C 
ATOM     27  C   UNL A   1      31.309  26.939  25.721  1.00  0.00     0.001 C 
ATOM     28  C   UNL A   1      33.751  27.227  25.027  1.00  0.00     0.010 C 
ATOM     29  C   UNL A   1      32.578  27.860  25.791  1.00  0.00    -0.001 C 
ATOM     30  C   UNL A   1      30.809  27.215  24.294  1.00  0.00     0.007 C 
ATOM     31  C   UNL A   1      32.190  29.163  25.024  1.00  0.00     0.068 C 
ATOM     32  C   UNL A   1      32.985  28.104  27.257  1.00  0.00     0.015 C 
ATOM     33  C   UNL A   1      31.148  28.689  23.989  1.00  0.00     0.036 C 
ATOM     34  C   UNL A   1      31.670  30.316  25.877  1.00  0.00     0.042 C 
BRANCH  31  35
ATOM     35  O   UNL A   1      33.305  29.712  24.300  1.00  0.00    -0.390 OA
ATOM     36  H   UNL A   1      34.125  29.284  24.594  1.00  0.00     0.211 HD
ENDBRANCH  31  35
ENDBRANCH  13  14
ENDBRANCH  12  13
ENDBRANCH   9  12
ENDBRANCH   7   8
BRANCH   7  37
ATOM     37  C   UNL A   1      42.085  22.448  25.693  1.00  0.00     0.193 C 
BRANCH  37  38
ATOM     38  O   UNL A   1      43.269  22.078  26.399  1.00  0.00    -0.394 OA
ATOM     39  H   UNL A   1      44.002  22.651  26.125  1.00  0.00     0.210 HD
ENDBRANCH  37  38
ENDBRANCH   7  37
ENDBRANCH   5   7
ENDBRANCH   4   5
ENDBRANCH   3   4
ENDBRANCH   2   3
ENDBRANCH   1   2
BRANCH   1  40
ATOM     40  C   UNL A   1      45.024  19.080  24.476  1.00  0.00     0.188 C 
BRANCH  40  41
ATOM     41  C   UNL A   1      46.162  19.961  25.013  1.00  0.00     0.188 C 
BRANCH  41  42
ATOM     42  O   UNL A   1      45.900  21.330  25.303  1.00  0.00    -0.376 OA
BRANCH  42  43
ATOM     43  C   UNL A   1      45.632  22.207  24.214  1.00  0.00     0.202 C 
BRANCH  43  44
ATOM     44  C   UNL A   1      45.934  23.701  24.406  1.00  0.00     0.261 C 
BRANCH  44  45
ATOM     45  O   UNL A   1      44.987  24.403  25.238  1.00  0.00    -0.460 OA
BRANCH  45  46
ATOM     46  C   UNL A   1      45.182  25.740  25.375  1.00  0.00     0.338 C 
ATOM     47  O   UNL A   1      45.961  26.437  24.749  1.00  0.00    -0.246 OA
BRANCH  46  48
ATOM     48  C   UNL A   1      44.189  26.307  26.317  1.00  0.00     0.060 A 
ATOM     49  C   UNL A   1      44.140  27.699  26.505  1.00  0.00     0.016 A 
ATOM     50  C   UNL A   1      43.375  25.471  27.079  1.00  0.00     0.016 A 
ATOM     51  C   UNL A   1      43.311  28.254  27.486  1.00  0.00     0.010 A 
ATOM     52  C   UNL A   1      42.571  26.024  28.081  1.00  0.00     0.010 A 
ATOM     53  C   UNL A   1      42.565  27.413  28.317  1.00  0.00    -0.014 A 
BRANCH  53  54
ATOM     54  C   UNL A   1      41.976  27.913  29.586  1.00  0.00     0.031 A 
ATOM     55  C   UNL A   1      40.708  28.720  29.500  1.00  0.00     0.074 A 
ATOM     56  C   UNL A   1      42.568  27.725  30.779  1.00  0.00     0.049 A 
ATOM     57  N   UNL A   1      40.136  29.476  30.401  1.00  0.00    -0.248 NA
ATOM     58  C   UNL A   1      39.999  28.675  28.211  1.00  0.00     0.031 C 
ATOM     59  C   UNL A   1      43.752  26.906  31.021  1.00  0.00     0.029 A 
ATOM     60  N   UNL A   1      42.261  28.251  32.012  1.00  0.00    -0.354 N 
ATOM     61  C   UNL A   1      39.023  30.025  29.777  1.00  0.00     0.074 A 
ATOM     62  C   UNL A   1      39.000  29.516  28.423  1.00  0.00     0.031 C 
ATOM     63  C   UNL A   1      44.097  27.016  32.317  1.00  0.00     0.029 A 
ATOM     64  C   UNL A   1      43.190  27.953  32.980  1.00  0.00     0.049 A 
ATOM     65  H   UNL A   1      41.454  28.789  32.183  1.00  0.00     0.167 HD
ATOM     66  C   UNL A   1      38.109  30.886  30.282  1.00  0.00     0.037 A 
ATOM     67  C   UNL A   1      43.319  28.426  34.236  1.00  0.00     0.037 A 
ATOM     68  C   UNL A   1      38.132  31.392  31.627  1.00  0.00     0.049 A 
ATOM     69  C   UNL A   1      42.339  29.450  34.755  1.00  0.00     0.074 A 
ATOM     70  C   UNL A   1      37.252  32.269  32.234  1.00  0.00     0.029 A 
ATOM     71  N   UNL A   1      39.091  31.066  32.573  1.00  0.00    -0.354 N 
ATOM     72  N   UNL A   1      41.300  29.982  34.158  1.00  0.00    -0.248 NA
ATOM     73  C   UNL A   1      42.559  29.949  36.122  1.00  0.00     0.031 C 
ATOM     74  C   UNL A   1      37.703  32.508  33.536  1.00  0.00     0.029 A 
ATOM     75  C   UNL A   1      38.833  31.737  33.755  1.00  0.00     0.049 A 
ATOM     76  H   UNL A   1      39.843  30.447  32.426  1.00  0.00     0.167 HD
ATOM     77  C   UNL A   1      40.725  30.845  35.084  1.00  0.00     0.074 A 
ATOM     78  C   UNL A   1      41.529  30.769  36.284  1.00  0.00     0.031 C 
ATOM     79  C   UNL A   1      39.626  31.628  34.953  1.00  0.00     0.037 A 
BRANCH  66  80
ATOM     80  C   UNL A   1      37.033  31.370  29.356  1.00  0.00     0.057 A 
ATOM     81  C   UNL A   1      35.934  30.573  29.014  1.00  0.00     0.134 A 
ATOM     82  C   UNL A   1      37.092  32.660  28.813  1.00  0.00     0.134 A 
ATOM     83  F   UNL A   1      35.827  29.323  29.487  1.00  0.00    -0.206 F 
ATOM     84  C   UNL A   1      34.941  31.034  28.147  1.00  0.00     0.040 A 
ATOM     85  C   UNL A   1      36.093  33.141  27.966  1.00  0.00     0.040 A 
ATOM     86  F   UNL A   1      38.118  33.475  29.102  1.00  0.00    -0.206 F 
ATOM     87  C   UNL A   1      35.017  32.325  27.625  1.00  0.00     0.006 A 
ENDBRANCH  66  80
BRANCH  67  88
ATOM     88  C   UNL A   1      44.447  27.975  35.092  1.00  0.00     0.057 A 
ATOM     89  C   UNL A   1      45.677  28.645  35.080  1.00  0.00     0.134 A 
ATOM     90  C   UNL A   1      44.339  26.845  35.911  1.00  0.00     0.134 A 
ATOM     91  F   UNL A   1      45.854  29.715  34.292  1.00  0.00    -0.206 F 
ATOM     92  C   UNL A   1      46.761  28.200  35.839  1.00  0.00     0.040 A 
ATOM     93  C   UNL A   1      45.406  26.403  36.695  1.00  0.00     0.040 A 
ATOM     94  F   UNL A   1      43.191  26.153  35.962  1.00  0.00    -0.206 F 
ATOM     95  C   UNL A   1      46.625  27.077  36.654  1.00  0.00     0.006 A 
ENDBRANCH  67  88
BRANCH  79  96
ATOM     96  C   UNL A   1      39.178  32.416  36.149  1.00  0.00     0.057 A 
ATOM     97  C   UNL A   1      38.312  31.883  37.111  1.00  0.00     0.134 A 
ATOM     98  C   UNL A   1      39.691  33.701  36.380  1.00  0.00     0.134 A 
ATOM     99  F   UNL A   1      37.780  30.663  36.945  1.00  0.00    -0.206 F 
ATOM    100  C   UNL A   1      37.963  32.603  38.255  1.00  0.00     0.040 A 
ATOM    101  C   UNL A   1      39.368  34.420  37.531  1.00  0.00     0.040 A 
ATOM    102  F   UNL A   1      40.534  34.264  35.503  1.00  0.00    -0.206 F 
ATOM    103  C   UNL A   1      38.500  33.872  38.472  1.00  0.00     0.006 A 
ENDBRANCH  79  96
ENDBRANCH  53  54
ENDBRANCH  46  48
ENDBRANCH  45  46
ENDBRANCH  44  45
ENDBRANCH  43  44
ENDBRANCH  42  43
ENDBRANCH  41  42
ENDBRANCH  40  41
ENDBRANCH   1  40
TORSDOF 24
ENDMDL
MODEL 2
REMARK VINA RESULT:     -11.9      0.730      5.705
REMARK SMILES C[C@]1(O)CC[C@H]2[C@H]3CCC4=C/C(=N/OCC(=O)N[C@@H](CO)C(=O)OCCOCCOCCOC(=O)c5ccc(-c6c7nc(c(-c8c(F)cccc8F)c8ccc([nH]8)c(-c8c(F)cccc8F)c8nc(c(-c9c(F)cccc9F)c9ccc6[nH]9)C=C8)C=C7)cc5)CC[C@@]4(C)[C@@H]3CC[C@]21C
REMARK SMILES IDX 27 1 26 2 25 3 24 4 22 5 23 6 19 7 18 8 16 9 17 10 15 12
REMARK SMILES IDX 14 13 13 14 93 15 92 16 91 17 10 18 94 19 90 20 11 21 9 22
REMARK SMILES IDX 7 23 95 24 12 25 8 26 6 27 96 28 97 29 5 30 2 31 98 32 4 33
REMARK SMILES IDX 1 34 3 35 20 37 21 38 28 40 29 41 30 42 31 43 32 44 33 45
REMARK SMILES IDX 34 46 35 47 36 48 37 49 89 50 38 51 88 52 39 53 40 54 41 55
REMARK SMILES IDX 82 56 42 57 87 58 81 59 83 60 43 61 86 62 80 63 79 64 44 66
REMARK SMILES IDX 70 67 53 68 69 69 54 70 57 71 68 72 84 73 55 74 56 75 67 77
REMARK SMILES IDX 85 78 58 79 45 80 46 81 51 82 47 83 48 84 50 85 52 86 49 87
REMARK SMILES IDX 71 88 72 89 77 90 73 91 74 92 76 93 78 94 75 95 59 96 60 97
REMARK SMILES IDX 65 98 61 99 62 100 64 101 66 102 63 103
REMARK H PARENT 18 11 3 36 21 39 83 65 57 76
REMARK Flexibility Score: inf
ROOT
ATOM      1  O   UNL A   1      43.923  18.351  25.658  1.00  0.00    -0.376 OA
ENDROOT
BRANCH   1   2
ATOM      2  C   UNL A   1      42.621  18.913  25.692  1.00  0.00     0.202 C 
BRANCH   2   3
ATOM      3  C   UNL A   1      42.344  19.406  27.105  1.00  0.00     0.261 C 
BRANCH   3   4
ATOM      4  O   UNL A   1      40.986  19.866  27.271  1.00  0.00    -0.462 OA
BRANCH   4   5
ATOM      5  C   UNL A   1      40.783  21.220  27.405  1.00  0.00     0.331 C 
ATOM      6  O   UNL A   1      40.658  21.807  28.471  1.00  0.00    -0.250 OA
BRANCH   5   7
ATOM      7  C   UNL A   1      40.603  21.840  26.007  1.00  0.00     0.218 C 
BRANCH   7   8
ATOM      8  N   UNL A   1      39.303  22.589  26.012  1.00  0.00    -0.338 N 
ATOM      9  C   UNL A   1      37.994  22.502  25.664  1.00  0.00     0.261 C 
ATOM     10  O   UNL A   1      37.336  23.461  26.111  1.00  0.00    -0.271 OA
ATOM     11  H   UNL A   1      39.457  23.471  26.422  1.00  0.00     0.164 HD
BRANCH   9  12
ATOM     12  C   UNL A   1      37.215  21.380  24.882  1.00  0.00     0.363 C 
BRANCH  12  13
ATOM     13  O   UNL A   1      35.834  21.396  24.539  1.00  0.00    -0.385 OA
BRANCH  13  14
ATOM     14  N   UNL A   1      34.929  21.038  25.624  1.00  0.00    -0.091 NA
ATOM     15  C   UNL A   1      33.950  23.475  26.799  1.00  0.00     0.016 C 
ATOM     16  C   UNL A   1      32.991  23.540  25.550  1.00  0.00    -0.008 C 
ATOM     17  C   UNL A   1      33.450  23.038  24.120  1.00  0.00     0.018 C 
ATOM     18  C   UNL A   1      31.924  22.538  25.927  1.00  0.00    -0.062 C 
ATOM     19  C   UNL A   1      32.681  25.046  25.308  1.00  0.00     0.002 C 
ATOM     20  C   UNL A   1      33.434  21.544  23.810  1.00  0.00     0.061 C 
ATOM     21  C   UNL A   1      32.364  21.236  25.980  1.00  0.00     0.027 C 
ATOM     22  C   UNL A   1      30.559  23.117  26.230  1.00  0.00     0.032 C 
ATOM     23  C   UNL A   1      31.463  25.567  26.057  1.00  0.00    -0.003 C 
ATOM     24  C   UNL A   1      33.929  25.899  25.557  1.00  0.00     0.005 C 
ATOM     25  C   UNL A   1      33.693  21.077  25.190  1.00  0.00     0.080 C 
ATOM     26  C   UNL A   1      30.304  24.589  25.733  1.00  0.00     0.008 C 
ATOM     27  C   UNL A   1      31.249  27.098  25.731  1.00  0.00     0.001 C 
ATOM     28  C   UNL A   1      33.736  27.332  25.191  1.00  0.00     0.010 C 
ATOM     29  C   UNL A   1      32.542  27.967  25.921  1.00  0.00    -0.001 C 
ATOM     30  C   UNL A   1      30.842  27.465  24.295  1.00  0.00     0.007 C 
ATOM     31  C   UNL A   1      32.243  29.321  25.204  1.00  0.00     0.068 C 
ATOM     32  C   UNL A   1      32.872  28.120  27.419  1.00  0.00     0.015 C 
ATOM     33  C   UNL A   1      31.247  28.939  24.089  1.00  0.00     0.036 C 
ATOM     34  C   UNL A   1      31.713  30.447  26.087  1.00  0.00     0.042 C 
BRANCH  31  35
ATOM     35  O   UNL A   1      33.415  29.866  24.575  1.00  0.00    -0.390 OA
ATOM     36  H   UNL A   1      33.492  30.808  24.791  1.00  0.00     0.211 HD
ENDBRANCH  31  35
ENDBRANCH  13  14
ENDBRANCH  12  13
ENDBRANCH   9  12
ENDBRANCH   7   8
BRANCH   7  37
ATOM     37  C   UNL A   1      41.855  22.738  25.874  1.00  0.00     0.193 C 
BRANCH  37  38
ATOM     38  O   UNL A   1      42.633  22.576  24.687  1.00  0.00    -0.394 OA
ATOM     39  H   UNL A   1      42.139  22.921  23.927  1.00  0.00     0.210 HD
ENDBRANCH  37  38
ENDBRANCH   7  37
ENDBRANCH   5   7
ENDBRANCH   4   5
ENDBRANCH   3   4
ENDBRANCH   2   3
ENDBRANCH   1   2
BRANCH   1  40
ATOM     40  C   UNL A   1      44.816  18.947  24.732  1.00  0.00     0.188 C 
BRANCH  40  41
ATOM     41  C   UNL A   1      46.123  19.382  25.414  1.00  0.00     0.188 C 
BRANCH  41  42
ATOM     42  O   UNL A   1      46.655  20.671  25.131  1.00  0.00    -0.376 OA
BRANCH  42  43
ATOM     43  C   UNL A   1      45.848  21.583  24.393  1.00  0.00     0.202 C 
BRANCH  43  44
ATOM     44  C   UNL A   1      46.105  23.086  24.587  1.00  0.00     0.261 C 
BRANCH  44  45
ATOM     45  O   UNL A   1      45.133  23.758  25.413  1.00  0.00    -0.460 OA
BRANCH  45  46
ATOM     46  C   UNL A   1      45.504  24.009  26.695  1.00  0.00     0.338 C 
ATOM     47  O   UNL A   1      46.492  23.589  27.270  1.00  0.00    -0.246 OA
BRANCH  46  48
ATOM     48  C   UNL A   1      44.603  25.018  27.300  1.00  0.00     0.060 A 
ATOM     49  C   UNL A   1      44.755  26.370  26.951  1.00  0.00     0.016 A 
ATOM     50  C   UNL A   1      43.676  24.649  28.275  1.00  0.00     0.016 A 
ATOM     51  C   UNL A   1      44.014  27.361  27.605  1.00  0.00     0.010 A 
ATOM     52  C   UNL A   1      42.959  25.642  28.951  1.00  0.00     0.010 A 
ATOM     53  C   UNL A   1      43.154  27.005  28.649  1.00  0.00    -0.014 A 
BRANCH  53  54
ATOM     54  C   UNL A   1      42.643  28.021  29.604  1.00  0.00     0.031 A 
ATOM     55  C   UNL A   1      43.352  28.159  30.925  1.00  0.00     0.074 A 
ATOM     56  C   UNL A   1      41.547  28.759  29.354  1.00  0.00     0.049 A 
ATOM     57  N   UNL A   1      42.970  28.768  32.018  1.00  0.00    -0.248 NA
ATOM     58  C   UNL A   1      44.666  27.503  31.025  1.00  0.00     0.031 C 
ATOM     59  C   UNL A   1      40.808  28.785  28.096  1.00  0.00     0.029 A 
ATOM     60  N   UNL A   1      40.846  29.609  30.177  1.00  0.00    -0.354 N 
ATOM     61  C   UNL A   1      43.979  28.538  32.946  1.00  0.00     0.074 A 
ATOM     62  C   UNL A   1      44.987  27.735  32.288  1.00  0.00     0.031 C 
ATOM     63  C   UNL A   1      39.732  29.579  28.241  1.00  0.00     0.029 A 
ATOM     64  C   UNL A   1      39.680  30.073  29.618  1.00  0.00     0.049 A 
ATOM     65  H   UNL A   1      41.151  29.860  31.079  1.00  0.00     0.167 HD
ATOM     66  C   UNL A   1      44.053  28.947  34.233  1.00  0.00     0.037 A 
ATOM     67  C   UNL A   1      38.667  30.770  30.171  1.00  0.00     0.037 A 
ATOM     68  C   UNL A   1      43.051  29.745  34.887  1.00  0.00     0.049 A 
ATOM     69  C   UNL A   1      38.727  31.146  31.632  1.00  0.00     0.074 A 
ATOM     70  C   UNL A   1      43.034  30.211  36.189  1.00  0.00     0.029 A 
ATOM     71  N   UNL A   1      41.886  30.192  34.284  1.00  0.00    -0.354 N 
ATOM     72  N   UNL A   1      39.672  30.912  32.511  1.00  0.00    -0.248 NA
ATOM     73  C   UNL A   1      37.572  31.876  32.180  1.00  0.00     0.031 C 
ATOM     74  C   UNL A   1      41.836  30.905  36.387  1.00  0.00     0.029 A 
ATOM     75  C   UNL A   1      41.134  30.914  35.193  1.00  0.00     0.049 A 
ATOM     76  H   UNL A   1      41.632  30.021  33.348  1.00  0.00     0.167 HD
ATOM     77  C   UNL A   1      39.243  31.493  33.699  1.00  0.00     0.074 A 
ATOM     78  C   UNL A   1      37.954  32.092  33.432  1.00  0.00     0.031 C 
ATOM     79  C   UNL A   1      39.865  31.531  34.904  1.00  0.00     0.037 A 
BRANCH  66  80
ATOM     80  C   UNL A   1      45.240  28.499  35.032  1.00  0.00     0.057 A 
ATOM     81  C   UNL A   1      46.411  29.262  35.116  1.00  0.00     0.134 A 
ATOM     82  C   UNL A   1      45.202  27.291  35.741  1.00  0.00     0.134 A 
ATOM     83  F   UNL A   1      46.518  30.419  34.446  1.00  0.00    -0.206 F 
ATOM     84  C   UNL A   1      47.511  28.829  35.859  1.00  0.00     0.040 A 
ATOM     85  C   UNL A   1      46.285  26.861  36.508  1.00  0.00     0.040 A 
ATOM     86  F   UNL A   1      44.109  26.514  35.705  1.00  0.00    -0.206 F 
ATOM     87  C   UNL A   1      47.447  27.627  36.563  1.00  0.00     0.006 A 
ENDBRANCH  66  80
BRANCH  67  88
ATOM     88  C   UNL A   1      37.474  31.127  29.360  1.00  0.00     0.057 A 
ATOM     89  C   UNL A   1      36.471  30.187  29.095  1.00  0.00     0.134 A 
ATOM     90  C   UNL A   1      37.325  32.400  28.798  1.00  0.00     0.134 A 
ATOM     91  F   UNL A   1      36.572  28.940  29.579  1.00  0.00    -0.206 F 
ATOM     92  C   UNL A   1      35.372  30.494  28.290  1.00  0.00     0.040 A 
ATOM     93  C   UNL A   1      36.219  32.730  28.012  1.00  0.00     0.040 A 
ATOM     94  F   UNL A   1      38.254  33.346  29.006  1.00  0.00    -0.206 F 
ATOM     95  C   UNL A   1      35.243  31.772  27.750  1.00  0.00     0.006 A 
ENDBRANCH  67  88
BRANCH  79  96
ATOM     96  C   UNL A   1      39.203  32.298  36.011  1.00  0.00     0.057 A 
ATOM     97  C   UNL A   1      38.279  31.706  36.879  1.00  0.00     0.134 A 
ATOM     98  C   UNL A   1      39.562  33.631  36.258  1.00  0.00     0.134 A 
ATOM     99  F   UNL A   1      37.886  30.437  36.692  1.00  0.00    -0.206 F 
ATOM    100  C   UNL A   1      37.726  32.415  37.948  1.00  0.00     0.040 A 
ATOM    101  C   UNL A   1      39.035  34.341  37.337  1.00  0.00     0.040 A 
ATOM    102  F   UNL A   1      40.451  34.254  35.470  1.00  0.00    -0.206 F 
ATOM    103  C   UNL A   1      38.113  33.733  38.186  1.00  0.00     0.006 A 
ENDBRANCH  79  96
ENDBRANCH  53  54
ENDBRANCH  46  48
ENDBRANCH  45  46
ENDBRANCH  44  45
ENDBRANCH  43  44
ENDBRANCH  42  43
ENDBRANCH  41  42
ENDBRANCH  40  41
ENDBRANCH   1  40
TORSDOF 24
ENDMDL
MODEL 3
REMARK VINA RESULT:     -10.5      6.486      9.148
REMARK SMILES C[C@]1(O)CC[C@H]2[C@H]3CCC4=C/C(=N/OCC(=O)N[C@@H](CO)C(=O)OCCOCCOCCOC(=O)c5ccc(-c6c7nc(c(-c8c(F)cccc8F)c8ccc([nH]8)c(-c8c(F)cccc8F)c8nc(c(-c9c(F)cccc9F)c9ccc6[nH]9)C=C8)C=C7)cc5)CC[C@@]4(C)[C@@H]3CC[C@]21C
REMARK SMILES IDX 27 1 26 2 25 3 24 4 22 5 23 6 19 7 18 8 16 9 17 10 15 12
REMARK SMILES IDX 14 13 13 14 93 15 92 16 91 17 10 18 94 19 90 20 11 21 9 22
REMARK SMILES IDX 7 23 95 24 12 25 8 26 6 27 96 28 97 29 5 30 2 31 98 32 4 33
REMARK SMILES IDX 1 34 3 35 20 37 21 38 28 40 29 41 30 42 31 43 32 44 33 45
REMARK SMILES IDX 34 46 35 47 36 48 37 49 89 50 38 51 88 52 39 53 40 54 41 55
REMARK SMILES IDX 82 56 42 57 87 58 81 59 83 60 43 61 86 62 80 63 79 64 44 66
REMARK SMILES IDX 70 67 53 68 69 69 54 70 57 71 68 72 84 73 55 74 56 75 67 77
REMARK SMILES IDX 85 78 58 79 45 80 46 81 51 82 47 83 48 84 50 85 52 86 49 87
REMARK SMILES IDX 71 88 72 89 77 90 73 91 74 92 76 93 78 94 75 95 59 96 60 97
REMARK SMILES IDX 65 98 61 99 62 100 64 101 66 102 63 103
REMARK H PARENT 18 11 3 36 21 39 83 65 57 76
REMARK Flexibility Score: inf
ROOT
ATOM      1  O   UNL A   1      42.942  18.954  26.479  1.00  0.00    -0.376 OA
ENDROOT
BRANCH   1   2
ATOM      2  C   UNL A   1      42.318  20.227  26.513  1.00  0.00     0.202 C 
BRANCH   2   3
ATOM      3  C   UNL A   1      41.265  20.220  27.611  1.00  0.00     0.261 C 
BRANCH   3   4
ATOM      4  O   UNL A   1      40.463  21.420  27.613  1.00  0.00    -0.462 OA
BRANCH   4   5
ATOM      5  C   UNL A   1      41.122  22.627  27.558  1.00  0.00     0.331 C 
ATOM      6  O   UNL A   1      41.735  23.133  28.489  1.00  0.00    -0.250 OA
BRANCH   5   7
ATOM      7  C   UNL A   1      40.845  23.287  26.194  1.00  0.00     0.218 C 
BRANCH   7   8
ATOM      8  N   UNL A   1      39.397  23.680  26.173  1.00  0.00    -0.338 N 
ATOM      9  C   UNL A   1      38.148  23.225  25.899  1.00  0.00     0.261 C 
ATOM     10  O   UNL A   1      37.274  24.037  26.260  1.00  0.00    -0.271 OA
ATOM     11  H   UNL A   1      39.327  24.617  26.468  1.00  0.00     0.164 HD
BRANCH   9  12
ATOM     12  C   UNL A   1      37.668  21.854  25.293  1.00  0.00     0.363 C 
BRANCH  12  13
ATOM     13  O   UNL A   1      36.356  21.549  24.834  1.00  0.00    -0.385 OA
BRANCH  13  14
ATOM     14  N   UNL A   1      35.417  21.158  25.878  1.00  0.00    -0.091 NA
ATOM     15  C   UNL A   1      34.192  23.549  26.907  1.00  0.00     0.016 C 
ATOM     16  C   UNL A   1      33.307  23.501  25.604  1.00  0.00    -0.008 C 
ATOM     17  C   UNL A   1      33.886  22.991  24.222  1.00  0.00     0.018 C 
ATOM     18  C   UNL A   1      32.296  22.434  25.956  1.00  0.00    -0.062 C 
ATOM     19  C   UNL A   1      32.901  24.972  25.290  1.00  0.00     0.002 C 
ATOM     20  C   UNL A   1      33.999  21.491  23.965  1.00  0.00     0.061 C 
ATOM     21  C   UNL A   1      32.828  21.172  26.080  1.00  0.00     0.027 C 
ATOM     22  C   UNL A   1      30.877  22.917  26.159  1.00  0.00     0.032 C 
ATOM     23  C   UNL A   1      31.606  25.421  25.950  1.00  0.00    -0.003 C 
ATOM     24  C   UNL A   1      34.066  25.924  25.580  1.00  0.00     0.005 C 
ATOM     25  C   UNL A   1      34.210  21.089  25.373  1.00  0.00     0.080 C 
ATOM     26  C   UNL A   1      30.543  24.349  25.596  1.00  0.00     0.008 C 
ATOM     27  C   UNL A   1      31.298  26.920  25.557  1.00  0.00     0.001 C 
ATOM     28  C   UNL A   1      33.788  27.327  25.151  1.00  0.00     0.010 C 
ATOM     29  C   UNL A   1      32.510  27.892  25.789  1.00  0.00    -0.001 C 
ATOM     30  C   UNL A   1      30.951  27.210  24.088  1.00  0.00     0.007 C 
ATOM     31  C   UNL A   1      32.154  29.196  25.008  1.00  0.00     0.068 C 
ATOM     32  C   UNL A   1      32.738  28.117  27.296  1.00  0.00     0.015 C 
ATOM     33  C   UNL A   1      31.257  28.704  23.853  1.00  0.00     0.036 C 
ATOM     34  C   UNL A   1      31.491  30.305  25.818  1.00  0.00     0.042 C 
BRANCH  31  35
ATOM     35  O   UNL A   1      33.318  29.807  24.427  1.00  0.00    -0.390 OA
ATOM     36  H   UNL A   1      34.008  29.899  25.102  1.00  0.00     0.211 HD
ENDBRANCH  31  35
ENDBRANCH  13  14
ENDBRANCH  12  13
ENDBRANCH   9  12
ENDBRANCH   7   8
BRANCH   7  37
ATOM     37  C   UNL A   1      41.829  24.479  26.192  1.00  0.00     0.193 C 
BRANCH  37  38
ATOM     38  O   UNL A   1      41.559  25.528  25.261  1.00  0.00    -0.394 OA
ATOM     39  H   UNL A   1      41.310  25.145  24.406  1.00  0.00     0.210 HD
ENDBRANCH  37  38
ENDBRANCH   7  37
ENDBRANCH   5   7
ENDBRANCH   4   5
ENDBRANCH   3   4
ENDBRANCH   2   3
ENDBRANCH   1   2
BRANCH   1  40
ATOM     40  C   UNL A   1      43.577  18.622  25.255  1.00  0.00     0.188 C 
BRANCH  40  41
ATOM     41  C   UNL A   1      45.093  18.453  25.438  1.00  0.00     0.188 C 
BRANCH  41  42
ATOM     42  O   UNL A   1      45.973  19.005  24.464  1.00  0.00    -0.376 OA
BRANCH  42  43
ATOM     43  C   UNL A   1      46.499  20.306  24.696  1.00  0.00     0.202 C 
BRANCH  43  44
ATOM     44  C   UNL A   1      45.516  21.487  24.696  1.00  0.00     0.261 C 
BRANCH  44  45
ATOM     45  O   UNL A   1      46.061  22.722  25.203  1.00  0.00    -0.460 OA
BRANCH  45  46
ATOM     46  C   UNL A   1      45.381  23.306  26.223  1.00  0.00     0.338 C 
ATOM     47  O   UNL A   1      44.648  22.759  27.027  1.00  0.00    -0.246 OA
BRANCH  46  48
ATOM     48  C   UNL A   1      45.765  24.733  26.342  1.00  0.00     0.060 A 
ATOM     49  C   UNL A   1      45.914  25.503  25.176  1.00  0.00     0.016 A 
ATOM     50  C   UNL A   1      46.066  25.285  27.587  1.00  0.00     0.016 A 
ATOM     51  C   UNL A   1      46.407  26.810  25.247  1.00  0.00     0.010 A 
ATOM     52  C   UNL A   1      46.589  26.581  27.653  1.00  0.00     0.010 A 
ATOM     53  C   UNL A   1      46.800  27.335  26.482  1.00  0.00    -0.014 A 
BRANCH  53  54
ATOM     54  C   UNL A   1      47.660  28.544  26.564  1.00  0.00     0.031 A 
ATOM     55  C   UNL A   1      46.979  29.887  26.597  1.00  0.00     0.074 A 
ATOM     56  C   UNL A   1      49.002  28.478  26.544  1.00  0.00     0.049 A 
ATOM     57  N   UNL A   1      47.478  31.081  26.410  1.00  0.00    -0.248 NA
ATOM     58  C   UNL A   1      45.531  29.871  26.860  1.00  0.00     0.031 C 
ATOM     59  C   UNL A   1      49.794  27.251  26.589  1.00  0.00     0.029 A 
ATOM     60  N   UNL A   1      49.937  29.481  26.443  1.00  0.00    -0.354 N 
ATOM     61  C   UNL A   1      46.400  31.954  26.498  1.00  0.00     0.074 A 
ATOM     62  C   UNL A   1      45.223  31.154  26.753  1.00  0.00     0.031 C 
ATOM     63  C   UNL A   1      51.095  27.571  26.475  1.00  0.00     0.029 A 
ATOM     64  C   UNL A   1      51.223  29.018  26.297  1.00  0.00     0.049 A 
ATOM     65  H   UNL A   1      49.707  30.438  26.473  1.00  0.00     0.167 HD
ATOM     66  C   UNL A   1      46.391  33.301  26.365  1.00  0.00     0.037 A 
ATOM     67  C   UNL A   1      52.358  29.682  26.001  1.00  0.00     0.037 A 
ATOM     68  C   UNL A   1      47.561  34.097  26.112  1.00  0.00     0.049 A 
ATOM     69  C   UNL A   1      52.315  31.174  25.773  1.00  0.00     0.074 A 
ATOM     70  C   UNL A   1      47.655  35.468  25.961  1.00  0.00     0.029 A 
ATOM     71  N   UNL A   1      48.842  33.587  25.970  1.00  0.00    -0.354 N 
ATOM     72  N   UNL A   1      51.293  31.994  25.836  1.00  0.00    -0.248 NA
ATOM     73  C   UNL A   1      53.583  31.831  25.418  1.00  0.00     0.031 C 
ATOM     74  C   UNL A   1      48.988  35.785  25.684  1.00  0.00     0.029 A 
ATOM     75  C   UNL A   1      49.731  34.616  25.716  1.00  0.00     0.049 A 
ATOM     76  H   UNL A   1      49.083  32.635  26.040  1.00  0.00     0.167 HD
ATOM     77  C   UNL A   1      51.800  33.261  25.569  1.00  0.00     0.074 A 
ATOM     78  C   UNL A   1      53.220  33.105  25.340  1.00  0.00     0.031 C 
ATOM     79  C   UNL A   1      51.149  34.449  25.520  1.00  0.00     0.037 A 
BRANCH  66  80
ATOM     80  C   UNL A   1      45.062  33.992  26.447  1.00  0.00     0.057 A 
ATOM     81  C   UNL A   1      44.616  34.608  27.622  1.00  0.00     0.134 A 
ATOM     82  C   UNL A   1      44.226  34.055  25.325  1.00  0.00     0.134 A 
ATOM     83  F   UNL A   1      45.362  34.568  28.736  1.00  0.00    -0.206 F 
ATOM     84  C   UNL A   1      43.374  35.243  27.685  1.00  0.00     0.040 A 
ATOM     85  C   UNL A   1      42.995  34.709  25.368  1.00  0.00     0.040 A 
ATOM     86  F   UNL A   1      44.595  33.487  24.166  1.00  0.00    -0.206 F 
ATOM     87  C   UNL A   1      42.562  35.300  26.554  1.00  0.00     0.006 A 
ENDBRANCH  66  80
BRANCH  67  88
ATOM     88  C   UNL A   1      53.639  28.944  25.854  1.00  0.00     0.057 A 
ATOM     89  C   UNL A   1      54.505  28.774  26.942  1.00  0.00     0.134 A 
ATOM     90  C   UNL A   1      54.049  28.426  24.620  1.00  0.00     0.134 A 
ATOM     91  F   UNL A   1      54.184  29.275  28.143  1.00  0.00    -0.206 F 
ATOM     92  C   UNL A   1      55.736  28.129  26.804  1.00  0.00     0.040 A 
ATOM     93  C   UNL A   1      55.265  27.756  24.473  1.00  0.00     0.040 A 
ATOM     94  F   UNL A   1      53.270  28.562  23.536  1.00  0.00    -0.206 F 
ATOM     95  C   UNL A   1      56.116  27.614  25.567  1.00  0.00     0.006 A 
ENDBRANCH  67  88
BRANCH  79  96
ATOM     96  C   UNL A   1      51.962  35.686  25.278  1.00  0.00     0.057 A 
ATOM     97  C   UNL A   1      52.319  36.104  23.992  1.00  0.00     0.134 A 
ATOM     98  C   UNL A   1      52.323  36.514  26.351  1.00  0.00     0.134 A 
ATOM     99  F   UNL A   1      52.012  35.353  22.923  1.00  0.00    -0.206 F 
ATOM    100  C   UNL A   1      53.015  37.297  23.779  1.00  0.00     0.040 A 
ATOM    101  C   UNL A   1      52.997  37.719  26.150  1.00  0.00     0.040 A 
ATOM    102  F   UNL A   1      52.002  36.177  27.609  1.00  0.00    -0.206 F 
ATOM    103  C   UNL A   1      53.346  38.113  24.860  1.00  0.00     0.006 A 
ENDBRANCH  79  96
ENDBRANCH  53  54
ENDBRANCH  46  48
ENDBRANCH  45  46
ENDBRANCH  44  45
ENDBRANCH  43  44
ENDBRANCH  42  43
ENDBRANCH  41  42
ENDBRANCH  40  41
ENDBRANCH   1  40
TORSDOF 24
ENDMDL
