MODEL 1
REMARK VINA RESULT:     -10.6      0.000      0.000
REMARK SMILES CCOC(=O)C1=NN(c2cc(F)cc(F)c2)[C@@H](C(=O)OCCOCCOCCOC(=O)c2ccc(-c3c4nc(c(-c5c(F)cccc5F)c5ccc([nH]5)c(-c5c(F)cccc5F)c5nc(c(-c6c(F)cccc6F)c6ccc3[nH]6)C=C5)C=C4)cc2)C1
REMARK SMILES IDX 24 1 23 2 22 3 21 4 20 5 18 6 19 7 17 8 6 9 7 10 86 11 8 12
REMARK SMILES IDX 4 13 5 14 3 15 2 16 1 17 9 18 10 19 16 20 11 21 14 22 12 23
REMARK SMILES IDX 13 24 15 25 25 26 26 27 27 28 28 29 29 30 30 31 31 32 32 33
REMARK SMILES IDX 33 34 85 35 34 36 84 37 35 38 36 39 37 40 78 41 38 42 83 43
REMARK SMILES IDX 77 44 79 45 39 46 82 47 76 48 75 49 40 51 66 52 49 53 65 54
REMARK SMILES IDX 50 55 53 56 64 57 80 58 51 59 52 60 63 62 81 63 54 64 41 65
REMARK SMILES IDX 42 66 47 67 43 68 44 69 46 70 48 71 45 72 67 73 68 74 73 75
REMARK SMILES IDX 69 76 70 77 72 78 74 79 71 80 55 81 56 82 61 83 57 84 58 85
REMARK SMILES IDX 60 86 62 87 59 88
REMARK H PARENT 79 50 53 61
REMARK Flexibility Score: inf
ROOT
ATOM      1  C   UNL A   1      40.659  20.803  26.738  1.00  0.00     0.188 C 
ENDROOT
BRANCH   1   2
ATOM      2  O   UNL A   1      39.979  21.450  25.683  1.00  0.00    -0.376 OA
BRANCH   2   3
ATOM      3  C   UNL A   1      38.623  21.858  25.828  1.00  0.00     0.202 C 
BRANCH   3   4
ATOM      4  C   UNL A   1      37.466  21.381  24.936  1.00  0.00     0.261 C 
BRANCH   4   5
ATOM      5  O   UNL A   1      36.306  20.901  25.622  1.00  0.00    -0.462 OA
BRANCH   5   6
ATOM      6  C   UNL A   1      35.126  21.476  25.233  1.00  0.00     0.331 C 
ATOM      7  O   UNL A   1      35.003  22.226  24.272  1.00  0.00    -0.250 OA
BRANCH   6   8
ATOM      8  C   UNL A   1      33.991  21.078  26.166  1.00  0.00     0.224 C 
ATOM      9  C   UNL A   1      31.875  21.912  25.803  1.00  0.00     0.148 C 
ATOM     10  N   UNL A   1      31.818  20.723  25.297  1.00  0.00    -0.169 NA
ATOM     11  C   UNL A   1      33.142  22.309  26.483  1.00  0.00     0.105 C 
ATOM     12  N   UNL A   1      33.043  20.185  25.498  1.00  0.00    -0.250 N 
BRANCH   9  13
ATOM     13  C   UNL A   1      30.728  22.867  25.713  1.00  0.00     0.354 C 
ATOM     14  O   UNL A   1      29.966  23.075  26.637  1.00  0.00    -0.245 OA
BRANCH  13  15
ATOM     15  O   UNL A   1      30.700  23.351  24.457  1.00  0.00    -0.461 OA
BRANCH  15  16
ATOM     16  C   UNL A   1      31.321  24.628  24.282  1.00  0.00     0.230 C 
ATOM     17  C   UNL A   1      30.255  25.708  24.323  1.00  0.00     0.049 C 
ENDBRANCH  15  16
ENDBRANCH  13  15
ENDBRANCH   9  13
BRANCH  12  18
ATOM     18  C   UNL A   1      33.229  18.859  25.174  1.00  0.00     0.066 A 
ATOM     19  C   UNL A   1      32.689  17.848  25.973  1.00  0.00     0.067 A 
ATOM     20  C   UNL A   1      33.838  18.507  23.965  1.00  0.00     0.067 A 
ATOM     21  C   UNL A   1      32.725  16.525  25.547  1.00  0.00     0.128 A 
ATOM     22  C   UNL A   1      33.868  17.178  23.558  1.00  0.00     0.128 A 
ATOM     23  F   UNL A   1      32.181  15.572  26.315  1.00  0.00    -0.207 F 
ATOM     24  C   UNL A   1      33.299  16.180  24.334  1.00  0.00     0.078 A 
ATOM     25  F   UNL A   1      34.436  16.870  22.386  1.00  0.00    -0.207 F 
ENDBRANCH  12  18
ENDBRANCH   6   8
ENDBRANCH   5   6
ENDBRANCH   4   5
ENDBRANCH   3   4
ENDBRANCH   2   3
ENDBRANCH   1   2
BRANCH   1  26
ATOM     26  C   UNL A   1      42.175  20.556  26.580  1.00  0.00     0.188 C 
BRANCH  26  27
ATOM     27  O   UNL A   1      42.859  21.005  25.421  1.00  0.00    -0.376 OA
BRANCH  27  28
ATOM     28  C   UNL A   1      43.585  22.228  25.488  1.00  0.00     0.202 C 
BRANCH  28  29
ATOM     29  C   UNL A   1      43.161  23.337  26.460  1.00  0.00     0.261 C 
BRANCH  29  30
ATOM     30  O   UNL A   1      41.938  24.000  26.098  1.00  0.00    -0.460 OA
BRANCH  30  31
ATOM     31  C   UNL A   1      42.089  25.299  25.739  1.00  0.00     0.338 C 
ATOM     32  O   UNL A   1      42.492  25.730  24.671  1.00  0.00    -0.246 OA
BRANCH  31  33
ATOM     33  C   UNL A   1      41.508  26.180  26.766  1.00  0.00     0.060 A 
ATOM     34  C   UNL A   1      41.940  27.510  26.788  1.00  0.00     0.016 A 
ATOM     35  C   UNL A   1      40.641  25.698  27.749  1.00  0.00     0.016 A 
ATOM     36  C   UNL A   1      41.523  28.356  27.810  1.00  0.00     0.010 A 
ATOM     37  C   UNL A   1      40.243  26.546  28.792  1.00  0.00     0.010 A 
ATOM     38  C   UNL A   1      40.700  27.874  28.839  1.00  0.00    -0.014 A 
BRANCH  38  39
ATOM     39  C   UNL A   1      40.444  28.755  30.005  1.00  0.00     0.031 A 
ATOM     40  C   UNL A   1      41.447  28.793  31.122  1.00  0.00     0.074 A 
ATOM     41  C   UNL A   1      39.394  29.594  30.023  1.00  0.00     0.049 A 
ATOM     42  N   UNL A   1      41.485  29.568  32.176  1.00  0.00    -0.248 NA
ATOM     43  C   UNL A   1      42.558  27.832  31.037  1.00  0.00     0.031 C 
ATOM     44  C   UNL A   1      38.382  29.690  28.977  1.00  0.00     0.029 A 
ATOM     45  N   UNL A   1      39.043  30.571  30.922  1.00  0.00    -0.354 N 
ATOM     46  C   UNL A   1      42.611  29.178  32.887  1.00  0.00     0.074 A 
ATOM     47  C   UNL A   1      43.245  28.117  32.133  1.00  0.00     0.031 C 
ATOM     48  C   UNL A   1      37.578  30.732  29.244  1.00  0.00     0.029 A 
ATOM     49  C   UNL A   1      37.979  31.340  30.510  1.00  0.00     0.049 A 
ATOM     50  H   UNL A   1      39.509  30.709  31.779  1.00  0.00     0.167 HD
ATOM     51  C   UNL A   1      43.055  29.635  34.081  1.00  0.00     0.037 A 
ATOM     52  C   UNL A   1      37.405  32.416  31.084  1.00  0.00     0.037 A 
ATOM     53  C   UNL A   1      42.403  30.654  34.858  1.00  0.00     0.049 A 
ATOM     54  C   UNL A   1      37.900  32.888  32.425  1.00  0.00     0.074 A 
ATOM     55  C   UNL A   1      42.737  31.124  36.117  1.00  0.00     0.029 A 
ATOM     56  N   UNL A   1      41.275  31.350  34.455  1.00  0.00    -0.354 N 
ATOM     57  N   UNL A   1      38.939  32.482  33.112  1.00  0.00    -0.248 NA
ATOM     58  C   UNL A   1      37.114  33.938  33.091  1.00  0.00     0.031 C 
ATOM     59  C   UNL A   1      41.780  32.073  36.494  1.00  0.00     0.029 A 
ATOM     60  C   UNL A   1      40.880  32.225  35.452  1.00  0.00     0.049 A 
ATOM     61  H   UNL A   1      40.821  31.238  33.588  1.00  0.00     0.167 HD
ATOM     62  C   UNL A   1      38.917  33.204  34.299  1.00  0.00     0.074 A 
ATOM     63  C   UNL A   1      37.791  34.110  34.219  1.00  0.00     0.031 C 
ATOM     64  C   UNL A   1      39.742  33.105  35.370  1.00  0.00     0.037 A 
BRANCH  51  65
ATOM     65  C   UNL A   1      44.258  28.955  34.656  1.00  0.00     0.057 A 
ATOM     66  C   UNL A   1      44.106  27.822  35.464  1.00  0.00     0.134 A 
ATOM     67  C   UNL A   1      45.560  29.405  34.403  1.00  0.00     0.134 A 
ATOM     68  F   UNL A   1      42.885  27.340  35.738  1.00  0.00    -0.206 F 
ATOM     69  C   UNL A   1      45.208  27.158  36.002  1.00  0.00     0.040 A 
ATOM     70  C   UNL A   1      46.671  28.737  34.921  1.00  0.00     0.040 A 
ATOM     71  F   UNL A   1      45.770  30.471  33.616  1.00  0.00    -0.206 F 
ATOM     72  C   UNL A   1      46.496  27.612  35.726  1.00  0.00     0.006 A 
ENDBRANCH  51  65
BRANCH  52  73
ATOM     73  C   UNL A   1      36.287  33.121  30.404  1.00  0.00     0.057 A 
ATOM     74  C   UNL A   1      34.953  32.923  30.780  1.00  0.00     0.134 A 
ATOM     75  C   UNL A   1      36.533  34.021  29.361  1.00  0.00     0.134 A 
ATOM     76  F   UNL A   1      34.649  32.082  31.781  1.00  0.00    -0.206 F 
ATOM     77  C   UNL A   1      33.904  33.572  30.128  1.00  0.00     0.040 A 
ATOM     78  C   UNL A   1      35.495  34.698  28.716  1.00  0.00     0.040 A 
ATOM     79  F   UNL A   1      37.791  34.280  28.975  1.00  0.00    -0.206 F 
ATOM     80  C   UNL A   1      34.174  34.466  29.095  1.00  0.00     0.006 A 
ENDBRANCH  52  73
BRANCH  64  81
ATOM     81  C   UNL A   1      39.438  33.962  36.563  1.00  0.00     0.057 A 
ATOM     82  C   UNL A   1      39.909  35.277  36.648  1.00  0.00     0.134 A 
ATOM     83  C   UNL A   1      38.746  33.448  37.667  1.00  0.00     0.134 A 
ATOM     84  F   UNL A   1      40.586  35.825  35.629  1.00  0.00    -0.206 F 
ATOM     85  C   UNL A   1      39.714  36.047  37.795  1.00  0.00     0.040 A 
ATOM     86  C   UNL A   1      38.528  34.215  38.813  1.00  0.00     0.040 A 
ATOM     87  F   UNL A   1      38.263  32.196  37.645  1.00  0.00    -0.206 F 
ATOM     88  C   UNL A   1      39.021  35.517  38.882  1.00  0.00     0.006 A 
ENDBRANCH  64  81
ENDBRANCH  38  39
ENDBRANCH  31  33
ENDBRANCH  30  31
ENDBRANCH  29  30
ENDBRANCH  28  29
ENDBRANCH  27  28
ENDBRANCH  26  27
ENDBRANCH   1  26
TORSDOF 21
ENDMDL
MODEL 2
REMARK VINA RESULT:     -10.5      5.261      9.112
REMARK SMILES CCOC(=O)C1=NN(c2cc(F)cc(F)c2)[C@@H](C(=O)OCCOCCOCCOC(=O)c2ccc(-c3c4nc(c(-c5c(F)cccc5F)c5ccc([nH]5)c(-c5c(F)cccc5F)c5nc(c(-c6c(F)cccc6F)c6ccc3[nH]6)C=C5)C=C4)cc2)C1
REMARK SMILES IDX 24 1 23 2 22 3 21 4 20 5 18 6 19 7 17 8 6 9 7 10 86 11 8 12
REMARK SMILES IDX 4 13 5 14 3 15 2 16 1 17 9 18 10 19 16 20 11 21 14 22 12 23
REMARK SMILES IDX 13 24 15 25 25 26 26 27 27 28 28 29 29 30 30 31 31 32 32 33
REMARK SMILES IDX 33 34 85 35 34 36 84 37 35 38 36 39 37 40 78 41 38 42 83 43
REMARK SMILES IDX 77 44 79 45 39 46 82 47 76 48 75 49 40 51 66 52 49 53 65 54
REMARK SMILES IDX 50 55 53 56 64 57 80 58 51 59 52 60 63 62 81 63 54 64 41 65
REMARK SMILES IDX 42 66 47 67 43 68 44 69 46 70 48 71 45 72 67 73 68 74 73 75
REMARK SMILES IDX 69 76 70 77 72 78 74 79 71 80 55 81 56 82 61 83 57 84 58 85
REMARK SMILES IDX 60 86 62 87 59 88
REMARK H PARENT 79 50 53 61
REMARK Flexibility Score: inf
ROOT
ATOM      1  C   UNL A   1      40.140  22.625  26.522  1.00  0.00     0.188 C 
ENDROOT
BRANCH   1   2
ATOM      2  O   UNL A   1      39.215  21.821  25.823  1.00  0.00    -0.376 OA
BRANCH   2   3
ATOM      3  C   UNL A   1      37.850  22.208  25.706  1.00  0.00     0.202 C 
BRANCH   3   4
ATOM      4  C   UNL A   1      36.682  21.236  25.475  1.00  0.00     0.261 C 
BRANCH   4   5
ATOM      5  O   UNL A   1      35.869  21.498  24.328  1.00  0.00    -0.462 OA
BRANCH   5   6
ATOM      6  C   UNL A   1      34.763  22.270  24.568  1.00  0.00     0.331 C 
ATOM      7  O   UNL A   1      34.430  23.235  23.892  1.00  0.00    -0.250 OA
BRANCH   6   8
ATOM      8  C   UNL A   1      34.016  21.783  25.803  1.00  0.00     0.224 C 
ATOM      9  C   UNL A   1      32.025  22.781  26.392  1.00  0.00     0.148 C 
ATOM     10  N   UNL A   1      31.650  21.699  25.791  1.00  0.00    -0.169 NA
ATOM     11  C   UNL A   1      33.490  22.988  26.583  1.00  0.00     0.105 C 
ATOM     12  N   UNL A   1      32.792  21.068  25.434  1.00  0.00    -0.250 N 
BRANCH   9  13
ATOM     13  C   UNL A   1      31.044  23.799  26.879  1.00  0.00     0.354 C 
ATOM     14  O   UNL A   1      29.914  23.516  27.227  1.00  0.00    -0.245 OA
BRANCH  13  15
ATOM     15  O   UNL A   1      31.632  25.007  26.784  1.00  0.00    -0.461 OA
BRANCH  15  16
ATOM     16  C   UNL A   1      31.067  25.885  25.807  1.00  0.00     0.230 C 
ATOM     17  C   UNL A   1      31.886  25.802  24.532  1.00  0.00     0.049 C 
ENDBRANCH  15  16
ENDBRANCH  13  15
ENDBRANCH   9  13
BRANCH  12  18
ATOM     18  C   UNL A   1      32.693  19.808  24.888  1.00  0.00     0.066 A 
ATOM     19  C   UNL A   1      32.471  19.641  23.518  1.00  0.00     0.067 A 
ATOM     20  C   UNL A   1      32.952  18.677  25.668  1.00  0.00     0.067 A 
ATOM     21  C   UNL A   1      32.551  18.378  22.944  1.00  0.00     0.128 A 
ATOM     22  C   UNL A   1      33.024  17.420  25.077  1.00  0.00     0.128 A 
ATOM     23  F   UNL A   1      32.361  18.240  21.626  1.00  0.00    -0.207 F 
ATOM     24  C   UNL A   1      32.841  17.262  23.713  1.00  0.00     0.078 A 
ATOM     25  F   UNL A   1      33.296  16.357  25.843  1.00  0.00    -0.207 F 
ENDBRANCH  12  18
ENDBRANCH   6   8
ENDBRANCH   5   6
ENDBRANCH   4   5
ENDBRANCH   3   4
ENDBRANCH   2   3
ENDBRANCH   1   2
BRANCH   1  26
ATOM     26  C   UNL A   1      40.902  21.992  27.706  1.00  0.00     0.188 C 
BRANCH  26  27
ATOM     27  O   UNL A   1      42.005  21.131  27.472  1.00  0.00    -0.376 OA
BRANCH  27  28
ATOM     28  C   UNL A   1      41.750  19.790  27.068  1.00  0.00     0.202 C 
BRANCH  28  29
ATOM     29  C   UNL A   1      42.383  19.224  25.790  1.00  0.00     0.261 C 
BRANCH  29  30
ATOM     30  O   UNL A   1      43.819  19.255  25.781  1.00  0.00    -0.460 OA
BRANCH  30  31
ATOM     31  C   UNL A   1      44.364  19.728  24.633  1.00  0.00     0.338 C 
ATOM     32  O   UNL A   1      44.345  19.202  23.533  1.00  0.00    -0.246 OA
BRANCH  31  33
ATOM     33  C   UNL A   1      44.848  21.105  24.830  1.00  0.00     0.060 A 
ATOM     34  C   UNL A   1      45.347  21.434  26.094  1.00  0.00     0.016 A 
ATOM     35  C   UNL A   1      44.725  22.080  23.839  1.00  0.00     0.016 A 
ATOM     36  C   UNL A   1      45.703  22.749  26.377  1.00  0.00     0.010 A 
ATOM     37  C   UNL A   1      45.059  23.409  24.135  1.00  0.00     0.010 A 
ATOM     38  C   UNL A   1      45.529  23.754  25.413  1.00  0.00    -0.014 A 
BRANCH  38  39
ATOM     39  C   UNL A   1      45.734  25.165  25.824  1.00  0.00     0.031 A 
ATOM     40  C   UNL A   1      44.608  25.899  26.494  1.00  0.00     0.074 A 
ATOM     41  C   UNL A   1      46.938  25.752  25.708  1.00  0.00     0.049 A 
ATOM     42  N   UNL A   1      44.601  27.090  27.035  1.00  0.00    -0.248 NA
ATOM     43  C   UNL A   1      43.319  25.194  26.565  1.00  0.00     0.031 C 
ATOM     44  C   UNL A   1      48.121  25.129  25.127  1.00  0.00     0.029 A 
ATOM     45  N   UNL A   1      47.380  26.981  26.136  1.00  0.00    -0.354 N 
ATOM     46  C   UNL A   1      43.306  27.284  27.496  1.00  0.00     0.074 A 
ATOM     47  C   UNL A   1      42.563  26.079  27.197  1.00  0.00     0.031 C 
ATOM     48  C   UNL A   1      49.177  25.937  25.317  1.00  0.00     0.029 A 
ATOM     49  C   UNL A   1      48.734  27.162  25.978  1.00  0.00     0.049 A 
ATOM     50  H   UNL A   1      46.784  27.665  26.518  1.00  0.00     0.167 HD
ATOM     51  C   UNL A   1      42.775  28.383  28.081  1.00  0.00     0.037 A 
ATOM     52  C   UNL A   1      49.525  28.193  26.338  1.00  0.00     0.037 A 
ATOM     53  C   UNL A   1      43.496  29.601  28.336  1.00  0.00     0.049 A 
ATOM     54  C   UNL A   1      48.906  29.414  26.962  1.00  0.00     0.074 A 
ATOM     55  C   UNL A   1      43.018  30.793  28.851  1.00  0.00     0.029 A 
ATOM     56  N   UNL A   1      44.845  29.785  28.081  1.00  0.00    -0.354 N 
ATOM     57  N   UNL A   1      47.670  29.606  27.352  1.00  0.00    -0.248 NA
ATOM     58  C   UNL A   1      49.783  30.580  27.152  1.00  0.00     0.031 C 
ATOM     59  C   UNL A   1      44.071  31.715  28.863  1.00  0.00     0.029 A 
ATOM     60  C   UNL A   1      45.213  31.081  28.400  1.00  0.00     0.049 A 
ATOM     61  H   UNL A   1      45.453  29.096  27.726  1.00  0.00     0.167 HD
ATOM     62  C   UNL A   1      47.614  30.918  27.808  1.00  0.00     0.074 A 
ATOM     63  C   UNL A   1      48.951  31.460  27.693  1.00  0.00     0.031 C 
ATOM     64  C   UNL A   1      46.542  31.616  28.257  1.00  0.00     0.037 A 
BRANCH  51  65
ATOM     65  C   UNL A   1      41.312  28.338  28.391  1.00  0.00     0.057 A 
ATOM     66  C   UNL A   1      40.870  27.869  29.635  1.00  0.00     0.134 A 
ATOM     67  C   UNL A   1      40.343  28.769  27.476  1.00  0.00     0.134 A 
ATOM     68  F   UNL A   1      41.751  27.447  30.555  1.00  0.00    -0.206 F 
ATOM     69  C   UNL A   1      39.515  27.829  29.959  1.00  0.00     0.040 A 
ATOM     70  C   UNL A   1      38.984  28.751  27.797  1.00  0.00     0.040 A 
ATOM     71  F   UNL A   1      40.706  29.251  26.279  1.00  0.00    -0.206 F 
ATOM     72  C   UNL A   1      38.568  28.277  29.041  1.00  0.00     0.006 A 
ENDBRANCH  51  65
BRANCH  52  73
ATOM     73  C   UNL A   1      50.992  28.127  26.108  1.00  0.00     0.057 A 
ATOM     74  C   UNL A   1      51.553  28.362  24.847  1.00  0.00     0.134 A 
ATOM     75  C   UNL A   1      51.872  27.834  27.156  1.00  0.00     0.134 A 
ATOM     76  F   UNL A   1      50.767  28.660  23.801  1.00  0.00    -0.206 F 
ATOM     77  C   UNL A   1      52.929  28.282  24.630  1.00  0.00     0.040 A 
ATOM     78  C   UNL A   1      53.254  27.776  26.961  1.00  0.00     0.040 A 
ATOM     79  F   UNL A   1      51.401  27.631  28.397  1.00  0.00    -0.206 F 
ATOM     80  C   UNL A   1      53.785  27.992  25.690  1.00  0.00     0.006 A 
ENDBRANCH  52  73
BRANCH  64  81
ATOM     81  C   UNL A   1      46.754  33.057  28.616  1.00  0.00     0.057 A 
ATOM     82  C   UNL A   1      46.668  34.064  27.648  1.00  0.00     0.134 A 
ATOM     83  C   UNL A   1      47.127  33.435  29.913  1.00  0.00     0.134 A 
ATOM     84  F   UNL A   1      46.325  33.768  26.386  1.00  0.00    -0.206 F 
ATOM     85  C   UNL A   1      46.961  35.394  27.952  1.00  0.00     0.040 A 
ATOM     86  C   UNL A   1      47.403  34.764  30.234  1.00  0.00     0.040 A 
ATOM     87  F   UNL A   1      47.220  32.517  30.888  1.00  0.00    -0.206 F 
ATOM     88  C   UNL A   1      47.329  35.748  29.250  1.00  0.00     0.006 A 
ENDBRANCH  64  81
ENDBRANCH  38  39
ENDBRANCH  31  33
ENDBRANCH  30  31
ENDBRANCH  29  30
ENDBRANCH  28  29
ENDBRANCH  27  28
ENDBRANCH  26  27
ENDBRANCH   1  26
TORSDOF 21
ENDMDL
MODEL 3
REMARK VINA RESULT:     -10.3      2.125      6.849
REMARK SMILES CCOC(=O)C1=NN(c2cc(F)cc(F)c2)[C@@H](C(=O)OCCOCCOCCOC(=O)c2ccc(-c3c4nc(c(-c5c(F)cccc5F)c5ccc([nH]5)c(-c5c(F)cccc5F)c5nc(c(-c6c(F)cccc6F)c6ccc3[nH]6)C=C5)C=C4)cc2)C1
REMARK SMILES IDX 24 1 23 2 22 3 21 4 20 5 18 6 19 7 17 8 6 9 7 10 86 11 8 12
REMARK SMILES IDX 4 13 5 14 3 15 2 16 1 17 9 18 10 19 16 20 11 21 14 22 12 23
REMARK SMILES IDX 13 24 15 25 25 26 26 27 27 28 28 29 29 30 30 31 31 32 32 33
REMARK SMILES IDX 33 34 85 35 34 36 84 37 35 38 36 39 37 40 78 41 38 42 83 43
REMARK SMILES IDX 77 44 79 45 39 46 82 47 76 48 75 49 40 51 66 52 49 53 65 54
REMARK SMILES IDX 50 55 53 56 64 57 80 58 51 59 52 60 63 62 81 63 54 64 41 65
REMARK SMILES IDX 42 66 47 67 43 68 44 69 46 70 48 71 45 72 67 73 68 74 73 75
REMARK SMILES IDX 69 76 70 77 72 78 74 79 71 80 55 81 56 82 61 83 57 84 58 85
REMARK SMILES IDX 60 86 62 87 59 88
REMARK H PARENT 79 50 53 61
REMARK Flexibility Score: inf
ROOT
ATOM      1  C   UNL A   1      40.552  20.840  26.203  1.00  0.00     0.188 C 
ENDROOT
BRANCH   1   2
ATOM      2  O   UNL A   1      39.358  21.403  26.703  1.00  0.00    -0.376 OA
BRANCH   2   3
ATOM      3  C   UNL A   1      38.500  22.165  25.861  1.00  0.00     0.202 C 
BRANCH   3   4
ATOM      4  C   UNL A   1      38.057  23.610  26.141  1.00  0.00     0.261 C 
BRANCH   4   5
ATOM      5  O   UNL A   1      36.916  24.067  25.409  1.00  0.00    -0.462 OA
BRANCH   5   6
ATOM      6  C   UNL A   1      35.775  23.335  25.604  1.00  0.00     0.331 C 
ATOM      7  O   UNL A   1      35.192  23.230  26.676  1.00  0.00    -0.250 OA
BRANCH   6   8
ATOM      8  C   UNL A   1      35.339  22.651  24.314  1.00  0.00     0.224 C 
ATOM      9  C   UNL A   1      33.657  21.080  24.374  1.00  0.00     0.148 C 
ATOM     10  N   UNL A   1      33.054  22.147  23.962  1.00  0.00    -0.169 NA
ATOM     11  C   UNL A   1      35.132  21.161  24.579  1.00  0.00     0.105 C 
ATOM     12  N   UNL A   1      34.010  23.102  23.898  1.00  0.00    -0.250 N 
BRANCH   9  13
ATOM     13  C   UNL A   1      32.919  19.808  24.648  1.00  0.00     0.354 C 
ATOM     14  O   UNL A   1      31.814  19.779  25.154  1.00  0.00    -0.245 OA
BRANCH  13  15
ATOM     15  O   UNL A   1      33.724  18.788  24.295  1.00  0.00    -0.461 OA
BRANCH  15  16
ATOM     16  C   UNL A   1      33.076  17.705  23.622  1.00  0.00     0.230 C 
ATOM     17  C   UNL A   1      32.381  18.236  22.381  1.00  0.00     0.049 C 
ENDBRANCH  15  16
ENDBRANCH  13  15
ENDBRANCH   9  13
BRANCH  12  18
ATOM     18  C   UNL A   1      33.672  24.322  23.355  1.00  0.00     0.066 A 
ATOM     19  C   UNL A   1      33.105  24.401  22.080  1.00  0.00     0.067 A 
ATOM     20  C   UNL A   1      33.760  25.486  24.125  1.00  0.00     0.067 A 
ATOM     21  C   UNL A   1      32.602  25.610  21.612  1.00  0.00     0.128 A 
ATOM     22  C   UNL A   1      33.256  26.687  23.637  1.00  0.00     0.128 A 
ATOM     23  F   UNL A   1      32.039  25.661  20.398  1.00  0.00    -0.207 F 
ATOM     24  C   UNL A   1      32.659  26.756  22.388  1.00  0.00     0.078 A 
ATOM     25  F   UNL A   1      33.331  27.782  24.403  1.00  0.00    -0.207 F 
ENDBRANCH  12  18
ENDBRANCH   6   8
ENDBRANCH   5   6
ENDBRANCH   4   5
ENDBRANCH   3   4
ENDBRANCH   2   3
ENDBRANCH   1   2
BRANCH   1  26
ATOM     26  C   UNL A   1      41.548  20.236  27.216  1.00  0.00     0.188 C 
BRANCH  26  27
ATOM     27  O   UNL A   1      42.701  20.963  27.610  1.00  0.00    -0.376 OA
BRANCH  27  28
ATOM     28  C   UNL A   1      42.529  22.252  28.189  1.00  0.00     0.202 C 
BRANCH  28  29
ATOM     29  C   UNL A   1      42.780  23.520  27.361  1.00  0.00     0.261 C 
BRANCH  29  30
ATOM     30  O   UNL A   1      41.626  23.995  26.649  1.00  0.00    -0.460 OA
BRANCH  30  31
ATOM     31  C   UNL A   1      41.751  25.248  26.147  1.00  0.00     0.338 C 
ATOM     32  O   UNL A   1      42.041  25.562  25.004  1.00  0.00    -0.246 OA
BRANCH  31  33
ATOM     33  C   UNL A   1      41.297  26.239  27.136  1.00  0.00     0.060 A 
ATOM     34  C   UNL A   1      41.901  27.500  27.104  1.00  0.00     0.016 A 
ATOM     35  C   UNL A   1      40.377  25.918  28.136  1.00  0.00     0.016 A 
ATOM     36  C   UNL A   1      41.604  28.436  28.090  1.00  0.00     0.010 A 
ATOM     37  C   UNL A   1      40.100  26.853  29.143  1.00  0.00     0.010 A 
ATOM     38  C   UNL A   1      40.729  28.109  29.136  1.00  0.00    -0.014 A 
BRANCH  38  39
ATOM     39  C   UNL A   1      40.596  29.063  30.265  1.00  0.00     0.031 A 
ATOM     40  C   UNL A   1      39.471  30.058  30.250  1.00  0.00     0.074 A 
ATOM     41  C   UNL A   1      41.395  28.976  31.343  1.00  0.00     0.049 A 
ATOM     42  N   UNL A   1      39.099  30.902  31.177  1.00  0.00    -0.248 NA
ATOM     43  C   UNL A   1      38.654  30.102  29.027  1.00  0.00     0.031 C 
ATOM     44  C   UNL A   1      42.486  28.021  31.501  1.00  0.00     0.029 A 
ATOM     45  N   UNL A   1      41.367  29.656  32.536  1.00  0.00    -0.354 N 
ATOM     46  C   UNL A   1      38.017  31.590  30.645  1.00  0.00     0.074 A 
ATOM     47  C   UNL A   1      37.774  31.046  29.326  1.00  0.00     0.031 C 
ATOM     48  C   UNL A   1      42.964  28.110  32.753  1.00  0.00     0.029 A 
ATOM     49  C   UNL A   1      42.255  29.169  33.467  1.00  0.00     0.049 A 
ATOM     50  H   UNL A   1      40.769  30.419  32.708  1.00  0.00     0.167 HD
ATOM     51  C   UNL A   1      37.314  32.608  31.192  1.00  0.00     0.037 A 
ATOM     52  C   UNL A   1      42.462  29.530  34.749  1.00  0.00     0.037 A 
ATOM     53  C   UNL A   1      37.581  33.186  32.481  1.00  0.00     0.049 A 
ATOM     54  C   UNL A   1      41.686  30.684  35.324  1.00  0.00     0.074 A 
ATOM     55  C   UNL A   1      36.972  34.274  33.082  1.00  0.00     0.029 A 
ATOM     56  N   UNL A   1      38.548  32.729  33.363  1.00  0.00    -0.354 N 
ATOM     57  N   UNL A   1      40.695  31.359  34.796  1.00  0.00    -0.248 NA
ATOM     58  C   UNL A   1      42.090  31.157  36.657  1.00  0.00     0.031 C 
ATOM     59  C   UNL A   1      37.604  34.504  34.309  1.00  0.00     0.029 A 
ATOM     60  C   UNL A   1      38.574  33.531  34.491  1.00  0.00     0.049 A 
ATOM     61  H   UNL A   1      39.130  31.950  33.209  1.00  0.00     0.167 HD
ATOM     62  C   UNL A   1      40.375  32.349  35.717  1.00  0.00     0.074 A 
ATOM     63  C   UNL A   1      41.243  32.158  36.858  1.00  0.00     0.031 C 
ATOM     64  C   UNL A   1      39.460  33.344  35.611  1.00  0.00     0.037 A 
BRANCH  51  65
ATOM     65  C   UNL A   1      36.248  33.223  30.339  1.00  0.00     0.057 A 
ATOM     66  C   UNL A   1      34.899  32.938  30.585  1.00  0.00     0.134 A 
ATOM     67  C   UNL A   1      36.547  34.102  29.291  1.00  0.00     0.134 A 
ATOM     68  F   UNL A   1      34.549  32.107  31.579  1.00  0.00    -0.206 F 
ATOM     69  C   UNL A   1      33.883  33.507  29.818  1.00  0.00     0.040 A 
ATOM     70  C   UNL A   1      35.537  34.692  28.529  1.00  0.00     0.040 A 
ATOM     71  F   UNL A   1      37.819  34.432  29.023  1.00  0.00    -0.206 F 
ATOM     72  C   UNL A   1      34.200  34.391  28.791  1.00  0.00     0.006 A 
ENDBRANCH  51  65
BRANCH  52  73
ATOM     73  C   UNL A   1      43.455  28.801  35.581  1.00  0.00     0.057 A 
ATOM     74  C   UNL A   1      44.815  29.132  35.565  1.00  0.00     0.134 A 
ATOM     75  C   UNL A   1      43.058  27.756  36.423  1.00  0.00     0.134 A 
ATOM     76  F   UNL A   1      45.260  30.131  34.789  1.00  0.00    -0.206 F 
ATOM     77  C   UNL A   1      45.748  28.435  36.334  1.00  0.00     0.040 A 
ATOM     78  C   UNL A   1      43.977  27.066  37.219  1.00  0.00     0.040 A 
ATOM     79  F   UNL A   1      41.764  27.412  36.510  1.00  0.00    -0.206 F 
ATOM     80  C   UNL A   1      45.329  27.401  37.168  1.00  0.00     0.006 A 
ENDBRANCH  52  73
BRANCH  64  81
ATOM     81  C   UNL A   1      39.377  34.333  36.735  1.00  0.00     0.057 A 
ATOM     82  C   UNL A   1      40.060  35.554  36.677  1.00  0.00     0.134 A 
ATOM     83  C   UNL A   1      38.685  34.033  37.916  1.00  0.00     0.134 A 
ATOM     84  F   UNL A   1      40.749  35.897  35.579  1.00  0.00    -0.206 F 
ATOM     85  C   UNL A   1      40.068  36.436  37.759  1.00  0.00     0.040 A 
ATOM     86  C   UNL A   1      38.670  34.916  38.997  1.00  0.00     0.040 A 
ATOM     87  F   UNL A   1      38.005  32.882  38.032  1.00  0.00    -0.206 F 
ATOM     88  C   UNL A   1      39.371  36.118  38.923  1.00  0.00     0.006 A 
ENDBRANCH  64  81
ENDBRANCH  38  39
ENDBRANCH  31  33
ENDBRANCH  30  31
ENDBRANCH  29  30
ENDBRANCH  28  29
ENDBRANCH  27  28
ENDBRANCH  26  27
ENDBRANCH   1  26
TORSDOF 21
ENDMDL
