MODEL 1
REMARK VINA RESULT:     -11.1      0.000      0.000
REMARK SMILES C[C@@H](C(=O)OCCOCCOCCOC(=O)c1ccc(-c2c3nc(c(-c4c(F)cccc4F)c4ccc([nH]4)c(-c4c(F)cccc4F)c4nc(c(-c5c(F)cccc5F)c5ccc2[nH]5)C=C4)C=C3)cc1)c1ccc(-c2ccn(C(F)F)c(=O)c2)cc1
REMARK SMILES IDX 9 1 8 2 7 3 6 4 5 5 3 6 4 7 2 8 1 9 71 10 72 11 86 12 73 13
REMARK SMILES IDX 85 14 74 15 75 16 76 17 84 18 77 19 82 20 78 21 83 22 79 23
REMARK SMILES IDX 80 24 81 25 10 26 11 27 12 28 13 29 14 30 15 31 16 32 17 33
REMARK SMILES IDX 18 34 70 35 19 36 69 37 20 38 21 39 22 40 63 41 23 42 68 43
REMARK SMILES IDX 62 44 64 45 24 46 67 47 61 48 60 49 25 51 51 52 34 53 50 54
REMARK SMILES IDX 35 55 38 56 49 57 65 58 36 59 37 60 48 62 66 63 39 64 26 65
REMARK SMILES IDX 27 66 32 67 28 68 29 69 31 70 33 71 30 72 52 73 53 74 58 75
REMARK SMILES IDX 54 76 55 77 57 78 59 79 56 80 40 81 41 82 46 83 42 84 43 85
REMARK SMILES IDX 45 86 47 87 44 88
REMARK H PARENT 64 50 38 61
REMARK Flexibility Score: inf
ROOT
ATOM      1  C   UNL A   1      39.575  21.402  26.473  1.00  0.00     0.188 C 
ENDROOT
BRANCH   1   2
ATOM      2  O   UNL A   1      38.656  21.154  25.419  1.00  0.00    -0.376 OA
BRANCH   2   3
ATOM      3  C   UNL A   1      37.510  21.989  25.299  1.00  0.00     0.202 C 
BRANCH   3   4
ATOM      4  C   UNL A   1      36.918  22.292  23.910  1.00  0.00     0.261 C 
BRANCH   4   5
ATOM      5  O   UNL A   1      36.204  23.541  23.808  1.00  0.00    -0.463 OA
BRANCH   5   6
ATOM      6  C   UNL A   1      34.885  23.523  24.143  1.00  0.00     0.313 C 
ATOM      7  O   UNL A   1      34.048  22.843  23.557  1.00  0.00    -0.252 OA
BRANCH   6   8
ATOM      8  C   UNL A   1      34.528  24.390  25.364  1.00  0.00     0.126 C 
ATOM      9  C   UNL A   1      34.019  23.630  26.601  1.00  0.00     0.025 C 
BRANCH   8  10
ATOM     10  C   UNL A   1      33.663  25.623  25.054  1.00  0.00    -0.034 A 
ATOM     11  C   UNL A   1      33.639  26.142  23.746  1.00  0.00     0.005 A 
ATOM     12  C   UNL A   1      32.836  26.241  26.004  1.00  0.00     0.005 A 
ATOM     13  C   UNL A   1      32.823  27.230  23.403  1.00  0.00     0.009 A 
ATOM     14  C   UNL A   1      32.027  27.336  25.667  1.00  0.00     0.009 A 
ATOM     15  C   UNL A   1      32.003  27.828  24.362  1.00  0.00    -0.018 A 
BRANCH  15  16
ATOM     16  C   UNL A   1      31.081  28.917  23.996  1.00  0.00    -0.011 A 
ATOM     17  C   UNL A   1      30.884  30.101  24.804  1.00  0.00     0.027 A 
ATOM     18  C   UNL A   1      30.373  28.779  22.862  1.00  0.00     0.080 A 
ATOM     19  C   UNL A   1      30.000  31.037  24.442  1.00  0.00     0.095 A 
ATOM     20  C   UNL A   1      29.390  29.817  22.438  1.00  0.00     0.255 A 
ATOM     21  N   UNL A   1      29.275  30.917  23.274  1.00  0.00    -0.258 N 
ATOM     22  O   UNL A   1      28.762  29.633  21.400  1.00  0.00    -0.269 OA
BRANCH  21  23
ATOM     23  C   UNL A   1      28.343  31.949  22.902  1.00  0.00     0.451 C 
ATOM     24  F   UNL A   1      27.233  31.906  23.680  1.00  0.00    -0.185 F 
ATOM     25  F   UNL A   1      28.895  33.169  23.048  1.00  0.00    -0.185 F 
ENDBRANCH  21  23
ENDBRANCH  15  16
ENDBRANCH   8  10
ENDBRANCH   6   8
ENDBRANCH   5   6
ENDBRANCH   4   5
ENDBRANCH   3   4
ENDBRANCH   2   3
ENDBRANCH   1   2
BRANCH   1  26
ATOM     26  C   UNL A   1      40.989  21.905  26.143  1.00  0.00     0.188 C 
BRANCH  26  27
ATOM     27  O   UNL A   1      42.050  21.104  26.591  1.00  0.00    -0.376 OA
BRANCH  27  28
ATOM     28  C   UNL A   1      43.174  20.881  25.761  1.00  0.00     0.202 C 
BRANCH  28  29
ATOM     29  C   UNL A   1      44.030  21.978  25.092  1.00  0.00     0.261 C 
BRANCH  29  30
ATOM     30  O   UNL A   1      43.458  23.271  24.878  1.00  0.00    -0.460 OA
BRANCH  30  31
ATOM     31  C   UNL A   1      44.239  24.339  25.162  1.00  0.00     0.338 C 
ATOM     32  O   UNL A   1      45.306  24.635  24.642  1.00  0.00    -0.246 OA
BRANCH  31  33
ATOM     33  C   UNL A   1      43.493  25.223  26.080  1.00  0.00     0.060 A 
ATOM     34  C   UNL A   1      43.770  26.596  26.073  1.00  0.00     0.016 A 
ATOM     35  C   UNL A   1      42.535  24.705  26.952  1.00  0.00     0.016 A 
ATOM     36  C   UNL A   1      43.103  27.448  26.954  1.00  0.00     0.010 A 
ATOM     37  C   UNL A   1      41.886  25.560  27.852  1.00  0.00     0.010 A 
ATOM     38  C   UNL A   1      42.183  26.935  27.879  1.00  0.00    -0.014 A 
BRANCH  38  39
ATOM     39  C   UNL A   1      41.692  27.782  29.002  1.00  0.00     0.031 A 
ATOM     40  C   UNL A   1      42.454  27.740  30.298  1.00  0.00     0.074 A 
ATOM     41  C   UNL A   1      40.611  28.576  28.877  1.00  0.00     0.049 A 
ATOM     42  N   UNL A   1      42.214  28.359  31.425  1.00  0.00    -0.248 NA
ATOM     43  C   UNL A   1      43.655  26.887  30.325  1.00  0.00     0.031 C 
ATOM     44  C   UNL A   1      39.845  28.746  27.646  1.00  0.00     0.029 A 
ATOM     45  N   UNL A   1      39.978  29.402  29.780  1.00  0.00    -0.354 N 
ATOM     46  C   UNL A   1      43.203  27.933  32.306  1.00  0.00     0.074 A 
ATOM     47  C   UNL A   1      44.055  27.017  31.580  1.00  0.00     0.031 C 
ATOM     48  C   UNL A   1      38.862  29.637  27.862  1.00  0.00     0.029 A 
ATOM     49  C   UNL A   1      38.875  30.055  29.264  1.00  0.00     0.049 A 
ATOM     50  H   UNL A   1      40.283  29.516  30.709  1.00  0.00     0.167 HD
ATOM     51  C   UNL A   1      43.374  28.266  33.606  1.00  0.00     0.037 A 
ATOM     52  C   UNL A   1      37.976  30.875  29.861  1.00  0.00     0.037 A 
ATOM     53  C   UNL A   1      42.518  29.177  34.318  1.00  0.00     0.049 A 
ATOM     54  C   UNL A   1      38.187  31.204  31.325  1.00  0.00     0.074 A 
ATOM     55  C   UNL A   1      42.608  29.592  35.634  1.00  0.00     0.029 A 
ATOM     56  N   UNL A   1      41.405  29.801  33.773  1.00  0.00    -0.354 N 
ATOM     57  N   UNL A   1      39.185  30.869  32.116  1.00  0.00    -0.248 NA
ATOM     58  C   UNL A   1      37.162  32.022  31.986  1.00  0.00     0.031 C 
ATOM     59  C   UNL A   1      41.518  30.427  35.900  1.00  0.00     0.029 A 
ATOM     60  C   UNL A   1      40.785  30.583  34.734  1.00  0.00     0.049 A 
ATOM     61  H   UNL A   1      41.101  29.703  32.842  1.00  0.00     0.167 HD
ATOM     62  C   UNL A   1      38.916  31.459  33.348  1.00  0.00     0.074 A 
ATOM     63  C   UNL A   1      37.694  32.216  33.184  1.00  0.00     0.031 C 
ATOM     64  C   UNL A   1      39.597  31.370  34.520  1.00  0.00     0.037 A 
BRANCH  51  65
ATOM     65  C   UNL A   1      44.493  27.598  34.356  1.00  0.00     0.057 A 
ATOM     66  C   UNL A   1      44.291  26.458  35.145  1.00  0.00     0.134 A 
ATOM     67  C   UNL A   1      45.801  28.095  34.266  1.00  0.00     0.134 A 
ATOM     68  F   UNL A   1      43.061  25.941  35.289  1.00  0.00    -0.206 F 
ATOM     69  C   UNL A   1      45.342  25.852  35.835  1.00  0.00     0.040 A 
ATOM     70  C   UNL A   1      46.866  27.480  34.927  1.00  0.00     0.040 A 
ATOM     71  F   UNL A   1      46.067  29.181  33.526  1.00  0.00    -0.206 F 
ATOM     72  C   UNL A   1      46.636  26.359  35.721  1.00  0.00     0.006 A 
ENDBRANCH  51  65
BRANCH  52  73
ATOM     73  C   UNL A   1      36.809  31.434  29.088  1.00  0.00     0.057 A 
ATOM     74  C   UNL A   1      35.668  30.680  28.766  1.00  0.00     0.134 A 
ATOM     75  C   UNL A   1      36.799  32.763  28.637  1.00  0.00     0.134 A 
ATOM     76  F   UNL A   1      35.614  29.368  29.016  1.00  0.00    -0.206 F 
ATOM     77  C   UNL A   1      34.563  31.222  28.101  1.00  0.00     0.040 A 
ATOM     78  C   UNL A   1      35.692  33.329  27.992  1.00  0.00     0.040 A 
ATOM     79  F   UNL A   1      37.866  33.553  28.829  1.00  0.00    -0.206 F 
ATOM     80  C   UNL A   1      34.563  32.561  27.732  1.00  0.00     0.006 A 
ENDBRANCH  52  73
BRANCH  64  81
ATOM     81  C   UNL A   1      39.073  32.157  35.692  1.00  0.00     0.057 A 
ATOM     82  C   UNL A   1      38.244  31.582  36.665  1.00  0.00     0.134 A 
ATOM     83  C   UNL A   1      39.450  33.495  35.880  1.00  0.00     0.134 A 
ATOM     84  F   UNL A   1      37.845  30.306  36.549  1.00  0.00    -0.206 F 
ATOM     85  C   UNL A   1      37.782  32.316  37.759  1.00  0.00     0.040 A 
ATOM     86  C   UNL A   1      39.022  34.229  36.988  1.00  0.00     0.040 A 
ATOM     87  F   UNL A   1      40.260  34.103  35.000  1.00  0.00    -0.206 F 
ATOM     88  C   UNL A   1      38.177  33.641  37.927  1.00  0.00     0.006 A 
ENDBRANCH  64  81
ENDBRANCH  38  39
ENDBRANCH  31  33
ENDBRANCH  30  31
ENDBRANCH  29  30
ENDBRANCH  28  29
ENDBRANCH  27  28
ENDBRANCH  26  27
ENDBRANCH   1  26
TORSDOF 20
ENDMDL
MODEL 2
REMARK VINA RESULT:     -10.7      4.199      6.099
REMARK SMILES C[C@@H](C(=O)OCCOCCOCCOC(=O)c1ccc(-c2c3nc(c(-c4c(F)cccc4F)c4ccc([nH]4)c(-c4c(F)cccc4F)c4nc(c(-c5c(F)cccc5F)c5ccc2[nH]5)C=C4)C=C3)cc1)c1ccc(-c2ccn(C(F)F)c(=O)c2)cc1
REMARK SMILES IDX 9 1 8 2 7 3 6 4 5 5 3 6 4 7 2 8 1 9 71 10 72 11 86 12 73 13
REMARK SMILES IDX 85 14 74 15 75 16 76 17 84 18 77 19 82 20 78 21 83 22 79 23
REMARK SMILES IDX 80 24 81 25 10 26 11 27 12 28 13 29 14 30 15 31 16 32 17 33
REMARK SMILES IDX 18 34 70 35 19 36 69 37 20 38 21 39 22 40 63 41 23 42 68 43
REMARK SMILES IDX 62 44 64 45 24 46 67 47 61 48 60 49 25 51 51 52 34 53 50 54
REMARK SMILES IDX 35 55 38 56 49 57 65 58 36 59 37 60 48 62 66 63 39 64 26 65
REMARK SMILES IDX 27 66 32 67 28 68 29 69 31 70 33 71 30 72 52 73 53 74 58 75
REMARK SMILES IDX 54 76 55 77 57 78 59 79 56 80 40 81 41 82 46 83 42 84 43 85
REMARK SMILES IDX 45 86 47 87 44 88
REMARK H PARENT 64 50 38 61
REMARK Flexibility Score: inf
ROOT
ATOM      1  C   UNL A   1      35.259  21.797  25.431  1.00  0.00     0.188 C 
ENDROOT
BRANCH   1   2
ATOM      2  O   UNL A   1      35.518  23.076  24.873  1.00  0.00    -0.376 OA
BRANCH   2   3
ATOM      3  C   UNL A   1      34.780  24.194  25.352  1.00  0.00     0.202 C 
BRANCH   3   4
ATOM      4  C   UNL A   1      33.485  23.976  26.157  1.00  0.00     0.261 C 
BRANCH   4   5
ATOM      5  O   UNL A   1      32.270  23.995  25.379  1.00  0.00    -0.463 OA
BRANCH   5   6
ATOM      6  C   UNL A   1      31.189  24.599  25.943  1.00  0.00     0.313 C 
ATOM      7  O   UNL A   1      30.685  24.235  27.001  1.00  0.00    -0.252 OA
BRANCH   6   8
ATOM      8  C   UNL A   1      30.674  25.828  25.170  1.00  0.00     0.126 C 
ATOM      9  C   UNL A   1      30.709  25.718  23.637  1.00  0.00     0.025 C 
BRANCH   8  10
ATOM     10  C   UNL A   1      31.220  27.179  25.661  1.00  0.00    -0.034 A 
ATOM     11  C   UNL A   1      31.042  28.328  24.867  1.00  0.00     0.005 A 
ATOM     12  C   UNL A   1      31.850  27.349  26.903  1.00  0.00     0.005 A 
ATOM     13  C   UNL A   1      31.473  29.591  25.298  1.00  0.00     0.009 A 
ATOM     14  C   UNL A   1      32.293  28.608  27.331  1.00  0.00     0.009 A 
ATOM     15  C   UNL A   1      32.094  29.740  26.540  1.00  0.00    -0.018 A 
BRANCH  15  16
ATOM     16  C   UNL A   1      32.477  31.072  27.039  1.00  0.00    -0.011 A 
ATOM     17  C   UNL A   1      31.661  32.255  26.866  1.00  0.00     0.027 A 
ATOM     18  C   UNL A   1      33.663  31.186  27.661  1.00  0.00     0.080 A 
ATOM     19  C   UNL A   1      32.082  33.446  27.303  1.00  0.00     0.095 A 
ATOM     20  C   UNL A   1      34.145  32.506  28.163  1.00  0.00     0.255 A 
ATOM     21  N   UNL A   1      33.291  33.578  27.956  1.00  0.00    -0.258 N 
ATOM     22  O   UNL A   1      35.240  32.553  28.713  1.00  0.00    -0.269 OA
BRANCH  21  23
ATOM     23  C   UNL A   1      33.710  34.871  28.429  1.00  0.00     0.451 C 
ATOM     24  F   UNL A   1      34.574  35.451  27.560  1.00  0.00    -0.185 F 
ATOM     25  F   UNL A   1      32.654  35.697  28.567  1.00  0.00    -0.185 F 
ENDBRANCH  21  23
ENDBRANCH  15  16
ENDBRANCH   8  10
ENDBRANCH   6   8
ENDBRANCH   5   6
ENDBRANCH   4   5
ENDBRANCH   3   4
ENDBRANCH   2   3
ENDBRANCH   1   2
BRANCH   1  26
ATOM     26  C   UNL A   1      36.166  20.612  25.064  1.00  0.00     0.188 C 
BRANCH  26  27
ATOM     27  O   UNL A   1      37.426  20.937  24.538  1.00  0.00    -0.376 OA
BRANCH  27  28
ATOM     28  C   UNL A   1      38.507  21.221  25.404  1.00  0.00     0.202 C 
BRANCH  28  29
ATOM     29  C   UNL A   1      39.423  20.173  26.073  1.00  0.00     0.261 C 
BRANCH  29  30
ATOM     30  O   UNL A   1      40.509  19.621  25.324  1.00  0.00    -0.460 OA
BRANCH  30  31
ATOM     31  C   UNL A   1      41.669  19.416  25.989  1.00  0.00     0.338 C 
ATOM     32  O   UNL A   1      42.276  18.360  26.112  1.00  0.00    -0.246 OA
BRANCH  31  33
ATOM     33  C   UNL A   1      42.209  20.731  26.389  1.00  0.00     0.060 A 
ATOM     34  C   UNL A   1      42.290  21.045  27.751  1.00  0.00     0.016 A 
ATOM     35  C   UNL A   1      42.623  21.656  25.430  1.00  0.00     0.016 A 
ATOM     36  C   UNL A   1      42.767  22.293  28.154  1.00  0.00     0.010 A 
ATOM     37  C   UNL A   1      43.076  22.917  25.837  1.00  0.00     0.010 A 
ATOM     38  C   UNL A   1      43.127  23.256  27.201  1.00  0.00    -0.014 A 
BRANCH  38  39
ATOM     39  C   UNL A   1      43.355  24.671  27.610  1.00  0.00     0.031 A 
ATOM     40  C   UNL A   1      44.777  25.159  27.686  1.00  0.00     0.074 A 
ATOM     41  C   UNL A   1      42.336  25.505  27.893  1.00  0.00     0.049 A 
ATOM     42  N   UNL A   1      45.235  26.332  28.040  1.00  0.00    -0.248 NA
ATOM     43  C   UNL A   1      45.822  24.195  27.304  1.00  0.00     0.031 C 
ATOM     44  C   UNL A   1      40.923  25.156  27.782  1.00  0.00     0.029 A 
ATOM     45  N   UNL A   1      42.323  26.817  28.313  1.00  0.00    -0.354 N 
ATOM     46  C   UNL A   1      46.621  26.229  27.971  1.00  0.00     0.074 A 
ATOM     47  C   UNL A   1      46.927  24.888  27.525  1.00  0.00     0.031 C 
ATOM     48  C   UNL A   1      40.180  26.229  28.100  1.00  0.00     0.029 A 
ATOM     49  C   UNL A   1      41.054  27.330  28.509  1.00  0.00     0.049 A 
ATOM     50  H   UNL A   1      43.142  27.342  28.461  1.00  0.00     0.167 HD
ATOM     51  C   UNL A   1      47.552  27.166  28.267  1.00  0.00     0.037 A 
ATOM     52  C   UNL A   1      40.652  28.535  28.981  1.00  0.00     0.037 A 
ATOM     53  C   UNL A   1      47.234  28.497  28.712  1.00  0.00     0.049 A 
ATOM     54  C   UNL A   1      41.726  29.548  29.326  1.00  0.00     0.074 A 
ATOM     55  C   UNL A   1      48.099  29.528  29.028  1.00  0.00     0.029 A 
ATOM     56  N   UNL A   1      45.947  28.973  28.917  1.00  0.00    -0.354 N 
ATOM     57  N   UNL A   1      43.029  29.467  29.159  1.00  0.00    -0.248 NA
ATOM     58  C   UNL A   1      41.285  30.819  29.917  1.00  0.00     0.031 C 
ATOM     59  C   UNL A   1      47.336  30.611  29.476  1.00  0.00     0.029 A 
ATOM     60  C   UNL A   1      45.994  30.278  29.377  1.00  0.00     0.049 A 
ATOM     61  H   UNL A   1      45.122  28.459  28.759  1.00  0.00     0.167 HD
ATOM     62  C   UNL A   1      43.550  30.681  29.599  1.00  0.00     0.074 A 
ATOM     63  C   UNL A   1      42.421  31.500  29.984  1.00  0.00     0.031 C 
ATOM     64  C   UNL A   1      44.844  31.084  29.701  1.00  0.00     0.037 A 
BRANCH  51  65
ATOM     65  C   UNL A   1      48.998  26.766  28.176  1.00  0.00     0.057 A 
ATOM     66  C   UNL A   1      49.743  26.914  26.999  1.00  0.00     0.134 A 
ATOM     67  C   UNL A   1      49.660  26.247  29.297  1.00  0.00     0.134 A 
ATOM     68  F   UNL A   1      49.166  27.388  25.884  1.00  0.00    -0.206 F 
ATOM     69  C   UNL A   1      51.086  26.536  26.933  1.00  0.00     0.040 A 
ATOM     70  C   UNL A   1      51.011  25.894  29.251  1.00  0.00     0.040 A 
ATOM     71  F   UNL A   1      49.009  26.082  30.457  1.00  0.00    -0.206 F 
ATOM     72  C   UNL A   1      51.725  26.032  28.064  1.00  0.00     0.006 A 
ENDBRANCH  51  65
BRANCH  52  73
ATOM     73  C   UNL A   1      39.189  28.847  29.155  1.00  0.00     0.057 A 
ATOM     74  C   UNL A   1      38.488  28.609  30.349  1.00  0.00     0.134 A 
ATOM     75  C   UNL A   1      38.429  29.400  28.112  1.00  0.00     0.134 A 
ATOM     76  F   UNL A   1      39.061  27.960  31.367  1.00  0.00    -0.206 F 
ATOM     77  C   UNL A   1      37.145  28.957  30.523  1.00  0.00     0.040 A 
ATOM     78  C   UNL A   1      37.090  29.777  28.276  1.00  0.00     0.040 A 
ATOM     79  F   UNL A   1      38.980  29.604  26.906  1.00  0.00    -0.206 F 
ATOM     80  C   UNL A   1      36.446  29.566  29.489  1.00  0.00     0.006 A 
ENDBRANCH  52  73
BRANCH  64  81
ATOM     81  C   UNL A   1      45.100  32.486  30.187  1.00  0.00     0.057 A 
ATOM     82  C   UNL A   1      45.282  32.781  31.545  1.00  0.00     0.134 A 
ATOM     83  C   UNL A   1      45.225  33.546  29.277  1.00  0.00     0.134 A 
ATOM     84  F   UNL A   1      45.178  31.815  32.470  1.00  0.00    -0.206 F 
ATOM     85  C   UNL A   1      45.541  34.081  31.983  1.00  0.00     0.040 A 
ATOM     86  C   UNL A   1      45.518  34.844  29.700  1.00  0.00     0.040 A 
ATOM     87  F   UNL A   1      45.086  33.332  27.961  1.00  0.00    -0.206 F 
ATOM     88  C   UNL A   1      45.668  35.116  31.058  1.00  0.00     0.006 A 
ENDBRANCH  64  81
ENDBRANCH  38  39
ENDBRANCH  31  33
ENDBRANCH  30  31
ENDBRANCH  29  30
ENDBRANCH  28  29
ENDBRANCH  27  28
ENDBRANCH  26  27
ENDBRANCH   1  26
TORSDOF 20
ENDMDL
MODEL 3
REMARK VINA RESULT:     -10.6      5.282     10.960
REMARK SMILES C[C@@H](C(=O)OCCOCCOCCOC(=O)c1ccc(-c2c3nc(c(-c4c(F)cccc4F)c4ccc([nH]4)c(-c4c(F)cccc4F)c4nc(c(-c5c(F)cccc5F)c5ccc2[nH]5)C=C4)C=C3)cc1)c1ccc(-c2ccn(C(F)F)c(=O)c2)cc1
REMARK SMILES IDX 9 1 8 2 7 3 6 4 5 5 3 6 4 7 2 8 1 9 71 10 72 11 86 12 73 13
REMARK SMILES IDX 85 14 74 15 75 16 76 17 84 18 77 19 82 20 78 21 83 22 79 23
REMARK SMILES IDX 80 24 81 25 10 26 11 27 12 28 13 29 14 30 15 31 16 32 17 33
REMARK SMILES IDX 18 34 70 35 19 36 69 37 20 38 21 39 22 40 63 41 23 42 68 43
REMARK SMILES IDX 62 44 64 45 24 46 67 47 61 48 60 49 25 51 51 52 34 53 50 54
REMARK SMILES IDX 35 55 38 56 49 57 65 58 36 59 37 60 48 62 66 63 39 64 26 65
REMARK SMILES IDX 27 66 32 67 28 68 29 69 31 70 33 71 30 72 52 73 53 74 58 75
REMARK SMILES IDX 54 76 55 77 57 78 59 79 56 80 40 81 41 82 46 83 42 84 43 85
REMARK SMILES IDX 45 86 47 87 44 88
REMARK H PARENT 64 50 38 61
REMARK Flexibility Score: inf
ROOT
ATOM      1  C   UNL A   1      33.341  37.139  29.799  1.00  0.00     0.188 C 
ENDROOT
BRANCH   1   2
ATOM      2  O   UNL A   1      32.917  37.563  31.085  1.00  0.00    -0.376 OA
BRANCH   2   3
ATOM      3  C   UNL A   1      33.071  36.674  32.185  1.00  0.00     0.202 C 
BRANCH   3   4
ATOM      4  C   UNL A   1      34.480  36.252  32.643  1.00  0.00     0.261 C 
BRANCH   4   5
ATOM      5  O   UNL A   1      34.514  35.179  33.607  1.00  0.00    -0.463 OA
BRANCH   5   6
ATOM      6  C   UNL A   1      34.677  33.919  33.117  1.00  0.00     0.313 C 
ATOM      7  O   UNL A   1      33.857  33.363  32.393  1.00  0.00    -0.252 OA
BRANCH   6   8
ATOM      8  C   UNL A   1      36.013  33.257  33.500  1.00  0.00     0.126 C 
ATOM      9  C   UNL A   1      36.419  33.374  34.979  1.00  0.00     0.025 C 
BRANCH   8  10
ATOM     10  C   UNL A   1      37.187  33.569  32.558  1.00  0.00    -0.034 A 
ATOM     11  C   UNL A   1      38.351  34.167  33.075  1.00  0.00     0.005 A 
ATOM     12  C   UNL A   1      37.188  33.237  31.194  1.00  0.00     0.005 A 
ATOM     13  C   UNL A   1      39.468  34.420  32.265  1.00  0.00     0.009 A 
ATOM     14  C   UNL A   1      38.298  33.499  30.380  1.00  0.00     0.009 A 
ATOM     15  C   UNL A   1      39.451  34.077  30.912  1.00  0.00    -0.018 A 
BRANCH  15  16
ATOM     16  C   UNL A   1      40.646  34.262  30.070  1.00  0.00    -0.011 A 
ATOM     17  C   UNL A   1      40.768  35.306  29.075  1.00  0.00     0.027 A 
ATOM     18  C   UNL A   1      41.658  33.391  30.225  1.00  0.00     0.080 A 
ATOM     19  C   UNL A   1      41.860  35.397  28.310  1.00  0.00     0.095 A 
ATOM     20  C   UNL A   1      42.888  33.484  29.386  1.00  0.00     0.255 A 
ATOM     21  N   UNL A   1      42.914  34.520  28.466  1.00  0.00    -0.258 N 
ATOM     22  O   UNL A   1      43.775  32.655  29.563  1.00  0.00    -0.269 OA
BRANCH  21  23
ATOM     23  C   UNL A   1      44.084  34.654  27.638  1.00  0.00     0.451 C 
ATOM     24  F   UNL A   1      44.269  33.549  26.874  1.00  0.00    -0.185 F 
ATOM     25  F   UNL A   1      43.966  35.708  26.808  1.00  0.00    -0.185 F 
ENDBRANCH  21  23
ENDBRANCH  15  16
ENDBRANCH   8  10
ENDBRANCH   6   8
ENDBRANCH   5   6
ENDBRANCH   4   5
ENDBRANCH   3   4
ENDBRANCH   2   3
ENDBRANCH   1   2
BRANCH   1  26
ATOM     26  C   UNL A   1      33.117  35.680  29.369  1.00  0.00     0.188 C 
BRANCH  26  27
ATOM     27  O   UNL A   1      34.250  34.851  29.383  1.00  0.00    -0.376 OA
BRANCH  27  28
ATOM     28  C   UNL A   1      34.598  34.102  28.235  1.00  0.00     0.202 C 
BRANCH  28  29
ATOM     29  C   UNL A   1      33.942  32.775  27.794  1.00  0.00     0.261 C 
BRANCH  29  30
ATOM     30  O   UNL A   1      34.175  31.594  28.566  1.00  0.00    -0.460 OA
BRANCH  30  31
ATOM     31  C   UNL A   1      34.701  30.532  27.915  1.00  0.00     0.338 C 
ATOM     32  O   UNL A   1      34.286  30.014  26.887  1.00  0.00    -0.246 OA
BRANCH  31  33
ATOM     33  C   UNL A   1      36.000  30.206  28.538  1.00  0.00     0.060 A 
ATOM     34  C   UNL A   1      37.179  30.619  27.906  1.00  0.00     0.016 A 
ATOM     35  C   UNL A   1      36.059  29.486  29.732  1.00  0.00     0.016 A 
ATOM     36  C   UNL A   1      38.419  30.295  28.458  1.00  0.00     0.010 A 
ATOM     37  C   UNL A   1      37.306  29.140  30.269  1.00  0.00     0.010 A 
ATOM     38  C   UNL A   1      38.497  29.519  29.622  1.00  0.00    -0.014 A 
BRANCH  38  39
ATOM     39  C   UNL A   1      39.797  28.930  30.049  1.00  0.00     0.031 A 
ATOM     40  C   UNL A   1      40.456  29.498  31.277  1.00  0.00     0.074 A 
ATOM     41  C   UNL A   1      40.374  27.913  29.379  1.00  0.00     0.049 A 
ATOM     42  N   UNL A   1      41.596  29.178  31.832  1.00  0.00    -0.248 NA
ATOM     43  C   UNL A   1      39.725  30.568  31.977  1.00  0.00     0.031 C 
ATOM     44  C   UNL A   1      39.787  27.244  28.223  1.00  0.00     0.029 A 
ATOM     45  N   UNL A   1      41.565  27.252  29.578  1.00  0.00    -0.354 N 
ATOM     46  C   UNL A   1      41.740  30.039  32.915  1.00  0.00     0.074 A 
ATOM     47  C   UNL A   1      40.566  30.883  32.949  1.00  0.00     0.031 C 
ATOM     48  C   UNL A   1      40.605  26.253  27.828  1.00  0.00     0.029 A 
ATOM     49  C   UNL A   1      41.813  26.254  28.655  1.00  0.00     0.049 A 
ATOM     50  H   UNL A   1      42.185  27.470  30.311  1.00  0.00     0.167 HD
ATOM     51  C   UNL A   1      42.768  30.127  33.792  1.00  0.00     0.037 A 
ATOM     52  C   UNL A   1      42.894  25.454  28.488  1.00  0.00     0.037 A 
ATOM     53  C   UNL A   1      43.932  29.283  33.746  1.00  0.00     0.049 A 
ATOM     54  C   UNL A   1      44.036  25.600  29.475  1.00  0.00     0.074 A 
ATOM     55  C   UNL A   1      45.026  29.279  34.592  1.00  0.00     0.029 A 
ATOM     56  N   UNL A   1      44.157  28.302  32.791  1.00  0.00    -0.354 N 
ATOM     57  N   UNL A   1      44.111  26.352  30.552  1.00  0.00    -0.248 NA
ATOM     58  C   UNL A   1      45.239  24.791  29.236  1.00  0.00     0.031 C 
ATOM     59  C   UNL A   1      45.938  28.332  34.117  1.00  0.00     0.029 A 
ATOM     60  C   UNL A   1      45.385  27.700  33.013  1.00  0.00     0.049 A 
ATOM     61  H   UNL A   1      43.537  28.068  32.063  1.00  0.00     0.167 HD
ATOM     62  C   UNL A   1      45.352  26.083  31.124  1.00  0.00     0.074 A 
ATOM     63  C   UNL A   1      45.968  25.059  30.309  1.00  0.00     0.031 C 
ATOM     64  C   UNL A   1      45.946  26.642  32.211  1.00  0.00     0.037 A 
BRANCH  51  65
ATOM     65  C   UNL A   1      42.705  31.207  34.835  1.00  0.00     0.057 A 
ATOM     66  C   UNL A   1      42.220  30.972  36.128  1.00  0.00     0.134 A 
ATOM     67  C   UNL A   1      43.162  32.500  34.544  1.00  0.00     0.134 A 
ATOM     68  F   UNL A   1      41.750  29.762  36.468  1.00  0.00    -0.206 F 
ATOM     69  C   UNL A   1      42.169  31.988  37.084  1.00  0.00     0.040 A 
ATOM     70  C   UNL A   1      43.144  33.516  35.501  1.00  0.00     0.040 A 
ATOM     71  F   UNL A   1      43.643  32.794  33.327  1.00  0.00    -0.206 F 
ATOM     72  C   UNL A   1      42.639  33.263  36.774  1.00  0.00     0.006 A 
ENDBRANCH  51  65
BRANCH  52  73
ATOM     73  C   UNL A   1      42.952  24.459  27.358  1.00  0.00     0.057 A 
ATOM     74  C   UNL A   1      42.462  23.147  27.462  1.00  0.00     0.134 A 
ATOM     75  C   UNL A   1      43.511  24.795  26.115  1.00  0.00     0.134 A 
ATOM     76  F   UNL A   1      42.033  22.661  28.630  1.00  0.00    -0.206 F 
ATOM     77  C   UNL A   1      42.464  22.249  26.389  1.00  0.00     0.040 A 
ATOM     78  C   UNL A   1      43.500  23.918  25.023  1.00  0.00     0.040 A 
ATOM     79  F   UNL A   1      44.072  26.000  25.926  1.00  0.00    -0.206 F 
ATOM     80  C   UNL A   1      42.965  22.642  25.155  1.00  0.00     0.006 A 
ENDBRANCH  52  73
BRANCH  64  81
ATOM     81  C   UNL A   1      47.297  26.115  32.614  1.00  0.00     0.057 A 
ATOM     82  C   UNL A   1      48.488  26.659  32.115  1.00  0.00     0.134 A 
ATOM     83  C   UNL A   1      47.409  25.085  33.560  1.00  0.00     0.134 A 
ATOM     84  F   UNL A   1      48.455  27.648  31.209  1.00  0.00    -0.206 F 
ATOM     85  C   UNL A   1      49.736  26.177  32.513  1.00  0.00     0.040 A 
ATOM     86  C   UNL A   1      48.652  24.618  33.991  1.00  0.00     0.040 A 
ATOM     87  F   UNL A   1      46.311  24.532  34.097  1.00  0.00    -0.206 F 
ATOM     88  C   UNL A   1      49.821  25.158  33.460  1.00  0.00     0.006 A 
ENDBRANCH  64  81
ENDBRANCH  38  39
ENDBRANCH  31  33
ENDBRANCH  30  31
ENDBRANCH  29  30
ENDBRANCH  28  29
ENDBRANCH  27  28
ENDBRANCH  26  27
ENDBRANCH   1  26
TORSDOF 20
ENDMDL
