MODEL 1
REMARK VINA RESULT:     -12.8      0.000      0.000
REMARK SMILES Cc1ccc(-c2ncc(C(=O)OCCOCCOCCOC(=O)c3ccc(-c4c5nc(c(-c6c(F)cccc6F)c6ccc([nH]6)c(-c6c(F)cccc6F)c6nc(c(-c7c(F)cccc7F)c7ccc4[nH]7)C=C6)C=C5)cc3)c(Nc3ccccc3)n2)cc1
REMARK SMILES IDX 16 1 15 2 14 3 13 4 12 5 10 6 11 7 9 8 6 9 7 10 86 11 8 12
REMARK SMILES IDX 78 13 5 14 1 15 2 16 3 17 88 18 4 19 87 20 79 21 80 23 81 24
REMARK SMILES IDX 85 25 82 26 84 27 83 28 17 29 18 30 19 31 20 32 21 33 22 34
REMARK SMILES IDX 23 35 24 36 25 37 77 38 26 39 76 40 27 41 28 42 29 43 70 44
REMARK SMILES IDX 30 45 75 46 69 47 71 48 31 49 74 50 68 51 67 52 32 54 58 55
REMARK SMILES IDX 41 56 57 57 42 58 45 59 56 60 72 61 43 62 44 63 55 65 73 66
REMARK SMILES IDX 46 67 33 68 34 69 39 70 35 71 36 72 38 73 40 74 37 75 59 76
REMARK SMILES IDX 60 77 65 78 61 79 62 80 64 81 66 82 63 83 47 84 48 85 53 86
REMARK SMILES IDX 49 87 50 88 52 89 54 90 51 91
REMARK H PARENT 79 22 71 53 45 64
REMARK Flexibility Score: inf
ROOT
ATOM      1  C   UNL A   1      34.055  31.256  27.782  1.00  0.00     0.188 C 
ENDROOT
BRANCH   1   2
ATOM      2  O   UNL A   1      33.438  30.449  26.756  1.00  0.00    -0.376 OA
BRANCH   2   3
ATOM      3  C   UNL A   1      32.164  29.816  26.873  1.00  0.00     0.202 C 
BRANCH   3   4
ATOM      4  C   UNL A   1      31.752  28.327  26.221  1.00  0.00     0.261 C 
BRANCH   4   5
ATOM      5  O   UNL A   1      31.648  26.727  26.886  1.00  0.00    -0.460 OA
BRANCH   5   6
ATOM      6  C   UNL A   1      31.171  25.411  26.562  1.00  0.00     0.343 C 
ATOM      7  O   UNL A   1      30.116  24.852  26.856  1.00  0.00    -0.246 OA
BRANCH   6   8
ATOM      8  C   UNL A   1      31.915  24.426  25.790  1.00  0.00     0.121 A 
ATOM      9  C   UNL A   1      32.753  22.013  24.946  1.00  0.00     0.161 A 
ATOM     10  N   UNL A   1      33.175  22.425  26.156  1.00  0.00    -0.236 NA
ATOM     11  N   UNL A   1      31.965  22.702  24.116  1.00  0.00    -0.210 NA
ATOM     12  C   UNL A   1      32.751  23.640  26.544  1.00  0.00     0.133 A 
ATOM     13  C   UNL A   1      31.447  23.856  24.569  1.00  0.00     0.149 A 
BRANCH   9  14
ATOM     14  C   UNL A   1      33.094  20.664  24.530  1.00  0.00     0.019 A 
ATOM     15  C   UNL A   1      34.021  16.586  23.499  1.00  0.00     0.044 C 
ATOM     16  C   UNL A   1      33.727  18.018  23.822  1.00  0.00    -0.051 A 
ATOM     17  C   UNL A   1      32.567  18.621  23.324  1.00  0.00     0.004 A 
ATOM     18  C   UNL A   1      34.599  18.763  24.622  1.00  0.00     0.004 A 
ATOM     19  C   UNL A   1      32.251  19.933  23.679  1.00  0.00     0.012 A 
ATOM     20  C   UNL A   1      34.289  20.078  24.962  1.00  0.00     0.012 A 
ENDBRANCH   9  14
BRANCH  13  21
ATOM     21  N   UNL A   1      30.355  24.353  23.804  1.00  0.00    -0.339 N 
ATOM     22  H   UNL A   1      29.703  23.688  23.484  1.00  0.00     0.168 HD
BRANCH  21  23
ATOM     23  C   UNL A   1      30.105  25.713  23.454  1.00  0.00     0.040 A 
ATOM     24  C   UNL A   1      28.904  26.335  23.829  1.00  0.00     0.026 A 
ATOM     25  C   UNL A   1      31.052  26.500  22.776  1.00  0.00     0.026 A 
ATOM     26  C   UNL A   1      28.631  27.671  23.497  1.00  0.00     0.002 A 
ATOM     27  C   UNL A   1      30.793  27.850  22.466  1.00  0.00     0.002 A 
ATOM     28  C   UNL A   1      29.578  28.433  22.817  1.00  0.00     0.000 A 
ENDBRANCH  21  23
ENDBRANCH  13  21
ENDBRANCH   6   8
ENDBRANCH   5   6
ENDBRANCH   4   5
ENDBRANCH   3   4
ENDBRANCH   2   3
ENDBRANCH   1   2
BRANCH   1  29
ATOM     29  C   UNL A   1      33.639  32.703  28.043  1.00  0.00     0.188 C 
BRANCH  29  30
ATOM     30  O   UNL A   1      34.739  33.553  27.789  1.00  0.00    -0.376 OA
BRANCH  30  31
ATOM     31  C   UNL A   1      34.687  34.834  28.386  1.00  0.00     0.202 C 
BRANCH  31  32
ATOM     32  C   UNL A   1      33.368  35.036  29.147  1.00  0.00     0.261 C 
BRANCH  32  33
ATOM     33  O   UNL A   1      33.610  35.733  30.398  1.00  0.00    -0.460 OA
BRANCH  33  34
ATOM     34  C   UNL A   1      33.231  35.109  31.563  1.00  0.00     0.338 C 
ATOM     35  O   UNL A   1      32.176  35.315  32.149  1.00  0.00    -0.246 OA
BRANCH  34  36
ATOM     36  C   UNL A   1      34.390  34.347  32.153  1.00  0.00     0.060 A 
ATOM     37  C   UNL A   1      35.632  34.887  32.526  1.00  0.00     0.016 A 
ATOM     38  C   UNL A   1      34.396  33.020  31.905  1.00  0.00     0.016 A 
ATOM     39  C   UNL A   1      36.877  34.113  32.438  1.00  0.00     0.010 A 
ATOM     40  C   UNL A   1      35.632  32.517  31.498  1.00  0.00     0.010 A 
ATOM     41  C   UNL A   1      36.968  32.865  31.804  1.00  0.00    -0.014 A 
BRANCH  41  42
ATOM     42  C   UNL A   1      38.383  32.101  31.276  1.00  0.00     0.031 A 
ATOM     43  C   UNL A   1      38.770  30.752  30.266  1.00  0.00     0.074 A 
ATOM     44  C   UNL A   1      39.528  32.584  31.821  1.00  0.00     0.049 A 
ATOM     45  N   UNL A   1      39.749  29.890  30.520  1.00  0.00    -0.248 NA
ATOM     46  C   UNL A   1      38.105  30.216  29.023  1.00  0.00     0.031 C 
ATOM     47  C   UNL A   1      40.903  32.257  31.450  1.00  0.00     0.029 A 
ATOM     48  N   UNL A   1      39.675  33.415  32.937  1.00  0.00    -0.354 N 
ATOM     49  C   UNL A   1      39.839  28.936  29.488  1.00  0.00     0.074 A 
ATOM     50  C   UNL A   1      38.765  29.156  28.614  1.00  0.00     0.031 C 
ATOM     51  C   UNL A   1      41.715  32.592  32.461  1.00  0.00     0.029 A 
ATOM     52  C   UNL A   1      40.889  33.072  33.549  1.00  0.00     0.049 A 
ATOM     53  H   UNL A   1      39.045  34.111  33.236  1.00  0.00     0.167 HD
ATOM     54  C   UNL A   1      40.842  28.041  29.281  1.00  0.00     0.037 A 
ATOM     55  C   UNL A   1      40.954  32.680  34.849  1.00  0.00     0.037 A 
ATOM     56  C   UNL A   1      41.877  28.234  30.243  1.00  0.00     0.049 A 
ATOM     57  C   UNL A   1      41.566  31.315  35.045  1.00  0.00     0.074 A 
ATOM     58  C   UNL A   1      42.979  29.065  30.240  1.00  0.00     0.029 A 
ATOM     59  N   UNL A   1      41.637  27.861  31.547  1.00  0.00    -0.354 N 
ATOM     60  N   UNL A   1      41.838  30.490  34.073  1.00  0.00    -0.248 NA
ATOM     61  C   UNL A   1      41.881  30.748  36.354  1.00  0.00     0.031 C 
ATOM     62  C   UNL A   1      43.372  29.248  31.583  1.00  0.00     0.029 A 
ATOM     63  C   UNL A   1      42.541  28.480  32.381  1.00  0.00     0.049 A 
ATOM     64  H   UNL A   1      40.927  27.245  31.840  1.00  0.00     0.167 HD
ATOM     65  C   UNL A   1      42.262  29.294  34.592  1.00  0.00     0.074 A 
ATOM     66  C   UNL A   1      42.314  29.519  36.021  1.00  0.00     0.031 C 
ATOM     67  C   UNL A   1      42.499  28.209  33.801  1.00  0.00     0.037 A 
BRANCH  54  68
ATOM     68  C   UNL A   1      40.956  27.289  27.964  1.00  0.00     0.057 A 
ATOM     69  C   UNL A   1      40.407  26.006  27.819  1.00  0.00     0.134 A 
ATOM     70  C   UNL A   1      41.730  27.725  26.868  1.00  0.00     0.134 A 
ATOM     71  F   UNL A   1      39.573  25.500  28.736  1.00  0.00    -0.206 F 
ATOM     72  C   UNL A   1      40.725  25.162  26.743  1.00  0.00     0.040 A 
ATOM     73  C   UNL A   1      42.104  26.872  25.814  1.00  0.00     0.040 A 
ATOM     74  F   UNL A   1      42.215  28.978  26.821  1.00  0.00    -0.206 F 
ATOM     75  C   UNL A   1      41.618  25.574  25.763  1.00  0.00     0.006 A 
ENDBRANCH  54  68
BRANCH  55  76
ATOM     76  C   UNL A   1      39.941  33.327  35.724  1.00  0.00     0.057 A 
ATOM     77  C   UNL A   1      38.737  32.638  35.966  1.00  0.00     0.134 A 
ATOM     78  C   UNL A   1      40.245  34.387  36.580  1.00  0.00     0.134 A 
ATOM     79  F   UNL A   1      38.382  31.607  35.182  1.00  0.00    -0.206 F 
ATOM     80  C   UNL A   1      37.929  32.915  37.071  1.00  0.00     0.040 A 
ATOM     81  C   UNL A   1      39.432  34.685  37.684  1.00  0.00     0.040 A 
ATOM     82  F   UNL A   1      41.398  35.057  36.449  1.00  0.00    -0.206 F 
ATOM     83  C   UNL A   1      38.293  33.926  37.954  1.00  0.00     0.006 A 
ENDBRANCH  55  76
BRANCH  67  84
ATOM     84  C   UNL A   1      42.738  26.789  34.248  1.00  0.00     0.057 A 
ATOM     85  C   UNL A   1      41.860  26.063  35.059  1.00  0.00     0.134 A 
ATOM     86  C   UNL A   1      43.804  26.041  33.693  1.00  0.00     0.134 A 
ATOM     87  F   UNL A   1      40.755  26.621  35.572  1.00  0.00    -0.206 F 
ATOM     88  C   UNL A   1      42.047  24.701  35.331  1.00  0.00     0.040 A 
ATOM     89  C   UNL A   1      43.966  24.671  33.907  1.00  0.00     0.040 A 
ATOM     90  F   UNL A   1      44.718  26.605  32.887  1.00  0.00    -0.206 F 
ATOM     91  C   UNL A   1      43.091  23.997  34.742  1.00  0.00     0.006 A 
ENDBRANCH  67  84
ENDBRANCH  41  42
ENDBRANCH  34  36
ENDBRANCH  33  34
ENDBRANCH  32  33
ENDBRANCH  31  32
ENDBRANCH  30  31
ENDBRANCH  29  30
ENDBRANCH   1  29
TORSDOF 20
ENDMDL
MODEL 2
REMARK VINA RESULT:     -12.2      4.482      9.846
REMARK SMILES Cc1ccc(-c2ncc(C(=O)OCCOCCOCCOC(=O)c3ccc(-c4c5nc(c(-c6c(F)cccc6F)c6ccc([nH]6)c(-c6c(F)cccc6F)c6nc(c(-c7c(F)cccc7F)c7ccc4[nH]7)C=C6)C=C5)cc3)c(Nc3ccccc3)n2)cc1
REMARK SMILES IDX 16 1 15 2 14 3 13 4 12 5 10 6 11 7 9 8 6 9 7 10 86 11 8 12
REMARK SMILES IDX 78 13 5 14 1 15 2 16 3 17 88 18 4 19 87 20 79 21 80 23 81 24
REMARK SMILES IDX 85 25 82 26 84 27 83 28 17 29 18 30 19 31 20 32 21 33 22 34
REMARK SMILES IDX 23 35 24 36 25 37 77 38 26 39 76 40 27 41 28 42 29 43 70 44
REMARK SMILES IDX 30 45 75 46 69 47 71 48 31 49 74 50 68 51 67 52 32 54 58 55
REMARK SMILES IDX 41 56 57 57 42 58 45 59 56 60 72 61 43 62 44 63 55 65 73 66
REMARK SMILES IDX 46 67 33 68 34 69 39 70 35 71 36 72 38 73 40 74 37 75 59 76
REMARK SMILES IDX 60 77 65 78 61 79 62 80 64 81 66 82 63 83 47 84 48 85 53 86
REMARK SMILES IDX 49 87 50 88 52 89 54 90 51 91
REMARK H PARENT 79 22 71 53 45 64
REMARK Flexibility Score: inf
ROOT
ATOM      1  C   UNL A   1      39.377  21.776  26.243  1.00  0.00     0.188 C 
ENDROOT
BRANCH   1   2
ATOM      2  O   UNL A   1      38.084  21.592  25.629  1.00  0.00    -0.376 OA
BRANCH   2   3
ATOM      3  C   UNL A   1      37.389  22.586  24.877  1.00  0.00     0.202 C 
BRANCH   3   4
ATOM      4  C   UNL A   1      36.146  22.295  23.791  1.00  0.00     0.261 C 
BRANCH   4   5
ATOM      5  O   UNL A   1      35.213  23.326  22.750  1.00  0.00    -0.460 OA
BRANCH   5   6
ATOM      6  C   UNL A   1      33.862  23.760  22.526  1.00  0.00     0.343 C 
ATOM      7  O   UNL A   1      32.859  23.117  22.223  1.00  0.00    -0.246 OA
BRANCH   6   8
ATOM      8  C   UNL A   1      33.412  25.143  22.604  1.00  0.00     0.121 A 
ATOM      9  C   UNL A   1      31.726  27.219  22.895  1.00  0.00     0.161 A 
ATOM     10  N   UNL A   1      31.649  26.517  21.749  1.00  0.00    -0.236 NA
ATOM     11  N   UNL A   1      32.578  26.989  23.898  1.00  0.00    -0.210 NA
ATOM     12  C   UNL A   1      32.513  25.494  21.628  1.00  0.00     0.133 A 
ATOM     13  C   UNL A   1      33.346  25.889  23.818  1.00  0.00     0.149 A 
BRANCH   9  14
ATOM     14  C   UNL A   1      30.742  28.264  23.120  1.00  0.00     0.019 A 
ATOM     15  C   UNL A   1      27.926  31.484  23.617  1.00  0.00     0.044 C 
ATOM     16  C   UNL A   1      28.890  30.346  23.485  1.00  0.00    -0.051 A 
ATOM     17  C   UNL A   1      28.542  29.219  22.732  1.00  0.00     0.004 A 
ATOM     18  C   UNL A   1      30.143  30.398  24.105  1.00  0.00     0.004 A 
ATOM     19  C   UNL A   1      29.463  28.188  22.547  1.00  0.00     0.012 A 
ATOM     20  C   UNL A   1      31.055  29.358  23.933  1.00  0.00     0.012 A 
ENDBRANCH   9  14
BRANCH  13  21
ATOM     21  N   UNL A   1      33.954  25.503  25.045  1.00  0.00    -0.339 N 
ATOM     22  H   UNL A   1      34.754  26.007  25.319  1.00  0.00     0.168 HD
BRANCH  21  23
ATOM     23  C   UNL A   1      33.522  24.463  25.922  1.00  0.00     0.040 A 
ATOM     24  C   UNL A   1      32.156  24.183  26.074  1.00  0.00     0.026 A 
ATOM     25  C   UNL A   1      34.428  23.649  26.624  1.00  0.00     0.026 A 
ATOM     26  C   UNL A   1      31.703  23.168  26.931  1.00  0.00     0.002 A 
ATOM     27  C   UNL A   1      33.978  22.611  27.463  1.00  0.00     0.002 A 
ATOM     28  C   UNL A   1      32.614  22.377  27.626  1.00  0.00     0.000 A 
ENDBRANCH  21  23
ENDBRANCH  13  21
ENDBRANCH   6   8
ENDBRANCH   5   6
ENDBRANCH   4   5
ENDBRANCH   3   4
ENDBRANCH   2   3
ENDBRANCH   1   2
BRANCH   1  29
ATOM     29  C   UNL A   1      40.337  20.614  26.488  1.00  0.00     0.188 C 
BRANCH  29  30
ATOM     30  O   UNL A   1      41.587  21.127  26.906  1.00  0.00    -0.376 OA
BRANCH  30  31
ATOM     31  C   UNL A   1      42.705  20.754  26.126  1.00  0.00     0.202 C 
BRANCH  31  32
ATOM     32  C   UNL A   1      43.523  21.985  25.706  1.00  0.00     0.261 C 
BRANCH  32  33
ATOM     33  O   UNL A   1      42.641  23.100  25.411  1.00  0.00    -0.460 OA
BRANCH  33  34
ATOM     34  C   UNL A   1      43.141  24.371  25.565  1.00  0.00     0.338 C 
ATOM     35  O   UNL A   1      44.330  24.640  25.683  1.00  0.00    -0.246 OA
BRANCH  34  36
ATOM     36  C   UNL A   1      42.024  25.347  25.832  1.00  0.00     0.060 A 
ATOM     37  C   UNL A   1      41.946  26.667  25.355  1.00  0.00     0.016 A 
ATOM     38  C   UNL A   1      41.283  25.092  26.931  1.00  0.00     0.016 A 
ATOM     39  C   UNL A   1      41.288  27.734  26.120  1.00  0.00     0.010 A 
ATOM     40  C   UNL A   1      41.038  26.209  27.731  1.00  0.00     0.010 A 
ATOM     41  C   UNL A   1      40.861  27.583  27.448  1.00  0.00    -0.014 A 
BRANCH  41  42
ATOM     42  C   UNL A   1      40.496  28.825  28.538  1.00  0.00     0.031 A 
ATOM     43  C   UNL A   1      39.201  29.952  28.757  1.00  0.00     0.074 A 
ATOM     44  C   UNL A   1      41.471  29.098  29.440  1.00  0.00     0.049 A 
ATOM     45  N   UNL A   1      39.373  31.217  29.124  1.00  0.00    -0.248 NA
ATOM     46  C   UNL A   1      37.718  29.822  28.520  1.00  0.00     0.031 C 
ATOM     47  C   UNL A   1      41.397  29.983  30.600  1.00  0.00     0.029 A 
ATOM     48  N   UNL A   1      42.812  28.695  29.416  1.00  0.00    -0.354 N 
ATOM     49  C   UNL A   1      38.126  31.858  29.260  1.00  0.00     0.074 A 
ATOM     50  C   UNL A   1      37.140  30.961  28.825  1.00  0.00     0.031 C 
ATOM     51  C   UNL A   1      42.640  30.309  30.976  1.00  0.00     0.029 A 
ATOM     52  C   UNL A   1      43.558  29.712  30.028  1.00  0.00     0.049 A 
ATOM     53  H   UNL A   1      43.165  27.855  29.042  1.00  0.00     0.167 HD
ATOM     54  C   UNL A   1      37.883  33.070  29.826  1.00  0.00     0.037 A 
ATOM     55  C   UNL A   1      44.582  30.338  29.388  1.00  0.00     0.037 A 
ATOM     56  C   UNL A   1      39.090  33.617  30.352  1.00  0.00     0.049 A 
ATOM     57  C   UNL A   1      44.413  31.833  29.284  1.00  0.00     0.074 A 
ATOM     58  C   UNL A   1      39.700  33.465  31.581  1.00  0.00     0.029 A 
ATOM     59  N   UNL A   1      40.042  34.076  29.467  1.00  0.00    -0.354 N 
ATOM     60  N   UNL A   1      43.317  32.468  29.595  1.00  0.00    -0.248 NA
ATOM     61  C   UNL A   1      45.448  32.733  28.780  1.00  0.00     0.031 C 
ATOM     62  C   UNL A   1      41.066  33.777  31.415  1.00  0.00     0.029 A 
ATOM     63  C   UNL A   1      41.259  34.172  30.103  1.00  0.00     0.049 A 
ATOM     64  H   UNL A   1      39.877  34.301  28.523  1.00  0.00     0.167 HD
ATOM     65  C   UNL A   1      43.447  33.794  29.266  1.00  0.00     0.074 A 
ATOM     66  C   UNL A   1      44.811  33.918  28.800  1.00  0.00     0.031 C 
ATOM     67  C   UNL A   1      42.405  34.667  29.372  1.00  0.00     0.037 A 
BRANCH  54  68
ATOM     68  C   UNL A   1      36.466  33.496  30.178  1.00  0.00     0.057 A 
ATOM     69  C   UNL A   1      35.590  33.968  29.190  1.00  0.00     0.134 A 
ATOM     70  C   UNL A   1      35.976  33.604  31.498  1.00  0.00     0.134 A 
ATOM     71  F   UNL A   1      35.879  33.842  27.888  1.00  0.00    -0.206 F 
ATOM     72  C   UNL A   1      34.392  34.634  29.493  1.00  0.00     0.040 A 
ATOM     73  C   UNL A   1      34.809  34.319  31.820  1.00  0.00     0.040 A 
ATOM     74  F   UNL A   1      36.659  33.081  32.531  1.00  0.00    -0.206 F 
ATOM     75  C   UNL A   1      34.023  34.858  30.812  1.00  0.00     0.006 A 
ENDBRANCH  54  68
BRANCH  55  76
ATOM     76  C   UNL A   1      45.321  29.465  28.440  1.00  0.00     0.057 A 
ATOM     77  C   UNL A   1      46.330  28.629  28.958  1.00  0.00     0.134 A 
ATOM     78  C   UNL A   1      44.853  29.170  27.158  1.00  0.00     0.134 A 
ATOM     79  F   UNL A   1      46.826  28.854  30.186  1.00  0.00    -0.206 F 
ATOM     80  C   UNL A   1      46.775  27.490  28.282  1.00  0.00     0.040 A 
ATOM     81  C   UNL A   1      45.304  28.038  26.463  1.00  0.00     0.040 A 
ATOM     82  F   UNL A   1      43.857  29.885  26.618  1.00  0.00    -0.206 F 
ATOM     83  C   UNL A   1      46.238  27.175  27.039  1.00  0.00     0.006 A 
ENDBRANCH  55  76
BRANCH  67  84
ATOM     84  C   UNL A   1      42.336  36.074  28.834  1.00  0.00     0.057 A 
ATOM     85  C   UNL A   1      42.886  37.188  29.475  1.00  0.00     0.134 A 
ATOM     86  C   UNL A   1      41.858  36.308  27.522  1.00  0.00     0.134 A 
ATOM     87  F   UNL A   1      43.461  37.090  30.681  1.00  0.00    -0.206 F 
ATOM     88  C   UNL A   1      42.926  38.453  28.872  1.00  0.00     0.040 A 
ATOM     89  C   UNL A   1      41.948  37.548  26.888  1.00  0.00     0.040 A 
ATOM     90  F   UNL A   1      41.313  35.327  26.783  1.00  0.00    -0.206 F 
ATOM     91  C   UNL A   1      42.474  38.632  27.570  1.00  0.00     0.006 A 
ENDBRANCH  67  84
ENDBRANCH  41  42
ENDBRANCH  34  36
ENDBRANCH  33  34
ENDBRANCH  32  33
ENDBRANCH  31  32
ENDBRANCH  30  31
ENDBRANCH  29  30
ENDBRANCH   1  29
TORSDOF 20
ENDMDL
MODEL 3
REMARK VINA RESULT:     -11.9      4.098      9.673
REMARK SMILES Cc1ccc(-c2ncc(C(=O)OCCOCCOCCOC(=O)c3ccc(-c4c5nc(c(-c6c(F)cccc6F)c6ccc([nH]6)c(-c6c(F)cccc6F)c6nc(c(-c7c(F)cccc7F)c7ccc4[nH]7)C=C6)C=C5)cc3)c(Nc3ccccc3)n2)cc1
REMARK SMILES IDX 16 1 15 2 14 3 13 4 12 5 10 6 11 7 9 8 6 9 7 10 86 11 8 12
REMARK SMILES IDX 78 13 5 14 1 15 2 16 3 17 88 18 4 19 87 20 79 21 80 23 81 24
REMARK SMILES IDX 85 25 82 26 84 27 83 28 17 29 18 30 19 31 20 32 21 33 22 34
REMARK SMILES IDX 23 35 24 36 25 37 77 38 26 39 76 40 27 41 28 42 29 43 70 44
REMARK SMILES IDX 30 45 75 46 69 47 71 48 31 49 74 50 68 51 67 52 32 54 58 55
REMARK SMILES IDX 41 56 57 57 42 58 45 59 56 60 72 61 43 62 44 63 55 65 73 66
REMARK SMILES IDX 46 67 33 68 34 69 39 70 35 71 36 72 38 73 40 74 37 75 59 76
REMARK SMILES IDX 60 77 65 78 61 79 62 80 64 81 66 82 63 83 47 84 48 85 53 86
REMARK SMILES IDX 49 87 50 88 52 89 54 90 51 91
REMARK H PARENT 79 22 71 53 45 64
REMARK Flexibility Score: inf
ROOT
ATOM      1  C   UNL A   1      37.533  21.521  25.103  1.00  0.00     0.188 C 
ENDROOT
BRANCH   1   2
ATOM      2  O   UNL A   1      36.530  22.532  24.864  1.00  0.00    -0.376 OA
BRANCH   2   3
ATOM      3  C   UNL A   1      35.689  22.591  23.712  1.00  0.00     0.202 C 
BRANCH   3   4
ATOM      4  C   UNL A   1      34.017  22.470  23.718  1.00  0.00     0.261 C 
BRANCH   4   5
ATOM      5  O   UNL A   1      32.753  23.461  23.059  1.00  0.00    -0.460 OA
BRANCH   5   6
ATOM      6  C   UNL A   1      31.577  24.184  23.458  1.00  0.00     0.343 C 
ATOM      7  O   UNL A   1      30.409  24.067  23.094  1.00  0.00    -0.246 OA
BRANCH   6   8
ATOM      8  C   UNL A   1      31.562  25.277  24.419  1.00  0.00     0.121 A 
ATOM      9  C   UNL A   1      32.413  27.448  25.762  1.00  0.00     0.161 A 
ATOM     10  N   UNL A   1      33.016  26.276  26.036  1.00  0.00    -0.236 NA
ATOM     11  N   UNL A   1      31.415  27.629  24.892  1.00  0.00    -0.210 NA
ATOM     12  C   UNL A   1      32.560  25.208  25.359  1.00  0.00     0.133 A 
ATOM     13  C   UNL A   1      31.057  26.580  24.132  1.00  0.00     0.149 A 
BRANCH   9  14
ATOM     14  C   UNL A   1      32.942  28.648  26.386  1.00  0.00     0.019 A 
ATOM     15  C   UNL A   1      34.611  32.261  28.032  1.00  0.00     0.044 C 
ATOM     16  C   UNL A   1      34.022  30.990  27.504  1.00  0.00    -0.051 A 
ATOM     17  C   UNL A   1      32.686  30.960  27.087  1.00  0.00     0.004 A 
ATOM     18  C   UNL A   1      34.794  29.828  27.417  1.00  0.00     0.004 A 
ATOM     19  C   UNL A   1      32.152  29.799  26.528  1.00  0.00     0.012 A 
ATOM     20  C   UNL A   1      34.253  28.664  26.874  1.00  0.00     0.012 A 
ENDBRANCH   9  14
BRANCH  13  21
ATOM     21  N   UNL A   1      30.263  26.915  23.000  1.00  0.00    -0.339 N 
ATOM     22  H   UNL A   1      30.237  26.255  22.269  1.00  0.00     0.168 HD
BRANCH  21  23
ATOM     23  C   UNL A   1      29.500  28.106  22.814  1.00  0.00     0.040 A 
ATOM     24  C   UNL A   1      30.029  29.182  22.084  1.00  0.00     0.026 A 
ATOM     25  C   UNL A   1      28.188  28.240  23.298  1.00  0.00     0.026 A 
ATOM     26  C   UNL A   1      29.301  30.367  21.887  1.00  0.00     0.002 A 
ATOM     27  C   UNL A   1      27.444  29.417  23.078  1.00  0.00     0.002 A 
ATOM     28  C   UNL A   1      28.005  30.485  22.382  1.00  0.00     0.000 A 
ENDBRANCH  21  23
ENDBRANCH  13  21
ENDBRANCH   6   8
ENDBRANCH   5   6
ENDBRANCH   4   5
ENDBRANCH   3   4
ENDBRANCH   2   3
ENDBRANCH   1   2
BRANCH   1  29
ATOM     29  C   UNL A   1      38.609  21.677  26.175  1.00  0.00     0.188 C 
BRANCH  29  30
ATOM     30  O   UNL A   1      39.865  21.335  25.622  1.00  0.00    -0.376 OA
BRANCH  30  31
ATOM     31  C   UNL A   1      40.695  20.516  26.422  1.00  0.00     0.202 C 
BRANCH  31  32
ATOM     32  C   UNL A   1      42.180  20.783  26.134  1.00  0.00     0.261 C 
BRANCH  32  33
ATOM     33  O   UNL A   1      42.333  22.011  25.375  1.00  0.00    -0.460 OA
BRANCH  33  34
ATOM     34  C   UNL A   1      42.991  23.058  25.976  1.00  0.00     0.338 C 
ATOM     35  O   UNL A   1      44.154  23.022  26.354  1.00  0.00    -0.246 OA
BRANCH  34  36
ATOM     36  C   UNL A   1      42.017  24.150  26.342  1.00  0.00     0.060 A 
ATOM     37  C   UNL A   1      41.999  25.453  25.818  1.00  0.00     0.016 A 
ATOM     38  C   UNL A   1      41.413  24.008  27.541  1.00  0.00     0.016 A 
ATOM     39  C   UNL A   1      41.555  26.606  26.611  1.00  0.00     0.010 A 
ATOM     40  C   UNL A   1      41.386  25.171  28.312  1.00  0.00     0.010 A 
ATOM     41  C   UNL A   1      41.302  26.545  27.989  1.00  0.00    -0.014 A 
BRANCH  41  42
ATOM     42  C   UNL A   1      41.207  27.855  29.057  1.00  0.00     0.031 A 
ATOM     43  C   UNL A   1      40.015  29.033  29.483  1.00  0.00     0.074 A 
ATOM     44  C   UNL A   1      42.361  28.143  29.709  1.00  0.00     0.049 A 
ATOM     45  N   UNL A   1      40.287  30.310  29.730  1.00  0.00    -0.248 NA
ATOM     46  C   UNL A   1      38.513  28.938  29.582  1.00  0.00     0.031 C 
ATOM     47  C   UNL A   1      42.558  29.091  30.804  1.00  0.00     0.029 A 
ATOM     48  N   UNL A   1      43.656  27.696  29.420  1.00  0.00    -0.354 N 
ATOM     49  C   UNL A   1      39.113  30.997  30.094  1.00  0.00     0.074 A 
ATOM     50  C   UNL A   1      38.038  30.111  29.935  1.00  0.00     0.031 C 
ATOM     51  C   UNL A   1      43.860  29.395  30.882  1.00  0.00     0.029 A 
ATOM     52  C   UNL A   1      44.537  28.720  29.795  1.00  0.00     0.049 A 
ATOM     53  H   UNL A   1      43.902  26.827  29.029  1.00  0.00     0.167 HD
ATOM     54  C   UNL A   1      39.023  32.245  30.627  1.00  0.00     0.037 A 
ATOM     55  C   UNL A   1      45.410  29.277  28.914  1.00  0.00     0.037 A 
ATOM     56  C   UNL A   1      40.327  32.779  30.845  1.00  0.00     0.049 A 
ATOM     57  C   UNL A   1      45.253  30.769  28.760  1.00  0.00     0.074 A 
ATOM     58  C   UNL A   1      41.186  32.673  31.921  1.00  0.00     0.029 A 
ATOM     59  N   UNL A   1      41.072  33.159  29.750  1.00  0.00    -0.354 N 
ATOM     60  N   UNL A   1      44.264  31.455  29.262  1.00  0.00    -0.248 NA
ATOM     61  C   UNL A   1      46.171  31.607  27.991  1.00  0.00     0.031 C 
ATOM     62  C   UNL A   1      42.489  32.931  31.446  1.00  0.00     0.029 A 
ATOM     63  C   UNL A   1      42.400  33.250  30.102  1.00  0.00     0.049 A 
ATOM     64  H   UNL A   1      40.710  33.339  28.853  1.00  0.00     0.167 HD
ATOM     65  C   UNL A   1      44.345  32.756  28.835  1.00  0.00     0.074 A 
ATOM     66  C   UNL A   1      45.578  32.811  28.079  1.00  0.00     0.031 C 
ATOM     67  C   UNL A   1      43.370  33.667  29.112  1.00  0.00     0.037 A 
BRANCH  54  68
ATOM     68  C   UNL A   1      37.726  32.735  31.251  1.00  0.00     0.057 A 
ATOM     69  C   UNL A   1      37.278  32.222  32.477  1.00  0.00     0.134 A 
ATOM     70  C   UNL A   1      36.812  33.594  30.605  1.00  0.00     0.134 A 
ATOM     71  F   UNL A   1      38.075  31.469  33.247  1.00  0.00    -0.206 F 
ATOM     72  C   UNL A   1      35.972  32.419  32.951  1.00  0.00     0.040 A 
ATOM     73  C   UNL A   1      35.483  33.755  31.036  1.00  0.00     0.040 A 
ATOM     74  F   UNL A   1      37.157  34.251  29.484  1.00  0.00    -0.206 F 
ATOM     75  C   UNL A   1      35.052  33.144  32.205  1.00  0.00     0.006 A 
ENDBRANCH  54  68
BRANCH  55  76
ATOM     76  C   UNL A   1      45.908  28.331  27.881  1.00  0.00     0.057 A 
ATOM     77  C   UNL A   1      46.719  27.259  28.300  1.00  0.00     0.134 A 
ATOM     78  C   UNL A   1      45.348  28.238  26.605  1.00  0.00     0.134 A 
ATOM     79  F   UNL A   1      47.289  27.281  29.517  1.00  0.00    -0.206 F 
ATOM     80  C   UNL A   1      46.878  26.101  27.536  1.00  0.00     0.040 A 
ATOM     81  C   UNL A   1      45.515  27.086  25.822  1.00  0.00     0.040 A 
ATOM     82  F   UNL A   1      44.521  29.191  26.155  1.00  0.00    -0.206 F 
ATOM     83  C   UNL A   1      46.248  26.000  26.301  1.00  0.00     0.006 A 
ENDBRANCH  55  76
BRANCH  67  84
ATOM     84  C   UNL A   1      43.213  35.045  28.520  1.00  0.00     0.057 A 
ATOM     85  C   UNL A   1      43.009  35.296  27.159  1.00  0.00     0.134 A 
ATOM     86  C   UNL A   1      43.073  36.170  29.368  1.00  0.00     0.134 A 
ATOM     87  F   UNL A   1      43.016  34.307  26.255  1.00  0.00    -0.206 F 
ATOM     88  C   UNL A   1      42.724  36.579  26.671  1.00  0.00     0.040 A 
ATOM     89  C   UNL A   1      42.730  37.439  28.901  1.00  0.00     0.040 A 
ATOM     90  F   UNL A   1      43.232  36.075  30.698  1.00  0.00    -0.206 F 
ATOM     91  C   UNL A   1      42.565  37.650  27.542  1.00  0.00     0.006 A 
ENDBRANCH  67  84
ENDBRANCH  41  42
ENDBRANCH  34  36
ENDBRANCH  33  34
ENDBRANCH  32  33
ENDBRANCH  31  32
ENDBRANCH  30  31
ENDBRANCH  29  30
ENDBRANCH   1  29
TORSDOF 20
ENDMDL
