MODEL 1
REMARK VINA RESULT:     -12.1      0.000      0.000
REMARK SMILES CC1(C)Cc2c(-c3ccccc3)c(-c3ccc(Cl)cc3)c(CC(=O)OCCOCCOCCOC(=O)c3ccc(-c4c5nc(c(-c6c(F)cccc6F)c6ccc([nH]6)c(-c6c(F)cccc6F)c6nc(c(-c7c(F)cccc7F)c7ccc4[nH]7)C=C6)C=C5)cc3)n2C1
REMARK SMILES IDX 29 1 28 2 27 3 26 4 25 5 23 6 24 7 22 8 21 9 1 10 2 11 3 12
REMARK SMILES IDX 4 13 92 14 5 15 91 16 6 17 13 18 7 19 8 20 12 21 9 22 11 23
REMARK SMILES IDX 10 24 14 25 15 26 20 27 16 28 19 29 17 30 18 31 30 32 31 33
REMARK SMILES IDX 32 34 33 35 34 36 35 37 36 38 37 39 38 40 90 41 39 42 89 43
REMARK SMILES IDX 40 44 41 45 42 46 83 47 43 48 88 49 82 50 84 51 44 52 87 53
REMARK SMILES IDX 81 54 80 55 45 57 71 58 54 59 70 60 55 61 58 62 69 63 85 64
REMARK SMILES IDX 56 65 57 66 68 68 86 69 59 70 46 71 47 72 52 73 48 74 49 75
REMARK SMILES IDX 51 76 53 77 50 78 72 79 73 80 78 81 74 82 75 83 77 84 79 85
REMARK SMILES IDX 76 86 60 87 61 88 66 89 62 90 63 91 65 92 67 93 64 94
REMARK H PARENT 84 56 58 67
REMARK Flexibility Score: inf
ROOT
ATOM      1  C   UNL A   1      39.383  21.547  25.918  1.00  0.00     0.188 C 
ENDROOT
BRANCH   1   2
ATOM      2  O   UNL A   1      38.068  22.069  25.896  1.00  0.00    -0.376 OA
BRANCH   2   3
ATOM      3  C   UNL A   1      37.392  21.879  24.667  1.00  0.00     0.202 C 
BRANCH   3   4
ATOM      4  C   UNL A   1      36.617  23.121  24.150  1.00  0.00     0.261 C 
BRANCH   4   5
ATOM      5  O   UNL A   1      36.066  24.020  25.188  1.00  0.00    -0.463 OA
BRANCH   5   6
ATOM      6  C   UNL A   1      34.758  24.380  25.181  1.00  0.00     0.311 C 
ATOM      7  O   UNL A   1      33.881  23.526  25.035  1.00  0.00    -0.252 OA
BRANCH   6   8
ATOM      8  C   UNL A   1      34.342  25.856  25.542  1.00  0.00     0.177 C 
BRANCH   8   9
ATOM      9  C   UNL A   1      33.201  26.715  24.929  1.00  0.00     0.037 A 
ATOM     10  C   UNL A   1      33.309  31.319  26.910  1.00  0.00     0.013 C 
ATOM     11  C   UNL A   1      32.613  29.971  26.690  1.00  0.00    -0.012 C 
ATOM     12  C   UNL A   1      31.667  29.694  27.871  1.00  0.00     0.013 C 
ATOM     13  C   UNL A   1      31.805  30.017  25.367  1.00  0.00     0.063 C 
ATOM     14  C   UNL A   1      33.622  28.786  26.507  1.00  0.00     0.129 C 
ATOM     15  C   UNL A   1      32.074  28.691  24.780  1.00  0.00     0.027 A 
ATOM     16  N   UNL A   1      33.036  27.994  25.425  1.00  0.00    -0.346 N 
ATOM     17  C   UNL A   1      31.563  27.936  23.772  1.00  0.00     0.011 A 
ATOM     18  C   UNL A   1      32.309  26.656  23.764  1.00  0.00     0.011 A 
BRANCH  17  19
ATOM     19  C   UNL A   1      30.367  28.426  23.097  1.00  0.00    -0.016 A 
ATOM     20  C   UNL A   1      29.096  27.929  23.395  1.00  0.00     0.009 A 
ATOM     21  C   UNL A   1      30.492  29.456  22.150  1.00  0.00     0.009 A 
ATOM     22  C   UNL A   1      27.964  28.543  22.845  1.00  0.00     0.001 A 
ATOM     23  C   UNL A   1      29.366  30.106  21.652  1.00  0.00     0.001 A 
ATOM     24  C   UNL A   1      28.099  29.657  22.010  1.00  0.00     0.000 A 
ENDBRANCH  17  19
BRANCH  18  25
ATOM     25  C   UNL A   1      31.889  25.465  22.822  1.00  0.00    -0.016 A 
ATOM     26  C   UNL A   1      30.543  24.380  23.459  1.00  0.00     0.010 A 
ATOM     27  C   UNL A   1      33.180  24.702  21.824  1.00  0.00     0.010 A 
ATOM     28  C   UNL A   1      30.600  22.560  23.223  1.00  0.00     0.021 A 
ATOM     29  C   UNL A   1      33.267  22.897  21.558  1.00  0.00     0.021 A 
ATOM     30  C   UNL A   1      31.955  21.811  22.271  1.00  0.00     0.041 A 
ATOM     31  Cl  UNL A   1      32.155  20.100  22.189  1.00  0.00    -0.084 Cl
ENDBRANCH  18  25
ENDBRANCH   8   9
ENDBRANCH   6   8
ENDBRANCH   5   6
ENDBRANCH   4   5
ENDBRANCH   3   4
ENDBRANCH   2   3
ENDBRANCH   1   2
BRANCH   1  32
ATOM     32  C   UNL A   1      40.180  21.635  27.237  1.00  0.00     0.188 C 
BRANCH  32  33
ATOM     33  O   UNL A   1      40.756  20.383  27.541  1.00  0.00    -0.376 OA
BRANCH  33  34
ATOM     34  C   UNL A   1      40.859  19.504  26.446  1.00  0.00     0.202 C 
BRANCH  34  35
ATOM     35  C   UNL A   1      42.260  18.936  26.276  1.00  0.00     0.261 C 
BRANCH  35  36
ATOM     36  O   UNL A   1      42.839  19.135  24.965  1.00  0.00    -0.460 OA
BRANCH  36  37
ATOM     37  C   UNL A   1      44.308  19.472  24.825  1.00  0.00     0.338 C 
ATOM     38  O   UNL A   1      44.771  18.394  25.290  1.00  0.00    -0.246 OA
BRANCH  37  39
ATOM     39  C   UNL A   1      45.147  21.357  24.242  1.00  0.00     0.060 A 
ATOM     40  C   UNL A   1      46.346  22.088  24.687  1.00  0.00     0.016 A 
ATOM     41  C   UNL A   1      44.549  22.519  23.600  1.00  0.00     0.016 A 
ATOM     42  C   UNL A   1      46.222  23.257  25.477  1.00  0.00     0.010 A 
ATOM     43  C   UNL A   1      44.204  23.579  24.426  1.00  0.00     0.010 A 
ATOM     44  C   UNL A   1      44.966  23.818  25.551  1.00  0.00    -0.014 A 
BRANCH  44  45
ATOM     45  C   UNL A   1      44.547  24.890  26.448  1.00  0.00     0.031 A 
ATOM     46  C   UNL A   1      45.587  25.941  26.429  1.00  0.00     0.074 A 
ATOM     47  C   UNL A   1      43.339  25.124  27.015  1.00  0.00     0.049 A 
ATOM     48  N   UNL A   1      46.669  25.938  27.138  1.00  0.00    -0.248 NA
ATOM     49  C   UNL A   1      45.642  26.837  25.255  1.00  0.00     0.031 C 
ATOM     50  C   UNL A   1      42.062  24.422  26.898  1.00  0.00     0.029 A 
ATOM     51  N   UNL A   1      43.010  26.163  27.845  1.00  0.00    -0.354 N 
ATOM     52  C   UNL A   1      47.397  26.998  26.626  1.00  0.00     0.074 A 
ATOM     53  C   UNL A   1      46.935  27.166  25.282  1.00  0.00     0.031 C 
ATOM     54  C   UNL A   1      41.067  25.154  27.464  1.00  0.00     0.029 A 
ATOM     55  C   UNL A   1      41.649  26.310  28.119  1.00  0.00     0.049 A 
ATOM     56  H   UNL A   1      43.690  26.766  28.223  1.00  0.00     0.167 HD
ATOM     57  C   UNL A   1      47.958  27.925  27.448  1.00  0.00     0.037 A 
ATOM     58  C   UNL A   1      41.075  27.322  28.827  1.00  0.00     0.037 A 
ATOM     59  C   UNL A   1      47.973  27.441  28.813  1.00  0.00     0.049 A 
ATOM     60  C   UNL A   1      42.159  27.961  29.618  1.00  0.00     0.074 A 
ATOM     61  C   UNL A   1      48.470  26.309  29.431  1.00  0.00     0.029 A 
ATOM     62  N   UNL A   1      47.014  27.942  29.665  1.00  0.00    -0.354 N 
ATOM     63  N   UNL A   1      42.775  27.373  30.605  1.00  0.00    -0.248 NA
ATOM     64  C   UNL A   1      42.883  29.060  28.997  1.00  0.00     0.031 C 
ATOM     65  C   UNL A   1      47.473  25.932  30.380  1.00  0.00     0.029 A 
ATOM     66  C   UNL A   1      46.465  26.896  30.365  1.00  0.00     0.049 A 
ATOM     67  H   UNL A   1      46.766  28.890  29.758  1.00  0.00     0.167 HD
ATOM     68  C   UNL A   1      44.109  27.715  30.442  1.00  0.00     0.074 A 
ATOM     69  C   UNL A   1      44.103  28.822  29.486  1.00  0.00     0.031 C 
ATOM     70  C   UNL A   1      45.102  26.873  30.854  1.00  0.00     0.037 A 
BRANCH  57  71
ATOM     71  C   UNL A   1      48.086  29.391  27.093  1.00  0.00     0.057 A 
ATOM     72  C   UNL A   1      49.353  29.985  27.198  1.00  0.00     0.134 A 
ATOM     73  C   UNL A   1      47.025  30.305  26.880  1.00  0.00     0.134 A 
ATOM     74  F   UNL A   1      50.447  29.236  27.397  1.00  0.00    -0.206 F 
ATOM     75  C   UNL A   1      49.536  31.373  27.175  1.00  0.00     0.040 A 
ATOM     76  C   UNL A   1      47.205  31.686  26.804  1.00  0.00     0.040 A 
ATOM     77  F   UNL A   1      45.739  29.952  26.818  1.00  0.00    -0.206 F 
ATOM     78  C   UNL A   1      48.460  32.229  26.986  1.00  0.00     0.006 A 
ENDBRANCH  57  71
BRANCH  58  79
ATOM     79  C   UNL A   1      39.742  27.967  28.702  1.00  0.00     0.057 A 
ATOM     80  C   UNL A   1      38.830  27.992  29.772  1.00  0.00     0.134 A 
ATOM     81  C   UNL A   1      39.454  28.838  27.639  1.00  0.00     0.134 A 
ATOM     82  F   UNL A   1      39.033  27.230  30.858  1.00  0.00    -0.206 F 
ATOM     83  C   UNL A   1      37.719  28.851  29.797  1.00  0.00     0.040 A 
ATOM     84  C   UNL A   1      38.349  29.701  27.650  1.00  0.00     0.040 A 
ATOM     85  F   UNL A   1      40.289  28.949  26.597  1.00  0.00    -0.206 F 
ATOM     86  C   UNL A   1      37.484  29.720  28.738  1.00  0.00     0.006 A 
ENDBRANCH  58  79
BRANCH  70  87
ATOM     87  C   UNL A   1      44.707  25.695  31.715  1.00  0.00     0.057 A 
ATOM     88  C   UNL A   1      44.441  24.406  31.225  1.00  0.00     0.134 A 
ATOM     89  C   UNL A   1      44.744  25.839  33.105  1.00  0.00     0.134 A 
ATOM     90  F   UNL A   1      44.470  24.140  29.915  1.00  0.00    -0.206 F 
ATOM     91  C   UNL A   1      44.192  23.323  32.077  1.00  0.00     0.040 A 
ATOM     92  C   UNL A   1      44.531  24.760  33.967  1.00  0.00     0.040 A 
ATOM     93  F   UNL A   1      45.040  27.028  33.652  1.00  0.00    -0.206 F 
ATOM     94  C   UNL A   1      44.245  23.498  33.455  1.00  0.00     0.006 A 
ENDBRANCH  70  87
ENDBRANCH  44  45
ENDBRANCH  37  39
ENDBRANCH  36  37
ENDBRANCH  35  36
ENDBRANCH  34  35
ENDBRANCH  33  34
ENDBRANCH  32  33
ENDBRANCH   1  32
TORSDOF 20
ENDMDL
MODEL 2
REMARK VINA RESULT:     -11.8      1.662      3.271
REMARK SMILES CC1(C)Cc2c(-c3ccccc3)c(-c3ccc(Cl)cc3)c(CC(=O)OCCOCCOCCOC(=O)c3ccc(-c4c5nc(c(-c6c(F)cccc6F)c6ccc([nH]6)c(-c6c(F)cccc6F)c6nc(c(-c7c(F)cccc7F)c7ccc4[nH]7)C=C6)C=C5)cc3)n2C1
REMARK SMILES IDX 29 1 28 2 27 3 26 4 25 5 23 6 24 7 22 8 21 9 1 10 2 11 3 12
REMARK SMILES IDX 4 13 92 14 5 15 91 16 6 17 13 18 7 19 8 20 12 21 9 22 11 23
REMARK SMILES IDX 10 24 14 25 15 26 20 27 16 28 19 29 17 30 18 31 30 32 31 33
REMARK SMILES IDX 32 34 33 35 34 36 35 37 36 38 37 39 38 40 90 41 39 42 89 43
REMARK SMILES IDX 40 44 41 45 42 46 83 47 43 48 88 49 82 50 84 51 44 52 87 53
REMARK SMILES IDX 81 54 80 55 45 57 71 58 54 59 70 60 55 61 58 62 69 63 85 64
REMARK SMILES IDX 56 65 57 66 68 68 86 69 59 70 46 71 47 72 52 73 48 74 49 75
REMARK SMILES IDX 51 76 53 77 50 78 72 79 73 80 78 81 74 82 75 83 77 84 79 85
REMARK SMILES IDX 76 86 60 87 61 88 66 89 62 90 63 91 65 92 67 93 64 94
REMARK H PARENT 84 56 58 67
REMARK Flexibility Score: inf
ROOT
ATOM      1  C   UNL A   1      40.360  21.483  26.370  1.00  0.00     0.188 C 
ENDROOT
BRANCH   1   2
ATOM      2  O   UNL A   1      38.960  21.287  26.304  1.00  0.00    -0.376 OA
BRANCH   2   3
ATOM      3  C   UNL A   1      38.545  20.432  25.257  1.00  0.00     0.202 C 
BRANCH   3   4
ATOM      4  C   UNL A   1      37.191  20.813  24.600  1.00  0.00     0.261 C 
BRANCH   4   5
ATOM      5  O   UNL A   1      36.727  22.199  24.831  1.00  0.00    -0.463 OA
BRANCH   5   6
ATOM      6  C   UNL A   1      35.761  22.472  25.744  1.00  0.00     0.311 C 
ATOM      7  O   UNL A   1      35.442  21.625  26.581  1.00  0.00    -0.252 OA
BRANCH   6   8
ATOM      8  C   UNL A   1      35.171  23.929  25.860  1.00  0.00     0.177 C 
BRANCH   8   9
ATOM      9  C   UNL A   1      33.893  24.509  25.192  1.00  0.00     0.037 A 
ATOM     10  C   UNL A   1      31.811  21.031  22.243  1.00  0.00     0.013 C 
ATOM     11  C   UNL A   1      32.503  22.384  22.434  1.00  0.00    -0.012 C 
ATOM     12  C   UNL A   1      33.253  22.754  21.143  1.00  0.00     0.013 C 
ATOM     13  C   UNL A   1      31.440  23.467  22.755  1.00  0.00     0.063 C 
ATOM     14  C   UNL A   1      33.481  22.401  23.659  1.00  0.00     0.129 C 
ATOM     15  C   UNL A   1      32.096  24.259  23.812  1.00  0.00     0.027 A 
ATOM     16  N   UNL A   1      33.236  23.705  24.280  1.00  0.00    -0.346 N 
ATOM     17  C   UNL A   1      31.889  25.456  24.419  1.00  0.00     0.011 A 
ATOM     18  C   UNL A   1      32.990  25.648  25.393  1.00  0.00     0.011 A 
BRANCH  17  19
ATOM     19  C   UNL A   1      30.829  26.309  23.895  1.00  0.00    -0.016 A 
ATOM     20  C   UNL A   1      29.492  26.132  24.258  1.00  0.00     0.009 A 
ATOM     21  C   UNL A   1      31.168  27.365  23.032  1.00  0.00     0.009 A 
ATOM     22  C   UNL A   1      28.535  27.075  23.862  1.00  0.00     0.001 A 
ATOM     23  C   UNL A   1      30.229  28.335  22.690  1.00  0.00     0.001 A 
ATOM     24  C   UNL A   1      28.912  28.197  23.117  1.00  0.00     0.000 A 
ENDBRANCH  17  19
BRANCH  18  25
ATOM     25  C   UNL A   1      33.165  27.001  26.181  1.00  0.00    -0.016 A 
ATOM     26  C   UNL A   1      31.840  27.392  27.400  1.00  0.00     0.010 A 
ATOM     27  C   UNL A   1      33.933  28.376  25.307  1.00  0.00     0.010 A 
ATOM     28  C   UNL A   1      31.212  29.106  27.601  1.00  0.00     0.021 A 
ATOM     29  C   UNL A   1      33.344  30.095  25.486  1.00  0.00     0.021 A 
ATOM     30  C   UNL A   1      31.959  30.463  26.652  1.00  0.00     0.041 A 
ATOM     31  Cl  UNL A   1      31.277  32.047  26.660  1.00  0.00    -0.084 Cl
ENDBRANCH  18  25
ENDBRANCH   8   9
ENDBRANCH   6   8
ENDBRANCH   5   6
ENDBRANCH   4   5
ENDBRANCH   3   4
ENDBRANCH   2   3
ENDBRANCH   1   2
BRANCH   1  32
ATOM     32  C   UNL A   1      41.099  21.038  27.650  1.00  0.00     0.188 C 
BRANCH  32  33
ATOM     33  O   UNL A   1      41.556  19.709  27.510  1.00  0.00    -0.376 OA
BRANCH  33  34
ATOM     34  C   UNL A   1      41.914  19.348  26.197  1.00  0.00     0.202 C 
BRANCH  34  35
ATOM     35  C   UNL A   1      43.149  18.462  26.145  1.00  0.00     0.261 C 
BRANCH  35  36
ATOM     36  O   UNL A   1      43.961  18.623  24.959  1.00  0.00    -0.460 OA
BRANCH  36  37
ATOM     37  C   UNL A   1      45.207  19.481  25.000  1.00  0.00     0.338 C 
ATOM     38  O   UNL A   1      45.886  18.751  25.772  1.00  0.00    -0.246 OA
BRANCH  37  39
ATOM     39  C   UNL A   1      45.452  21.435  24.153  1.00  0.00     0.060 A 
ATOM     40  C   UNL A   1      46.530  22.434  24.261  1.00  0.00     0.016 A 
ATOM     41  C   UNL A   1      44.481  22.386  23.629  1.00  0.00     0.016 A 
ATOM     42  C   UNL A   1      46.335  23.622  25.009  1.00  0.00     0.010 A 
ATOM     43  C   UNL A   1      44.109  23.425  24.469  1.00  0.00     0.010 A 
ATOM     44  C   UNL A   1      45.037  23.919  25.364  1.00  0.00    -0.014 A 
BRANCH  44  45
ATOM     45  C   UNL A   1      44.609  24.961  26.291  1.00  0.00     0.031 A 
ATOM     46  C   UNL A   1      45.637  26.024  26.297  1.00  0.00     0.074 A 
ATOM     47  C   UNL A   1      43.401  25.164  26.869  1.00  0.00     0.049 A 
ATOM     48  N   UNL A   1      46.721  26.015  27.001  1.00  0.00    -0.248 NA
ATOM     49  C   UNL A   1      45.676  26.953  25.147  1.00  0.00     0.031 C 
ATOM     50  C   UNL A   1      42.131  24.451  26.737  1.00  0.00     0.029 A 
ATOM     51  N   UNL A   1      43.062  26.177  27.728  1.00  0.00    -0.354 N 
ATOM     52  C   UNL A   1      47.434  27.097  26.516  1.00  0.00     0.074 A 
ATOM     53  C   UNL A   1      46.965  27.296  25.179  1.00  0.00     0.031 C 
ATOM     54  C   UNL A   1      41.130  25.155  27.326  1.00  0.00     0.029 A 
ATOM     55  C   UNL A   1      41.701  26.300  28.010  1.00  0.00     0.049 A 
ATOM     56  H   UNL A   1      43.737  26.778  28.119  1.00  0.00     0.167 HD
ATOM     57  C   UNL A   1      47.988  28.008  27.361  1.00  0.00     0.037 A 
ATOM     58  C   UNL A   1      41.118  27.286  28.747  1.00  0.00     0.037 A 
ATOM     59  C   UNL A   1      48.014  27.488  28.711  1.00  0.00     0.049 A 
ATOM     60  C   UNL A   1      42.198  27.916  29.551  1.00  0.00     0.074 A 
ATOM     61  C   UNL A   1      48.526  26.345  29.298  1.00  0.00     0.029 A 
ATOM     62  N   UNL A   1      47.053  27.954  29.581  1.00  0.00    -0.354 N 
ATOM     63  N   UNL A   1      42.824  27.309  30.520  1.00  0.00    -0.248 NA
ATOM     64  C   UNL A   1      42.906  29.040  28.958  1.00  0.00     0.031 C 
ATOM     65  C   UNL A   1      47.538  25.931  30.239  1.00  0.00     0.029 A 
ATOM     66  C   UNL A   1      46.518  26.883  30.254  1.00  0.00     0.049 A 
ATOM     67  H   UNL A   1      46.793  28.896  29.700  1.00  0.00     0.167 HD
ATOM     68  C   UNL A   1      44.154  27.671  30.362  1.00  0.00     0.074 A 
ATOM     69  C   UNL A   1      44.130  28.803  29.436  1.00  0.00     0.031 C 
ATOM     70  C   UNL A   1      45.158  26.831  30.747  1.00  0.00     0.037 A 
BRANCH  57  71
ATOM     71  C   UNL A   1      48.097  29.485  27.045  1.00  0.00     0.057 A 
ATOM     72  C   UNL A   1      49.356  30.092  27.165  1.00  0.00     0.134 A 
ATOM     73  C   UNL A   1      47.024  30.391  26.857  1.00  0.00     0.134 A 
ATOM     74  F   UNL A   1      50.460  29.351  27.343  1.00  0.00    -0.206 F 
ATOM     75  C   UNL A   1      49.522  31.482  27.179  1.00  0.00     0.040 A 
ATOM     76  C   UNL A   1      47.187  31.775  26.818  1.00  0.00     0.040 A 
ATOM     77  F   UNL A   1      45.743  30.023  26.787  1.00  0.00    -0.206 F 
ATOM     78  C   UNL A   1      48.435  32.329  27.014  1.00  0.00     0.006 A 
ENDBRANCH  57  71
BRANCH  58  79
ATOM     79  C   UNL A   1      39.777  27.918  28.645  1.00  0.00     0.057 A 
ATOM     80  C   UNL A   1      38.876  27.919  29.724  1.00  0.00     0.134 A 
ATOM     81  C   UNL A   1      39.468  28.799  27.596  1.00  0.00     0.134 A 
ATOM     82  F   UNL A   1      39.098  27.145  30.798  1.00  0.00    -0.206 F 
ATOM     83  C   UNL A   1      37.757  28.766  29.773  1.00  0.00     0.040 A 
ATOM     84  C   UNL A   1      38.354  29.650  27.630  1.00  0.00     0.040 A 
ATOM     85  F   UNL A   1      40.291  28.932  26.547  1.00  0.00    -0.206 F 
ATOM     86  C   UNL A   1      37.501  29.646  28.727  1.00  0.00     0.006 A 
ENDBRANCH  58  79
BRANCH  70  87
ATOM     87  C   UNL A   1      44.781  25.625  31.577  1.00  0.00     0.057 A 
ATOM     88  C   UNL A   1      44.353  24.397  31.047  1.00  0.00     0.134 A 
ATOM     89  C   UNL A   1      45.002  25.666  32.957  1.00  0.00     0.134 A 
ATOM     90  F   UNL A   1      44.197  24.224  29.730  1.00  0.00    -0.206 F 
ATOM     91  C   UNL A   1      44.126  23.276  31.855  1.00  0.00     0.040 A 
ATOM     92  C   UNL A   1      44.812  24.546  33.771  1.00  0.00     0.040 A 
ATOM     93  F   UNL A   1      45.458  26.788  33.534  1.00  0.00    -0.206 F 
ATOM     94  C   UNL A   1      44.365  23.347  33.223  1.00  0.00     0.006 A 
ENDBRANCH  70  87
ENDBRANCH  44  45
ENDBRANCH  37  39
ENDBRANCH  36  37
ENDBRANCH  35  36
ENDBRANCH  34  35
ENDBRANCH  33  34
ENDBRANCH  32  33
ENDBRANCH   1  32
TORSDOF 20
ENDMDL
MODEL 3
REMARK VINA RESULT:     -11.1      3.147      5.348
REMARK SMILES CC1(C)Cc2c(-c3ccccc3)c(-c3ccc(Cl)cc3)c(CC(=O)OCCOCCOCCOC(=O)c3ccc(-c4c5nc(c(-c6c(F)cccc6F)c6ccc([nH]6)c(-c6c(F)cccc6F)c6nc(c(-c7c(F)cccc7F)c7ccc4[nH]7)C=C6)C=C5)cc3)n2C1
REMARK SMILES IDX 29 1 28 2 27 3 26 4 25 5 23 6 24 7 22 8 21 9 1 10 2 11 3 12
REMARK SMILES IDX 4 13 92 14 5 15 91 16 6 17 13 18 7 19 8 20 12 21 9 22 11 23
REMARK SMILES IDX 10 24 14 25 15 26 20 27 16 28 19 29 17 30 18 31 30 32 31 33
REMARK SMILES IDX 32 34 33 35 34 36 35 37 36 38 37 39 38 40 90 41 39 42 89 43
REMARK SMILES IDX 40 44 41 45 42 46 83 47 43 48 88 49 82 50 84 51 44 52 87 53
REMARK SMILES IDX 81 54 80 55 45 57 71 58 54 59 70 60 55 61 58 62 69 63 85 64
REMARK SMILES IDX 56 65 57 66 68 68 86 69 59 70 46 71 47 72 52 73 48 74 49 75
REMARK SMILES IDX 51 76 53 77 50 78 72 79 73 80 78 81 74 82 75 83 77 84 79 85
REMARK SMILES IDX 76 86 60 87 61 88 66 89 62 90 63 91 65 92 67 93 64 94
REMARK H PARENT 84 56 58 67
REMARK Flexibility Score: inf
ROOT
ATOM      1  C   UNL A   1      42.076  19.132  26.101  1.00  0.00     0.188 C 
ENDROOT
BRANCH   1   2
ATOM      2  O   UNL A   1      40.887  19.712  25.599  1.00  0.00    -0.376 OA
BRANCH   2   3
ATOM      3  C   UNL A   1      40.124  20.398  26.573  1.00  0.00     0.202 C 
BRANCH   3   4
ATOM      4  C   UNL A   1      39.577  21.779  26.119  1.00  0.00     0.261 C 
BRANCH   4   5
ATOM      5  O   UNL A   1      38.160  21.806  25.692  1.00  0.00    -0.463 OA
BRANCH   5   6
ATOM      6  C   UNL A   1      37.457  22.966  25.668  1.00  0.00     0.311 C 
ATOM      7  O   UNL A   1      37.732  23.873  26.457  1.00  0.00    -0.252 OA
BRANCH   6   8
ATOM      8  C   UNL A   1      36.413  23.235  24.520  1.00  0.00     0.177 C 
BRANCH   8   9
ATOM      9  C   UNL A   1      34.883  23.482  24.644  1.00  0.00     0.037 A 
ATOM     10  C   UNL A   1      32.510  19.099  25.180  1.00  0.00     0.013 C 
ATOM     11  C   UNL A   1      32.801  20.376  24.384  1.00  0.00    -0.012 C 
ATOM     12  C   UNL A   1      32.558  20.106  22.890  1.00  0.00     0.013 C 
ATOM     13  C   UNL A   1      31.865  21.512  24.873  1.00  0.00     0.063 C 
ATOM     14  C   UNL A   1      34.252  20.920  24.614  1.00  0.00     0.129 C 
ATOM     15  C   UNL A   1      32.765  22.680  24.904  1.00  0.00     0.027 A 
ATOM     16  N   UNL A   1      34.068  22.369  24.719  1.00  0.00    -0.346 N 
ATOM     17  C   UNL A   1      32.631  24.027  25.015  1.00  0.00     0.011 A 
ATOM     18  C   UNL A   1      33.990  24.611  24.930  1.00  0.00     0.011 A 
BRANCH  17  19
ATOM     19  C   UNL A   1      31.280  24.577  25.001  1.00  0.00    -0.016 A 
ATOM     20  C   UNL A   1      30.576  24.833  26.181  1.00  0.00     0.009 A 
ATOM     21  C   UNL A   1      30.687  24.898  23.769  1.00  0.00     0.009 A 
ATOM     22  C   UNL A   1      29.354  25.514  26.126  1.00  0.00     0.001 A 
ATOM     23  C   UNL A   1      29.502  25.629  23.718  1.00  0.00     0.001 A 
ATOM     24  C   UNL A   1      28.841  25.949  24.899  1.00  0.00     0.000 A 
ENDBRANCH  17  19
BRANCH  18  25
ATOM     25  C   UNL A   1      34.214  26.170  24.869  1.00  0.00    -0.016 A 
ATOM     26  C   UNL A   1      34.389  27.014  26.498  1.00  0.00     0.010 A 
ATOM     27  C   UNL A   1      33.405  27.073  23.538  1.00  0.00     0.010 A 
ATOM     28  C   UNL A   1      33.622  28.655  26.801  1.00  0.00     0.021 A 
ATOM     29  C   UNL A   1      32.639  28.710  23.797  1.00  0.00     0.021 A 
ATOM     30  C   UNL A   1      32.749  29.511  25.457  1.00  0.00     0.041 A 
ATOM     31  Cl  UNL A   1      31.851  30.955  25.746  1.00  0.00    -0.084 Cl
ENDBRANCH  18  25
ENDBRANCH   8   9
ENDBRANCH   6   8
ENDBRANCH   5   6
ENDBRANCH   4   5
ENDBRANCH   3   4
ENDBRANCH   2   3
ENDBRANCH   1   2
BRANCH   1  32
ATOM     32  C   UNL A   1      43.410  19.492  25.413  1.00  0.00     0.188 C 
BRANCH  32  33
ATOM     33  O   UNL A   1      43.406  20.850  25.027  1.00  0.00    -0.376 OA
BRANCH  33  34
ATOM     34  C   UNL A   1      44.504  21.596  25.499  1.00  0.00     0.202 C 
BRANCH  34  35
ATOM     35  C   UNL A   1      45.233  22.338  24.389  1.00  0.00     0.261 C 
BRANCH  35  36
ATOM     36  O   UNL A   1      44.623  23.588  23.995  1.00  0.00    -0.460 OA
BRANCH  36  37
ATOM     37  C   UNL A   1      44.222  24.605  25.042  1.00  0.00     0.338 C 
ATOM     38  O   UNL A   1      45.269  25.306  25.002  1.00  0.00    -0.246 OA
BRANCH  37  39
ATOM     39  C   UNL A   1      42.481  24.547  26.291  1.00  0.00     0.060 A 
ATOM     40  C   UNL A   1      41.094  24.997  26.080  1.00  0.00     0.016 A 
ATOM     41  C   UNL A   1      42.336  24.439  27.736  1.00  0.00     0.016 A 
ATOM     42  C   UNL A   1      40.599  26.140  26.756  1.00  0.00     0.010 A 
ATOM     43  C   UNL A   1      42.087  25.616  28.428  1.00  0.00     0.010 A 
ATOM     44  C   UNL A   1      41.358  26.609  27.806  1.00  0.00    -0.014 A 
BRANCH  44  45
ATOM     45  C   UNL A   1      41.169  27.869  28.517  1.00  0.00     0.031 A 
ATOM     46  C   UNL A   1      42.269  28.782  28.139  1.00  0.00     0.074 A 
ATOM     47  C   UNL A   1      40.088  28.331  29.190  1.00  0.00     0.049 A 
ATOM     48  N   UNL A   1      43.447  28.799  28.675  1.00  0.00    -0.248 NA
ATOM     49  C   UNL A   1      42.204  29.430  26.813  1.00  0.00     0.031 C 
ATOM     50  C   UNL A   1      38.759  27.758  29.398  1.00  0.00     0.029 A 
ATOM     51  N   UNL A   1      39.973  29.537  29.830  1.00  0.00    -0.354 N 
ATOM     52  C   UNL A   1      44.162  29.661  27.861  1.00  0.00     0.074 A 
ATOM     53  C   UNL A   1      43.506  29.621  26.590  1.00  0.00     0.031 C 
ATOM     54  C   UNL A   1      37.924  28.684  29.939  1.00  0.00     0.029 A 
ATOM     55  C   UNL A   1      38.689  29.875  30.257  1.00  0.00     0.049 A 
ATOM     56  H   UNL A   1      40.749  30.126  29.979  1.00  0.00     0.167 HD
ATOM     57  C   UNL A   1      44.915  30.662  28.392  1.00  0.00     0.037 A 
ATOM     58  C   UNL A   1      38.313  31.057  30.819  1.00  0.00     0.037 A 
ATOM     59  C   UNL A   1      45.110  30.445  29.810  1.00  0.00     0.049 A 
ATOM     60  C   UNL A   1      39.554  31.716  31.304  1.00  0.00     0.074 A 
ATOM     61  C   UNL A   1      45.611  29.404  30.568  1.00  0.00     0.029 A 
ATOM     62  N   UNL A   1      44.339  31.196  30.670  1.00  0.00    -0.354 N 
ATOM     63  N   UNL A   1      40.273  31.263  32.293  1.00  0.00    -0.248 NA
ATOM     64  C   UNL A   1      40.250  32.596  30.378  1.00  0.00     0.031 C 
ATOM     65  C   UNL A   1      44.753  29.320  31.704  1.00  0.00     0.029 A 
ATOM     66  C   UNL A   1      43.830  30.364  31.637  1.00  0.00     0.049 A 
ATOM     67  H   UNL A   1      44.180  32.165  30.603  1.00  0.00     0.167 HD
ATOM     68  C   UNL A   1      41.586  31.426  31.878  1.00  0.00     0.074 A 
ATOM     69  C   UNL A   1      41.511  32.327  30.728  1.00  0.00     0.031 C 
ATOM     70  C   UNL A   1      42.565  30.578  32.308  1.00  0.00     0.037 A 
BRANCH  57  71
ATOM     71  C   UNL A   1      45.095  32.013  27.733  1.00  0.00     0.057 A 
ATOM     72  C   UNL A   1      46.354  32.321  27.197  1.00  0.00     0.134 A 
ATOM     73  C   UNL A   1      44.198  33.109  27.791  1.00  0.00     0.134 A 
ATOM     74  F   UNL A   1      47.299  31.377  27.080  1.00  0.00    -0.206 F 
ATOM     75  C   UNL A   1      46.716  33.623  26.828  1.00  0.00     0.040 A 
ATOM     76  C   UNL A   1      44.533  34.397  27.377  1.00  0.00     0.040 A 
ATOM     77  F   UNL A   1      42.977  33.043  28.327  1.00  0.00    -0.206 F 
ATOM     78  C   UNL A   1      45.808  34.668  26.925  1.00  0.00     0.006 A 
ENDBRANCH  57  71
BRANCH  58  79
ATOM     79  C   UNL A   1      37.029  31.803  30.756  1.00  0.00     0.057 A 
ATOM     80  C   UNL A   1      36.137  31.833  31.843  1.00  0.00     0.134 A 
ATOM     81  C   UNL A   1      36.790  32.752  29.749  1.00  0.00     0.134 A 
ATOM     82  F   UNL A   1      36.298  30.997  32.880  1.00  0.00    -0.206 F 
ATOM     83  C   UNL A   1      35.093  32.768  31.937  1.00  0.00     0.040 A 
ATOM     84  C   UNL A   1      35.752  33.692  29.830  1.00  0.00     0.040 A 
ATOM     85  F   UNL A   1      37.617  32.862  28.700  1.00  0.00    -0.206 F 
ATOM     86  C   UNL A   1      34.907  33.711  30.933  1.00  0.00     0.006 A 
ENDBRANCH  58  79
BRANCH  70  87
ATOM     87  C   UNL A   1      42.225  29.631  33.436  1.00  0.00     0.057 A 
ATOM     88  C   UNL A   1      41.727  28.330  33.260  1.00  0.00     0.134 A 
ATOM     89  C   UNL A   1      42.554  30.001  34.743  1.00  0.00     0.134 A 
ATOM     90  F   UNL A   1      41.464  27.845  32.041  1.00  0.00    -0.206 F 
ATOM     91  C   UNL A   1      41.536  27.453  34.335  1.00  0.00     0.040 A 
ATOM     92  C   UNL A   1      42.401  29.126  35.822  1.00  0.00     0.040 A 
ATOM     93  F   UNL A   1      43.081  31.211  34.989  1.00  0.00    -0.206 F 
ATOM     94  C   UNL A   1      41.883  27.849  35.622  1.00  0.00     0.006 A 
ENDBRANCH  70  87
ENDBRANCH  44  45
ENDBRANCH  37  39
ENDBRANCH  36  37
ENDBRANCH  35  36
ENDBRANCH  34  35
ENDBRANCH  33  34
ENDBRANCH  32  33
ENDBRANCH   1  32
TORSDOF 20
ENDMDL
