MODEL 1
REMARK VINA RESULT:     -10.8      0.000      0.000
REMARK SMILES CC[C@](C)(NC(=O)c1nc2nccc(C)n2n1)C(=O)OCCOCCOCCOC(=O)c1ccc(-c2c3nc(c(-c4c(F)cccc4F)c4ccc([nH]4)c(-c4c(F)cccc4F)c4nc(c(-c5c(F)cccc5F)c5ccc2[nH]5)C=C4)C=C3)cc1
REMARK SMILES IDX 24 1 23 2 22 3 21 4 20 5 18 6 19 7 3 8 4 9 2 10 1 11 5 12
REMARK SMILES IDX 6 13 7 15 8 16 9 17 17 18 10 19 16 20 11 21 14 22 12 23
REMARK SMILES IDX 13 24 15 25 25 26 26 27 27 28 28 29 29 30 30 31 31 32 32 33
REMARK SMILES IDX 33 34 85 35 34 36 84 37 35 38 36 39 37 40 78 41 38 42 83 43
REMARK SMILES IDX 77 44 79 45 39 46 82 47 76 48 75 49 40 51 66 52 49 53 65 54
REMARK SMILES IDX 50 55 53 56 64 57 80 58 51 59 52 60 63 62 81 63 54 64 41 65
REMARK SMILES IDX 42 66 47 67 43 68 44 69 46 70 48 71 45 72 67 73 68 74 73 75
REMARK SMILES IDX 69 76 70 77 72 78 74 79 71 80 55 81 56 82 61 83 57 84 58 85
REMARK SMILES IDX 60 86 62 87 59 88
REMARK H PARENT 5 14 79 50 53 61
REMARK Flexibility Score: inf
ROOT
ATOM      1  C   UNL A   1      38.585  22.942  26.125  1.00  0.00     0.188 C 
ENDROOT
BRANCH   1   2
ATOM      2  O   UNL A   1      37.689  23.557  25.215  1.00  0.00    -0.376 OA
BRANCH   2   3
ATOM      3  C   UNL A   1      36.765  22.728  24.503  1.00  0.00     0.202 C 
BRANCH   3   4
ATOM      4  C   UNL A   1      35.653  23.219  23.535  1.00  0.00     0.261 C 
BRANCH   4   5
ATOM      5  O   UNL A   1      34.313  22.949  23.941  1.00  0.00    -0.462 OA
BRANCH   5   6
ATOM      6  C   UNL A   1      33.887  23.593  25.052  1.00  0.00     0.331 C 
ATOM      7  O   UNL A   1      34.065  24.794  25.242  1.00  0.00    -0.249 OA
BRANCH   6   8
ATOM      8  C   UNL A   1      33.104  22.665  26.043  1.00  0.00     0.135 C 
ATOM      9  C   UNL A   1      34.220  22.083  26.989  1.00  0.00     0.047 C 
BRANCH   8  10
ATOM     10  C   UNL A   1      32.440  21.498  25.269  1.00  0.00     0.037 C 
ATOM     11  C   UNL A   1      33.065  20.124  25.467  1.00  0.00     0.007 C 
ENDBRANCH   8  10
BRANCH   8  12
ATOM     12  N   UNL A   1      32.049  23.241  26.964  1.00  0.00    -0.334 N 
ATOM     13  C   UNL A   1      30.868  23.946  26.739  1.00  0.00     0.291 C 
ATOM     14  H   UNL A   1      32.236  23.085  27.919  1.00  0.00     0.165 HD
ATOM     15  O   UNL A   1      29.839  23.445  27.201  1.00  0.00    -0.266 OA
BRANCH  13  16
ATOM     16  C   UNL A   1      30.890  25.350  26.251  1.00  0.00     0.241 A 
ATOM     17  N   UNL A   1      31.359  26.374  27.045  1.00  0.00    -0.184 NA
ATOM     18  N   UNL A   1      30.374  25.789  25.087  1.00  0.00    -0.139 NA
ATOM     19  C   UNL A   1      31.389  27.426  26.274  1.00  0.00     0.253 A 
ATOM     20  N   UNL A   1      30.749  27.104  25.081  1.00  0.00    -0.201 N 
ATOM     21  N   UNL A   1      31.971  28.644  26.492  1.00  0.00    -0.220 NA
ATOM     22  C   UNL A   1      30.619  28.065  24.069  1.00  0.00     0.045 A 
ATOM     23  C   UNL A   1      31.903  29.490  25.516  1.00  0.00     0.117 A 
ATOM     24  C   UNL A   1      31.190  29.274  24.231  1.00  0.00     0.044 A 
ATOM     25  C   UNL A   1      29.833  27.695  22.859  1.00  0.00     0.067 C 
ENDBRANCH  13  16
ENDBRANCH   8  12
ENDBRANCH   6   8
ENDBRANCH   5   6
ENDBRANCH   4   5
ENDBRANCH   3   4
ENDBRANCH   2   3
ENDBRANCH   1   2
BRANCH   1  26
ATOM     26  C   UNL A   1      38.963  21.506  25.781  1.00  0.00     0.188 C 
BRANCH  26  27
ATOM     27  O   UNL A   1      40.294  21.254  26.203  1.00  0.00    -0.376 OA
BRANCH  27  28
ATOM     28  C   UNL A   1      40.760  19.947  26.528  1.00  0.00     0.202 C 
BRANCH  28  29
ATOM     29  C   UNL A   1      42.286  19.739  26.563  1.00  0.00     0.261 C 
BRANCH  29  30
ATOM     30  O   UNL A   1      42.988  20.819  25.973  1.00  0.00    -0.460 OA
BRANCH  30  31
ATOM     31  C   UNL A   1      43.825  20.414  25.022  1.00  0.00     0.338 C 
ATOM     32  O   UNL A   1      43.834  19.326  24.416  1.00  0.00    -0.246 OA
BRANCH  31  33
ATOM     33  C   UNL A   1      44.707  21.520  24.694  1.00  0.00     0.060 A 
ATOM     34  C   UNL A   1      45.743  21.714  25.612  1.00  0.00     0.016 A 
ATOM     35  C   UNL A   1      44.077  22.534  23.980  1.00  0.00     0.016 A 
ATOM     36  C   UNL A   1      45.786  22.939  26.193  1.00  0.00     0.010 A 
ATOM     37  C   UNL A   1      44.068  23.737  24.602  1.00  0.00     0.010 A 
ATOM     38  C   UNL A   1      44.824  23.858  25.769  1.00  0.00    -0.014 A 
BRANCH  38  39
ATOM     39  C   UNL A   1      44.597  24.982  26.619  1.00  0.00     0.031 A 
ATOM     40  C   UNL A   1      45.730  25.904  26.568  1.00  0.00     0.074 A 
ATOM     41  C   UNL A   1      43.448  25.115  27.295  1.00  0.00     0.049 A 
ATOM     42  N   UNL A   1      46.701  25.988  27.412  1.00  0.00    -0.248 NA
ATOM     43  C   UNL A   1      45.970  26.574  25.281  1.00  0.00     0.031 C 
ATOM     44  C   UNL A   1      42.196  24.369  27.152  1.00  0.00     0.029 A 
ATOM     45  N   UNL A   1      43.150  26.061  28.214  1.00  0.00    -0.354 N 
ATOM     46  C   UNL A   1      47.553  26.927  26.850  1.00  0.00     0.074 A 
ATOM     47  C   UNL A   1      47.227  26.979  25.454  1.00  0.00     0.031 C 
ATOM     48  C   UNL A   1      41.212  25.043  27.793  1.00  0.00     0.029 A 
ATOM     49  C   UNL A   1      41.797  26.183  28.479  1.00  0.00     0.049 A 
ATOM     50  H   UNL A   1      43.835  26.614  28.655  1.00  0.00     0.167 HD
ATOM     51  C   UNL A   1      48.165  27.847  27.638  1.00  0.00     0.037 A 
ATOM     52  C   UNL A   1      41.251  27.246  29.117  1.00  0.00     0.037 A 
ATOM     53  C   UNL A   1      48.163  27.415  29.021  1.00  0.00     0.049 A 
ATOM     54  C   UNL A   1      42.361  27.955  29.823  1.00  0.00     0.074 A 
ATOM     55  C   UNL A   1      48.653  26.314  29.696  1.00  0.00     0.029 A 
ATOM     56  N   UNL A   1      47.237  27.990  29.861  1.00  0.00    -0.354 N 
ATOM     57  N   UNL A   1      42.997  27.463  30.852  1.00  0.00    -0.248 NA
ATOM     58  C   UNL A   1      43.087  28.987  29.091  1.00  0.00     0.031 C 
ATOM     59  C   UNL A   1      47.699  26.039  30.721  1.00  0.00     0.029 A 
ATOM     60  C   UNL A   1      46.696  27.006  30.648  1.00  0.00     0.049 A 
ATOM     61  H   UNL A   1      47.003  28.945  29.893  1.00  0.00     0.167 HD
ATOM     62  C   UNL A   1      44.330  27.811  30.658  1.00  0.00     0.074 A 
ATOM     63  C   UNL A   1      44.309  28.824  29.609  1.00  0.00     0.031 C 
ATOM     64  C   UNL A   1      45.340  27.033  31.152  1.00  0.00     0.037 A 
BRANCH  51  65
ATOM     65  C   UNL A   1      48.322  29.299  27.238  1.00  0.00     0.057 A 
ATOM     66  C   UNL A   1      47.275  30.226  27.025  1.00  0.00     0.134 A 
ATOM     67  C   UNL A   1      49.596  29.876  27.364  1.00  0.00     0.134 A 
ATOM     68  F   UNL A   1      45.993  29.880  26.878  1.00  0.00    -0.206 F 
ATOM     69  C   UNL A   1      47.466  31.607  27.034  1.00  0.00     0.040 A 
ATOM     70  C   UNL A   1      49.791  31.260  27.416  1.00  0.00     0.040 A 
ATOM     71  F   UNL A   1      50.684  29.109  27.532  1.00  0.00    -0.206 F 
ATOM     72  C   UNL A   1      48.720  32.131  27.273  1.00  0.00     0.006 A 
ENDBRANCH  51  65
BRANCH  52  73
ATOM     73  C   UNL A   1      39.931  27.862  28.873  1.00  0.00     0.057 A 
ATOM     74  C   UNL A   1      39.665  28.625  27.721  1.00  0.00     0.134 A 
ATOM     75  C   UNL A   1      38.968  27.921  29.887  1.00  0.00     0.134 A 
ATOM     76  F   UNL A   1      40.556  28.713  26.723  1.00  0.00    -0.206 F 
ATOM     77  C   UNL A   1      38.513  29.404  27.587  1.00  0.00     0.040 A 
ATOM     78  C   UNL A   1      37.814  28.706  29.771  1.00  0.00     0.040 A 
ATOM     79  F   UNL A   1      39.155  27.262  31.040  1.00  0.00    -0.206 F 
ATOM     80  C   UNL A   1      37.586  29.455  28.621  1.00  0.00     0.006 A 
ENDBRANCH  52  73
BRANCH  64  81
ATOM     81  C   UNL A   1      44.956  25.951  32.124  1.00  0.00     0.057 A 
ATOM     82  C   UNL A   1      44.651  24.676  31.640  1.00  0.00     0.134 A 
ATOM     83  C   UNL A   1      44.764  26.171  33.497  1.00  0.00     0.134 A 
ATOM     84  F   UNL A   1      44.751  24.410  30.328  1.00  0.00    -0.206 F 
ATOM     85  C   UNL A   1      44.196  23.658  32.482  1.00  0.00     0.040 A 
ATOM     86  C   UNL A   1      44.342  25.153  34.356  1.00  0.00     0.040 A 
ATOM     87  F   UNL A   1      44.930  27.389  34.029  1.00  0.00    -0.206 F 
ATOM     88  C   UNL A   1      44.054  23.891  33.848  1.00  0.00     0.006 A 
ENDBRANCH  64  81
ENDBRANCH  38  39
ENDBRANCH  31  33
ENDBRANCH  30  31
ENDBRANCH  29  30
ENDBRANCH  28  29
ENDBRANCH  27  28
ENDBRANCH  26  27
ENDBRANCH   1  26
TORSDOF 20
ENDMDL
MODEL 2
REMARK VINA RESULT:     -10.5      1.212      2.913
REMARK SMILES CC[C@](C)(NC(=O)c1nc2nccc(C)n2n1)C(=O)OCCOCCOCCOC(=O)c1ccc(-c2c3nc(c(-c4c(F)cccc4F)c4ccc([nH]4)c(-c4c(F)cccc4F)c4nc(c(-c5c(F)cccc5F)c5ccc2[nH]5)C=C4)C=C3)cc1
REMARK SMILES IDX 24 1 23 2 22 3 21 4 20 5 18 6 19 7 3 8 4 9 2 10 1 11 5 12
REMARK SMILES IDX 6 13 7 15 8 16 9 17 17 18 10 19 16 20 11 21 14 22 12 23
REMARK SMILES IDX 13 24 15 25 25 26 26 27 27 28 28 29 29 30 30 31 31 32 32 33
REMARK SMILES IDX 33 34 85 35 34 36 84 37 35 38 36 39 37 40 78 41 38 42 83 43
REMARK SMILES IDX 77 44 79 45 39 46 82 47 76 48 75 49 40 51 66 52 49 53 65 54
REMARK SMILES IDX 50 55 53 56 64 57 80 58 51 59 52 60 63 62 81 63 54 64 41 65
REMARK SMILES IDX 42 66 47 67 43 68 44 69 46 70 48 71 45 72 67 73 68 74 73 75
REMARK SMILES IDX 69 76 70 77 72 78 74 79 71 80 55 81 56 82 61 83 57 84 58 85
REMARK SMILES IDX 60 86 62 87 59 88
REMARK H PARENT 5 14 79 50 53 61
REMARK Flexibility Score: inf
ROOT
ATOM      1  C   UNL A   1      37.326  23.445  25.451  1.00  0.00     0.188 C 
ENDROOT
BRANCH   1   2
ATOM      2  O   UNL A   1      36.165  23.030  26.151  1.00  0.00    -0.376 OA
BRANCH   2   3
ATOM      3  C   UNL A   1      34.920  23.664  25.841  1.00  0.00     0.202 C 
BRANCH   3   4
ATOM      4  C   UNL A   1      34.730  25.137  25.386  1.00  0.00     0.261 C 
BRANCH   4   5
ATOM      5  O   UNL A   1      33.622  25.827  25.962  1.00  0.00    -0.462 OA
BRANCH   5   6
ATOM      6  C   UNL A   1      33.039  26.768  25.184  1.00  0.00     0.331 C 
ATOM      7  O   UNL A   1      33.554  27.206  24.159  1.00  0.00    -0.249 OA
BRANCH   6   8
ATOM      8  C   UNL A   1      31.623  27.203  25.698  1.00  0.00     0.135 C 
ATOM      9  C   UNL A   1      31.215  28.388  24.745  1.00  0.00     0.047 C 
BRANCH   8  10
ATOM     10  C   UNL A   1      31.723  27.736  27.150  1.00  0.00     0.037 C 
ATOM     11  C   UNL A   1      32.524  29.017  27.338  1.00  0.00     0.007 C 
ENDBRANCH   8  10
BRANCH   8  12
ATOM     12  N   UNL A   1      30.461  26.234  25.663  1.00  0.00    -0.334 N 
ATOM     13  C   UNL A   1      30.287  24.936  26.140  1.00  0.00     0.291 C 
ATOM     14  H   UNL A   1      29.664  26.594  25.209  1.00  0.00     0.165 HD
ATOM     15  O   UNL A   1      29.352  24.767  26.927  1.00  0.00    -0.266 OA
BRANCH  13  16
ATOM     16  C   UNL A   1      30.979  23.783  25.507  1.00  0.00     0.241 A 
ATOM     17  N   UNL A   1      31.234  22.628  26.213  1.00  0.00    -0.184 NA
ATOM     18  N   UNL A   1      31.521  23.768  24.273  1.00  0.00    -0.139 NA
ATOM     19  C   UNL A   1      31.696  21.779  25.337  1.00  0.00     0.253 A 
ATOM     20  N   UNL A   1      31.924  22.468  24.149  1.00  0.00    -0.201 N 
ATOM     21  N   UNL A   1      31.899  20.432  25.457  1.00  0.00    -0.220 NA
ATOM     22  C   UNL A   1      32.445  21.797  23.034  1.00  0.00     0.045 A 
ATOM     23  C   UNL A   1      32.310  19.821  24.394  1.00  0.00     0.117 A 
ATOM     24  C   UNL A   1      32.646  20.467  23.100  1.00  0.00     0.044 A 
ATOM     25  C   UNL A   1      32.766  22.607  21.826  1.00  0.00     0.067 C 
ENDBRANCH  13  16
ENDBRANCH   8  12
ENDBRANCH   6   8
ENDBRANCH   5   6
ENDBRANCH   4   5
ENDBRANCH   3   4
ENDBRANCH   2   3
ENDBRANCH   1   2
BRANCH   1  26
ATOM     26  C   UNL A   1      38.623  23.342  26.245  1.00  0.00     0.188 C 
BRANCH  26  27
ATOM     27  O   UNL A   1      39.150  22.030  26.119  1.00  0.00    -0.376 OA
BRANCH  27  28
ATOM     28  C   UNL A   1      40.225  21.556  26.924  1.00  0.00     0.202 C 
BRANCH  28  29
ATOM     29  C   UNL A   1      41.309  20.718  26.219  1.00  0.00     0.261 C 
BRANCH  29  30
ATOM     30  O   UNL A   1      42.608  21.250  26.415  1.00  0.00    -0.460 OA
BRANCH  30  31
ATOM     31  C   UNL A   1      43.476  20.796  25.514  1.00  0.00     0.338 C 
ATOM     32  O   UNL A   1      43.507  19.677  24.970  1.00  0.00    -0.246 OA
BRANCH  31  33
ATOM     33  C   UNL A   1      44.365  21.886  25.153  1.00  0.00     0.060 A 
ATOM     34  C   UNL A   1      45.381  22.124  26.083  1.00  0.00     0.016 A 
ATOM     35  C   UNL A   1      43.750  22.866  24.379  1.00  0.00     0.016 A 
ATOM     36  C   UNL A   1      45.412  23.376  26.606  1.00  0.00     0.010 A 
ATOM     37  C   UNL A   1      43.728  24.097  24.944  1.00  0.00     0.010 A 
ATOM     38  C   UNL A   1      44.460  24.273  26.120  1.00  0.00    -0.014 A 
BRANCH  38  39
ATOM     39  C   UNL A   1      44.215  25.436  26.911  1.00  0.00     0.031 A 
ATOM     40  C   UNL A   1      45.289  26.410  26.740  1.00  0.00     0.074 A 
ATOM     41  C   UNL A   1      43.097  25.551  27.640  1.00  0.00     0.049 A 
ATOM     42  N   UNL A   1      46.297  26.599  27.522  1.00  0.00    -0.248 NA
ATOM     43  C   UNL A   1      45.424  27.009  25.403  1.00  0.00     0.031 C 
ATOM     44  C   UNL A   1      41.882  24.732  27.614  1.00  0.00     0.029 A 
ATOM     45  N   UNL A   1      42.795  26.536  28.516  1.00  0.00    -0.354 N 
ATOM     46  C   UNL A   1      47.065  27.544  26.857  1.00  0.00     0.074 A 
ATOM     47  C   UNL A   1      46.663  27.490  25.481  1.00  0.00     0.031 C 
ATOM     48  C   UNL A   1      40.897  25.393  28.266  1.00  0.00     0.029 A 
ATOM     49  C   UNL A   1      41.453  26.604  28.848  1.00  0.00     0.049 A 
ATOM     50  H   UNL A   1      43.470  27.151  28.883  1.00  0.00     0.167 HD
ATOM     51  C   UNL A   1      47.665  28.544  27.552  1.00  0.00     0.037 A 
ATOM     52  C   UNL A   1      40.883  27.675  29.449  1.00  0.00     0.037 A 
ATOM     53  C   UNL A   1      47.760  28.201  28.957  1.00  0.00     0.049 A 
ATOM     54  C   UNL A   1      41.987  28.485  30.047  1.00  0.00     0.074 A 
ATOM     55  C   UNL A   1      48.346  27.172  29.669  1.00  0.00     0.029 A 
ATOM     56  N   UNL A   1      46.848  28.778  29.811  1.00  0.00    -0.354 N 
ATOM     57  N   UNL A   1      42.703  28.093  31.067  1.00  0.00    -0.248 NA
ATOM     58  C   UNL A   1      42.614  29.505  29.215  1.00  0.00     0.031 C 
ATOM     59  C   UNL A   1      47.464  26.914  30.761  1.00  0.00     0.029 A 
ATOM     60  C   UNL A   1      46.405  27.820  30.685  1.00  0.00     0.049 A 
ATOM     61  H   UNL A   1      46.563  29.721  29.797  1.00  0.00     0.167 HD
ATOM     62  C   UNL A   1      44.002  28.498  30.778  1.00  0.00     0.074 A 
ATOM     63  C   UNL A   1      43.869  29.440  29.672  1.00  0.00     0.031 C 
ATOM     64  C   UNL A   1      45.078  27.807  31.262  1.00  0.00     0.037 A 
BRANCH  51  65
ATOM     65  C   UNL A   1      47.719  29.973  27.056  1.00  0.00     0.057 A 
ATOM     66  C   UNL A   1      46.610  30.818  26.817  1.00  0.00     0.134 A 
ATOM     67  C   UNL A   1      48.957  30.635  27.107  1.00  0.00     0.134 A 
ATOM     68  F   UNL A   1      45.349  30.385  26.731  1.00  0.00    -0.206 F 
ATOM     69  C   UNL A   1      46.713  32.206  26.732  1.00  0.00     0.040 A 
ATOM     70  C   UNL A   1      49.065  32.028  27.065  1.00  0.00     0.040 A 
ATOM     71  F   UNL A   1      50.095  29.949  27.290  1.00  0.00    -0.206 F 
ATOM     72  C   UNL A   1      47.938  32.821  26.900  1.00  0.00     0.006 A 
ENDBRANCH  51  65
BRANCH  52  73
ATOM     73  C   UNL A   1      39.519  28.203  29.242  1.00  0.00     0.057 A 
ATOM     74  C   UNL A   1      39.160  28.907  28.078  1.00  0.00     0.134 A 
ATOM     75  C   UNL A   1      38.598  28.244  30.295  1.00  0.00     0.134 A 
ATOM     76  F   UNL A   1      40.002  29.010  27.039  1.00  0.00    -0.206 F 
ATOM     77  C   UNL A   1      37.959  29.612  27.968  1.00  0.00     0.040 A 
ATOM     78  C   UNL A   1      37.395  28.955  30.203  1.00  0.00     0.040 A 
ATOM     79  F   UNL A   1      38.872  27.639  31.461  1.00  0.00    -0.206 F 
ATOM     80  C   UNL A   1      37.075  29.647  29.039  1.00  0.00     0.006 A 
ENDBRANCH  52  73
BRANCH  64  81
ATOM     81  C   UNL A   1      44.807  26.771  32.318  1.00  0.00     0.057 A 
ATOM     82  C   UNL A   1      44.578  25.448  31.932  1.00  0.00     0.134 A 
ATOM     83  C   UNL A   1      44.647  27.071  33.680  1.00  0.00     0.134 A 
ATOM     84  F   UNL A   1      44.651  25.099  30.638  1.00  0.00    -0.206 F 
ATOM     85  C   UNL A   1      44.227  24.461  32.857  1.00  0.00     0.040 A 
ATOM     86  C   UNL A   1      44.331  26.089  34.621  1.00  0.00     0.040 A 
ATOM     87  F   UNL A   1      44.744  28.332  34.123  1.00  0.00    -0.206 F 
ATOM     88  C   UNL A   1      44.116  24.777  34.209  1.00  0.00     0.006 A 
ENDBRANCH  64  81
ENDBRANCH  38  39
ENDBRANCH  31  33
ENDBRANCH  30  31
ENDBRANCH  29  30
ENDBRANCH  28  29
ENDBRANCH  27  28
ENDBRANCH  26  27
ENDBRANCH   1  26
TORSDOF 20
ENDMDL
MODEL 3
REMARK VINA RESULT:     -10.4      4.866      9.626
REMARK SMILES CC[C@](C)(NC(=O)c1nc2nccc(C)n2n1)C(=O)OCCOCCOCCOC(=O)c1ccc(-c2c3nc(c(-c4c(F)cccc4F)c4ccc([nH]4)c(-c4c(F)cccc4F)c4nc(c(-c5c(F)cccc5F)c5ccc2[nH]5)C=C4)C=C3)cc1
REMARK SMILES IDX 24 1 23 2 22 3 21 4 20 5 18 6 19 7 3 8 4 9 2 10 1 11 5 12
REMARK SMILES IDX 6 13 7 15 8 16 9 17 17 18 10 19 16 20 11 21 14 22 12 23
REMARK SMILES IDX 13 24 15 25 25 26 26 27 27 28 28 29 29 30 30 31 31 32 32 33
REMARK SMILES IDX 33 34 85 35 34 36 84 37 35 38 36 39 37 40 78 41 38 42 83 43
REMARK SMILES IDX 77 44 79 45 39 46 82 47 76 48 75 49 40 51 66 52 49 53 65 54
REMARK SMILES IDX 50 55 53 56 64 57 80 58 51 59 52 60 63 62 81 63 54 64 41 65
REMARK SMILES IDX 42 66 47 67 43 68 44 69 46 70 48 71 45 72 67 73 68 74 73 75
REMARK SMILES IDX 69 76 70 77 72 78 74 79 71 80 55 81 56 82 61 83 57 84 58 85
REMARK SMILES IDX 60 86 62 87 59 88
REMARK H PARENT 5 14 79 50 53 61
REMARK Flexibility Score: inf
ROOT
ATOM      1  C   UNL A   1      32.675  29.464  27.224  1.00  0.00     0.188 C 
ENDROOT
BRANCH   1   2
ATOM      2  O   UNL A   1      33.345  28.224  27.376  1.00  0.00    -0.376 OA
BRANCH   2   3
ATOM      3  C   UNL A   1      32.997  27.149  26.499  1.00  0.00     0.202 C 
BRANCH   3   4
ATOM      4  C   UNL A   1      33.959  26.048  25.974  1.00  0.00     0.261 C 
BRANCH   4   5
ATOM      5  O   UNL A   1      33.345  24.823  25.579  1.00  0.00    -0.462 OA
BRANCH   5   6
ATOM      6  C   UNL A   1      34.064  23.698  25.800  1.00  0.00     0.331 C 
ATOM      7  O   UNL A   1      34.369  23.306  26.923  1.00  0.00    -0.249 OA
BRANCH   6   8
ATOM      8  C   UNL A   1      34.425  22.927  24.483  1.00  0.00     0.135 C 
ATOM      9  C   UNL A   1      34.558  21.426  24.941  1.00  0.00     0.047 C 
BRANCH   8  10
ATOM     10  C   UNL A   1      35.793  23.412  23.940  1.00  0.00     0.037 C 
ATOM     11  C   UNL A   1      37.021  22.691  24.479  1.00  0.00     0.007 C 
ENDBRANCH   8  10
BRANCH   8  12
ATOM     12  N   UNL A   1      33.464  22.912  23.313  1.00  0.00    -0.334 N 
ATOM     13  C   UNL A   1      33.255  23.777  22.240  1.00  0.00     0.291 C 
ATOM     14  H   UNL A   1      32.864  22.132  23.309  1.00  0.00     0.165 HD
ATOM     15  O   UNL A   1      33.361  23.282  21.115  1.00  0.00    -0.266 OA
BRANCH  13  16
ATOM     16  C   UNL A   1      32.644  25.117  22.439  1.00  0.00     0.241 A 
ATOM     17  N   UNL A   1      31.277  25.289  22.412  1.00  0.00    -0.184 NA
ATOM     18  N   UNL A   1      33.312  26.282  22.543  1.00  0.00    -0.139 NA
ATOM     19  C   UNL A   1      31.075  26.526  22.772  1.00  0.00     0.253 A 
ATOM     20  N   UNL A   1      32.309  27.170  22.815  1.00  0.00    -0.201 N 
ATOM     21  N   UNL A   1      29.908  27.149  23.119  1.00  0.00    -0.220 NA
ATOM     22  C   UNL A   1      32.384  28.526  23.157  1.00  0.00     0.045 A 
ATOM     23  C   UNL A   1      30.011  28.380  23.502  1.00  0.00     0.117 A 
ATOM     24  C   UNL A   1      31.264  29.178  23.522  1.00  0.00     0.044 A 
ATOM     25  C   UNL A   1      33.718  29.185  23.084  1.00  0.00     0.067 C 
ENDBRANCH  13  16
ENDBRANCH   8  12
ENDBRANCH   6   8
ENDBRANCH   5   6
ENDBRANCH   4   5
ENDBRANCH   3   4
ENDBRANCH   2   3
ENDBRANCH   1   2
BRANCH   1  26
ATOM     26  C   UNL A   1      33.584  30.648  26.913  1.00  0.00     0.188 C 
BRANCH  26  27
ATOM     27  O   UNL A   1      33.612  31.527  28.027  1.00  0.00    -0.376 OA
BRANCH  27  28
ATOM     28  C   UNL A   1      34.104  32.861  27.939  1.00  0.00     0.202 C 
BRANCH  28  29
ATOM     29  C   UNL A   1      33.527  33.886  28.933  1.00  0.00     0.261 C 
BRANCH  29  30
ATOM     30  O   UNL A   1      34.379  34.090  30.047  1.00  0.00    -0.460 OA
BRANCH  30  31
ATOM     31  C   UNL A   1      33.741  34.655  31.069  1.00  0.00     0.338 C 
ATOM     32  O   UNL A   1      32.668  35.285  31.053  1.00  0.00    -0.246 OA
BRANCH  31  33
ATOM     33  C   UNL A   1      34.455  34.322  32.289  1.00  0.00     0.060 A 
ATOM     34  C   UNL A   1      35.550  35.150  32.552  1.00  0.00     0.016 A 
ATOM     35  C   UNL A   1      34.382  32.972  32.620  1.00  0.00     0.016 A 
ATOM     36  C   UNL A   1      36.746  34.519  32.665  1.00  0.00     0.010 A 
ATOM     37  C   UNL A   1      35.578  32.339  32.662  1.00  0.00     0.010 A 
ATOM     38  C   UNL A   1      36.724  33.128  32.550  1.00  0.00    -0.014 A 
BRANCH  38  39
ATOM     39  C   UNL A   1      37.970  32.491  32.272  1.00  0.00     0.031 A 
ATOM     40  C   UNL A   1      38.817  32.474  33.462  1.00  0.00     0.074 A 
ATOM     41  C   UNL A   1      38.222  31.962  31.066  1.00  0.00     0.049 A 
ATOM     42  N   UNL A   1      39.773  33.292  33.747  1.00  0.00    -0.248 NA
ATOM     43  C   UNL A   1      38.339  31.665  34.594  1.00  0.00     0.031 C 
ATOM     44  C   UNL A   1      37.303  31.711  29.953  1.00  0.00     0.029 A 
ATOM     45  N   UNL A   1      39.391  31.437  30.636  1.00  0.00    -0.354 N 
ATOM     46  C   UNL A   1      40.171  32.912  35.020  1.00  0.00     0.074 A 
ATOM     47  C   UNL A   1      39.075  32.176  35.580  1.00  0.00     0.031 C 
ATOM     48  C   UNL A   1      37.904  30.877  29.073  1.00  0.00     0.029 A 
ATOM     49  C   UNL A   1      39.273  30.647  29.506  1.00  0.00     0.049 A 
ATOM     50  H   UNL A   1      40.250  31.602  31.088  1.00  0.00     0.167 HD
ATOM     51  C   UNL A   1      41.490  32.894  35.342  1.00  0.00     0.037 A 
ATOM     52  C   UNL A   1      40.233  29.789  29.087  1.00  0.00     0.037 A 
ATOM     53  C   UNL A   1      42.252  33.706  34.416  1.00  0.00     0.049 A 
ATOM     54  C   UNL A   1      41.505  30.188  29.762  1.00  0.00     0.074 A 
ATOM     55  C   UNL A   1      42.224  35.035  34.038  1.00  0.00     0.029 A 
ATOM     56  N   UNL A   1      42.956  33.050  33.433  1.00  0.00    -0.354 N 
ATOM     57  N   UNL A   1      42.152  31.291  29.497  1.00  0.00    -0.248 NA
ATOM     58  C   UNL A   1      41.798  29.605  31.066  1.00  0.00     0.031 C 
ATOM     59  C   UNL A   1      42.543  35.043  32.647  1.00  0.00     0.029 A 
ATOM     60  C   UNL A   1      42.787  33.727  32.252  1.00  0.00     0.049 A 
ATOM     61  H   UNL A   1      43.492  32.234  33.556  1.00  0.00     0.167 HD
ATOM     62  C   UNL A   1      42.603  31.755  30.729  1.00  0.00     0.074 A 
ATOM     63  C   UNL A   1      42.434  30.631  31.642  1.00  0.00     0.031 C 
ATOM     64  C   UNL A   1      42.787  33.091  30.953  1.00  0.00     0.037 A 
BRANCH  51  65
ATOM     65  C   UNL A   1      42.119  31.794  36.171  1.00  0.00     0.057 A 
ATOM     66  C   UNL A   1      42.221  30.430  35.809  1.00  0.00     0.134 A 
ATOM     67  C   UNL A   1      42.931  32.174  37.251  1.00  0.00     0.134 A 
ATOM     68  F   UNL A   1      41.531  29.871  34.810  1.00  0.00    -0.206 F 
ATOM     69  C   UNL A   1      43.120  29.548  36.407  1.00  0.00     0.040 A 
ATOM     70  C   UNL A   1      43.865  31.308  37.829  1.00  0.00     0.040 A 
ATOM     71  F   UNL A   1      42.905  33.430  37.722  1.00  0.00    -0.206 F 
ATOM     72  C   UNL A   1      43.978  29.995  37.391  1.00  0.00     0.006 A 
ENDBRANCH  51  65
BRANCH  52  73
ATOM     73  C   UNL A   1      40.047  28.479  28.433  1.00  0.00     0.057 A 
ATOM     74  C   UNL A   1      39.538  27.365  29.126  1.00  0.00     0.134 A 
ATOM     75  C   UNL A   1      40.595  28.221  27.171  1.00  0.00     0.134 A 
ATOM     76  F   UNL A   1      39.068  27.478  30.376  1.00  0.00    -0.206 F 
ATOM     77  C   UNL A   1      39.576  26.072  28.598  1.00  0.00     0.040 A 
ATOM     78  C   UNL A   1      40.650  26.929  26.634  1.00  0.00     0.040 A 
ATOM     79  F   UNL A   1      41.144  29.213  26.454  1.00  0.00    -0.206 F 
ATOM     80  C   UNL A   1      40.145  25.848  27.351  1.00  0.00     0.006 A 
ENDBRANCH  52  73
BRANCH  64  81
ATOM     81  C   UNL A   1      42.741  33.998  29.754  1.00  0.00     0.057 A 
ATOM     82  C   UNL A   1      43.928  34.304  29.083  1.00  0.00     0.134 A 
ATOM     83  C   UNL A   1      41.581  34.666  29.328  1.00  0.00     0.134 A 
ATOM     84  F   UNL A   1      45.086  33.751  29.475  1.00  0.00    -0.206 F 
ATOM     85  C   UNL A   1      43.961  35.214  28.024  1.00  0.00     0.040 A 
ATOM     86  C   UNL A   1      41.594  35.552  28.248  1.00  0.00     0.040 A 
ATOM     87  F   UNL A   1      40.421  34.514  29.980  1.00  0.00    -0.206 F 
ATOM     88  C   UNL A   1      42.790  35.831  27.594  1.00  0.00     0.006 A 
ENDBRANCH  64  81
ENDBRANCH  38  39
ENDBRANCH  31  33
ENDBRANCH  30  31
ENDBRANCH  29  30
ENDBRANCH  28  29
ENDBRANCH  27  28
ENDBRANCH  26  27
ENDBRANCH   1  26
TORSDOF 20
ENDMDL
