MODEL 1
REMARK VINA RESULT:      -9.9      0.000      0.000
REMARK SMILES COCCS(=O)(=O)Cc1c(C(=O)OCCOCCOCCOC(=O)c2ccc(-c3c4nc(c(-c5c(F)cccc5F)c5ccc([nH]5)c(-c5c(F)cccc5F)c5nc(c(-c6c(F)cccc6F)c6ccc3[nH]6)C=C5)C=C4)cc2)oc2ccccc12
REMARK SMILES IDX 16 1 15 2 14 3 13 4 11 5 12 6 10 7 9 8 85 9 79 10 80 11
REMARK SMILES IDX 84 12 81 13 83 14 82 15 8 16 5 17 6 18 7 19 4 20 3 21 2 22
REMARK SMILES IDX 1 23 17 24 18 25 19 26 20 27 21 28 22 29 23 30 24 31 25 32
REMARK SMILES IDX 26 33 78 34 27 35 77 36 28 37 29 38 30 39 71 40 31 41 76 42
REMARK SMILES IDX 70 43 72 44 32 45 75 46 69 47 68 48 33 50 59 51 42 52 58 53
REMARK SMILES IDX 43 54 46 55 57 56 73 57 44 58 45 59 56 61 74 62 47 63 34 64
REMARK SMILES IDX 35 65 40 66 36 67 37 68 39 69 41 70 38 71 60 72 61 73 66 74
REMARK SMILES IDX 62 75 63 76 65 77 67 78 64 79 48 80 49 81 54 82 50 83 51 84
REMARK SMILES IDX 53 85 55 86 52 87
REMARK H PARENT 72 49 46 60
REMARK Flexibility Score: inf
ROOT
ATOM      1  O   UNL A   1      35.099  31.744  27.806  1.00  0.00    -0.376 OA
ENDROOT
BRANCH   1   2
ATOM      2  C   UNL A   1      35.262  30.322  27.845  1.00  0.00     0.202 C 
BRANCH   2   3
ATOM      3  C   UNL A   1      34.467  29.439  26.853  1.00  0.00     0.261 C 
BRANCH   3   4
ATOM      4  O   UNL A   1      33.558  28.526  27.482  1.00  0.00    -0.457 OA
BRANCH   4   5
ATOM      5  C   UNL A   1      32.376  28.303  26.833  1.00  0.00     0.374 C 
ATOM      6  O   UNL A   1      31.535  29.149  26.609  1.00  0.00    -0.242 OA
BRANCH   5   7
ATOM      7  C   UNL A   1      32.334  26.938  26.339  1.00  0.00     0.217 A 
ATOM      8  C   UNL A   1      32.984  26.316  25.273  1.00  0.00     0.028 A 
ATOM      9  C   UNL A   1      32.450  24.991  25.210  1.00  0.00     0.025 A 
ATOM     10  O   UNL A   1      31.528  26.032  26.980  1.00  0.00    -0.449 OA
ATOM     11  C   UNL A   1      31.552  24.880  26.261  1.00  0.00     0.135 A 
ATOM     12  C   UNL A   1      32.591  23.901  24.328  1.00  0.00     0.012 A 
ATOM     13  C   UNL A   1      30.766  23.754  26.498  1.00  0.00     0.048 A 
ATOM     14  C   UNL A   1      31.783  22.773  24.514  1.00  0.00     0.001 A 
ATOM     15  C   UNL A   1      30.883  22.705  25.579  1.00  0.00     0.004 A 
BRANCH   8  16
ATOM     16  C   UNL A   1      33.911  26.901  24.265  1.00  0.00     0.177 C 
BRANCH  16  17
ATOM     17  S   UNL A   1      33.325  27.193  22.604  1.00  0.00     0.156 S 
ATOM     18  O   UNL A   1      33.718  26.027  21.833  1.00  0.00    -0.228 OA
ATOM     19  O   UNL A   1      33.812  28.505  22.213  1.00  0.00    -0.228 OA
BRANCH  17  20
ATOM     20  C   UNL A   1      31.551  27.281  22.569  1.00  0.00     0.165 C 
BRANCH  20  21
ATOM     21  C   UNL A   1      30.912  28.417  23.340  1.00  0.00     0.176 C 
BRANCH  21  22
ATOM     22  O   UNL A   1      29.671  28.824  22.781  1.00  0.00    -0.384 OA
ATOM     23  C   UNL A   1      29.775  29.861  21.816  1.00  0.00     0.194 C 
ENDBRANCH  21  22
ENDBRANCH  20  21
ENDBRANCH  17  20
ENDBRANCH  16  17
ENDBRANCH   8  16
ENDBRANCH   5   7
ENDBRANCH   4   5
ENDBRANCH   3   4
ENDBRANCH   2   3
ENDBRANCH   1   2
BRANCH   1  24
ATOM     24  C   UNL A   1      33.767  32.210  28.045  1.00  0.00     0.188 C 
BRANCH  24  25
ATOM     25  C   UNL A   1      33.690  33.718  28.232  1.00  0.00     0.188 C 
BRANCH  25  26
ATOM     26  O   UNL A   1      33.198  34.121  29.505  1.00  0.00    -0.376 OA
BRANCH  26  27
ATOM     27  C   UNL A   1      34.159  34.705  30.374  1.00  0.00     0.202 C 
BRANCH  27  28
ATOM     28  C   UNL A   1      34.467  33.905  31.644  1.00  0.00     0.261 C 
BRANCH  28  29
ATOM     29  O   UNL A   1      35.859  33.845  32.002  1.00  0.00    -0.460 OA
BRANCH  29  30
ATOM     30  C   UNL A   1      36.211  32.750  32.723  1.00  0.00     0.338 C 
ATOM     31  O   UNL A   1      35.761  32.395  33.800  1.00  0.00    -0.246 OA
BRANCH  30  32
ATOM     32  C   UNL A   1      37.201  31.949  31.975  1.00  0.00     0.060 A 
ATOM     33  C   UNL A   1      38.194  31.270  32.686  1.00  0.00     0.016 A 
ATOM     34  C   UNL A   1      37.212  31.946  30.577  1.00  0.00     0.016 A 
ATOM     35  C   UNL A   1      39.204  30.590  31.999  1.00  0.00     0.010 A 
ATOM     36  C   UNL A   1      38.240  31.281  29.891  1.00  0.00     0.010 A 
ATOM     37  C   UNL A   1      39.251  30.608  30.598  1.00  0.00    -0.014 A 
BRANCH  37  38
ATOM     38  C   UNL A   1      40.440  30.052  29.897  1.00  0.00     0.031 A 
ATOM     39  C   UNL A   1      41.657  30.916  29.741  1.00  0.00     0.074 A 
ATOM     40  C   UNL A   1      40.470  28.785  29.445  1.00  0.00     0.049 A 
ATOM     41  N   UNL A   1      42.794  30.647  29.152  1.00  0.00    -0.248 NA
ATOM     42  C   UNL A   1      41.577  32.266  30.316  1.00  0.00     0.031 C 
ATOM     43  C   UNL A   1      39.379  27.831  29.572  1.00  0.00     0.029 A 
ATOM     44  N   UNL A   1      41.463  28.072  28.813  1.00  0.00    -0.354 N 
ATOM     45  C   UNL A   1      43.562  31.795  29.276  1.00  0.00     0.074 A 
ATOM     46  C   UNL A   1      42.761  32.766  29.993  1.00  0.00     0.031 C 
ATOM     47  C   UNL A   1      39.773  26.641  29.086  1.00  0.00     0.029 A 
ATOM     48  C   UNL A   1      41.123  26.766  28.543  1.00  0.00     0.049 A 
ATOM     49  H   UNL A   1      42.336  28.460  28.575  1.00  0.00     0.167 HD
ATOM     50  C   UNL A   1      44.814  32.027  28.819  1.00  0.00     0.037 A 
ATOM     51  C   UNL A   1      41.809  25.790  27.913  1.00  0.00     0.037 A 
ATOM     52  C   UNL A   1      45.601  31.077  28.078  1.00  0.00     0.049 A 
ATOM     53  C   UNL A   1      43.175  26.103  27.350  1.00  0.00     0.074 A 
ATOM     54  C   UNL A   1      46.863  31.244  27.534  1.00  0.00     0.029 A 
ATOM     55  N   UNL A   1      45.200  29.787  27.767  1.00  0.00    -0.354 N 
ATOM     56  N   UNL A   1      43.884  27.201  27.455  1.00  0.00    -0.248 NA
ATOM     57  C   UNL A   1      43.823  25.050  26.553  1.00  0.00     0.031 C 
ATOM     58  C   UNL A   1      47.203  30.076  26.848  1.00  0.00     0.029 A 
ATOM     59  C   UNL A   1      46.182  29.156  27.020  1.00  0.00     0.049 A 
ATOM     60  H   UNL A   1      44.345  29.380  28.036  1.00  0.00     0.167 HD
ATOM     61  C   UNL A   1      45.062  26.963  26.756  1.00  0.00     0.074 A 
ATOM     62  C   UNL A   1      44.988  25.608  26.256  1.00  0.00     0.031 C 
ATOM     63  C   UNL A   1      46.106  27.799  26.537  1.00  0.00     0.037 A 
BRANCH  50  64
ATOM     64  C   UNL A   1      45.384  33.392  29.058  1.00  0.00     0.057 A 
ATOM     65  C   UNL A   1      46.175  33.682  30.176  1.00  0.00     0.134 A 
ATOM     66  C   UNL A   1      45.149  34.426  28.143  1.00  0.00     0.134 A 
ATOM     67  F   UNL A   1      46.419  32.740  31.099  1.00  0.00    -0.206 F 
ATOM     68  C   UNL A   1      46.695  34.960  30.387  1.00  0.00     0.040 A 
ATOM     69  C   UNL A   1      45.686  35.701  28.329  1.00  0.00     0.040 A 
ATOM     70  F   UNL A   1      44.399  34.214  27.051  1.00  0.00    -0.206 F 
ATOM     71  C   UNL A   1      46.457  35.971  29.457  1.00  0.00     0.006 A 
ENDBRANCH  50  64
BRANCH  51  72
ATOM     72  C   UNL A   1      41.215  24.438  27.707  1.00  0.00     0.057 A 
ATOM     73  C   UNL A   1      41.648  23.327  28.445  1.00  0.00     0.134 A 
ATOM     74  C   UNL A   1      40.260  24.203  26.708  1.00  0.00     0.134 A 
ATOM     75  F   UNL A   1      42.585  23.470  29.393  1.00  0.00    -0.206 F 
ATOM     76  C   UNL A   1      41.184  22.036  28.174  1.00  0.00     0.040 A 
ATOM     77  C   UNL A   1      39.760  22.925  26.453  1.00  0.00     0.040 A 
ATOM     78  F   UNL A   1      39.807  25.214  25.951  1.00  0.00    -0.206 F 
ATOM     79  C   UNL A   1      40.233  21.834  27.177  1.00  0.00     0.006 A 
ENDBRANCH  51  72
BRANCH  63  80
ATOM     80  C   UNL A   1      47.275  27.265  25.758  1.00  0.00     0.057 A 
ATOM     81  C   UNL A   1      47.383  27.428  24.370  1.00  0.00     0.134 A 
ATOM     82  C   UNL A   1      48.331  26.619  26.414  1.00  0.00     0.134 A 
ATOM     83  F   UNL A   1      46.403  28.028  23.677  1.00  0.00    -0.206 F 
ATOM     84  C   UNL A   1      48.486  26.948  23.662  1.00  0.00     0.040 A 
ATOM     85  C   UNL A   1      49.453  26.162  25.721  1.00  0.00     0.040 A 
ATOM     86  F   UNL A   1      48.299  26.438  27.742  1.00  0.00    -0.206 F 
ATOM     87  C   UNL A   1      49.529  26.319  24.339  1.00  0.00     0.006 A 
ENDBRANCH  63  80
ENDBRANCH  37  38
ENDBRANCH  30  32
ENDBRANCH  29  30
ENDBRANCH  28  29
ENDBRANCH  27  28
ENDBRANCH  26  27
ENDBRANCH  25  26
ENDBRANCH  24  25
ENDBRANCH   1  24
TORSDOF 22
ENDMDL
MODEL 2
REMARK VINA RESULT:      -9.7      0.584      6.038
REMARK SMILES COCCS(=O)(=O)Cc1c(C(=O)OCCOCCOCCOC(=O)c2ccc(-c3c4nc(c(-c5c(F)cccc5F)c5ccc([nH]5)c(-c5c(F)cccc5F)c5nc(c(-c6c(F)cccc6F)c6ccc3[nH]6)C=C5)C=C4)cc2)oc2ccccc12
REMARK SMILES IDX 16 1 15 2 14 3 13 4 11 5 12 6 10 7 9 8 85 9 79 10 80 11
REMARK SMILES IDX 84 12 81 13 83 14 82 15 8 16 5 17 6 18 7 19 4 20 3 21 2 22
REMARK SMILES IDX 1 23 17 24 18 25 19 26 20 27 21 28 22 29 23 30 24 31 25 32
REMARK SMILES IDX 26 33 78 34 27 35 77 36 28 37 29 38 30 39 71 40 31 41 76 42
REMARK SMILES IDX 70 43 72 44 32 45 75 46 69 47 68 48 33 50 59 51 42 52 58 53
REMARK SMILES IDX 43 54 46 55 57 56 73 57 44 58 45 59 56 61 74 62 47 63 34 64
REMARK SMILES IDX 35 65 40 66 36 67 37 68 39 69 41 70 38 71 60 72 61 73 66 74
REMARK SMILES IDX 62 75 63 76 65 77 67 78 64 79 48 80 49 81 54 82 50 83 51 84
REMARK SMILES IDX 53 85 55 86 52 87
REMARK H PARENT 72 49 46 60
REMARK Flexibility Score: inf
ROOT
ATOM      1  O   UNL A   1      34.944  31.696  27.662  1.00  0.00    -0.376 OA
ENDROOT
BRANCH   1   2
ATOM      2  C   UNL A   1      35.059  30.277  27.806  1.00  0.00     0.202 C 
BRANCH   2   3
ATOM      3  C   UNL A   1      34.373  29.350  26.773  1.00  0.00     0.261 C 
BRANCH   3   4
ATOM      4  O   UNL A   1      33.324  28.542  27.321  1.00  0.00    -0.457 OA
BRANCH   4   5
ATOM      5  C   UNL A   1      32.264  28.283  26.496  1.00  0.00     0.374 C 
ATOM      6  O   UNL A   1      31.521  29.123  26.033  1.00  0.00    -0.242 OA
BRANCH   5   7
ATOM      7  C   UNL A   1      32.240  26.871  26.153  1.00  0.00     0.217 A 
ATOM      8  C   UNL A   1      32.915  26.141  25.175  1.00  0.00     0.028 A 
ATOM      9  C   UNL A   1      32.389  24.813  25.245  1.00  0.00     0.025 A 
ATOM     10  O   UNL A   1      31.426  26.034  26.874  1.00  0.00    -0.449 OA
ATOM     11  C   UNL A   1      31.471  24.811  26.284  1.00  0.00     0.135 A 
ATOM     12  C   UNL A   1      32.554  23.636  24.491  1.00  0.00     0.012 A 
ATOM     13  C   UNL A   1      30.686  23.712  26.628  1.00  0.00     0.048 A 
ATOM     14  C   UNL A   1      31.748  22.529  24.782  1.00  0.00     0.001 A 
ATOM     15  C   UNL A   1      30.827  22.570  25.831  1.00  0.00     0.004 A 
BRANCH   8  16
ATOM     16  C   UNL A   1      33.859  26.620  24.127  1.00  0.00     0.177 C 
BRANCH  16  17
ATOM     17  S   UNL A   1      33.353  26.590  22.415  1.00  0.00     0.156 S 
ATOM     18  O   UNL A   1      33.604  25.238  21.950  1.00  0.00    -0.228 OA
ATOM     19  O   UNL A   1      34.021  27.704  21.762  1.00  0.00    -0.228 OA
BRANCH  17  20
ATOM     20  C   UNL A   1      31.608  26.889  22.268  1.00  0.00     0.165 C 
BRANCH  20  21
ATOM     21  C   UNL A   1      31.119  28.265  22.669  1.00  0.00     0.176 C 
BRANCH  21  22
ATOM     22  O   UNL A   1      29.831  28.558  22.148  1.00  0.00    -0.384 OA
ATOM     23  C   UNL A   1      29.555  29.945  22.010  1.00  0.00     0.194 C 
ENDBRANCH  21  22
ENDBRANCH  20  21
ENDBRANCH  17  20
ENDBRANCH  16  17
ENDBRANCH   8  16
ENDBRANCH   5   7
ENDBRANCH   4   5
ENDBRANCH   3   4
ENDBRANCH   2   3
ENDBRANCH   1   2
BRANCH   1  24
ATOM     24  C   UNL A   1      33.627  32.222  27.857  1.00  0.00     0.188 C 
BRANCH  24  25
ATOM     25  C   UNL A   1      33.614  33.729  28.061  1.00  0.00     0.188 C 
BRANCH  25  26
ATOM     26  O   UNL A   1      33.226  34.135  29.369  1.00  0.00    -0.376 OA
BRANCH  26  27
ATOM     27  C   UNL A   1      34.280  34.595  30.204  1.00  0.00     0.202 C 
BRANCH  27  28
ATOM     28  C   UNL A   1      34.634  33.678  31.378  1.00  0.00     0.261 C 
BRANCH  28  29
ATOM     29  O   UNL A   1      36.041  33.565  31.658  1.00  0.00    -0.460 OA
BRANCH  29  30
ATOM     30  C   UNL A   1      36.393  32.446  32.344  1.00  0.00     0.338 C 
ATOM     31  O   UNL A   1      35.877  32.004  33.356  1.00  0.00    -0.246 OA
BRANCH  30  32
ATOM     32  C   UNL A   1      37.484  31.745  31.638  1.00  0.00     0.060 A 
ATOM     33  C   UNL A   1      38.520  31.181  32.389  1.00  0.00     0.016 A 
ATOM     34  C   UNL A   1      37.541  31.727  30.241  1.00  0.00     0.016 A 
ATOM     35  C   UNL A   1      39.616  30.602  31.743  1.00  0.00     0.010 A 
ATOM     36  C   UNL A   1      38.653  31.165  29.597  1.00  0.00     0.010 A 
ATOM     37  C   UNL A   1      39.705  30.609  30.344  1.00  0.00    -0.014 A 
BRANCH  37  38
ATOM     38  C   UNL A   1      40.968  30.172  29.688  1.00  0.00     0.031 A 
ATOM     39  C   UNL A   1      41.064  28.769  29.163  1.00  0.00     0.074 A 
ATOM     40  C   UNL A   1      42.004  31.012  29.512  1.00  0.00     0.049 A 
ATOM     41  N   UNL A   1      42.068  28.172  28.576  1.00  0.00    -0.248 NA
ATOM     42  C   UNL A   1      39.871  27.927  29.332  1.00  0.00     0.031 C 
ATOM     43  C   UNL A   1      42.024  32.406  29.932  1.00  0.00     0.029 A 
ATOM     44  N   UNL A   1      43.228  30.828  28.910  1.00  0.00    -0.354 N 
ATOM     45  C   UNL A   1      41.634  26.881  28.314  1.00  0.00     0.074 A 
ATOM     46  C   UNL A   1      40.277  26.780  28.808  1.00  0.00     0.031 C 
ATOM     47  C   UNL A   1      43.177  32.971  29.531  1.00  0.00     0.029 A 
ATOM     48  C   UNL A   1      44.012  31.960  28.889  1.00  0.00     0.049 A 
ATOM     49  H   UNL A   1      43.516  29.967  28.531  1.00  0.00     0.167 HD
ATOM     50  C   UNL A   1      42.311  25.865  27.729  1.00  0.00     0.037 A 
ATOM     51  C   UNL A   1      45.264  32.153  28.427  1.00  0.00     0.037 A 
ATOM     52  C   UNL A   1      43.671  25.951  27.266  1.00  0.00     0.049 A 
ATOM     53  C   UNL A   1      46.020  30.981  27.847  1.00  0.00     0.074 A 
ATOM     54  C   UNL A   1      44.452  24.956  26.703  1.00  0.00     0.029 A 
ATOM     55  N   UNL A   1      44.456  27.092  27.319  1.00  0.00    -0.354 N 
ATOM     56  N   UNL A   1      45.607  29.757  27.623  1.00  0.00    -0.248 NA
ATOM     57  C   UNL A   1      47.427  31.209  27.485  1.00  0.00     0.031 C 
ATOM     58  C   UNL A   1      45.725  25.479  26.467  1.00  0.00     0.029 A 
ATOM     59  C   UNL A   1      45.719  26.818  26.820  1.00  0.00     0.049 A 
ATOM     60  H   UNL A   1      44.160  27.967  27.661  1.00  0.00     0.167 HD
ATOM     61  C   UNL A   1      46.693  29.080  27.080  1.00  0.00     0.074 A 
ATOM     62  C   UNL A   1      47.775  30.035  26.980  1.00  0.00     0.031 C 
ATOM     63  C   UNL A   1      46.788  27.780  26.711  1.00  0.00     0.037 A 
BRANCH  50  64
ATOM     64  C   UNL A   1      41.602  24.550  27.619  1.00  0.00     0.057 A 
ATOM     65  C   UNL A   1      41.894  23.475  28.468  1.00  0.00     0.134 A 
ATOM     66  C   UNL A   1      40.601  24.364  26.657  1.00  0.00     0.134 A 
ATOM     67  F   UNL A   1      42.857  23.583  29.395  1.00  0.00    -0.206 F 
ATOM     68  C   UNL A   1      41.228  22.254  28.350  1.00  0.00     0.040 A 
ATOM     69  C   UNL A   1      39.909  23.157  26.548  1.00  0.00     0.040 A 
ATOM     70  F   UNL A   1      40.273  25.354  25.813  1.00  0.00    -0.206 F 
ATOM     71  C   UNL A   1      40.227  22.096  27.392  1.00  0.00     0.006 A 
ENDBRANCH  50  64
BRANCH  51  72
ATOM     72  C   UNL A   1      45.933  33.481  28.542  1.00  0.00     0.057 A 
ATOM     73  C   UNL A   1      46.693  33.824  29.669  1.00  0.00     0.134 A 
ATOM     74  C   UNL A   1      45.757  34.475  27.569  1.00  0.00     0.134 A 
ATOM     75  F   UNL A   1      46.874  32.935  30.657  1.00  0.00    -0.206 F 
ATOM     76  C   UNL A   1      47.221  35.107  29.840  1.00  0.00     0.040 A 
ATOM     77  C   UNL A   1      46.310  35.749  27.708  1.00  0.00     0.040 A 
ATOM     78  F   UNL A   1      45.031  34.227  26.469  1.00  0.00    -0.206 F 
ATOM     79  C   UNL A   1      47.033  36.073  28.854  1.00  0.00     0.006 A 
ENDBRANCH  51  72
BRANCH  63  80
ATOM     80  C   UNL A   1      48.092  27.317  26.124  1.00  0.00     0.057 A 
ATOM     81  C   UNL A   1      49.115  26.776  26.914  1.00  0.00     0.134 A 
ATOM     82  C   UNL A   1      48.307  27.368  24.739  1.00  0.00     0.134 A 
ATOM     83  F   UNL A   1      48.980  26.706  28.247  1.00  0.00    -0.206 F 
ATOM     84  C   UNL A   1      50.312  26.327  26.353  1.00  0.00     0.040 A 
ATOM     85  C   UNL A   1      49.487  26.894  24.164  1.00  0.00     0.040 A 
ATOM     86  F   UNL A   1      47.366  27.863  23.922  1.00  0.00    -0.206 F 
ATOM     87  C   UNL A   1      50.497  26.378  24.972  1.00  0.00     0.006 A 
ENDBRANCH  63  80
ENDBRANCH  37  38
ENDBRANCH  30  32
ENDBRANCH  29  30
ENDBRANCH  28  29
ENDBRANCH  27  28
ENDBRANCH  26  27
ENDBRANCH  25  26
ENDBRANCH  24  25
ENDBRANCH   1  24
TORSDOF 22
ENDMDL
MODEL 3
REMARK VINA RESULT:      -9.6      3.911      9.086
REMARK SMILES COCCS(=O)(=O)Cc1c(C(=O)OCCOCCOCCOC(=O)c2ccc(-c3c4nc(c(-c5c(F)cccc5F)c5ccc([nH]5)c(-c5c(F)cccc5F)c5nc(c(-c6c(F)cccc6F)c6ccc3[nH]6)C=C5)C=C4)cc2)oc2ccccc12
REMARK SMILES IDX 16 1 15 2 14 3 13 4 11 5 12 6 10 7 9 8 85 9 79 10 80 11
REMARK SMILES IDX 84 12 81 13 83 14 82 15 8 16 5 17 6 18 7 19 4 20 3 21 2 22
REMARK SMILES IDX 1 23 17 24 18 25 19 26 20 27 21 28 22 29 23 30 24 31 25 32
REMARK SMILES IDX 26 33 78 34 27 35 77 36 28 37 29 38 30 39 71 40 31 41 76 42
REMARK SMILES IDX 70 43 72 44 32 45 75 46 69 47 68 48 33 50 59 51 42 52 58 53
REMARK SMILES IDX 43 54 46 55 57 56 73 57 44 58 45 59 56 61 74 62 47 63 34 64
REMARK SMILES IDX 35 65 40 66 36 67 37 68 39 69 41 70 38 71 60 72 61 73 66 74
REMARK SMILES IDX 62 75 63 76 65 77 67 78 64 79 48 80 49 81 54 82 50 83 51 84
REMARK SMILES IDX 53 85 55 86 52 87
REMARK H PARENT 72 49 46 60
REMARK Flexibility Score: inf
ROOT
ATOM      1  O   UNL A   1      39.796  22.153  26.888  1.00  0.00    -0.376 OA
ENDROOT
BRANCH   1   2
ATOM      2  C   UNL A   1      39.341  23.509  26.860  1.00  0.00     0.202 C 
BRANCH   2   3
ATOM      3  C   UNL A   1      38.089  23.875  26.026  1.00  0.00     0.261 C 
BRANCH   3   4
ATOM      4  O   UNL A   1      37.480  22.757  25.367  1.00  0.00    -0.457 OA
BRANCH   4   5
ATOM      5  C   UNL A   1      36.553  23.052  24.406  1.00  0.00     0.374 C 
ATOM      6  O   UNL A   1      36.678  22.815  23.222  1.00  0.00    -0.242 OA
BRANCH   5   7
ATOM      7  C   UNL A   1      35.347  23.571  25.028  1.00  0.00     0.217 A 
ATOM      8  C   UNL A   1      34.241  22.931  25.586  1.00  0.00     0.028 A 
ATOM      9  C   UNL A   1      33.319  23.970  25.928  1.00  0.00     0.025 A 
ATOM     10  O   UNL A   1      35.187  24.930  25.116  1.00  0.00    -0.449 OA
ATOM     11  C   UNL A   1      33.940  25.167  25.601  1.00  0.00     0.135 A 
ATOM     12  C   UNL A   1      32.000  24.009  26.420  1.00  0.00     0.012 A 
ATOM     13  C   UNL A   1      33.334  26.416  25.719  1.00  0.00     0.048 A 
ATOM     14  C   UNL A   1      31.349  25.246  26.508  1.00  0.00     0.001 A 
ATOM     15  C   UNL A   1      32.005  26.427  26.158  1.00  0.00     0.004 A 
BRANCH   8  16
ATOM     16  C   UNL A   1      33.940  21.475  25.673  1.00  0.00     0.177 C 
BRANCH  16  17
ATOM     17  S   UNL A   1      32.713  20.769  24.584  1.00  0.00     0.156 S 
ATOM     18  O   UNL A   1      32.877  21.445  23.310  1.00  0.00    -0.228 OA
ATOM     19  O   UNL A   1      31.439  20.855  25.279  1.00  0.00    -0.228 OA
BRANCH  17  20
ATOM     20  C   UNL A   1      33.029  19.042  24.316  1.00  0.00     0.165 C 
BRANCH  20  21
ATOM     21  C   UNL A   1      32.359  18.407  23.116  1.00  0.00     0.176 C 
BRANCH  21  22
ATOM     22  O   UNL A   1      33.170  17.418  22.499  1.00  0.00    -0.384 OA
ATOM     23  C   UNL A   1      34.218  16.923  23.321  1.00  0.00     0.194 C 
ENDBRANCH  21  22
ENDBRANCH  20  21
ENDBRANCH  17  20
ENDBRANCH  16  17
ENDBRANCH   8  16
ENDBRANCH   5   7
ENDBRANCH   4   5
ENDBRANCH   3   4
ENDBRANCH   2   3
ENDBRANCH   1   2
BRANCH   1  24
ATOM     24  C   UNL A   1      40.958  21.918  27.691  1.00  0.00     0.188 C 
BRANCH  24  25
ATOM     25  C   UNL A   1      41.908  20.901  27.077  1.00  0.00     0.188 C 
BRANCH  25  26
ATOM     26  O   UNL A   1      41.736  19.576  27.567  1.00  0.00    -0.376 OA
BRANCH  26  27
ATOM     27  C   UNL A   1      42.692  18.628  27.112  1.00  0.00     0.202 C 
BRANCH  27  28
ATOM     28  C   UNL A   1      43.025  18.696  25.618  1.00  0.00     0.261 C 
BRANCH  28  29
ATOM     29  O   UNL A   1      44.416  18.897  25.314  1.00  0.00    -0.460 OA
BRANCH  29  30
ATOM     30  C   UNL A   1      44.651  19.644  24.204  1.00  0.00     0.338 C 
ATOM     31  O   UNL A   1      44.521  19.303  23.040  1.00  0.00    -0.246 OA
BRANCH  30  32
ATOM     32  C   UNL A   1      45.029  21.018  24.591  1.00  0.00     0.060 A 
ATOM     33  C   UNL A   1      45.460  21.256  25.899  1.00  0.00     0.016 A 
ATOM     34  C   UNL A   1      44.866  22.084  23.701  1.00  0.00     0.016 A 
ATOM     35  C   UNL A   1      45.725  22.563  26.320  1.00  0.00     0.010 A 
ATOM     36  C   UNL A   1      45.111  23.396  24.134  1.00  0.00     0.010 A 
ATOM     37  C   UNL A   1      45.531  23.646  25.451  1.00  0.00    -0.014 A 
BRANCH  37  38
ATOM     38  C   UNL A   1      45.623  25.034  25.980  1.00  0.00     0.031 A 
ATOM     39  C   UNL A   1      46.932  25.761  25.880  1.00  0.00     0.074 A 
ATOM     40  C   UNL A   1      44.556  25.668  26.499  1.00  0.00     0.049 A 
ATOM     41  N   UNL A   1      47.244  26.964  26.289  1.00  0.00    -0.248 NA
ATOM     42  C   UNL A   1      48.037  25.031  25.243  1.00  0.00     0.031 C 
ATOM     43  C   UNL A   1      43.223  25.095  26.613  1.00  0.00     0.029 A 
ATOM     44  N   UNL A   1      44.414  26.941  27.002  1.00  0.00    -0.354 N 
ATOM     45  C   UNL A   1      48.583  27.133  25.969  1.00  0.00     0.074 A 
ATOM     46  C   UNL A   1      49.026  25.908  25.335  1.00  0.00     0.031 C 
ATOM     47  C   UNL A   1      42.383  26.025  27.100  1.00  0.00     0.029 A 
ATOM     48  C   UNL A   1      43.133  27.240  27.405  1.00  0.00     0.049 A 
ATOM     49  H   UNL A   1      45.161  27.579  27.068  1.00  0.00     0.167 HD
ATOM     50  C   UNL A   1      49.377  28.204  26.198  1.00  0.00     0.037 A 
ATOM     51  C   UNL A   1      42.627  28.354  27.973  1.00  0.00     0.037 A 
ATOM     52  C   UNL A   1      48.951  29.410  26.858  1.00  0.00     0.049 A 
ATOM     53  C   UNL A   1      43.555  29.504  28.283  1.00  0.00     0.074 A 
ATOM     54  C   UNL A   1      49.702  30.529  27.175  1.00  0.00     0.029 A 
ATOM     55  N   UNL A   1      47.663  29.653  27.310  1.00  0.00    -0.354 N 
ATOM     56  N   UNL A   1      44.826  29.645  27.995  1.00  0.00    -0.248 NA
ATOM     57  C   UNL A   1      42.984  30.638  29.026  1.00  0.00     0.031 C 
ATOM     58  C   UNL A   1      48.884  31.424  27.867  1.00  0.00     0.029 A 
ATOM     59  C   UNL A   1      47.606  30.894  27.923  1.00  0.00     0.049 A 
ATOM     60  H   UNL A   1      46.903  29.035  27.211  1.00  0.00     0.167 HD
ATOM     61  C   UNL A   1      45.199  30.884  28.504  1.00  0.00     0.074 A 
ATOM     62  C   UNL A   1      44.014  31.469  29.092  1.00  0.00     0.031 C 
ATOM     63  C   UNL A   1      46.417  31.476  28.496  1.00  0.00     0.037 A 
BRANCH  50  64
ATOM     64  C   UNL A   1      50.813  28.087  25.785  1.00  0.00     0.057 A 
ATOM     65  C   UNL A   1      51.831  27.816  26.707  1.00  0.00     0.134 A 
ATOM     66  C   UNL A   1      51.177  28.233  24.440  1.00  0.00     0.134 A 
ATOM     67  F   UNL A   1      51.551  27.687  28.013  1.00  0.00    -0.206 F 
ATOM     68  C   UNL A   1      53.165  27.715  26.308  1.00  0.00     0.040 A 
ATOM     69  C   UNL A   1      52.503  28.106  24.025  1.00  0.00     0.040 A 
ATOM     70  F   UNL A   1      50.249  28.493  23.507  1.00  0.00    -0.206 F 
ATOM     71  C   UNL A   1      53.502  27.853  24.962  1.00  0.00     0.006 A 
ENDBRANCH  50  64
BRANCH  51  72
ATOM     72  C   UNL A   1      41.188  28.439  28.358  1.00  0.00     0.057 A 
ATOM     73  C   UNL A   1      40.735  27.978  29.602  1.00  0.00     0.134 A 
ATOM     74  C   UNL A   1      40.216  28.900  27.459  1.00  0.00     0.134 A 
ATOM     75  F   UNL A   1      41.603  27.489  30.499  1.00  0.00    -0.206 F 
ATOM     76  C   UNL A   1      39.374  27.941  29.923  1.00  0.00     0.040 A 
ATOM     77  C   UNL A   1      38.858  28.905  27.781  1.00  0.00     0.040 A 
ATOM     78  F   UNL A   1      40.572  29.344  26.244  1.00  0.00    -0.206 F 
ATOM     79  C   UNL A   1      38.431  28.410  29.011  1.00  0.00     0.006 A 
ENDBRANCH  51  72
BRANCH  63  80
ATOM     80  C   UNL A   1      46.529  32.847  29.104  1.00  0.00     0.057 A 
ATOM     81  C   UNL A   1      46.811  33.038  30.463  1.00  0.00     0.134 A 
ATOM     82  C   UNL A   1      46.401  33.991  28.305  1.00  0.00     0.134 A 
ATOM     83  F   UNL A   1      46.936  31.985  31.286  1.00  0.00    -0.206 F 
ATOM     84  C   UNL A   1      46.936  34.316  31.010  1.00  0.00     0.040 A 
ATOM     85  C   UNL A   1      46.555  35.273  28.835  1.00  0.00     0.040 A 
ATOM     86  F   UNL A   1      46.143  33.882  26.994  1.00  0.00    -0.206 F 
ATOM     87  C   UNL A   1      46.816  35.439  30.193  1.00  0.00     0.006 A 
ENDBRANCH  63  80
ENDBRANCH  37  38
ENDBRANCH  30  32
ENDBRANCH  29  30
ENDBRANCH  28  29
ENDBRANCH  27  28
ENDBRANCH  26  27
ENDBRANCH  25  26
ENDBRANCH  24  25
ENDBRANCH   1  24
TORSDOF 22
ENDMDL
