MODEL 1
REMARK VINA RESULT:     -10.1      0.000      0.000
REMARK SMILES O=C(OCCOCCOCCOC(=O)c1c(F)ccc(F)c1Br)c1ccc(-c2c3nc(c(-c4c(F)cccc4F)c4ccc([nH]4)c(-c4c(F)cccc4F)c4nc(c(-c5c(F)cccc5F)c5ccc2[nH]5)C=C4)C=C3)cc1
REMARK SMILES IDX 7 1 6 2 5 3 4 4 3 5 2 6 1 7 24 8 25 9 77 10 26 11 76 12
REMARK SMILES IDX 27 13 28 14 29 15 70 16 30 17 75 18 69 19 71 20 31 21 74 22
REMARK SMILES IDX 68 23 67 24 32 26 58 27 41 28 57 29 42 30 45 31 56 32 72 33
REMARK SMILES IDX 43 34 44 35 55 37 73 38 46 39 33 40 34 41 39 42 35 43 36 44
REMARK SMILES IDX 38 45 40 46 37 47 59 48 60 49 65 50 61 51 62 52 64 53 66 54
REMARK SMILES IDX 63 55 47 56 48 57 53 58 49 59 50 60 52 61 54 62 51 63 8 64
REMARK SMILES IDX 9 65 10 66 11 67 12 68 13 69 14 70 15 71 16 72 22 73 17 74
REMARK SMILES IDX 18 75 20 76 23 77 19 78 21 79
REMARK H PARENT 71 25 45 36
REMARK Flexibility Score: inf
ROOT
ATOM      1  C   UNL A   1      45.002  19.503  23.453  1.00  0.00     0.188 C 
ENDROOT
BRANCH   1   2
ATOM      2  O   UNL A   1      44.671  20.889  23.576  1.00  0.00    -0.376 OA
BRANCH   2   3
ATOM      3  C   UNL A   1      45.399  21.598  24.572  1.00  0.00     0.202 C 
BRANCH   3   4
ATOM      4  C   UNL A   1      44.475  22.449  25.433  1.00  0.00     0.261 C 
BRANCH   4   5
ATOM      5  O   UNL A   1      44.137  23.665  24.745  1.00  0.00    -0.460 OA
BRANCH   5   6
ATOM      6  C   UNL A   1      44.631  24.893  25.026  1.00  0.00     0.338 C 
ATOM      7  O   UNL A   1      45.788  25.160  24.707  1.00  0.00    -0.246 OA
BRANCH   6   8
ATOM      8  C   UNL A   1      43.919  25.852  25.933  1.00  0.00     0.060 A 
ATOM      9  C   UNL A   1      42.732  25.374  26.522  1.00  0.00     0.016 A 
ATOM     10  C   UNL A   1      44.382  27.110  26.324  1.00  0.00     0.016 A 
ATOM     11  C   UNL A   1      42.060  26.107  27.507  1.00  0.00     0.010 A 
ATOM     12  C   UNL A   1      43.712  27.849  27.310  1.00  0.00     0.010 A 
ATOM     13  C   UNL A   1      42.570  27.337  27.933  1.00  0.00    -0.014 A 
BRANCH  13  14
ATOM     14  C   UNL A   1      42.044  27.989  29.156  1.00  0.00     0.031 A 
ATOM     15  C   UNL A   1      42.651  27.759  30.503  1.00  0.00     0.074 A 
ATOM     16  C   UNL A   1      40.943  28.754  29.037  1.00  0.00     0.049 A 
ATOM     17  N   UNL A   1      42.366  28.342  31.640  1.00  0.00    -0.248 NA
ATOM     18  C   UNL A   1      43.703  26.737  30.595  1.00  0.00     0.031 C 
ATOM     19  C   UNL A   1      40.208  28.984  27.791  1.00  0.00     0.029 A 
ATOM     20  N   UNL A   1      40.237  29.460  29.976  1.00  0.00    -0.354 N 
ATOM     21  C   UNL A   1      43.236  27.801  32.573  1.00  0.00     0.074 A 
ATOM     22  C   UNL A   1      44.007  26.784  31.887  1.00  0.00     0.031 C 
ATOM     23  C   UNL A   1      39.142  29.757  28.046  1.00  0.00     0.029 A 
ATOM     24  C   UNL A   1      39.127  30.088  29.468  1.00  0.00     0.049 A 
ATOM     25  H   UNL A   1      40.500  29.511  30.923  1.00  0.00     0.167 HD
ATOM     26  C   UNL A   1      43.392  28.142  33.875  1.00  0.00     0.037 A 
ATOM     27  C   UNL A   1      38.207  30.856  30.077  1.00  0.00     0.037 A 
ATOM     28  C   UNL A   1      42.567  29.092  34.575  1.00  0.00     0.049 A 
ATOM     29  C   UNL A   1      38.376  31.189  31.530  1.00  0.00     0.074 A 
ATOM     30  C   UNL A   1      42.662  29.519  35.889  1.00  0.00     0.029 A 
ATOM     31  N   UNL A   1      41.468  29.735  34.026  1.00  0.00    -0.354 N 
ATOM     32  N   UNL A   1      39.303  30.788  32.365  1.00  0.00    -0.248 NA
ATOM     33  C   UNL A   1      37.390  32.108  32.114  1.00  0.00     0.031 C 
ATOM     34  C   UNL A   1      41.599  30.395  36.143  1.00  0.00     0.029 A 
ATOM     35  C   UNL A   1      40.864  30.538  34.979  1.00  0.00     0.049 A 
ATOM     36  H   UNL A   1      41.164  29.635  33.095  1.00  0.00     0.167 HD
ATOM     37  C   UNL A   1      39.029  31.426  33.567  1.00  0.00     0.074 A 
ATOM     38  C   UNL A   1      37.858  32.250  33.346  1.00  0.00     0.031 C 
ATOM     39  C   UNL A   1      39.692  31.342  34.746  1.00  0.00     0.037 A 
BRANCH  26  40
ATOM     40  C   UNL A   1      44.527  27.510  34.621  1.00  0.00     0.057 A 
ATOM     41  C   UNL A   1      44.364  26.323  35.340  1.00  0.00     0.134 A 
ATOM     42  C   UNL A   1      45.782  28.130  34.666  1.00  0.00     0.134 A 
ATOM     43  F   UNL A   1      43.183  25.688  35.346  1.00  0.00    -0.206 F 
ATOM     44  C   UNL A   1      45.416  25.768  36.073  1.00  0.00     0.040 A 
ATOM     45  C   UNL A   1      46.844  27.581  35.387  1.00  0.00     0.040 A 
ATOM     46  F   UNL A   1      46.007  29.262  33.981  1.00  0.00    -0.206 F 
ATOM     47  C   UNL A   1      46.661  26.396  36.095  1.00  0.00     0.006 A 
ENDBRANCH  26  40
BRANCH  27  48
ATOM     48  C   UNL A   1      37.073  31.400  29.295  1.00  0.00     0.057 A 
ATOM     49  C   UNL A   1      35.939  30.625  29.025  1.00  0.00     0.134 A 
ATOM     50  C   UNL A   1      37.102  32.705  28.790  1.00  0.00     0.134 A 
ATOM     51  F   UNL A   1      35.858  29.364  29.477  1.00  0.00    -0.206 F 
ATOM     52  C   UNL A   1      34.873  31.128  28.278  1.00  0.00     0.040 A 
ATOM     53  C   UNL A   1      36.036  33.226  28.056  1.00  0.00     0.040 A 
ATOM     54  F   UNL A   1      38.157  33.497  29.030  1.00  0.00    -0.206 F 
ATOM     55  C   UNL A   1      34.919  32.435  27.796  1.00  0.00     0.006 A 
ENDBRANCH  27  48
BRANCH  39  56
ATOM     56  C   UNL A   1      39.165  32.178  35.873  1.00  0.00     0.057 A 
ATOM     57  C   UNL A   1      39.571  33.509  36.026  1.00  0.00     0.134 A 
ATOM     58  C   UNL A   1      38.245  31.669  36.797  1.00  0.00     0.134 A 
ATOM     59  F   UNL A   1      40.455  34.054  35.176  1.00  0.00    -0.206 F 
ATOM     60  C   UNL A   1      39.071  34.309  37.054  1.00  0.00     0.040 A 
ATOM     61  C   UNL A   1      37.720  32.465  37.817  1.00  0.00     0.040 A 
ATOM     62  F   UNL A   1      37.806  30.405  36.693  1.00  0.00    -0.206 F 
ATOM     63  C   UNL A   1      38.135  33.789  37.947  1.00  0.00     0.006 A 
ENDBRANCH  39  56
ENDBRANCH  13  14
ENDBRANCH   6   8
ENDBRANCH   5   6
ENDBRANCH   4   5
ENDBRANCH   3   4
ENDBRANCH   2   3
ENDBRANCH   1   2
BRANCH   1  64
ATOM     64  C   UNL A   1      45.365  18.791  24.764  1.00  0.00     0.188 C 
BRANCH  64  65
ATOM     65  O   UNL A   1      44.319  18.085  25.422  1.00  0.00    -0.376 OA
BRANCH  65  66
ATOM     66  C   UNL A   1      43.450  18.825  26.274  1.00  0.00     0.202 C 
BRANCH  66  67
ATOM     67  C   UNL A   1      42.038  19.044  25.736  1.00  0.00     0.261 C 
BRANCH  67  68
ATOM     68  O   UNL A   1      41.580  20.391  25.967  1.00  0.00    -0.460 OA
BRANCH  68  69
ATOM     69  C   UNL A   1      40.767  20.567  27.035  1.00  0.00     0.342 C 
ATOM     70  O   UNL A   1      40.764  19.944  28.080  1.00  0.00    -0.246 OA
BRANCH  69  71
ATOM     71  C   UNL A   1      39.818  21.643  26.747  1.00  0.00     0.112 A 
ATOM     72  C   UNL A   1      40.074  22.886  27.325  1.00  0.00     0.139 A 
ATOM     73  C   UNL A   1      38.767  21.503  25.837  1.00  0.00     0.071 A 
ATOM     74  F   UNL A   1      41.084  23.047  28.191  1.00  0.00    -0.206 F 
ATOM     75  C   UNL A   1      39.300  23.994  26.999  1.00  0.00     0.043 A 
ATOM     76  C   UNL A   1      37.981  22.620  25.535  1.00  0.00     0.138 A 
ATOM     77  Br  UNL A   1      38.342  19.852  25.007  1.00  0.00    -0.047 Br
ATOM     78  C   UNL A   1      38.243  23.862  26.105  1.00  0.00     0.043 A 
ATOM     79  F   UNL A   1      36.958  22.522  24.673  1.00  0.00    -0.206 F 
ENDBRANCH  69  71
ENDBRANCH  68  69
ENDBRANCH  67  68
ENDBRANCH  66  67
ENDBRANCH  65  66
ENDBRANCH  64  65
ENDBRANCH   1  64
TORSDOF 17
ENDMDL
MODEL 2
REMARK VINA RESULT:      -9.7      2.009      2.797
REMARK SMILES O=C(OCCOCCOCCOC(=O)c1c(F)ccc(F)c1Br)c1ccc(-c2c3nc(c(-c4c(F)cccc4F)c4ccc([nH]4)c(-c4c(F)cccc4F)c4nc(c(-c5c(F)cccc5F)c5ccc2[nH]5)C=C4)C=C3)cc1
REMARK SMILES IDX 7 1 6 2 5 3 4 4 3 5 2 6 1 7 24 8 25 9 77 10 26 11 76 12
REMARK SMILES IDX 27 13 28 14 29 15 70 16 30 17 75 18 69 19 71 20 31 21 74 22
REMARK SMILES IDX 68 23 67 24 32 26 58 27 41 28 57 29 42 30 45 31 56 32 72 33
REMARK SMILES IDX 43 34 44 35 55 37 73 38 46 39 33 40 34 41 39 42 35 43 36 44
REMARK SMILES IDX 38 45 40 46 37 47 59 48 60 49 65 50 61 51 62 52 64 53 66 54
REMARK SMILES IDX 63 55 47 56 48 57 53 58 49 59 50 60 52 61 54 62 51 63 8 64
REMARK SMILES IDX 9 65 10 66 11 67 12 68 13 69 14 70 15 71 16 72 22 73 17 74
REMARK SMILES IDX 18 75 20 76 23 77 19 78 21 79
REMARK H PARENT 71 25 45 36
REMARK Flexibility Score: inf
ROOT
ATOM      1  C   UNL A   1      41.930  21.381  26.442  1.00  0.00     0.188 C 
ENDROOT
BRANCH   1   2
ATOM      2  O   UNL A   1      42.827  20.889  25.443  1.00  0.00    -0.376 OA
BRANCH   2   3
ATOM      3  C   UNL A   1      44.137  21.443  25.481  1.00  0.00     0.202 C 
BRANCH   3   4
ATOM      4  C   UNL A   1      44.417  22.288  24.245  1.00  0.00     0.261 C 
BRANCH   4   5
ATOM      5  O   UNL A   1      43.765  23.564  24.359  1.00  0.00    -0.460 OA
BRANCH   5   6
ATOM      6  C   UNL A   1      44.335  24.703  24.815  1.00  0.00     0.338 C 
ATOM      7  O   UNL A   1      45.542  24.872  24.659  1.00  0.00    -0.246 OA
BRANCH   6   8
ATOM      8  C   UNL A   1      43.610  25.649  25.726  1.00  0.00     0.060 A 
ATOM      9  C   UNL A   1      42.528  25.104  26.443  1.00  0.00     0.016 A 
ATOM     10  C   UNL A   1      43.980  26.967  26.003  1.00  0.00     0.016 A 
ATOM     11  C   UNL A   1      41.872  25.834  27.441  1.00  0.00     0.010 A 
ATOM     12  C   UNL A   1      43.326  27.704  27.001  1.00  0.00     0.010 A 
ATOM     13  C   UNL A   1      42.294  27.130  27.751  1.00  0.00    -0.014 A 
BRANCH  13  14
ATOM     14  C   UNL A   1      41.810  27.808  28.976  1.00  0.00     0.031 A 
ATOM     15  C   UNL A   1      42.434  27.572  30.315  1.00  0.00     0.074 A 
ATOM     16  C   UNL A   1      40.731  28.606  28.870  1.00  0.00     0.049 A 
ATOM     17  N   UNL A   1      42.188  28.173  31.452  1.00  0.00    -0.248 NA
ATOM     18  C   UNL A   1      43.455  26.518  30.398  1.00  0.00     0.031 C 
ATOM     19  C   UNL A   1      39.981  28.847  27.635  1.00  0.00     0.029 A 
ATOM     20  N   UNL A   1      40.064  29.341  29.815  1.00  0.00    -0.354 N 
ATOM     21  C   UNL A   1      43.057  27.613  32.374  1.00  0.00     0.074 A 
ATOM     22  C   UNL A   1      43.783  26.568  31.684  1.00  0.00     0.031 C 
ATOM     23  C   UNL A   1      38.944  29.656  27.902  1.00  0.00     0.029 A 
ATOM     24  C   UNL A   1      38.965  30.000  29.320  1.00  0.00     0.049 A 
ATOM     25  H   UNL A   1      40.345  29.393  30.757  1.00  0.00     0.167 HD
ATOM     26  C   UNL A   1      43.246  27.961  33.670  1.00  0.00     0.037 A 
ATOM     27  C   UNL A   1      38.080  30.800  29.939  1.00  0.00     0.037 A 
ATOM     28  C   UNL A   1      42.464  28.942  34.375  1.00  0.00     0.049 A 
ATOM     29  C   UNL A   1      38.285  31.141  31.385  1.00  0.00     0.074 A 
ATOM     30  C   UNL A   1      42.595  29.377  35.684  1.00  0.00     0.029 A 
ATOM     31  N   UNL A   1      41.376  29.613  33.840  1.00  0.00    -0.354 N 
ATOM     32  N   UNL A   1      39.214  30.719  32.208  1.00  0.00    -0.248 NA
ATOM     33  C   UNL A   1      37.339  32.094  31.978  1.00  0.00     0.031 C 
ATOM     34  C   UNL A   1      41.565  30.288  35.949  1.00  0.00     0.029 A 
ATOM     35  C   UNL A   1      40.813  30.443  34.796  1.00  0.00     0.049 A 
ATOM     36  H   UNL A   1      41.051  29.515  32.915  1.00  0.00     0.167 HD
ATOM     37  C   UNL A   1      38.982  31.375  33.408  1.00  0.00     0.074 A 
ATOM     38  C   UNL A   1      37.832  32.233  33.200  1.00  0.00     0.031 C 
ATOM     39  C   UNL A   1      39.663  31.281  34.576  1.00  0.00     0.037 A 
BRANCH  26  40
ATOM     40  C   UNL A   1      44.375  27.301  34.402  1.00  0.00     0.057 A 
ATOM     41  C   UNL A   1      44.193  26.113  35.116  1.00  0.00     0.134 A 
ATOM     42  C   UNL A   1      45.643  27.894  34.438  1.00  0.00     0.134 A 
ATOM     43  F   UNL A   1      42.999  25.505  35.130  1.00  0.00    -0.206 F 
ATOM     44  C   UNL A   1      45.240  25.532  35.836  1.00  0.00     0.040 A 
ATOM     45  C   UNL A   1      46.700  27.317  35.145  1.00  0.00     0.040 A 
ATOM     46  F   UNL A   1      45.886  29.024  33.756  1.00  0.00    -0.206 F 
ATOM     47  C   UNL A   1      46.499  26.133  35.849  1.00  0.00     0.006 A 
ENDBRANCH  26  40
BRANCH  27  48
ATOM     48  C   UNL A   1      36.949  31.373  29.172  1.00  0.00     0.057 A 
ATOM     49  C   UNL A   1      35.820  30.606  28.863  1.00  0.00     0.134 A 
ATOM     50  C   UNL A   1      36.978  32.697  28.721  1.00  0.00     0.134 A 
ATOM     51  F   UNL A   1      35.740  29.327  29.262  1.00  0.00    -0.206 F 
ATOM     52  C   UNL A   1      34.758  31.135  28.129  1.00  0.00     0.040 A 
ATOM     53  C   UNL A   1      35.915  33.245  28.001  1.00  0.00     0.040 A 
ATOM     54  F   UNL A   1      38.029  33.481  29.000  1.00  0.00    -0.206 F 
ATOM     55  C   UNL A   1      34.803  32.461  27.701  1.00  0.00     0.006 A 
ENDBRANCH  27  48
BRANCH  39  56
ATOM     56  C   UNL A   1      39.182  32.142  35.705  1.00  0.00     0.057 A 
ATOM     57  C   UNL A   1      39.634  33.461  35.840  1.00  0.00     0.134 A 
ATOM     58  C   UNL A   1      38.260  31.671  36.647  1.00  0.00     0.134 A 
ATOM     59  F   UNL A   1      40.521  33.969  34.972  1.00  0.00    -0.206 F 
ATOM     60  C   UNL A   1      39.177  34.284  36.869  1.00  0.00     0.040 A 
ATOM     61  C   UNL A   1      37.779  32.492  37.669  1.00  0.00     0.040 A 
ATOM     62  F   UNL A   1      37.778  30.422  36.561  1.00  0.00    -0.206 F 
ATOM     63  C   UNL A   1      38.239  33.802  37.781  1.00  0.00     0.006 A 
ENDBRANCH  39  56
ENDBRANCH  13  14
ENDBRANCH   6   8
ENDBRANCH   5   6
ENDBRANCH   4   5
ENDBRANCH   3   4
ENDBRANCH   2   3
ENDBRANCH   1   2
BRANCH   1  64
ATOM     64  C   UNL A   1      40.436  21.213  26.131  1.00  0.00     0.188 C 
BRANCH  64  65
ATOM     65  O   UNL A   1      39.578  22.286  26.504  1.00  0.00    -0.376 OA
BRANCH  65  66
ATOM     66  C   UNL A   1      38.312  22.381  25.858  1.00  0.00     0.202 C 
BRANCH  66  67
ATOM     67  C   UNL A   1      37.729  21.058  25.366  1.00  0.00     0.261 C 
BRANCH  67  68
ATOM     68  O   UNL A   1      36.516  21.256  24.613  1.00  0.00    -0.460 OA
BRANCH  68  69
ATOM     69  C   UNL A   1      35.431  21.639  25.325  1.00  0.00     0.342 C 
ATOM     70  O   UNL A   1      35.211  21.453  26.508  1.00  0.00    -0.246 OA
BRANCH  69  71
ATOM     71  C   UNL A   1      34.486  22.318  24.437  1.00  0.00     0.112 A 
ATOM     72  C   UNL A   1      34.792  23.628  24.069  1.00  0.00     0.139 A 
ATOM     73  C   UNL A   1      33.388  21.673  23.863  1.00  0.00     0.071 A 
ATOM     74  F   UNL A   1      35.847  24.263  24.598  1.00  0.00    -0.206 F 
ATOM     75  C   UNL A   1      34.021  24.300  23.127  1.00  0.00     0.043 A 
ATOM     76  C   UNL A   1      32.606  22.367  22.933  1.00  0.00     0.138 A 
ATOM     77  Br  UNL A   1      32.894  19.897  24.307  1.00  0.00    -0.047 Br
ATOM     78  C   UNL A   1      32.918  23.671  22.559  1.00  0.00     0.043 A 
ATOM     79  F   UNL A   1      31.540  21.784  22.367  1.00  0.00    -0.206 F 
ENDBRANCH  69  71
ENDBRANCH  68  69
ENDBRANCH  67  68
ENDBRANCH  66  67
ENDBRANCH  65  66
ENDBRANCH  64  65
ENDBRANCH   1  64
TORSDOF 17
ENDMDL
MODEL 3
REMARK VINA RESULT:      -9.3      4.497      9.075
REMARK SMILES O=C(OCCOCCOCCOC(=O)c1c(F)ccc(F)c1Br)c1ccc(-c2c3nc(c(-c4c(F)cccc4F)c4ccc([nH]4)c(-c4c(F)cccc4F)c4nc(c(-c5c(F)cccc5F)c5ccc2[nH]5)C=C4)C=C3)cc1
REMARK SMILES IDX 7 1 6 2 5 3 4 4 3 5 2 6 1 7 24 8 25 9 77 10 26 11 76 12
REMARK SMILES IDX 27 13 28 14 29 15 70 16 30 17 75 18 69 19 71 20 31 21 74 22
REMARK SMILES IDX 68 23 67 24 32 26 58 27 41 28 57 29 42 30 45 31 56 32 72 33
REMARK SMILES IDX 43 34 44 35 55 37 73 38 46 39 33 40 34 41 39 42 35 43 36 44
REMARK SMILES IDX 38 45 40 46 37 47 59 48 60 49 65 50 61 51 62 52 64 53 66 54
REMARK SMILES IDX 63 55 47 56 48 57 53 58 49 59 50 60 52 61 54 62 51 63 8 64
REMARK SMILES IDX 9 65 10 66 11 67 12 68 13 69 14 70 15 71 16 72 22 73 17 74
REMARK SMILES IDX 18 75 20 76 23 77 19 78 21 79
REMARK H PARENT 71 25 45 36
REMARK Flexibility Score: inf
ROOT
ATOM      1  C   UNL A   1      35.536  21.847  26.162  1.00  0.00     0.188 C 
ENDROOT
BRANCH   1   2
ATOM      2  O   UNL A   1      35.929  20.866  25.199  1.00  0.00    -0.376 OA
BRANCH   2   3
ATOM      3  C   UNL A   1      37.180  21.108  24.565  1.00  0.00     0.202 C 
BRANCH   3   4
ATOM      4  C   UNL A   1      38.305  21.221  25.586  1.00  0.00     0.261 C 
BRANCH   4   5
ATOM      5  O   UNL A   1      39.108  20.029  25.571  1.00  0.00    -0.460 OA
BRANCH   5   6
ATOM      6  C   UNL A   1      40.425  19.961  25.873  1.00  0.00     0.338 C 
ATOM      7  O   UNL A   1      41.010  18.885  25.759  1.00  0.00    -0.246 OA
BRANCH   6   8
ATOM      8  C   UNL A   1      41.140  21.072  26.583  1.00  0.00     0.060 A 
ATOM      9  C   UNL A   1      41.818  21.991  25.759  1.00  0.00     0.016 A 
ATOM     10  C   UNL A   1      41.096  21.332  27.954  1.00  0.00     0.016 A 
ATOM     11  C   UNL A   1      42.388  23.158  26.282  1.00  0.00     0.010 A 
ATOM     12  C   UNL A   1      41.666  22.499  28.484  1.00  0.00     0.010 A 
ATOM     13  C   UNL A   1      42.282  23.436  27.648  1.00  0.00    -0.014 A 
BRANCH  13  14
ATOM     14  C   UNL A   1      42.622  24.779  28.172  1.00  0.00     0.031 A 
ATOM     15  C   UNL A   1      41.605  25.871  28.281  1.00  0.00     0.074 A 
ATOM     16  C   UNL A   1      43.907  25.024  28.492  1.00  0.00     0.049 A 
ATOM     17  N   UNL A   1      41.732  27.058  28.818  1.00  0.00    -0.248 NA
ATOM     18  C   UNL A   1      40.280  25.609  27.701  1.00  0.00     0.031 C 
ATOM     19  C   UNL A   1      45.007  24.067  28.347  1.00  0.00     0.029 A 
ATOM     20  N   UNL A   1      44.508  26.154  28.981  1.00  0.00    -0.354 N 
ATOM     21  C   UNL A   1      40.493  27.666  28.693  1.00  0.00     0.074 A 
ATOM     22  C   UNL A   1      39.648  26.748  27.958  1.00  0.00     0.031 C 
ATOM     23  C   UNL A   1      46.153  24.657  28.718  1.00  0.00     0.029 A 
ATOM     24  C   UNL A   1      45.866  26.026  29.139  1.00  0.00     0.049 A 
ATOM     25  H   UNL A   1      44.016  26.978  29.199  1.00  0.00     0.167 HD
ATOM     26  C   UNL A   1      40.094  28.869  29.173  1.00  0.00     0.037 A 
ATOM     27  C   UNL A   1      46.777  26.909  29.583  1.00  0.00     0.037 A 
ATOM     28  C   UNL A   1      40.959  29.814  29.829  1.00  0.00     0.049 A 
ATOM     29  C   UNL A   1      46.319  28.250  30.072  1.00  0.00     0.074 A 
ATOM     30  C   UNL A   1      40.642  31.050  30.368  1.00  0.00     0.029 A 
ATOM     31  N   UNL A   1      42.325  29.644  30.000  1.00  0.00    -0.354 N 
ATOM     32  N   UNL A   1      45.109  28.753  30.090  1.00  0.00    -0.248 NA
ATOM     33  C   UNL A   1      47.350  29.134  30.633  1.00  0.00     0.031 C 
ATOM     34  C   UNL A   1      41.822  31.641  30.835  1.00  0.00     0.029 A 
ATOM     35  C   UNL A   1      42.867  30.760  30.616  1.00  0.00     0.049 A 
ATOM     36  H   UNL A   1      42.833  28.847  29.724  1.00  0.00     0.167 HD
ATOM     37  C   UNL A   1      45.226  29.999  30.689  1.00  0.00     0.074 A 
ATOM     38  C   UNL A   1      46.624  30.169  31.030  1.00  0.00     0.031 C 
ATOM     39  C   UNL A   1      44.262  30.918  30.939  1.00  0.00     0.037 A 
BRANCH  26  40
ATOM     40  C   UNL A   1      38.643  29.215  29.041  1.00  0.00     0.057 A 
ATOM     41  C   UNL A   1      38.105  29.683  27.839  1.00  0.00     0.134 A 
ATOM     42  C   UNL A   1      37.788  29.134  30.147  1.00  0.00     0.134 A 
ATOM     43  F   UNL A   1      38.875  29.796  26.747  1.00  0.00    -0.206 F 
ATOM     44  C   UNL A   1      36.761  30.051  27.740  1.00  0.00     0.040 A 
ATOM     45  C   UNL A   1      36.440  29.489  30.058  1.00  0.00     0.040 A 
ATOM     46  F   UNL A   1      38.240  28.674  31.324  1.00  0.00    -0.206 F 
ATOM     47  C   UNL A   1      35.924  29.951  28.851  1.00  0.00     0.006 A 
ENDBRANCH  26  40
BRANCH  27  48
ATOM     48  C   UNL A   1      48.207  26.525  29.631  1.00  0.00     0.057 A 
ATOM     49  C   UNL A   1      49.075  26.825  28.575  1.00  0.00     0.134 A 
ATOM     50  C   UNL A   1      48.736  25.838  30.730  1.00  0.00     0.134 A 
ATOM     51  F   UNL A   1      48.623  27.474  27.491  1.00  0.00    -0.206 F 
ATOM     52  C   UNL A   1      50.420  26.454  28.608  1.00  0.00     0.040 A 
ATOM     53  C   UNL A   1      50.082  25.477  30.784  1.00  0.00     0.040 A 
ATOM     54  F   UNL A   1      47.953  25.538  31.776  1.00  0.00    -0.206 F 
ATOM     55  C   UNL A   1      50.927  25.783  29.719  1.00  0.00     0.006 A 
ENDBRANCH  27  48
BRANCH  39  56
ATOM     56  C   UNL A   1      44.696  32.177  31.627  1.00  0.00     0.057 A 
ATOM     57  C   UNL A   1      45.100  33.294  30.884  1.00  0.00     0.134 A 
ATOM     58  C   UNL A   1      44.699  32.288  33.022  1.00  0.00     0.134 A 
ATOM     59  F   UNL A   1      45.125  33.248  29.544  1.00  0.00    -0.206 F 
ATOM     60  C   UNL A   1      45.483  34.482  31.508  1.00  0.00     0.040 A 
ATOM     61  C   UNL A   1      45.058  33.478  33.657  1.00  0.00     0.040 A 
ATOM     62  F   UNL A   1      44.306  31.258  33.787  1.00  0.00    -0.206 F 
ATOM     63  C   UNL A   1      45.452  34.578  32.898  1.00  0.00     0.006 A 
ENDBRANCH  39  56
ENDBRANCH  13  14
ENDBRANCH   6   8
ENDBRANCH   5   6
ENDBRANCH   4   5
ENDBRANCH   3   4
ENDBRANCH   2   3
ENDBRANCH   1   2
BRANCH   1  64
ATOM     64  C   UNL A   1      34.630  22.968  25.633  1.00  0.00     0.188 C 
BRANCH  64  65
ATOM     65  O   UNL A   1      33.590  23.414  26.497  1.00  0.00    -0.376 OA
BRANCH  65  66
ATOM     66  C   UNL A   1      32.310  22.800  26.370  1.00  0.00     0.202 C 
BRANCH  66  67
ATOM     67  C   UNL A   1      31.119  23.702  26.686  1.00  0.00     0.261 C 
BRANCH  67  68
ATOM     68  O   UNL A   1      31.528  25.063  26.929  1.00  0.00    -0.460 OA
BRANCH  68  69
ATOM     69  C   UNL A   1      30.893  26.012  26.203  1.00  0.00     0.342 C 
ATOM     70  O   UNL A   1      29.775  25.960  25.723  1.00  0.00    -0.246 OA
BRANCH  69  71
ATOM     71  C   UNL A   1      31.780  27.162  26.030  1.00  0.00     0.112 A 
ATOM     72  C   UNL A   1      31.736  28.150  27.013  1.00  0.00     0.139 A 
ATOM     73  C   UNL A   1      32.731  27.239  25.009  1.00  0.00     0.071 A 
ATOM     74  F   UNL A   1      30.840  28.091  28.008  1.00  0.00    -0.206 F 
ATOM     75  C   UNL A   1      32.637  29.209  26.997  1.00  0.00     0.043 A 
ATOM     76  C   UNL A   1      33.618  28.321  24.991  1.00  0.00     0.138 A 
ATOM     77  Br  UNL A   1      32.861  25.946  23.629  1.00  0.00    -0.047 Br
ATOM     78  C   UNL A   1      33.580  29.302  25.978  1.00  0.00     0.043 A 
ATOM     79  F   UNL A   1      34.539  28.433  24.024  1.00  0.00    -0.206 F 
ENDBRANCH  69  71
ENDBRANCH  68  69
ENDBRANCH  67  68
ENDBRANCH  66  67
ENDBRANCH  65  66
ENDBRANCH  64  65
ENDBRANCH   1  64
TORSDOF 17
ENDMDL
