MODEL 1
REMARK VINA RESULT:     -11.8      0.000      0.000
REMARK SMILES Cc1ccc(F)cc1S(=O)(=O)Nc1cc(C(=O)OCCOCCOCCOC(=O)c2ccc(-c3c4nc(c(-c5c(F)cccc5F)c5ccc([nH]5)c(-c5c(F)cccc5F)c5nc(c(-c6c(F)cccc6F)c6ccc3[nH]6)C=C5)C=C4)cc2)ccc1N(C)Cc1ccccc1
REMARK SMILES IDX 22 1 21 2 20 3 19 4 18 5 16 6 17 7 15 8 13 9 14 10 86 11
REMARK SMILES IDX 85 12 84 13 12 14 9 16 10 17 11 18 8 19 1 20 2 21 3 22 4 23
REMARK SMILES IDX 7 24 5 25 6 26 87 27 88 28 89 29 90 30 91 31 95 32 92 33
REMARK SMILES IDX 94 34 93 35 23 36 24 37 25 38 26 39 27 40 28 41 29 42 30 43
REMARK SMILES IDX 31 44 83 45 32 46 82 47 33 48 34 49 35 50 76 51 36 52 81 53
REMARK SMILES IDX 75 54 77 55 37 56 80 57 74 58 73 59 38 61 64 62 47 63 63 64
REMARK SMILES IDX 48 65 51 66 62 67 78 68 49 69 50 70 61 72 79 73 52 74 39 75
REMARK SMILES IDX 40 76 45 77 41 78 42 79 44 80 46 81 43 82 65 83 66 84 71 85
REMARK SMILES IDX 67 86 68 87 70 88 72 89 69 90 53 91 54 92 59 93 55 94 56 95
REMARK SMILES IDX 58 96 60 97 57 98
REMARK H PARENT 12 15 77 60 51 71
REMARK Flexibility Score: inf
ROOT
ATOM      1  C   UNL A   1      37.835  21.769  25.826  1.00  0.00     0.188 C 
ENDROOT
BRANCH   1   2
ATOM      2  O   UNL A   1      37.280  20.598  25.251  1.00  0.00    -0.376 OA
BRANCH   2   3
ATOM      3  C   UNL A   1      35.909  20.618  24.858  1.00  0.00     0.202 C 
BRANCH   3   4
ATOM      4  C   UNL A   1      34.808  21.055  25.849  1.00  0.00     0.261 C 
BRANCH   4   5
ATOM      5  O   UNL A   1      33.511  20.412  25.682  1.00  0.00    -0.460 OA
BRANCH   5   6
ATOM      6  C   UNL A   1      32.871  20.728  24.529  1.00  0.00     0.338 C 
ATOM      7  O   UNL A   1      32.917  20.024  23.530  1.00  0.00    -0.246 OA
BRANCH   6   8
ATOM      8  C   UNL A   1      31.884  21.873  24.606  1.00  0.00     0.062 A 
ATOM      9  C   UNL A   1      31.139  23.871  23.384  1.00  0.00     0.073 A 
ATOM     10  C   UNL A   1      31.630  22.536  23.405  1.00  0.00     0.044 A 
ATOM     11  C   UNL A   1      30.621  24.537  24.505  1.00  0.00     0.061 A 
ATOM     12  C   UNL A   1      30.716  23.734  25.691  1.00  0.00     0.029 A 
ATOM     13  C   UNL A   1      31.376  22.456  25.759  1.00  0.00     0.018 A 
BRANCH   9  14
ATOM     14  N   UNL A   1      31.659  24.686  22.333  1.00  0.00    -0.277 N 
ATOM     15  H   UNL A   1      31.145  24.982  21.547  1.00  0.00     0.180 HD
BRANCH  14  16
ATOM     16  S   UNL A   1      33.324  25.082  22.634  1.00  0.00     0.262 S 
ATOM     17  O   UNL A   1      33.851  25.716  21.458  1.00  0.00    -0.201 OA
ATOM     18  O   UNL A   1      33.929  23.813  23.008  1.00  0.00    -0.201 OA
BRANCH  16  19
ATOM     19  C   UNL A   1      33.431  26.259  24.037  1.00  0.00     0.093 A 
ATOM     20  C   UNL A   1      34.141  24.578  25.806  1.00  0.00     0.046 C 
ATOM     21  C   UNL A   1      33.921  25.958  25.306  1.00  0.00    -0.030 A 
ATOM     22  C   UNL A   1      34.194  27.005  26.229  1.00  0.00     0.008 A 
ATOM     23  C   UNL A   1      33.925  28.339  25.943  1.00  0.00     0.039 A 
ATOM     24  C   UNL A   1      33.062  27.588  23.855  1.00  0.00     0.061 A 
ATOM     25  C   UNL A   1      33.306  28.616  24.756  1.00  0.00     0.124 A 
ATOM     26  F   UNL A   1      32.915  29.865  24.467  1.00  0.00    -0.207 F 
ENDBRANCH  16  19
ENDBRANCH  14  16
ENDBRANCH   9  14
BRANCH  11  27
ATOM     27  N   UNL A   1      30.239  25.914  24.489  1.00  0.00    -0.369 N 
ATOM     28  C   UNL A   1      30.182  26.555  25.815  1.00  0.00     0.144 C 
BRANCH  27  29
ATOM     29  C   UNL A   1      29.446  26.704  23.403  1.00  0.00     0.151 C 
BRANCH  29  30
ATOM     30  C   UNL A   1      29.069  28.239  23.384  1.00  0.00    -0.029 A 
ATOM     31  C   UNL A   1      29.852  29.388  23.645  1.00  0.00     0.005 A 
ATOM     32  C   UNL A   1      27.698  28.542  23.231  1.00  0.00     0.005 A 
ATOM     33  C   UNL A   1      29.406  30.703  23.359  1.00  0.00     0.000 A 
ATOM     34  C   UNL A   1      27.212  29.857  23.065  1.00  0.00     0.000 A 
ATOM     35  C   UNL A   1      28.085  30.932  23.027  1.00  0.00     0.000 A 
ENDBRANCH  29  30
ENDBRANCH  27  29
ENDBRANCH  11  27
ENDBRANCH   6   8
ENDBRANCH   5   6
ENDBRANCH   4   5
ENDBRANCH   3   4
ENDBRANCH   2   3
ENDBRANCH   1   2
BRANCH   1  36
ATOM     36  C   UNL A   1      39.362  21.817  26.040  1.00  0.00     0.188 C 
BRANCH  36  37
ATOM     37  O   UNL A   1      39.980  20.560  26.130  1.00  0.00    -0.376 OA
BRANCH  37  38
ATOM     38  C   UNL A   1      41.379  20.492  26.297  1.00  0.00     0.202 C 
BRANCH  38  39
ATOM     39  C   UNL A   1      42.191  21.368  27.278  1.00  0.00     0.261 C 
BRANCH  39  40
ATOM     40  O   UNL A   1      43.319  22.109  26.795  1.00  0.00    -0.460 OA
BRANCH  40  41
ATOM     41  C   UNL A   1      43.081  23.073  25.870  1.00  0.00     0.338 C 
ATOM     42  O   UNL A   1      43.089  22.953  24.660  1.00  0.00    -0.246 OA
BRANCH  41  43
ATOM     43  C   UNL A   1      42.600  24.278  26.584  1.00  0.00     0.060 A 
ATOM     44  C   UNL A   1      43.360  25.460  26.570  1.00  0.00     0.016 A 
ATOM     45  C   UNL A   1      41.398  24.220  27.286  1.00  0.00     0.016 A 
ATOM     46  C   UNL A   1      42.927  26.581  27.286  1.00  0.00     0.010 A 
ATOM     47  C   UNL A   1      40.982  25.330  28.022  1.00  0.00     0.010 A 
ATOM     48  C   UNL A   1      41.760  26.503  28.055  1.00  0.00    -0.014 A 
BRANCH  48  49
ATOM     49  C   UNL A   1      41.441  27.532  29.076  1.00  0.00     0.031 A 
ATOM     50  C   UNL A   1      42.225  27.514  30.359  1.00  0.00     0.074 A 
ATOM     51  C   UNL A   1      40.449  28.422  28.908  1.00  0.00     0.049 A 
ATOM     52  N   UNL A   1      42.028  28.177  31.469  1.00  0.00    -0.248 NA
ATOM     53  C   UNL A   1      43.383  26.607  30.394  1.00  0.00     0.031 C 
ATOM     54  C   UNL A   1      39.649  28.584  27.697  1.00  0.00     0.029 A 
ATOM     55  N   UNL A   1      39.930  29.343  29.784  1.00  0.00    -0.354 N 
ATOM     56  C   UNL A   1      43.020  27.748  32.342  1.00  0.00     0.074 A 
ATOM     57  C   UNL A   1      43.800  26.752  31.642  1.00  0.00     0.031 C 
ATOM     58  C   UNL A   1      38.723  29.535  27.914  1.00  0.00     0.029 A 
ATOM     59  C   UNL A   1      38.834  30.011  29.293  1.00  0.00     0.049 A 
ATOM     60  H   UNL A   1      40.307  29.508  30.679  1.00  0.00     0.167 HD
ATOM     61  C   UNL A   1      43.258  28.147  33.615  1.00  0.00     0.037 A 
ATOM     62  C   UNL A   1      38.001  30.878  29.900  1.00  0.00     0.037 A 
ATOM     63  C   UNL A   1      42.472  29.129  34.312  1.00  0.00     0.049 A 
ATOM     64  C   UNL A   1      38.226  31.243  31.346  1.00  0.00     0.074 A 
ATOM     65  C   UNL A   1      42.640  29.614  35.597  1.00  0.00     0.029 A 
ATOM     66  N   UNL A   1      41.358  29.767  33.786  1.00  0.00    -0.354 N 
ATOM     67  N   UNL A   1      39.171  30.844  32.165  1.00  0.00    -0.248 NA
ATOM     68  C   UNL A   1      37.266  32.177  31.954  1.00  0.00     0.031 C 
ATOM     69  C   UNL A   1      41.592  30.498  35.871  1.00  0.00     0.029 A 
ATOM     70  C   UNL A   1      40.812  30.619  34.731  1.00  0.00     0.049 A 
ATOM     71  H   UNL A   1      41.007  29.634  32.876  1.00  0.00     0.167 HD
ATOM     72  C   UNL A   1      38.945  31.511  33.365  1.00  0.00     0.074 A 
ATOM     73  C   UNL A   1      37.771  32.336  33.170  1.00  0.00     0.031 C 
ATOM     74  C   UNL A   1      39.652  31.452  34.521  1.00  0.00     0.037 A 
BRANCH  61  75
ATOM     75  C   UNL A   1      44.388  27.475  34.342  1.00  0.00     0.057 A 
ATOM     76  C   UNL A   1      44.230  26.241  34.990  1.00  0.00     0.134 A 
ATOM     77  C   UNL A   1      45.652  28.076  34.401  1.00  0.00     0.134 A 
ATOM     78  F   UNL A   1      43.043  25.618  34.986  1.00  0.00    -0.206 F 
ATOM     79  C   UNL A   1      45.275  25.652  35.703  1.00  0.00     0.040 A 
ATOM     80  C   UNL A   1      46.714  27.480  35.083  1.00  0.00     0.040 A 
ATOM     81  F   UNL A   1      45.875  29.254  33.800  1.00  0.00    -0.206 F 
ATOM     82  C   UNL A   1      46.524  26.270  35.747  1.00  0.00     0.006 A 
ENDBRANCH  61  75
BRANCH  62  83
ATOM     83  C   UNL A   1      36.864  31.465  29.144  1.00  0.00     0.057 A 
ATOM     84  C   UNL A   1      35.722  30.706  28.861  1.00  0.00     0.134 A 
ATOM     85  C   UNL A   1      36.891  32.786  28.681  1.00  0.00     0.134 A 
ATOM     86  F   UNL A   1      35.648  29.426  29.252  1.00  0.00    -0.206 F 
ATOM     87  C   UNL A   1      34.652  31.237  28.138  1.00  0.00     0.040 A 
ATOM     88  C   UNL A   1      35.818  33.337  27.981  1.00  0.00     0.040 A 
ATOM     89  F   UNL A   1      37.959  33.564  28.915  1.00  0.00    -0.206 F 
ATOM     90  C   UNL A   1      34.695  32.560  27.703  1.00  0.00     0.006 A 
ENDBRANCH  62  83
BRANCH  74  91
ATOM     91  C   UNL A   1      39.228  32.349  35.650  1.00  0.00     0.057 A 
ATOM     92  C   UNL A   1      38.362  31.922  36.663  1.00  0.00     0.134 A 
ATOM     93  C   UNL A   1      39.753  33.645  35.755  1.00  0.00     0.134 A 
ATOM     94  F   UNL A   1      37.815  30.697  36.621  1.00  0.00    -0.206 F 
ATOM     95  C   UNL A   1      38.018  32.757  37.730  1.00  0.00     0.040 A 
ATOM     96  C   UNL A   1      39.441  34.477  36.831  1.00  0.00     0.040 A 
ATOM     97  F   UNL A   1      40.599  34.115  34.826  1.00  0.00    -0.206 F 
ATOM     98  C   UNL A   1      38.567  34.034  37.821  1.00  0.00     0.006 A 
ENDBRANCH  74  91
ENDBRANCH  48  49
ENDBRANCH  41  43
ENDBRANCH  40  41
ENDBRANCH  39  40
ENDBRANCH  38  39
ENDBRANCH  37  38
ENDBRANCH  36  37
ENDBRANCH   1  36
TORSDOF 23
ENDMDL
MODEL 2
REMARK VINA RESULT:     -11.5      1.792      6.137
REMARK SMILES Cc1ccc(F)cc1S(=O)(=O)Nc1cc(C(=O)OCCOCCOCCOC(=O)c2ccc(-c3c4nc(c(-c5c(F)cccc5F)c5ccc([nH]5)c(-c5c(F)cccc5F)c5nc(c(-c6c(F)cccc6F)c6ccc3[nH]6)C=C5)C=C4)cc2)ccc1N(C)Cc1ccccc1
REMARK SMILES IDX 22 1 21 2 20 3 19 4 18 5 16 6 17 7 15 8 13 9 14 10 86 11
REMARK SMILES IDX 85 12 84 13 12 14 9 16 10 17 11 18 8 19 1 20 2 21 3 22 4 23
REMARK SMILES IDX 7 24 5 25 6 26 87 27 88 28 89 29 90 30 91 31 95 32 92 33
REMARK SMILES IDX 94 34 93 35 23 36 24 37 25 38 26 39 27 40 28 41 29 42 30 43
REMARK SMILES IDX 31 44 83 45 32 46 82 47 33 48 34 49 35 50 76 51 36 52 81 53
REMARK SMILES IDX 75 54 77 55 37 56 80 57 74 58 73 59 38 61 64 62 47 63 63 64
REMARK SMILES IDX 48 65 51 66 62 67 78 68 49 69 50 70 61 72 79 73 52 74 39 75
REMARK SMILES IDX 40 76 45 77 41 78 42 79 44 80 46 81 43 82 65 83 66 84 71 85
REMARK SMILES IDX 67 86 68 87 70 88 72 89 69 90 53 91 54 92 59 93 55 94 56 95
REMARK SMILES IDX 58 96 60 97 57 98
REMARK H PARENT 12 15 77 60 51 71
REMARK Flexibility Score: inf
ROOT
ATOM      1  C   UNL A   1      38.814  22.987  26.555  1.00  0.00     0.188 C 
ENDROOT
BRANCH   1   2
ATOM      2  O   UNL A   1      37.692  23.396  25.791  1.00  0.00    -0.376 OA
BRANCH   2   3
ATOM      3  C   UNL A   1      36.471  22.674  25.937  1.00  0.00     0.202 C 
BRANCH   3   4
ATOM      4  C   UNL A   1      36.086  21.559  24.939  1.00  0.00     0.261 C 
BRANCH   4   5
ATOM      5  O   UNL A   1      34.864  21.783  24.177  1.00  0.00    -0.460 OA
BRANCH   5   6
ATOM      6  C   UNL A   1      34.871  22.910  23.422  1.00  0.00     0.338 C 
ATOM      7  O   UNL A   1      35.808  23.218  22.698  1.00  0.00    -0.246 OA
BRANCH   6   8
ATOM      8  C   UNL A   1      33.556  23.653  23.319  1.00  0.00     0.062 A 
ATOM      9  C   UNL A   1      32.417  25.688  24.097  1.00  0.00     0.073 A 
ATOM     10  C   UNL A   1      33.590  24.999  23.681  1.00  0.00     0.044 A 
ATOM     11  C   UNL A   1      31.114  25.190  23.935  1.00  0.00     0.061 A 
ATOM     12  C   UNL A   1      31.115  23.873  23.366  1.00  0.00     0.029 A 
ATOM     13  C   UNL A   1      32.301  23.096  23.111  1.00  0.00     0.018 A 
BRANCH   9  14
ATOM     14  N   UNL A   1      32.618  26.643  25.139  1.00  0.00    -0.277 N 
ATOM     15  H   UNL A   1      32.471  26.466  26.096  1.00  0.00     0.180 HD
BRANCH  14  16
ATOM     16  S   UNL A   1      33.155  28.159  24.482  1.00  0.00     0.262 S 
ATOM     17  O   UNL A   1      32.620  28.286  23.156  1.00  0.00    -0.201 OA
ATOM     18  O   UNL A   1      34.604  28.100  24.590  1.00  0.00    -0.201 OA
BRANCH  16  19
ATOM     19  C   UNL A   1      32.512  29.536  25.512  1.00  0.00     0.093 A 
ATOM     20  C   UNL A   1      34.141  29.271  27.445  1.00  0.00     0.046 C 
ATOM     21  C   UNL A   1      33.095  30.004  26.687  1.00  0.00    -0.030 A 
ATOM     22  C   UNL A   1      32.659  31.231  27.258  1.00  0.00     0.008 A 
ATOM     23  C   UNL A   1      31.607  31.967  26.724  1.00  0.00     0.039 A 
ATOM     24  C   UNL A   1      31.387  30.242  25.099  1.00  0.00     0.061 A 
ATOM     25  C   UNL A   1      30.939  31.432  25.658  1.00  0.00     0.124 A 
ATOM     26  F   UNL A   1      29.846  32.032  25.167  1.00  0.00    -0.207 F 
ENDBRANCH  16  19
ENDBRANCH  14  16
ENDBRANCH   9  14
BRANCH  11  27
ATOM     27  N   UNL A   1      29.958  25.844  24.461  1.00  0.00    -0.369 N 
ATOM     28  C   UNL A   1      29.608  25.464  25.842  1.00  0.00     0.144 C 
BRANCH  27  29
ATOM     29  C   UNL A   1      28.770  26.509  23.701  1.00  0.00     0.151 C 
BRANCH  29  30
ATOM     30  C   UNL A   1      28.627  28.009  23.222  1.00  0.00    -0.029 A 
ATOM     31  C   UNL A   1      27.557  28.924  23.352  1.00  0.00     0.005 A 
ATOM     32  C   UNL A   1      29.661  28.499  22.395  1.00  0.00     0.005 A 
ATOM     33  C   UNL A   1      27.688  30.306  23.061  1.00  0.00     0.000 A 
ATOM     34  C   UNL A   1      29.750  29.848  21.988  1.00  0.00     0.000 A 
ATOM     35  C   UNL A   1      28.813  30.776  22.411  1.00  0.00     0.000 A 
ENDBRANCH  29  30
ENDBRANCH  27  29
ENDBRANCH  11  27
ENDBRANCH   6   8
ENDBRANCH   5   6
ENDBRANCH   4   5
ENDBRANCH   3   4
ENDBRANCH   2   3
ENDBRANCH   1   2
BRANCH   1  36
ATOM     36  C   UNL A   1      39.559  21.708  26.118  1.00  0.00     0.188 C 
BRANCH  36  37
ATOM     37  O   UNL A   1      40.758  21.465  26.808  1.00  0.00    -0.376 OA
BRANCH  37  38
ATOM     38  C   UNL A   1      41.983  21.802  26.194  1.00  0.00     0.202 C 
BRANCH  38  39
ATOM     39  C   UNL A   1      42.629  23.205  26.232  1.00  0.00     0.261 C 
BRANCH  39  40
ATOM     40  O   UNL A   1      41.822  24.362  25.975  1.00  0.00    -0.460 OA
BRANCH  40  41
ATOM     41  C   UNL A   1      42.464  25.548  25.833  1.00  0.00     0.338 C 
ATOM     42  O   UNL A   1      43.216  25.877  24.936  1.00  0.00    -0.246 OA
BRANCH  41  43
ATOM     43  C   UNL A   1      41.936  26.476  26.860  1.00  0.00     0.060 A 
ATOM     44  C   UNL A   1      42.443  27.783  26.962  1.00  0.00     0.016 A 
ATOM     45  C   UNL A   1      40.948  26.032  27.735  1.00  0.00     0.016 A 
ATOM     46  C   UNL A   1      41.978  28.640  27.965  1.00  0.00     0.010 A 
ATOM     47  C   UNL A   1      40.504  26.879  28.751  1.00  0.00     0.010 A 
ATOM     48  C   UNL A   1      41.041  28.173  28.894  1.00  0.00    -0.014 A 
BRANCH  48  49
ATOM     49  C   UNL A   1      40.768  28.915  30.150  1.00  0.00     0.031 A 
ATOM     50  C   UNL A   1      39.641  29.910  30.148  1.00  0.00     0.074 A 
ATOM     51  C   UNL A   1      41.528  28.764  31.248  1.00  0.00     0.049 A 
ATOM     52  N   UNL A   1      39.313  30.804  31.044  1.00  0.00    -0.248 NA
ATOM     53  C   UNL A   1      38.775  29.899  28.958  1.00  0.00     0.031 C 
ATOM     54  C   UNL A   1      42.614  27.801  31.404  1.00  0.00     0.029 A 
ATOM     55  N   UNL A   1      41.511  29.453  32.436  1.00  0.00    -0.354 N 
ATOM     56  C   UNL A   1      38.220  31.480  30.514  1.00  0.00     0.074 A 
ATOM     57  C   UNL A   1      37.958  30.909  29.211  1.00  0.00     0.031 C 
ATOM     58  C   UNL A   1      43.176  27.973  32.614  1.00  0.00     0.029 A 
ATOM     59  C   UNL A   1      42.521  29.091  33.294  1.00  0.00     0.049 A 
ATOM     60  H   UNL A   1      40.840  30.141  32.651  1.00  0.00     0.167 HD
ATOM     61  C   UNL A   1      37.501  32.488  31.063  1.00  0.00     0.037 A 
ATOM     62  C   UNL A   1      42.891  29.625  34.475  1.00  0.00     0.037 A 
ATOM     63  C   UNL A   1      37.773  33.062  32.354  1.00  0.00     0.049 A 
ATOM     64  C   UNL A   1      42.137  30.806  35.030  1.00  0.00     0.074 A 
ATOM     65  C   UNL A   1      37.094  34.075  33.007  1.00  0.00     0.029 A 
ATOM     66  N   UNL A   1      38.817  32.681  33.183  1.00  0.00    -0.354 N 
ATOM     67  N   UNL A   1      41.098  31.436  34.533  1.00  0.00    -0.248 NA
ATOM     68  C   UNL A   1      42.608  31.355  36.311  1.00  0.00     0.031 C 
ATOM     69  C   UNL A   1      37.765  34.351  34.203  1.00  0.00     0.029 A 
ATOM     70  C   UNL A   1      38.819  33.459  34.329  1.00  0.00     0.049 A 
ATOM     71  H   UNL A   1      39.463  31.964  32.987  1.00  0.00     0.167 HD
ATOM     72  C   UNL A   1      40.767  32.420  35.458  1.00  0.00     0.074 A 
ATOM     73  C   UNL A   1      41.717  32.308  36.544  1.00  0.00     0.031 C 
ATOM     74  C   UNL A   1      39.760  33.328  35.415  1.00  0.00     0.037 A 
BRANCH  61  75
ATOM     75  C   UNL A   1      36.384  33.062  30.237  1.00  0.00     0.057 A 
ATOM     76  C   UNL A   1      35.037  32.778  30.503  1.00  0.00     0.134 A 
ATOM     77  C   UNL A   1      36.663  33.905  29.155  1.00  0.00     0.134 A 
ATOM     78  F   UNL A   1      34.700  31.965  31.516  1.00  0.00    -0.206 F 
ATOM     79  C   UNL A   1      34.013  33.279  29.698  1.00  0.00     0.040 A 
ATOM     80  C   UNL A   1      35.646  34.440  28.363  1.00  0.00     0.040 A 
ATOM     81  F   UNL A   1      37.929  34.223  28.846  1.00  0.00    -0.206 F 
ATOM     82  C   UNL A   1      34.316  34.116  28.626  1.00  0.00     0.006 A 
ENDBRANCH  61  75
BRANCH  62  83
ATOM     83  C   UNL A   1      44.043  29.051  35.218  1.00  0.00     0.057 A 
ATOM     84  C   UNL A   1      43.849  28.066  36.194  1.00  0.00     0.134 A 
ATOM     85  C   UNL A   1      45.357  29.473  34.981  1.00  0.00     0.134 A 
ATOM     86  F   UNL A   1      42.611  27.641  36.488  1.00  0.00    -0.206 F 
ATOM     87  C   UNL A   1      44.918  27.528  36.913  1.00  0.00     0.040 A 
ATOM     88  C   UNL A   1      46.437  28.924  35.674  1.00  0.00     0.040 A 
ATOM     89  F   UNL A   1      45.609  30.417  34.063  1.00  0.00    -0.206 F 
ATOM     90  C   UNL A   1      46.218  27.951  36.647  1.00  0.00     0.006 A 
ENDBRANCH  62  83
BRANCH  74  91
ATOM     91  C   UNL A   1      39.580  34.234  36.601  1.00  0.00     0.057 A 
ATOM     92  C   UNL A   1      38.929  33.820  37.769  1.00  0.00     0.134 A 
ATOM     93  C   UNL A   1      40.129  35.524  36.592  1.00  0.00     0.134 A 
ATOM     94  F   UNL A   1      38.371  32.602  37.844  1.00  0.00    -0.206 F 
ATOM     95  C   UNL A   1      38.814  34.663  38.879  1.00  0.00     0.040 A 
ATOM     96  C   UNL A   1      40.048  36.363  37.704  1.00  0.00     0.040 A 
ATOM     97  F   UNL A   1      40.777  35.981  35.510  1.00  0.00    -0.206 F 
ATOM     98  C   UNL A   1      39.384  35.934  38.851  1.00  0.00     0.006 A 
ENDBRANCH  74  91
ENDBRANCH  48  49
ENDBRANCH  41  43
ENDBRANCH  40  41
ENDBRANCH  39  40
ENDBRANCH  38  39
ENDBRANCH  37  38
ENDBRANCH  36  37
ENDBRANCH   1  36
TORSDOF 23
ENDMDL
MODEL 3
REMARK VINA RESULT:     -10.8      6.435      8.419
REMARK SMILES Cc1ccc(F)cc1S(=O)(=O)Nc1cc(C(=O)OCCOCCOCCOC(=O)c2ccc(-c3c4nc(c(-c5c(F)cccc5F)c5ccc([nH]5)c(-c5c(F)cccc5F)c5nc(c(-c6c(F)cccc6F)c6ccc3[nH]6)C=C5)C=C4)cc2)ccc1N(C)Cc1ccccc1
REMARK SMILES IDX 22 1 21 2 20 3 19 4 18 5 16 6 17 7 15 8 13 9 14 10 86 11
REMARK SMILES IDX 85 12 84 13 12 14 9 16 10 17 11 18 8 19 1 20 2 21 3 22 4 23
REMARK SMILES IDX 7 24 5 25 6 26 87 27 88 28 89 29 90 30 91 31 95 32 92 33
REMARK SMILES IDX 94 34 93 35 23 36 24 37 25 38 26 39 27 40 28 41 29 42 30 43
REMARK SMILES IDX 31 44 83 45 32 46 82 47 33 48 34 49 35 50 76 51 36 52 81 53
REMARK SMILES IDX 75 54 77 55 37 56 80 57 74 58 73 59 38 61 64 62 47 63 63 64
REMARK SMILES IDX 48 65 51 66 62 67 78 68 49 69 50 70 61 72 79 73 52 74 39 75
REMARK SMILES IDX 40 76 45 77 41 78 42 79 44 80 46 81 43 82 65 83 66 84 71 85
REMARK SMILES IDX 67 86 68 87 70 88 72 89 69 90 53 91 54 92 59 93 55 94 56 95
REMARK SMILES IDX 58 96 60 97 57 98
REMARK H PARENT 12 15 77 60 51 71
REMARK Flexibility Score: inf
ROOT
ATOM      1  C   UNL A   1      38.073  21.959  25.729  1.00  0.00     0.188 C 
ENDROOT
BRANCH   1   2
ATOM      2  O   UNL A   1      37.651  20.654  25.370  1.00  0.00    -0.376 OA
BRANCH   2   3
ATOM      3  C   UNL A   1      36.324  20.481  24.877  1.00  0.00     0.202 C 
BRANCH   3   4
ATOM      4  C   UNL A   1      35.158  21.331  25.428  1.00  0.00     0.261 C 
BRANCH   4   5
ATOM      5  O   UNL A   1      33.872  20.653  25.533  1.00  0.00    -0.460 OA
BRANCH   5   6
ATOM      6  C   UNL A   1      33.059  20.820  24.460  1.00  0.00     0.338 C 
ATOM      7  O   UNL A   1      33.040  20.045  23.514  1.00  0.00    -0.246 OA
BRANCH   6   8
ATOM      8  C   UNL A   1      31.987  21.880  24.595  1.00  0.00     0.062 A 
ATOM      9  C   UNL A   1      31.066  23.857  23.460  1.00  0.00     0.073 A 
ATOM     10  C   UNL A   1      31.660  22.565  23.424  1.00  0.00     0.044 A 
ATOM     11  C   UNL A   1      30.518  24.439  24.613  1.00  0.00     0.061 A 
ATOM     12  C   UNL A   1      30.697  23.604  25.767  1.00  0.00     0.029 A 
ATOM     13  C   UNL A   1      31.456  22.379  25.776  1.00  0.00     0.018 A 
BRANCH   9  14
ATOM     14  N   UNL A   1      31.501  24.747  22.432  1.00  0.00    -0.277 N 
ATOM     15  H   UNL A   1      30.930  25.087  21.706  1.00  0.00     0.180 HD
BRANCH  14  16
ATOM     16  S   UNL A   1      33.180  25.147  22.641  1.00  0.00     0.262 S 
ATOM     17  O   UNL A   1      33.653  25.737  21.421  1.00  0.00    -0.201 OA
ATOM     18  O   UNL A   1      33.799  23.891  23.032  1.00  0.00    -0.201 OA
BRANCH  16  19
ATOM     19  C   UNL A   1      33.354  26.373  23.996  1.00  0.00     0.093 A 
ATOM     20  C   UNL A   1      34.122  24.748  25.794  1.00  0.00     0.046 C 
ATOM     21  C   UNL A   1      33.893  26.113  25.254  1.00  0.00    -0.030 A 
ATOM     22  C   UNL A   1      34.214  27.189  26.127  1.00  0.00     0.008 A 
ATOM     23  C   UNL A   1      33.943  28.514  25.804  1.00  0.00     0.039 A 
ATOM     24  C   UNL A   1      32.989  27.698  23.781  1.00  0.00     0.061 A 
ATOM     25  C   UNL A   1      33.279  28.755  24.634  1.00  0.00     0.124 A 
ATOM     26  F   UNL A   1      32.887  29.997  24.316  1.00  0.00    -0.207 F 
ENDBRANCH  16  19
ENDBRANCH  14  16
ENDBRANCH   9  14
BRANCH  11  27
ATOM     27  N   UNL A   1      30.029  25.781  24.654  1.00  0.00    -0.369 N 
ATOM     28  C   UNL A   1      30.378  26.529  25.876  1.00  0.00     0.144 C 
BRANCH  27  29
ATOM     29  C   UNL A   1      28.838  26.420  23.876  1.00  0.00     0.151 C 
BRANCH  29  30
ATOM     30  C   UNL A   1      28.727  27.879  23.275  1.00  0.00    -0.029 A 
ATOM     31  C   UNL A   1      27.612  28.735  23.124  1.00  0.00     0.005 A 
ATOM     32  C   UNL A   1      29.884  28.379  22.639  1.00  0.00     0.005 A 
ATOM     33  C   UNL A   1      27.736  30.102  22.771  1.00  0.00     0.000 A 
ATOM     34  C   UNL A   1      29.992  29.704  22.165  1.00  0.00     0.000 A 
ATOM     35  C   UNL A   1      28.947  30.599  22.326  1.00  0.00     0.000 A 
ENDBRANCH  29  30
ENDBRANCH  27  29
ENDBRANCH  11  27
ENDBRANCH   6   8
ENDBRANCH   5   6
ENDBRANCH   4   5
ENDBRANCH   3   4
ENDBRANCH   2   3
ENDBRANCH   1   2
BRANCH   1  36
ATOM     36  C   UNL A   1      39.491  22.126  26.315  1.00  0.00     0.188 C 
BRANCH  36  37
ATOM     37  O   UNL A   1      39.877  21.116  27.209  1.00  0.00    -0.376 OA
BRANCH  37  38
ATOM     38  C   UNL A   1      41.223  21.045  27.626  1.00  0.00     0.202 C 
BRANCH  38  39
ATOM     39  C   UNL A   1      42.092  22.265  28.004  1.00  0.00     0.261 C 
BRANCH  39  40
ATOM     40  O   UNL A   1      43.440  22.348  27.523  1.00  0.00    -0.460 OA
BRANCH  40  41
ATOM     41  C   UNL A   1      43.618  22.725  26.232  1.00  0.00     0.338 C 
ATOM     42  O   UNL A   1      43.266  22.127  25.233  1.00  0.00    -0.246 OA
BRANCH  41  43
ATOM     43  C   UNL A   1      44.143  24.110  26.231  1.00  0.00     0.060 A 
ATOM     44  C   UNL A   1      43.922  24.951  25.128  1.00  0.00     0.016 A 
ATOM     45  C   UNL A   1      44.876  24.560  27.327  1.00  0.00     0.016 A 
ATOM     46  C   UNL A   1      44.462  26.242  25.110  1.00  0.00     0.010 A 
ATOM     47  C   UNL A   1      45.436  25.838  27.296  1.00  0.00     0.010 A 
ATOM     48  C   UNL A   1      45.263  26.671  26.175  1.00  0.00    -0.014 A 
BRANCH  48  49
ATOM     49  C   UNL A   1      46.115  27.881  26.056  1.00  0.00     0.031 A 
ATOM     50  C   UNL A   1      47.591  27.682  25.844  1.00  0.00     0.074 A 
ATOM     51  C   UNL A   1      45.618  29.121  26.191  1.00  0.00     0.049 A 
ATOM     52  N   UNL A   1      48.566  28.552  25.885  1.00  0.00    -0.248 NA
ATOM     53  C   UNL A   1      48.021  26.303  25.560  1.00  0.00     0.031 C 
ATOM     54  C   UNL A   1      44.206  29.458  26.346  1.00  0.00     0.029 A 
ATOM     55  N   UNL A   1      46.264  30.331  26.247  1.00  0.00    -0.354 N 
ATOM     56  C   UNL A   1      49.727  27.822  25.661  1.00  0.00     0.074 A 
ATOM     57  C   UNL A   1      49.336  26.438  25.508  1.00  0.00     0.031 C 
ATOM     58  C   UNL A   1      44.092  30.790  26.502  1.00  0.00     0.029 A 
ATOM     59  C   UNL A   1      45.427  31.389  26.506  1.00  0.00     0.049 A 
ATOM     60  H   UNL A   1      47.235  30.431  26.115  1.00  0.00     0.167 HD
ATOM     61  C   UNL A   1      51.005  28.265  25.590  1.00  0.00     0.037 A 
ATOM     62  C   UNL A   1      45.712  32.684  26.752  1.00  0.00     0.037 A 
ATOM     63  C   UNL A   1      51.391  29.641  25.755  1.00  0.00     0.049 A 
ATOM     64  C   UNL A   1      47.147  33.144  26.760  1.00  0.00     0.074 A 
ATOM     65  C   UNL A   1      52.657  30.195  25.687  1.00  0.00     0.029 A 
ATOM     66  N   UNL A   1      50.515  30.678  26.037  1.00  0.00    -0.354 N 
ATOM     67  N   UNL A   1      48.242  32.455  26.537  1.00  0.00    -0.248 NA
ATOM     68  C   UNL A   1      47.389  34.564  27.059  1.00  0.00     0.031 C 
ATOM     69  C   UNL A   1      52.555  31.556  25.989  1.00  0.00     0.029 A 
ATOM     70  C   UNL A   1      51.216  31.865  26.174  1.00  0.00     0.049 A 
ATOM     71  H   UNL A   1      49.539  30.586  26.127  1.00  0.00     0.167 HD
ATOM     72  C   UNL A   1      49.292  33.362  26.623  1.00  0.00     0.074 A 
ATOM     73  C   UNL A   1      48.705  34.651  26.924  1.00  0.00     0.031 C 
ATOM     74  C   UNL A   1      50.621  33.149  26.457  1.00  0.00     0.037 A 
BRANCH  61  75
ATOM     75  C   UNL A   1      52.076  27.234  25.373  1.00  0.00     0.057 A 
ATOM     76  C   UNL A   1      52.567  26.924  24.096  1.00  0.00     0.134 A 
ATOM     77  C   UNL A   1      52.621  26.537  26.458  1.00  0.00     0.134 A 
ATOM     78  F   UNL A   1      52.078  27.543  23.011  1.00  0.00    -0.206 F 
ATOM     79  C   UNL A   1      53.527  25.929  23.905  1.00  0.00     0.040 A 
ATOM     80  C   UNL A   1      53.607  25.564  26.283  1.00  0.00     0.040 A 
ATOM     81  F   UNL A   1      52.203  26.786  27.708  1.00  0.00    -0.206 F 
ATOM     82  C   UNL A   1      54.053  25.249  25.001  1.00  0.00     0.006 A 
ENDBRANCH  61  75
BRANCH  62  83
ATOM     83  C   UNL A   1      44.611  33.646  27.019  1.00  0.00     0.057 A 
ATOM     84  C   UNL A   1      44.031  34.380  25.978  1.00  0.00     0.134 A 
ATOM     85  C   UNL A   1      44.120  33.862  28.312  1.00  0.00     0.134 A 
ATOM     86  F   UNL A   1      44.478  34.239  24.721  1.00  0.00    -0.206 F 
ATOM     87  C   UNL A   1      43.007  35.300  26.214  1.00  0.00     0.040 A 
ATOM     88  C   UNL A   1      43.079  34.759  28.558  1.00  0.00     0.040 A 
ATOM     89  F   UNL A   1      44.637  33.194  29.354  1.00  0.00    -0.206 F 
ATOM     90  C   UNL A   1      42.523  35.485  27.507  1.00  0.00     0.006 A 
ENDBRANCH  62  83
BRANCH  74  91
ATOM     91  C   UNL A   1      51.538  34.338  26.527  1.00  0.00     0.057 A 
ATOM     92  C   UNL A   1      52.144  34.748  27.719  1.00  0.00     0.134 A 
ATOM     93  C   UNL A   1      51.866  35.044  25.360  1.00  0.00     0.134 A 
ATOM     94  F   UNL A   1      51.868  34.124  28.875  1.00  0.00    -0.206 F 
ATOM     95  C   UNL A   1      53.031  35.828  27.754  1.00  0.00     0.040 A 
ATOM     96  C   UNL A   1      52.773  36.104  25.377  1.00  0.00     0.040 A 
ATOM     97  F   UNL A   1      51.330  34.697  24.180  1.00  0.00    -0.206 F 
ATOM     98  C   UNL A   1      53.355  36.502  26.578  1.00  0.00     0.006 A 
ENDBRANCH  74  91
ENDBRANCH  48  49
ENDBRANCH  41  43
ENDBRANCH  40  41
ENDBRANCH  39  40
ENDBRANCH  38  39
ENDBRANCH  37  38
ENDBRANCH  36  37
ENDBRANCH   1  36
TORSDOF 23
ENDMDL
