MODEL 1
REMARK VINA RESULT:     -12.2      0.000      0.000
REMARK SMILES O=C(OCCOCCOCCOC(=O)c1nccnc1C(=O)Nc1n[nH]c2ncccc12)c1ccc(-c2c3nc(c(-c4c(F)cccc4F)c4ccc([nH]4)c(-c4c(F)cccc4F)c4nc(c(-c5c(F)cccc5F)c5ccc2[nH]5)C=C4)C=C3)cc1
REMARK SMILES IDX 7 1 6 2 5 3 4 4 3 5 2 6 1 7 33 8 34 9 86 10 35 11 85 12
REMARK SMILES IDX 36 13 37 14 38 15 79 16 39 17 84 18 78 19 80 20 40 21 83 22
REMARK SMILES IDX 77 23 76 24 41 26 67 27 50 28 66 29 51 30 54 31 65 32 81 33
REMARK SMILES IDX 52 34 53 35 64 37 82 38 55 39 42 40 43 41 48 42 44 43 45 44
REMARK SMILES IDX 47 45 49 46 46 47 68 48 69 49 74 50 70 51 71 52 73 53 75 54
REMARK SMILES IDX 72 55 56 56 57 57 62 58 58 59 59 60 61 61 63 62 60 63 8 64
REMARK SMILES IDX 9 65 10 66 11 67 12 68 13 69 14 70 15 71 16 72 20 73 17 74
REMARK SMILES IDX 19 75 18 76 21 77 22 78 23 79 24 81 25 82 32 83 26 84 27 85
REMARK SMILES IDX 31 86 28 88 30 89 29 90
REMARK H PARENT 80 25 54 36 23 80 26 87
REMARK Flexibility Score: inf
ROOT
ATOM      1  C   UNL A   1      33.493  33.656  28.210  1.00  0.00     0.188 C 
ENDROOT
BRANCH   1   2
ATOM      2  O   UNL A   1      33.005  34.382  29.337  1.00  0.00    -0.376 OA
BRANCH   2   3
ATOM      3  C   UNL A   1      33.971  34.982  30.189  1.00  0.00     0.202 C 
BRANCH   3   4
ATOM      4  C   UNL A   1      34.161  34.372  31.589  1.00  0.00     0.261 C 
BRANCH   4   5
ATOM      5  O   UNL A   1      34.415  32.959  31.626  1.00  0.00    -0.460 OA
BRANCH   5   6
ATOM      6  C   UNL A   1      35.360  32.311  32.364  1.00  0.00     0.338 C 
ATOM      7  O   UNL A   1      35.413  32.528  33.572  1.00  0.00    -0.246 OA
BRANCH   6   8
ATOM      8  C   UNL A   1      36.485  31.530  31.734  1.00  0.00     0.060 A 
ATOM      9  C   UNL A   1      37.456  30.808  32.427  1.00  0.00     0.016 A 
ATOM     10  C   UNL A   1      36.557  31.523  30.325  1.00  0.00     0.016 A 
ATOM     11  C   UNL A   1      38.448  30.090  31.757  1.00  0.00     0.010 A 
ATOM     12  C   UNL A   1      37.582  30.845  29.642  1.00  0.00     0.010 A 
ATOM     13  C   UNL A   1      38.546  30.137  30.364  1.00  0.00    -0.014 A 
BRANCH  13  14
ATOM     14  C   UNL A   1      39.801  29.649  29.749  1.00  0.00     0.031 A 
ATOM     15  C   UNL A   1      40.966  30.593  29.723  1.00  0.00     0.074 A 
ATOM     16  C   UNL A   1      39.964  28.367  29.377  1.00  0.00     0.049 A 
ATOM     17  N   UNL A   1      42.184  30.386  29.303  1.00  0.00    -0.248 NA
ATOM     18  C   UNL A   1      40.732  31.941  30.269  1.00  0.00     0.031 C 
ATOM     19  C   UNL A   1      38.936  27.341  29.460  1.00  0.00     0.029 A 
ATOM     20  N   UNL A   1      41.065  27.692  28.908  1.00  0.00    -0.354 N 
ATOM     21  C   UNL A   1      42.855  31.581  29.516  1.00  0.00     0.074 A 
ATOM     22  C   UNL A   1      41.926  32.497  30.137  1.00  0.00     0.031 C 
ATOM     23  C   UNL A   1      39.472  26.152  29.145  1.00  0.00     0.029 A 
ATOM     24  C   UNL A   1      40.832  26.357  28.671  1.00  0.00     0.049 A 
ATOM     25  H   UNL A   1      41.937  28.122  28.756  1.00  0.00     0.167 HD
ATOM     26  C   UNL A   1      44.126  31.895  29.181  1.00  0.00     0.037 A 
ATOM     27  C   UNL A   1      41.593  25.423  28.066  1.00  0.00     0.037 A 
ATOM     28  C   UNL A   1      45.021  30.989  28.516  1.00  0.00     0.049 A 
ATOM     29  C   UNL A   1      42.949  25.843  27.571  1.00  0.00     0.074 A 
ATOM     30  C   UNL A   1      46.312  31.221  28.085  1.00  0.00     0.029 A 
ATOM     31  N   UNL A   1      44.700  29.688  28.159  1.00  0.00    -0.354 N 
ATOM     32  N   UNL A   1      43.569  26.985  27.746  1.00  0.00    -0.248 NA
ATOM     33  C   UNL A   1      43.697  24.868  26.766  1.00  0.00     0.031 C 
ATOM     34  C   UNL A   1      46.748  30.081  27.403  1.00  0.00     0.029 A 
ATOM     35  C   UNL A   1      45.752  29.119  27.467  1.00  0.00     0.049 A 
ATOM     36  H   UNL A   1      43.850  29.237  28.369  1.00  0.00     0.167 HD
ATOM     37  C   UNL A   1      44.777  26.867  27.075  1.00  0.00     0.074 A 
ATOM     38  C   UNL A   1      44.818  25.531  26.517  1.00  0.00     0.031 C 
ATOM     39  C   UNL A   1      45.761  27.785  26.922  1.00  0.00     0.037 A 
BRANCH  26  40
ATOM     40  C   UNL A   1      44.566  33.304  29.418  1.00  0.00     0.057 A 
ATOM     41  C   UNL A   1      45.207  33.705  30.595  1.00  0.00     0.134 A 
ATOM     42  C   UNL A   1      44.333  34.278  28.439  1.00  0.00     0.134 A 
ATOM     43  F   UNL A   1      45.424  32.828  31.586  1.00  0.00    -0.206 F 
ATOM     44  C   UNL A   1      45.598  35.032  30.792  1.00  0.00     0.040 A 
ATOM     45  C   UNL A   1      44.738  35.600  28.614  1.00  0.00     0.040 A 
ATOM     46  F   UNL A   1      43.706  33.958  27.297  1.00  0.00    -0.206 F 
ATOM     47  C   UNL A   1      45.370  35.980  29.795  1.00  0.00     0.006 A 
ENDBRANCH  26  40
BRANCH  27  48
ATOM     48  C   UNL A   1      41.056  24.069  27.749  1.00  0.00     0.057 A 
ATOM     49  C   UNL A   1      41.521  22.916  28.393  1.00  0.00     0.134 A 
ATOM     50  C   UNL A   1      40.122  23.886  26.718  1.00  0.00     0.134 A 
ATOM     51  F   UNL A   1      42.442  23.010  29.364  1.00  0.00    -0.206 F 
ATOM     52  C   UNL A   1      41.096  21.639  28.012  1.00  0.00     0.040 A 
ATOM     53  C   UNL A   1      39.670  22.620  26.344  1.00  0.00     0.040 A 
ATOM     54  F   UNL A   1      39.619  24.943  26.063  1.00  0.00    -0.206 F 
ATOM     55  C   UNL A   1      40.165  21.489  26.985  1.00  0.00     0.006 A 
ENDBRANCH  27  48
BRANCH  39  56
ATOM     56  C   UNL A   1      46.964  27.371  26.134  1.00  0.00     0.057 A 
ATOM     57  C   UNL A   1      48.060  26.745  26.741  1.00  0.00     0.134 A 
ATOM     58  C   UNL A   1      46.997  27.544  24.746  1.00  0.00     0.134 A 
ATOM     59  F   UNL A   1      48.092  26.568  28.071  1.00  0.00    -0.206 F 
ATOM     60  C   UNL A   1      49.154  26.314  25.992  1.00  0.00     0.040 A 
ATOM     61  C   UNL A   1      48.071  27.091  23.983  1.00  0.00     0.040 A 
ATOM     62  F   UNL A   1      45.973  28.132  24.108  1.00  0.00    -0.206 F 
ATOM     63  C   UNL A   1      49.155  26.476  24.607  1.00  0.00     0.006 A 
ENDBRANCH  39  56
ENDBRANCH  13  14
ENDBRANCH   6   8
ENDBRANCH   5   6
ENDBRANCH   4   5
ENDBRANCH   3   4
ENDBRANCH   2   3
ENDBRANCH   1   2
BRANCH   1  64
ATOM     64  C   UNL A   1      33.626  32.144  28.377  1.00  0.00     0.188 C 
BRANCH  64  65
ATOM     65  O   UNL A   1      33.814  31.396  27.181  1.00  0.00    -0.376 OA
BRANCH  65  66
ATOM     66  C   UNL A   1      34.886  30.455  27.120  1.00  0.00     0.202 C 
BRANCH  66  67
ATOM     67  C   UNL A   1      34.541  28.810  27.421  1.00  0.00     0.261 C 
BRANCH  67  68
ATOM     68  O   UNL A   1      34.026  27.280  26.055  1.00  0.00    -0.458 OA
BRANCH  68  69
ATOM     69  C   UNL A   1      33.871  26.019  25.430  1.00  0.00     0.359 C 
ATOM     70  O   UNL A   1      34.826  25.242  25.418  1.00  0.00    -0.244 OA
BRANCH  69  71
ATOM     71  C   UNL A   1      32.608  25.638  24.660  1.00  0.00     0.179 A 
ATOM     72  N   UNL A   1      31.724  24.966  25.475  1.00  0.00    -0.245 NA
ATOM     73  C   UNL A   1      32.264  25.890  23.324  1.00  0.00     0.161 A 
ATOM     74  C   UNL A   1      30.546  24.583  24.939  1.00  0.00     0.132 A 
ATOM     75  N   UNL A   1      31.088  25.414  22.786  1.00  0.00    -0.247 NA
ATOM     76  C   UNL A   1      30.240  24.778  23.613  1.00  0.00     0.132 A 
BRANCH  73  77
ATOM     77  C   UNL A   1      32.975  26.776  22.342  1.00  0.00     0.278 C 
ATOM     78  O   UNL A   1      33.926  26.354  21.683  1.00  0.00    -0.267 OA
ATOM     79  N   UNL A   1      32.530  28.034  22.110  1.00  0.00    -0.303 N 
ATOM     80  H   UNL A   1      32.767  28.466  21.257  1.00  0.00     0.172 HD
BRANCH  79  81
ATOM     81  C   UNL A   1      31.772  28.731  22.997  1.00  0.00     0.164 A 
ATOM     82  N   UNL A   1      32.472  29.361  24.463  1.00  0.00    -0.155 NA
ATOM     83  C   UNL A   1      30.052  29.630  22.673  1.00  0.00     0.063 A 
ATOM     84  N   UNL A   1      31.305  30.670  25.091  1.00  0.00    -0.259 N 
ATOM     85  C   UNL A   1      29.832  30.791  23.997  1.00  0.00     0.157 A 
ATOM     86  C   UNL A   1      28.964  29.504  21.812  1.00  0.00     0.017 A 
ATOM     87  H   UNL A   1      31.456  31.219  25.894  1.00  0.00     0.192 HD
ATOM     88  N   UNL A   1      28.718  31.513  24.177  1.00  0.00    -0.237 NA
ATOM     89  C   UNL A   1      27.857  30.323  22.109  1.00  0.00     0.021 A 
ATOM     90  C   UNL A   1      27.800  31.233  23.202  1.00  0.00     0.113 A 
ENDBRANCH  79  81
ENDBRANCH  73  77
ENDBRANCH  69  71
ENDBRANCH  68  69
ENDBRANCH  67  68
ENDBRANCH  66  67
ENDBRANCH  65  66
ENDBRANCH  64  65
ENDBRANCH   1  64
TORSDOF 19
ENDMDL
MODEL 2
REMARK VINA RESULT:     -12.0      4.339      8.588
REMARK SMILES O=C(OCCOCCOCCOC(=O)c1nccnc1C(=O)Nc1n[nH]c2ncccc12)c1ccc(-c2c3nc(c(-c4c(F)cccc4F)c4ccc([nH]4)c(-c4c(F)cccc4F)c4nc(c(-c5c(F)cccc5F)c5ccc2[nH]5)C=C4)C=C3)cc1
REMARK SMILES IDX 7 1 6 2 5 3 4 4 3 5 2 6 1 7 33 8 34 9 86 10 35 11 85 12
REMARK SMILES IDX 36 13 37 14 38 15 79 16 39 17 84 18 78 19 80 20 40 21 83 22
REMARK SMILES IDX 77 23 76 24 41 26 67 27 50 28 66 29 51 30 54 31 65 32 81 33
REMARK SMILES IDX 52 34 53 35 64 37 82 38 55 39 42 40 43 41 48 42 44 43 45 44
REMARK SMILES IDX 47 45 49 46 46 47 68 48 69 49 74 50 70 51 71 52 73 53 75 54
REMARK SMILES IDX 72 55 56 56 57 57 62 58 58 59 59 60 61 61 63 62 60 63 8 64
REMARK SMILES IDX 9 65 10 66 11 67 12 68 13 69 14 70 15 71 16 72 20 73 17 74
REMARK SMILES IDX 19 75 18 76 21 77 22 78 23 79 24 81 25 82 32 83 26 84 27 85
REMARK SMILES IDX 31 86 28 88 30 89 29 90
REMARK H PARENT 80 25 54 36 23 80 26 87
REMARK Flexibility Score: inf
ROOT
ATOM      1  C   UNL A   1      30.608  29.197  24.099  1.00  0.00     0.188 C 
ENDROOT
BRANCH   1   2
ATOM      2  O   UNL A   1      30.701  30.493  24.687  1.00  0.00    -0.376 OA
BRANCH   2   3
ATOM      3  C   UNL A   1      31.603  30.647  25.774  1.00  0.00     0.202 C 
BRANCH   3   4
ATOM      4  C   UNL A   1      31.321  31.781  26.777  1.00  0.00     0.261 C 
BRANCH   4   5
ATOM      5  O   UNL A   1      32.201  32.913  26.705  1.00  0.00    -0.460 OA
BRANCH   5   6
ATOM      6  C   UNL A   1      32.949  33.441  27.714  1.00  0.00     0.338 C 
ATOM      7  O   UNL A   1      32.730  34.598  28.063  1.00  0.00    -0.246 OA
BRANCH   6   8
ATOM      8  C   UNL A   1      34.178  32.757  28.257  1.00  0.00     0.060 A 
ATOM      9  C   UNL A   1      34.267  31.409  28.605  1.00  0.00     0.016 A 
ATOM     10  C   UNL A   1      35.337  33.545  28.417  1.00  0.00     0.016 A 
ATOM     11  C   UNL A   1      35.459  30.855  29.076  1.00  0.00     0.010 A 
ATOM     12  C   UNL A   1      36.527  33.008  28.938  1.00  0.00     0.010 A 
ATOM     13  C   UNL A   1      36.584  31.656  29.287  1.00  0.00    -0.014 A 
BRANCH  13  14
ATOM     14  C   UNL A   1      37.684  31.089  30.099  1.00  0.00     0.031 A 
ATOM     15  C   UNL A   1      38.655  30.181  29.404  1.00  0.00     0.074 A 
ATOM     16  C   UNL A   1      37.920  31.487  31.362  1.00  0.00     0.049 A 
ATOM     17  N   UNL A   1      39.732  29.613  29.872  1.00  0.00    -0.248 NA
ATOM     18  C   UNL A   1      38.389  29.900  27.982  1.00  0.00     0.031 C 
ATOM     19  C   UNL A   1      37.106  32.443  32.097  1.00  0.00     0.029 A 
ATOM     20  N   UNL A   1      38.938  31.184  32.233  1.00  0.00    -0.354 N 
ATOM     21  C   UNL A   1      40.261  28.894  28.811  1.00  0.00     0.074 A 
ATOM     22  C   UNL A   1      39.414  29.124  27.664  1.00  0.00     0.031 C 
ATOM     23  C   UNL A   1      37.700  32.720  33.269  1.00  0.00     0.029 A 
ATOM     24  C   UNL A   1      38.840  31.833  33.442  1.00  0.00     0.049 A 
ATOM     25  H   UNL A   1      39.668  30.561  32.014  1.00  0.00     0.167 HD
ATOM     26  C   UNL A   1      41.338  28.078  28.812  1.00  0.00     0.037 A 
ATOM     27  C   UNL A   1      39.534  31.675  34.586  1.00  0.00     0.037 A 
ATOM     28  C   UNL A   1      42.140  27.819  29.974  1.00  0.00     0.049 A 
ATOM     29  C   UNL A   1      40.635  30.652  34.599  1.00  0.00     0.074 A 
ATOM     30  C   UNL A   1      43.223  26.971  30.099  1.00  0.00     0.029 A 
ATOM     31  N   UNL A   1      41.921  28.384  31.222  1.00  0.00    -0.354 N 
ATOM     32  N   UNL A   1      41.113  29.949  33.600  1.00  0.00    -0.248 NA
ATOM     33  C   UNL A   1      41.269  30.368  35.893  1.00  0.00     0.031 C 
ATOM     34  C   UNL A   1      43.615  26.968  31.440  1.00  0.00     0.029 A 
ATOM     35  C   UNL A   1      42.819  27.865  32.136  1.00  0.00     0.049 A 
ATOM     36  H   UNL A   1      41.231  29.056  31.425  1.00  0.00     0.167 HD
ATOM     37  C   UNL A   1      42.100  29.141  34.143  1.00  0.00     0.074 A 
ATOM     38  C   UNL A   1      42.178  29.464  35.553  1.00  0.00     0.031 C 
ATOM     39  C   UNL A   1      42.868  28.206  33.534  1.00  0.00     0.037 A 
BRANCH  26  40
ATOM     40  C   UNL A   1      41.623  27.325  27.552  1.00  0.00     0.057 A 
ATOM     41  C   UNL A   1      41.132  26.036  27.318  1.00  0.00     0.134 A 
ATOM     42  C   UNL A   1      42.413  27.912  26.556  1.00  0.00     0.134 A 
ATOM     43  F   UNL A   1      40.401  25.406  28.248  1.00  0.00    -0.206 F 
ATOM     44  C   UNL A   1      41.423  25.354  26.134  1.00  0.00     0.040 A 
ATOM     45  C   UNL A   1      42.693  27.250  25.362  1.00  0.00     0.040 A 
ATOM     46  F   UNL A   1      42.928  29.138  26.731  1.00  0.00    -0.206 F 
ATOM     47  C   UNL A   1      42.198  25.965  25.149  1.00  0.00     0.006 A 
ENDBRANCH  26  40
BRANCH  27  48
ATOM     48  C   UNL A   1      39.128  32.366  35.844  1.00  0.00     0.057 A 
ATOM     49  C   UNL A   1      38.247  31.782  36.761  1.00  0.00     0.134 A 
ATOM     50  C   UNL A   1      39.545  33.679  36.112  1.00  0.00     0.134 A 
ATOM     51  F   UNL A   1      37.777  30.543  36.551  1.00  0.00    -0.206 F 
ATOM     52  C   UNL A   1      37.782  32.480  37.880  1.00  0.00     0.040 A 
ATOM     53  C   UNL A   1      39.109  34.379  37.238  1.00  0.00     0.040 A 
ATOM     54  F   UNL A   1      40.400  34.302  35.288  1.00  0.00    -0.206 F 
ATOM     55  C   UNL A   1      38.216  33.783  38.122  1.00  0.00     0.006 A 
ENDBRANCH  27  48
BRANCH  39  56
ATOM     56  C   UNL A   1      43.861  27.480  34.386  1.00  0.00     0.057 A 
ATOM     57  C   UNL A   1      45.131  28.009  34.649  1.00  0.00     0.134 A 
ATOM     58  C   UNL A   1      43.519  26.269  35.000  1.00  0.00     0.134 A 
ATOM     59  F   UNL A   1      45.521  29.158  34.074  1.00  0.00    -0.206 F 
ATOM     60  C   UNL A   1      46.031  27.352  35.486  1.00  0.00     0.040 A 
ATOM     61  C   UNL A   1      44.399  25.618  35.862  1.00  0.00     0.040 A 
ATOM     62  F   UNL A   1      42.315  25.716  34.791  1.00  0.00    -0.206 F 
ATOM     63  C   UNL A   1      45.661  26.159  36.105  1.00  0.00     0.006 A 
ENDBRANCH  39  56
ENDBRANCH  13  14
ENDBRANCH   6   8
ENDBRANCH   5   6
ENDBRANCH   4   5
ENDBRANCH   3   4
ENDBRANCH   2   3
ENDBRANCH   1   2
BRANCH   1  64
ATOM     64  C   UNL A   1      30.435  29.145  22.583  1.00  0.00     0.188 C 
BRANCH  64  65
ATOM     65  O   UNL A   1      30.354  27.847  22.005  1.00  0.00    -0.376 OA
BRANCH  65  66
ATOM     66  C   UNL A   1      31.535  27.046  21.946  1.00  0.00     0.202 C 
BRANCH  66  67
ATOM     67  C   UNL A   1      31.603  25.628  22.895  1.00  0.00     0.261 C 
BRANCH  67  68
ATOM     68  O   UNL A   1      33.224  24.829  23.992  1.00  0.00    -0.458 OA
BRANCH  68  69
ATOM     69  C   UNL A   1      34.242  24.637  24.958  1.00  0.00     0.359 C 
ATOM     70  O   UNL A   1      34.569  25.586  25.671  1.00  0.00    -0.244 OA
BRANCH  69  71
ATOM     71  C   UNL A   1      35.035  23.336  25.063  1.00  0.00     0.179 A 
ATOM     72  N   UNL A   1      36.180  23.399  24.302  1.00  0.00    -0.245 NA
ATOM     73  C   UNL A   1      34.759  22.177  25.804  1.00  0.00     0.161 A 
ATOM     74  C   UNL A   1      37.000  22.327  24.313  1.00  0.00     0.132 A 
ATOM     75  N   UNL A   1      35.575  21.069  25.729  1.00  0.00    -0.247 NA
ATOM     76  C   UNL A   1      36.694  21.171  24.991  1.00  0.00     0.132 A 
BRANCH  73  77
ATOM     77  C   UNL A   1      33.697  21.983  26.849  1.00  0.00     0.278 C 
ATOM     78  O   UNL A   1      33.898  22.303  28.021  1.00  0.00    -0.267 OA
ATOM     79  N   UNL A   1      32.471  21.524  26.500  1.00  0.00    -0.303 N 
ATOM     80  H   UNL A   1      31.711  21.723  27.093  1.00  0.00     0.172 HD
BRANCH  79  81
ATOM     81  C   UNL A   1      32.240  20.803  25.372  1.00  0.00     0.164 A 
ATOM     82  N   UNL A   1      31.851  21.597  23.871  1.00  0.00    -0.155 NA
ATOM     83  C   UNL A   1      32.776  18.948  24.991  1.00  0.00     0.063 A 
ATOM     84  N   UNL A   1      32.155  20.357  22.516  1.00  0.00    -0.259 N 
ATOM     85  C   UNL A   1      32.691  18.750  23.230  1.00  0.00     0.157 A 
ATOM     86  C   UNL A   1      33.053  17.784  25.704  1.00  0.00     0.017 A 
ATOM     87  H   UNL A   1      32.045  20.537  21.555  1.00  0.00     0.192 HD
ATOM     88  N   UNL A   1      32.880  17.581  22.603  1.00  0.00    -0.237 NA
ATOM     89  C   UNL A   1      33.236  16.624  24.925  1.00  0.00     0.021 A 
ATOM     90  C   UNL A   1      33.153  16.589  23.504  1.00  0.00     0.113 A 
ENDBRANCH  79  81
ENDBRANCH  73  77
ENDBRANCH  69  71
ENDBRANCH  68  69
ENDBRANCH  67  68
ENDBRANCH  66  67
ENDBRANCH  65  66
ENDBRANCH  64  65
ENDBRANCH   1  64
TORSDOF 19
ENDMDL
MODEL 3
REMARK VINA RESULT:     -11.9      4.164      7.183
REMARK SMILES O=C(OCCOCCOCCOC(=O)c1nccnc1C(=O)Nc1n[nH]c2ncccc12)c1ccc(-c2c3nc(c(-c4c(F)cccc4F)c4ccc([nH]4)c(-c4c(F)cccc4F)c4nc(c(-c5c(F)cccc5F)c5ccc2[nH]5)C=C4)C=C3)cc1
REMARK SMILES IDX 7 1 6 2 5 3 4 4 3 5 2 6 1 7 33 8 34 9 86 10 35 11 85 12
REMARK SMILES IDX 36 13 37 14 38 15 79 16 39 17 84 18 78 19 80 20 40 21 83 22
REMARK SMILES IDX 77 23 76 24 41 26 67 27 50 28 66 29 51 30 54 31 65 32 81 33
REMARK SMILES IDX 52 34 53 35 64 37 82 38 55 39 42 40 43 41 48 42 44 43 45 44
REMARK SMILES IDX 47 45 49 46 46 47 68 48 69 49 74 50 70 51 71 52 73 53 75 54
REMARK SMILES IDX 72 55 56 56 57 57 62 58 58 59 59 60 61 61 63 62 60 63 8 64
REMARK SMILES IDX 9 65 10 66 11 67 12 68 13 69 14 70 15 71 16 72 20 73 17 74
REMARK SMILES IDX 19 75 18 76 21 77 22 78 23 79 24 81 25 82 32 83 26 84 27 85
REMARK SMILES IDX 31 86 28 88 30 89 29 90
REMARK H PARENT 80 25 54 36 23 80 26 87
REMARK Flexibility Score: inf
ROOT
ATOM      1  C   UNL A   1      30.726  29.296  24.232  1.00  0.00     0.188 C 
ENDROOT
BRANCH   1   2
ATOM      2  O   UNL A   1      30.674  30.578  24.856  1.00  0.00    -0.376 OA
BRANCH   2   3
ATOM      3  C   UNL A   1      31.624  30.840  25.879  1.00  0.00     0.202 C 
BRANCH   3   4
ATOM      4  C   UNL A   1      31.295  31.957  26.886  1.00  0.00     0.261 C 
BRANCH   4   5
ATOM      5  O   UNL A   1      32.177  33.090  26.873  1.00  0.00    -0.460 OA
BRANCH   5   6
ATOM      6  C   UNL A   1      32.987  33.515  27.882  1.00  0.00     0.338 C 
ATOM      7  O   UNL A   1      32.785  34.625  28.369  1.00  0.00    -0.246 OA
BRANCH   6   8
ATOM      8  C   UNL A   1      34.254  32.794  28.264  1.00  0.00     0.060 A 
ATOM      9  C   UNL A   1      34.367  31.423  28.494  1.00  0.00     0.016 A 
ATOM     10  C   UNL A   1      35.426  33.570  28.391  1.00  0.00     0.016 A 
ATOM     11  C   UNL A   1      35.592  30.836  28.818  1.00  0.00     0.010 A 
ATOM     12  C   UNL A   1      36.653  32.996  28.766  1.00  0.00     0.010 A 
ATOM     13  C   UNL A   1      36.733  31.621  28.999  1.00  0.00    -0.014 A 
BRANCH  13  14
ATOM     14  C   UNL A   1      37.895  30.993  29.669  1.00  0.00     0.031 A 
ATOM     15  C   UNL A   1      38.096  31.296  31.124  1.00  0.00     0.074 A 
ATOM     16  C   UNL A   1      38.651  30.060  29.065  1.00  0.00     0.049 A 
ATOM     17  N   UNL A   1      38.992  30.824  31.947  1.00  0.00    -0.248 NA
ATOM     18  C   UNL A   1      37.141  32.235  31.738  1.00  0.00     0.031 C 
ATOM     19  C   UNL A   1      38.477  29.611  27.691  1.00  0.00     0.029 A 
ATOM     20  N   UNL A   1      39.680  29.280  29.536  1.00  0.00    -0.354 N 
ATOM     21  C   UNL A   1      38.721  31.422  33.169  1.00  0.00     0.074 A 
ATOM     22  C   UNL A   1      37.557  32.259  32.995  1.00  0.00     0.031 C 
ATOM     23  C   UNL A   1      39.301  28.578  27.456  1.00  0.00     0.029 A 
ATOM     24  C   UNL A   1      40.180  28.404  28.602  1.00  0.00     0.049 A 
ATOM     25  H   UNL A   1      40.025  29.342  30.456  1.00  0.00     0.167 HD
ATOM     26  C   UNL A   1      39.414  31.311  34.323  1.00  0.00     0.037 A 
ATOM     27  C   UNL A   1      41.271  27.613  28.631  1.00  0.00     0.037 A 
ATOM     28  C   UNL A   1      40.600  30.514  34.467  1.00  0.00     0.049 A 
ATOM     29  C   UNL A   1      42.107  27.622  29.880  1.00  0.00     0.074 A 
ATOM     30  C   UNL A   1      41.408  30.370  35.577  1.00  0.00     0.029 A 
ATOM     31  N   UNL A   1      41.162  29.753  33.453  1.00  0.00    -0.354 N 
ATOM     32  N   UNL A   1      41.864  28.214  31.024  1.00  0.00    -0.248 NA
ATOM     33  C   UNL A   1      43.380  26.891  29.838  1.00  0.00     0.031 C 
ATOM     34  C   UNL A   1      42.501  29.578  35.213  1.00  0.00     0.029 A 
ATOM     35  C   UNL A   1      42.337  29.176  33.897  1.00  0.00     0.049 A 
ATOM     36  H   UNL A   1      40.780  29.640  32.552  1.00  0.00     0.167 HD
ATOM     37  C   UNL A   1      42.951  27.929  31.837  1.00  0.00     0.074 A 
ATOM     38  C   UNL A   1      43.839  27.082  31.067  1.00  0.00     0.031 C 
ATOM     39  C   UNL A   1      43.200  28.339  33.103  1.00  0.00     0.037 A 
BRANCH  26  40
ATOM     40  C   UNL A   1      38.970  32.163  35.470  1.00  0.00     0.057 A 
ATOM     41  C   UNL A   1      38.188  31.668  36.518  1.00  0.00     0.134 A 
ATOM     42  C   UNL A   1      39.339  33.514  35.513  1.00  0.00     0.134 A 
ATOM     43  F   UNL A   1      37.771  30.394  36.515  1.00  0.00    -0.206 F 
ATOM     44  C   UNL A   1      37.782  32.492  37.571  1.00  0.00     0.040 A 
ATOM     45  C   UNL A   1      38.958  34.340  36.568  1.00  0.00     0.040 A 
ATOM     46  F   UNL A   1      40.073  34.050  34.526  1.00  0.00    -0.206 F 
ATOM     47  C   UNL A   1      38.175  33.830  37.601  1.00  0.00     0.006 A 
ENDBRANCH  26  40
BRANCH  27  48
ATOM     48  C   UNL A   1      41.731  26.878  27.417  1.00  0.00     0.057 A 
ATOM     49  C   UNL A   1      41.492  25.510  27.243  1.00  0.00     0.134 A 
ATOM     50  C   UNL A   1      42.507  27.517  26.439  1.00  0.00     0.134 A 
ATOM     51  F   UNL A   1      40.788  24.825  28.156  1.00  0.00    -0.206 F 
ATOM     52  C   UNL A   1      42.023  24.804  26.158  1.00  0.00     0.040 A 
ATOM     53  C   UNL A   1      43.024  26.830  25.338  1.00  0.00     0.040 A 
ATOM     54  F   UNL A   1      42.768  28.829  26.528  1.00  0.00    -0.206 F 
ATOM     55  C   UNL A   1      42.790  25.466  25.200  1.00  0.00     0.006 A 
ENDBRANCH  27  48
BRANCH  39  56
ATOM     56  C   UNL A   1      44.473  27.868  33.734  1.00  0.00     0.057 A 
ATOM     57  C   UNL A   1      44.560  26.626  34.375  1.00  0.00     0.134 A 
ATOM     58  C   UNL A   1      45.638  28.638  33.643  1.00  0.00     0.134 A 
ATOM     59  F   UNL A   1      43.472  25.852  34.508  1.00  0.00    -0.206 F 
ATOM     60  C   UNL A   1      45.762  26.171  34.915  1.00  0.00     0.040 A 
ATOM     61  C   UNL A   1      46.852  28.182  34.152  1.00  0.00     0.040 A 
ATOM     62  F   UNL A   1      45.618  29.834  33.035  1.00  0.00    -0.206 F 
ATOM     63  C   UNL A   1      46.916  26.945  34.792  1.00  0.00     0.006 A 
ENDBRANCH  39  56
ENDBRANCH  13  14
ENDBRANCH   6   8
ENDBRANCH   5   6
ENDBRANCH   4   5
ENDBRANCH   3   4
ENDBRANCH   2   3
ENDBRANCH   1   2
BRANCH   1  64
ATOM     64  C   UNL A   1      30.159  29.201  22.818  1.00  0.00     0.188 C 
BRANCH  64  65
ATOM     65  O   UNL A   1      30.254  27.927  22.190  1.00  0.00    -0.376 OA
BRANCH  65  66
ATOM     66  C   UNL A   1      31.536  27.307  22.084  1.00  0.00     0.202 C 
BRANCH  66  67
ATOM     67  C   UNL A   1      31.706  25.697  22.626  1.00  0.00     0.261 C 
BRANCH  67  68
ATOM     68  O   UNL A   1      33.189  24.856  23.877  1.00  0.00    -0.458 OA
BRANCH  68  69
ATOM     69  C   UNL A   1      34.154  24.669  24.897  1.00  0.00     0.359 C 
ATOM     70  O   UNL A   1      34.436  25.619  25.627  1.00  0.00    -0.244 OA
BRANCH  69  71
ATOM     71  C   UNL A   1      34.947  23.373  25.045  1.00  0.00     0.179 A 
ATOM     72  N   UNL A   1      36.111  23.426  24.313  1.00  0.00    -0.245 NA
ATOM     73  C   UNL A   1      34.655  22.226  25.799  1.00  0.00     0.161 A 
ATOM     74  C   UNL A   1      36.933  22.357  24.363  1.00  0.00     0.132 A 
ATOM     75  N   UNL A   1      35.475  21.119  25.764  1.00  0.00    -0.247 NA
ATOM     76  C   UNL A   1      36.612  21.212  25.053  1.00  0.00     0.132 A 
BRANCH  73  77
ATOM     77  C   UNL A   1      33.567  22.047  26.819  1.00  0.00     0.278 C 
ATOM     78  O   UNL A   1      33.737  22.390  27.990  1.00  0.00    -0.267 OA
ATOM     79  N   UNL A   1      32.353  21.576  26.448  1.00  0.00    -0.303 N 
ATOM     80  H   UNL A   1      31.576  21.783  27.017  1.00  0.00     0.172 HD
BRANCH  79  81
ATOM     81  C   UNL A   1      32.153  20.833  25.328  1.00  0.00     0.164 A 
ATOM     82  N   UNL A   1      31.813  21.598  23.800  1.00  0.00    -0.155 NA
ATOM     83  C   UNL A   1      32.695  18.969  25.001  1.00  0.00     0.063 A 
ATOM     84  N   UNL A   1      32.153  20.330  22.480  1.00  0.00    -0.259 N 
ATOM     85  C   UNL A   1      32.662  18.736  23.242  1.00  0.00     0.157 A 
ATOM     86  C   UNL A   1      32.945  17.819  25.745  1.00  0.00     0.017 A 
ATOM     87  H   UNL A   1      32.074  20.490  21.513  1.00  0.00     0.192 HD
ATOM     88  N   UNL A   1      32.866  17.554  22.645  1.00  0.00    -0.237 NA
ATOM     89  C   UNL A   1      33.148  16.643  24.995  1.00  0.00     0.021 A 
ATOM     90  C   UNL A   1      33.108  16.579  23.573  1.00  0.00     0.113 A 
ENDBRANCH  79  81
ENDBRANCH  73  77
ENDBRANCH  69  71
ENDBRANCH  68  69
ENDBRANCH  67  68
ENDBRANCH  66  67
ENDBRANCH  65  66
ENDBRANCH  64  65
ENDBRANCH   1  64
TORSDOF 19
ENDMDL
