MODEL 1
REMARK VINA RESULT:     -11.4      0.000      0.000
REMARK SMILES O=C(OCCOCCOCCOC(=O)[C@@H]1CCCN1S(=O)(=O)c1ccc2c3c(cccc13)C(=O)N2)c1ccc(-c2c3nc(c(-c4c(F)cccc4F)c4ccc([nH]4)c(-c4c(F)cccc4F)c4nc(c(-c5c(F)cccc5F)c5ccc2[nH]5)C=C4)C=C3)cc1
REMARK SMILES IDX 7 1 6 2 5 3 4 4 3 5 2 6 1 7 36 8 37 9 89 10 38 11 88 12
REMARK SMILES IDX 39 13 40 14 41 15 82 16 42 17 87 18 81 19 83 20 43 21 86 22
REMARK SMILES IDX 80 23 79 24 44 26 70 27 53 28 69 29 54 30 57 31 68 32 84 33
REMARK SMILES IDX 55 34 56 35 67 37 85 38 58 39 45 40 46 41 51 42 47 43 48 44
REMARK SMILES IDX 50 45 52 46 49 47 71 48 72 49 77 50 73 51 74 52 76 53 78 54
REMARK SMILES IDX 75 55 59 56 60 57 65 58 61 59 62 60 64 61 66 62 63 63 8 64
REMARK SMILES IDX 9 65 10 66 11 67 12 68 13 69 14 70 15 71 16 72 19 73 17 74
REMARK SMILES IDX 18 75 20 76 21 77 22 78 23 79 24 80 32 81 25 82 27 83 31 84
REMARK SMILES IDX 26 85 28 86 30 87 35 88 29 89 33 90 34 92
REMARK H PARENT 83 25 57 36 35 91
REMARK Flexibility Score: inf
ROOT
ATOM      1  C   UNL A   1      35.563  33.678  28.892  1.00  0.00     0.188 C 
ENDROOT
BRANCH   1   2
ATOM      2  O   UNL A   1      34.942  34.951  28.757  1.00  0.00    -0.376 OA
BRANCH   2   3
ATOM      3  C   UNL A   1      33.527  34.941  28.610  1.00  0.00     0.202 C 
BRANCH   3   4
ATOM      4  C   UNL A   1      32.900  36.035  29.490  1.00  0.00     0.261 C 
BRANCH   4   5
ATOM      5  O   UNL A   1      32.277  35.513  30.688  1.00  0.00    -0.460 OA
BRANCH   5   6
ATOM      6  C   UNL A   1      32.727  35.711  31.949  1.00  0.00     0.338 C 
ATOM      7  O   UNL A   1      32.049  36.327  32.766  1.00  0.00    -0.246 OA
BRANCH   6   8
ATOM      8  C   UNL A   1      33.906  34.938  32.437  1.00  0.00     0.060 A 
ATOM      9  C   UNL A   1      33.832  33.623  32.876  1.00  0.00     0.016 A 
ATOM     10  C   UNL A   1      35.178  35.536  32.332  1.00  0.00     0.016 A 
ATOM     11  C   UNL A   1      34.989  32.917  33.194  1.00  0.00     0.010 A 
ATOM     12  C   UNL A   1      36.347  34.829  32.662  1.00  0.00     0.010 A 
ATOM     13  C   UNL A   1      36.254  33.505  33.091  1.00  0.00    -0.014 A 
BRANCH  13  14
ATOM     14  C   UNL A   1      37.400  32.717  33.605  1.00  0.00     0.031 A 
ATOM     15  C   UNL A   1      38.108  31.821  32.635  1.00  0.00     0.074 A 
ATOM     16  C   UNL A   1      37.912  32.944  34.830  1.00  0.00     0.049 A 
ATOM     17  N   UNL A   1      39.192  31.113  32.799  1.00  0.00    -0.248 NA
ATOM     18  C   UNL A   1      37.499  31.700  31.300  1.00  0.00     0.031 C 
ATOM     19  C   UNL A   1      37.335  33.834  35.831  1.00  0.00     0.029 A 
ATOM     20  N   UNL A   1      39.088  32.521  35.403  1.00  0.00    -0.354 N 
ATOM     21  C   UNL A   1      39.363  30.416  31.611  1.00  0.00     0.074 A 
ATOM     22  C   UNL A   1      38.306  30.832  30.714  1.00  0.00     0.031 C 
ATOM     23  C   UNL A   1      38.228  34.017  36.820  1.00  0.00     0.029 A 
ATOM     24  C   UNL A   1      39.400  33.183  36.572  1.00  0.00     0.049 A 
ATOM     25  H   UNL A   1      39.654  31.815  35.016  1.00  0.00     0.167 HD
ATOM     26  C   UNL A   1      40.279  29.462  31.325  1.00  0.00     0.037 A 
ATOM     27  C   UNL A   1      40.511  33.114  37.336  1.00  0.00     0.037 A 
ATOM     28  C   UNL A   1      41.288  29.028  32.254  1.00  0.00     0.049 A 
ATOM     29  C   UNL A   1      41.524  32.047  36.994  1.00  0.00     0.074 A 
ATOM     30  C   UNL A   1      42.172  27.970  32.150  1.00  0.00     0.029 A 
ATOM     31  N   UNL A   1      41.539  29.642  33.474  1.00  0.00    -0.354 N 
ATOM     32  N   UNL A   1      41.604  31.284  35.929  1.00  0.00    -0.248 NA
ATOM     33  C   UNL A   1      42.555  31.773  38.006  1.00  0.00     0.031 C 
ATOM     34  C   UNL A   1      42.927  27.917  33.328  1.00  0.00     0.029 A 
ATOM     35  C   UNL A   1      42.558  28.982  34.137  1.00  0.00     0.049 A 
ATOM     36  H   UNL A   1      41.062  30.432  33.817  1.00  0.00     0.167 HD
ATOM     37  C   UNL A   1      42.671  30.424  36.156  1.00  0.00     0.074 A 
ATOM     38  C   UNL A   1      43.253  30.808  37.427  1.00  0.00     0.031 C 
ATOM     39  C   UNL A   1      43.108  29.380  35.408  1.00  0.00     0.037 A 
BRANCH  26  40
ATOM     40  C   UNL A   1      40.100  28.741  30.023  1.00  0.00     0.057 A 
ATOM     41  C   UNL A   1      40.819  29.156  28.895  1.00  0.00     0.134 A 
ATOM     42  C   UNL A   1      39.311  27.590  29.899  1.00  0.00     0.134 A 
ATOM     43  F   UNL A   1      41.606  30.242  28.949  1.00  0.00    -0.206 F 
ATOM     44  C   UNL A   1      40.770  28.448  27.694  1.00  0.00     0.040 A 
ATOM     45  C   UNL A   1      39.277  26.856  28.710  1.00  0.00     0.040 A 
ATOM     46  F   UNL A   1      38.635  27.112  30.954  1.00  0.00    -0.206 F 
ATOM     47  C   UNL A   1      40.008  27.286  27.604  1.00  0.00     0.006 A 
ENDBRANCH  26  40
BRANCH  27  48
ATOM     48  C   UNL A   1      40.735  33.996  38.522  1.00  0.00     0.057 A 
ATOM     49  C   UNL A   1      41.445  35.200  38.442  1.00  0.00     0.134 A 
ATOM     50  C   UNL A   1      40.151  33.694  39.765  1.00  0.00     0.134 A 
ATOM     51  F   UNL A   1      42.013  35.579  37.289  1.00  0.00    -0.206 F 
ATOM     52  C   UNL A   1      41.578  36.056  39.540  1.00  0.00     0.040 A 
ATOM     53  C   UNL A   1      40.237  34.562  40.858  1.00  0.00     0.040 A 
ATOM     54  F   UNL A   1      39.426  32.575  39.915  1.00  0.00    -0.206 F 
ATOM     55  C   UNL A   1      40.958  35.747  40.748  1.00  0.00     0.006 A 
ENDBRANCH  27  48
BRANCH  39  56
ATOM     56  C   UNL A   1      44.264  28.594  35.955  1.00  0.00     0.057 A 
ATOM     57  C   UNL A   1      44.044  27.469  36.759  1.00  0.00     0.134 A 
ATOM     58  C   UNL A   1      45.594  28.953  35.695  1.00  0.00     0.134 A 
ATOM     59  F   UNL A   1      42.797  27.078  37.057  1.00  0.00    -0.206 F 
ATOM     60  C   UNL A   1      45.105  26.725  37.276  1.00  0.00     0.040 A 
ATOM     61  C   UNL A   1      46.662  28.199  36.181  1.00  0.00     0.040 A 
ATOM     62  F   UNL A   1      45.874  30.016  34.924  1.00  0.00    -0.206 F 
ATOM     63  C   UNL A   1      46.418  27.083  36.978  1.00  0.00     0.006 A 
ENDBRANCH  39  56
ENDBRANCH  13  14
ENDBRANCH   6   8
ENDBRANCH   5   6
ENDBRANCH   4   5
ENDBRANCH   3   4
ENDBRANCH   2   3
ENDBRANCH   1   2
BRANCH   1  64
ATOM     64  C   UNL A   1      34.609  32.469  28.861  1.00  0.00     0.188 C 
BRANCH  64  65
ATOM     65  O   UNL A   1      34.586  31.828  27.585  1.00  0.00    -0.376 OA
BRANCH  65  66
ATOM     66  C   UNL A   1      34.343  30.415  27.641  1.00  0.00     0.202 C 
BRANCH  66  67
ATOM     67  C   UNL A   1      32.993  30.059  26.966  1.00  0.00     0.261 C 
BRANCH  67  68
ATOM     68  O   UNL A   1      32.999  28.795  26.264  1.00  0.00    -0.462 OA
BRANCH  68  69
ATOM     69  C   UNL A   1      32.022  27.940  26.594  1.00  0.00     0.324 C 
ATOM     70  O   UNL A   1      31.615  27.817  27.750  1.00  0.00    -0.250 OA
BRANCH  69  71
ATOM     71  C   UNL A   1      31.439  27.151  25.464  1.00  0.00     0.183 C 
ATOM     72  C   UNL A   1      30.519  26.116  26.121  1.00  0.00     0.034 C 
ATOM     73  N   UNL A   1      31.929  26.460  24.224  1.00  0.00    -0.184 NA
ATOM     74  C   UNL A   1      29.796  25.500  24.956  1.00  0.00     0.019 C 
ATOM     75  C   UNL A   1      30.784  25.585  23.799  1.00  0.00     0.103 C 
BRANCH  73  76
ATOM     76  S   UNL A   1      33.467  25.744  23.994  1.00  0.00     0.244 S 
ATOM     77  O   UNL A   1      33.683  25.635  22.568  1.00  0.00    -0.207 OA
ATOM     78  O   UNL A   1      34.405  26.489  24.811  1.00  0.00    -0.207 OA
BRANCH  76  79
ATOM     79  C   UNL A   1      33.462  24.079  24.689  1.00  0.00     0.090 A 
ATOM     80  C   UNL A   1      33.810  24.011  26.043  1.00  0.00     0.024 A 
ATOM     81  C   UNL A   1      32.993  22.883  24.040  1.00  0.00     0.005 A 
ATOM     82  C   UNL A   1      33.795  22.852  26.825  1.00  0.00     0.028 A 
ATOM     83  C   UNL A   1      33.002  21.764  24.842  1.00  0.00     0.019 A 
ATOM     84  C   UNL A   1      32.514  22.606  22.728  1.00  0.00     0.010 A 
ATOM     85  C   UNL A   1      33.378  21.730  26.166  1.00  0.00     0.050 A 
ATOM     86  C   UNL A   1      32.661  20.465  24.486  1.00  0.00     0.050 A 
ATOM     87  C   UNL A   1      32.152  21.295  22.325  1.00  0.00     0.002 A 
ATOM     88  N   UNL A   1      33.280  20.433  26.619  1.00  0.00    -0.321 N 
ATOM     89  C   UNL A   1      32.231  20.196  23.194  1.00  0.00     0.014 A 
ATOM     90  C   UNL A   1      32.844  19.567  25.615  1.00  0.00     0.256 C 
ATOM     91  H   UNL A   1      33.492  20.151  27.537  1.00  0.00     0.170 HD
ATOM     92  O   UNL A   1      32.711  18.362  25.753  1.00  0.00    -0.269 OA
ENDBRANCH  76  79
ENDBRANCH  73  76
ENDBRANCH  69  71
ENDBRANCH  68  69
ENDBRANCH  67  68
ENDBRANCH  66  67
ENDBRANCH  65  66
ENDBRANCH  64  65
ENDBRANCH   1  64
TORSDOF 19
ENDMDL
MODEL 2
REMARK VINA RESULT:     -11.2      4.644     10.247
REMARK SMILES O=C(OCCOCCOCCOC(=O)[C@@H]1CCCN1S(=O)(=O)c1ccc2c3c(cccc13)C(=O)N2)c1ccc(-c2c3nc(c(-c4c(F)cccc4F)c4ccc([nH]4)c(-c4c(F)cccc4F)c4nc(c(-c5c(F)cccc5F)c5ccc2[nH]5)C=C4)C=C3)cc1
REMARK SMILES IDX 7 1 6 2 5 3 4 4 3 5 2 6 1 7 36 8 37 9 89 10 38 11 88 12
REMARK SMILES IDX 39 13 40 14 41 15 82 16 42 17 87 18 81 19 83 20 43 21 86 22
REMARK SMILES IDX 80 23 79 24 44 26 70 27 53 28 69 29 54 30 57 31 68 32 84 33
REMARK SMILES IDX 55 34 56 35 67 37 85 38 58 39 45 40 46 41 51 42 47 43 48 44
REMARK SMILES IDX 50 45 52 46 49 47 71 48 72 49 77 50 73 51 74 52 76 53 78 54
REMARK SMILES IDX 75 55 59 56 60 57 65 58 61 59 62 60 64 61 66 62 63 63 8 64
REMARK SMILES IDX 9 65 10 66 11 67 12 68 13 69 14 70 15 71 16 72 19 73 17 74
REMARK SMILES IDX 18 75 20 76 21 77 22 78 23 79 24 80 32 81 25 82 27 83 31 84
REMARK SMILES IDX 26 85 28 86 30 87 35 88 29 89 33 90 34 92
REMARK H PARENT 83 25 57 36 35 91
REMARK Flexibility Score: inf
ROOT
ATOM      1  C   UNL A   1      35.459  19.072  24.737  1.00  0.00     0.188 C 
ENDROOT
BRANCH   1   2
ATOM      2  O   UNL A   1      36.864  19.157  24.948  1.00  0.00    -0.376 OA
BRANCH   2   3
ATOM      3  C   UNL A   1      37.451  20.434  24.725  1.00  0.00     0.202 C 
BRANCH   3   4
ATOM      4  C   UNL A   1      38.582  20.676  25.738  1.00  0.00     0.261 C 
BRANCH   4   5
ATOM      5  O   UNL A   1      39.601  19.648  25.707  1.00  0.00    -0.460 OA
BRANCH   5   6
ATOM      6  C   UNL A   1      40.870  19.796  26.156  1.00  0.00     0.338 C 
ATOM      7  O   UNL A   1      41.713  18.929  25.946  1.00  0.00    -0.246 OA
BRANCH   6   8
ATOM      8  C   UNL A   1      41.325  21.130  26.645  1.00  0.00     0.060 A 
ATOM      9  C   UNL A   1      41.271  21.518  27.977  1.00  0.00     0.016 A 
ATOM     10  C   UNL A   1      41.953  21.993  25.724  1.00  0.00     0.016 A 
ATOM     11  C   UNL A   1      41.832  22.724  28.387  1.00  0.00     0.010 A 
ATOM     12  C   UNL A   1      42.511  23.217  26.133  1.00  0.00     0.010 A 
ATOM     13  C   UNL A   1      42.457  23.584  27.477  1.00  0.00    -0.014 A 
BRANCH  13  14
ATOM     14  C   UNL A   1      42.877  24.909  27.992  1.00  0.00     0.031 A 
ATOM     15  C   UNL A   1      41.795  25.875  28.372  1.00  0.00     0.074 A 
ATOM     16  C   UNL A   1      44.163  25.165  28.298  1.00  0.00     0.049 A 
ATOM     17  N   UNL A   1      41.891  27.046  28.941  1.00  0.00    -0.248 NA
ATOM     18  C   UNL A   1      40.418  25.463  28.053  1.00  0.00     0.031 C 
ATOM     19  C   UNL A   1      45.286  24.275  28.022  1.00  0.00     0.029 A 
ATOM     20  N   UNL A   1      44.730  26.202  28.999  1.00  0.00    -0.354 N 
ATOM     21  C   UNL A   1      40.594  27.538  28.994  1.00  0.00     0.074 A 
ATOM     22  C   UNL A   1      39.725  26.514  28.456  1.00  0.00     0.031 C 
ATOM     23  C   UNL A   1      46.370  24.721  28.682  1.00  0.00     0.029 A 
ATOM     24  C   UNL A   1      46.045  25.979  29.348  1.00  0.00     0.049 A 
ATOM     25  H   UNL A   1      44.244  27.026  29.231  1.00  0.00     0.167 HD
ATOM     26  C   UNL A   1      40.181  28.763  29.392  1.00  0.00     0.037 A 
ATOM     27  C   UNL A   1      46.873  26.712  30.122  1.00  0.00     0.037 A 
ATOM     28  C   UNL A   1      41.074  29.784  29.873  1.00  0.00     0.049 A 
ATOM     29  C   UNL A   1      46.388  28.074  30.561  1.00  0.00     0.074 A 
ATOM     30  C   UNL A   1      40.809  31.110  30.158  1.00  0.00     0.029 A 
ATOM     31  N   UNL A   1      42.421  29.577  30.138  1.00  0.00    -0.354 N 
ATOM     32  N   UNL A   1      45.187  28.597  30.481  1.00  0.00    -0.248 NA
ATOM     33  C   UNL A   1      47.400  28.982  31.120  1.00  0.00     0.031 C 
ATOM     34  C   UNL A   1      42.008  31.718  30.551  1.00  0.00     0.029 A 
ATOM     35  C   UNL A   1      43.004  30.754  30.575  1.00  0.00     0.049 A 
ATOM     36  H   UNL A   1      42.893  28.720  30.030  1.00  0.00     0.167 HD
ATOM     37  C   UNL A   1      45.306  29.899  30.951  1.00  0.00     0.074 A 
ATOM     38  C   UNL A   1      46.680  30.062  31.382  1.00  0.00     0.031 C 
ATOM     39  C   UNL A   1      44.379  30.889  30.984  1.00  0.00     0.037 A 
BRANCH  26  40
ATOM     40  C   UNL A   1      38.736  29.084  29.155  1.00  0.00     0.057 A 
ATOM     41  C   UNL A   1      37.836  29.063  30.229  1.00  0.00     0.134 A 
ATOM     42  C   UNL A   1      38.249  29.507  27.912  1.00  0.00     0.134 A 
ATOM     43  F   UNL A   1      38.240  28.682  31.450  1.00  0.00    -0.206 F 
ATOM     44  C   UNL A   1      36.508  29.462  30.078  1.00  0.00     0.040 A 
ATOM     45  C   UNL A   1      36.929  29.937  27.756  1.00  0.00     0.040 A 
ATOM     46  F   UNL A   1      39.070  29.595  26.854  1.00  0.00    -0.206 F 
ATOM     47  C   UNL A   1      36.055  29.914  28.841  1.00  0.00     0.006 A 
ENDBRANCH  26  40
BRANCH  27  48
ATOM     48  C   UNL A   1      48.248  26.260  30.496  1.00  0.00     0.057 A 
ATOM     49  C   UNL A   1      48.524  25.604  31.701  1.00  0.00     0.134 A 
ATOM     50  C   UNL A   1      49.319  26.392  29.594  1.00  0.00     0.134 A 
ATOM     51  F   UNL A   1      47.555  25.411  32.607  1.00  0.00    -0.206 F 
ATOM     52  C   UNL A   1      49.798  25.113  32.003  1.00  0.00     0.040 A 
ATOM     53  C   UNL A   1      50.587  25.865  29.863  1.00  0.00     0.040 A 
ATOM     54  F   UNL A   1      49.130  26.979  28.403  1.00  0.00    -0.206 F 
ATOM     55  C   UNL A   1      50.830  25.227  31.075  1.00  0.00     0.006 A 
ENDBRANCH  27  48
BRANCH  39  56
ATOM     56  C   UNL A   1      44.833  32.222  31.503  1.00  0.00     0.057 A 
ATOM     57  C   UNL A   1      44.715  32.536  32.862  1.00  0.00     0.134 A 
ATOM     58  C   UNL A   1      45.378  33.200  30.659  1.00  0.00     0.134 A 
ATOM     59  F   UNL A   1      44.190  31.652  33.722  1.00  0.00    -0.206 F 
ATOM     60  C   UNL A   1      45.132  33.769  33.364  1.00  0.00     0.040 A 
ATOM     61  C   UNL A   1      45.827  34.425  31.154  1.00  0.00     0.040 A 
ATOM     62  F   UNL A   1      45.528  32.960  29.346  1.00  0.00    -0.206 F 
ATOM     63  C   UNL A   1      45.701  34.713  32.511  1.00  0.00     0.006 A 
ENDBRANCH  39  56
ENDBRANCH  13  14
ENDBRANCH   6   8
ENDBRANCH   5   6
ENDBRANCH   4   5
ENDBRANCH   3   4
ENDBRANCH   2   3
ENDBRANCH   1   2
BRANCH   1  64
ATOM     64  C   UNL A   1      34.926  17.668  24.394  1.00  0.00     0.188 C 
BRANCH  64  65
ATOM     65  O   UNL A   1      33.860  17.708  23.445  1.00  0.00    -0.376 OA
BRANCH  65  66
ATOM     66  C   UNL A   1      32.573  17.980  24.017  1.00  0.00     0.202 C 
BRANCH  66  67
ATOM     67  C   UNL A   1      32.256  19.498  23.969  1.00  0.00     0.261 C 
BRANCH  67  68
ATOM     68  O   UNL A   1      32.164  20.123  25.269  1.00  0.00    -0.462 OA
BRANCH  68  69
ATOM     69  C   UNL A   1      32.149  21.462  25.273  1.00  0.00     0.324 C 
ATOM     70  O   UNL A   1      31.173  22.111  25.651  1.00  0.00    -0.250 OA
BRANCH  69  71
ATOM     71  C   UNL A   1      33.404  22.129  24.802  1.00  0.00     0.183 C 
ATOM     72  C   UNL A   1      33.913  22.935  26.002  1.00  0.00     0.034 C 
ATOM     73  N   UNL A   1      33.857  22.927  23.614  1.00  0.00    -0.184 NA
ATOM     74  C   UNL A   1      35.272  23.401  25.559  1.00  0.00     0.019 C 
ATOM     75  C   UNL A   1      35.157  23.547  24.047  1.00  0.00     0.103 C 
BRANCH  73  76
ATOM     76  S   UNL A   1      32.891  23.956  22.646  1.00  0.00     0.244 S 
ATOM     77  O   UNL A   1      33.429  23.916  21.304  1.00  0.00    -0.207 OA
ATOM     78  O   UNL A   1      31.511  23.583  22.882  1.00  0.00    -0.207 OA
BRANCH  76  79
ATOM     79  C   UNL A   1      33.027  25.650  23.253  1.00  0.00     0.090 A 
ATOM     80  C   UNL A   1      33.599  26.551  22.347  1.00  0.00     0.024 A 
ATOM     81  C   UNL A   1      32.474  26.167  24.477  1.00  0.00     0.005 A 
ATOM     82  C   UNL A   1      33.732  27.928  22.550  1.00  0.00     0.028 A 
ATOM     83  C   UNL A   1      32.634  27.524  24.642  1.00  0.00     0.019 A 
ATOM     84  C   UNL A   1      31.785  25.566  25.570  1.00  0.00     0.010 A 
ATOM     85  C   UNL A   1      33.227  28.376  23.738  1.00  0.00     0.050 A 
ATOM     86  C   UNL A   1      32.257  28.294  25.735  1.00  0.00     0.050 A 
ATOM     87  C   UNL A   1      31.380  26.316  26.703  1.00  0.00     0.002 A 
ATOM     88  N   UNL A   1      33.226  29.648  24.266  1.00  0.00    -0.321 N 
ATOM     89  C   UNL A   1      31.620  27.695  26.813  1.00  0.00     0.014 A 
ATOM     90  C   UNL A   1      32.640  29.682  25.532  1.00  0.00     0.256 C 
ATOM     91  H   UNL A   1      33.593  30.437  23.806  1.00  0.00     0.170 HD
ATOM     92  O   UNL A   1      32.550  30.683  26.224  1.00  0.00    -0.269 OA
ENDBRANCH  76  79
ENDBRANCH  73  76
ENDBRANCH  69  71
ENDBRANCH  68  69
ENDBRANCH  67  68
ENDBRANCH  66  67
ENDBRANCH  65  66
ENDBRANCH  64  65
ENDBRANCH   1  64
TORSDOF 19
ENDMDL
MODEL 3
REMARK VINA RESULT:     -11.2      0.709      6.072
REMARK SMILES O=C(OCCOCCOCCOC(=O)[C@@H]1CCCN1S(=O)(=O)c1ccc2c3c(cccc13)C(=O)N2)c1ccc(-c2c3nc(c(-c4c(F)cccc4F)c4ccc([nH]4)c(-c4c(F)cccc4F)c4nc(c(-c5c(F)cccc5F)c5ccc2[nH]5)C=C4)C=C3)cc1
REMARK SMILES IDX 7 1 6 2 5 3 4 4 3 5 2 6 1 7 36 8 37 9 89 10 38 11 88 12
REMARK SMILES IDX 39 13 40 14 41 15 82 16 42 17 87 18 81 19 83 20 43 21 86 22
REMARK SMILES IDX 80 23 79 24 44 26 70 27 53 28 69 29 54 30 57 31 68 32 84 33
REMARK SMILES IDX 55 34 56 35 67 37 85 38 58 39 45 40 46 41 51 42 47 43 48 44
REMARK SMILES IDX 50 45 52 46 49 47 71 48 72 49 77 50 73 51 74 52 76 53 78 54
REMARK SMILES IDX 75 55 59 56 60 57 65 58 61 59 62 60 64 61 66 62 63 63 8 64
REMARK SMILES IDX 9 65 10 66 11 67 12 68 13 69 14 70 15 71 16 72 19 73 17 74
REMARK SMILES IDX 18 75 20 76 21 77 22 78 23 79 24 80 32 81 25 82 27 83 31 84
REMARK SMILES IDX 26 85 28 86 30 87 35 88 29 89 33 90 34 92
REMARK H PARENT 83 25 57 36 35 91
REMARK Flexibility Score: inf
ROOT
ATOM      1  C   UNL A   1      34.313  33.861  28.961  1.00  0.00     0.188 C 
ENDROOT
BRANCH   1   2
ATOM      2  O   UNL A   1      33.016  34.422  29.125  1.00  0.00    -0.376 OA
BRANCH   2   3
ATOM      3  C   UNL A   1      32.904  35.817  28.867  1.00  0.00     0.202 C 
BRANCH   3   4
ATOM      4  C   UNL A   1      33.185  36.612  30.153  1.00  0.00     0.261 C 
BRANCH   4   5
ATOM      5  O   UNL A   1      32.171  36.426  31.169  1.00  0.00    -0.460 OA
BRANCH   5   6
ATOM      6  C   UNL A   1      32.282  35.603  32.238  1.00  0.00     0.338 C 
ATOM      7  O   UNL A   1      31.281  35.193  32.819  1.00  0.00    -0.246 OA
BRANCH   6   8
ATOM      8  C   UNL A   1      33.594  34.958  32.535  1.00  0.00     0.060 A 
ATOM      9  C   UNL A   1      33.760  33.586  32.680  1.00  0.00     0.016 A 
ATOM     10  C   UNL A   1      34.744  35.774  32.547  1.00  0.00     0.016 A 
ATOM     11  C   UNL A   1      35.031  33.039  32.825  1.00  0.00     0.010 A 
ATOM     12  C   UNL A   1      36.028  35.224  32.704  1.00  0.00     0.010 A 
ATOM     13  C   UNL A   1      36.175  33.844  32.838  1.00  0.00    -0.014 A 
BRANCH  13  14
ATOM     14  C   UNL A   1      37.458  33.174  33.156  1.00  0.00     0.031 A 
ATOM     15  C   UNL A   1      37.946  33.255  34.571  1.00  0.00     0.074 A 
ATOM     16  C   UNL A   1      38.061  32.358  32.269  1.00  0.00     0.049 A 
ATOM     17  N   UNL A   1      38.972  32.674  35.130  1.00  0.00    -0.248 NA
ATOM     18  C   UNL A   1      37.171  34.123  35.474  1.00  0.00     0.031 C 
ATOM     19  C   UNL A   1      37.641  32.163  30.886  1.00  0.00     0.029 A 
ATOM     20  N   UNL A   1      39.092  31.464  32.428  1.00  0.00    -0.354 N 
ATOM     21  C   UNL A   1      39.003  33.151  36.433  1.00  0.00     0.074 A 
ATOM     22  C   UNL A   1      37.859  34.021  36.598  1.00  0.00     0.031 C 
ATOM     23  C   UNL A   1      38.295  31.105  30.374  1.00  0.00     0.029 A 
ATOM     24  C   UNL A   1      39.250  30.607  31.359  1.00  0.00     0.049 A 
ATOM     25  H   UNL A   1      39.664  31.437  33.229  1.00  0.00     0.167 HD
ATOM     26  C   UNL A   1      39.944  32.934  37.380  1.00  0.00     0.037 A 
ATOM     27  C   UNL A   1      40.071  29.546  31.214  1.00  0.00     0.037 A 
ATOM     28  C   UNL A   1      41.102  32.106  37.173  1.00  0.00     0.049 A 
ATOM     29  C   UNL A   1      41.110  29.318  32.287  1.00  0.00     0.074 A 
ATOM     30  C   UNL A   1      42.204  31.928  37.988  1.00  0.00     0.029 A 
ATOM     31  N   UNL A   1      41.301  31.312  36.051  1.00  0.00    -0.354 N 
ATOM     32  N   UNL A   1      41.223  29.876  33.469  1.00  0.00    -0.248 NA
ATOM     33  C   UNL A   1      42.189  28.373  31.967  1.00  0.00     0.031 C 
ATOM     34  C   UNL A   1      43.092  31.062  37.336  1.00  0.00     0.029 A 
ATOM     35  C   UNL A   1      42.511  30.650  36.147  1.00  0.00     0.049 A 
ATOM     36  H   UNL A   1      40.673  31.233  35.297  1.00  0.00     0.167 HD
ATOM     37  C   UNL A   1      42.395  29.373  34.018  1.00  0.00     0.074 A 
ATOM     38  C   UNL A   1      42.918  28.410  33.071  1.00  0.00     0.031 C 
ATOM     39  C   UNL A   1      43.013  29.706  35.180  1.00  0.00     0.037 A 
BRANCH  26  40
ATOM     40  C   UNL A   1      39.816  33.740  38.638  1.00  0.00     0.057 A 
ATOM     41  C   UNL A   1      39.046  33.250  39.701  1.00  0.00     0.134 A 
ATOM     42  C   UNL A   1      40.519  34.934  38.845  1.00  0.00     0.134 A 
ATOM     43  F   UNL A   1      38.359  32.104  39.574  1.00  0.00    -0.206 F 
ATOM     44  C   UNL A   1      38.989  33.910  40.928  1.00  0.00     0.040 A 
ATOM     45  C   UNL A   1      40.493  35.588  40.080  1.00  0.00     0.040 A 
ATOM     46  F   UNL A   1      41.313  35.432  37.885  1.00  0.00    -0.206 F 
ATOM     47  C   UNL A   1      39.726  35.075  41.125  1.00  0.00     0.006 A 
ENDBRANCH  26  40
BRANCH  27  48
ATOM     48  C   UNL A   1      40.031  28.646  30.020  1.00  0.00     0.057 A 
ATOM     49  C   UNL A   1      39.286  27.462  29.994  1.00  0.00     0.134 A 
ATOM     50  C   UNL A   1      40.673  29.010  28.823  1.00  0.00     0.134 A 
ATOM     51  F   UNL A   1      38.620  27.053  31.084  1.00  0.00    -0.206 F 
ATOM     52  C   UNL A   1      39.190  26.671  28.845  1.00  0.00     0.040 A 
ATOM     53  C   UNL A   1      40.549  28.253  27.654  1.00  0.00     0.040 A 
ATOM     54  F   UNL A   1      41.380  30.148  28.755  1.00  0.00    -0.206 F 
ATOM     55  C   UNL A   1      39.808  27.076  27.664  1.00  0.00     0.006 A 
ENDBRANCH  27  48
BRANCH  39  56
ATOM     56  C   UNL A   1      44.314  29.018  35.474  1.00  0.00     0.057 A 
ATOM     57  C   UNL A   1      45.525  29.564  35.029  1.00  0.00     0.134 A 
ATOM     58  C   UNL A   1      44.372  27.812  36.186  1.00  0.00     0.134 A 
ATOM     59  F   UNL A   1      45.540  30.709  34.331  1.00  0.00    -0.206 F 
ATOM     60  C   UNL A   1      46.745  28.941  35.292  1.00  0.00     0.040 A 
ATOM     61  C   UNL A   1      45.588  27.196  36.482  1.00  0.00     0.040 A 
ATOM     62  F   UNL A   1      43.248  27.240  36.648  1.00  0.00    -0.206 F 
ATOM     63  C   UNL A   1      46.780  27.760  36.031  1.00  0.00     0.006 A 
ENDBRANCH  39  56
ENDBRANCH  13  14
ENDBRANCH   6   8
ENDBRANCH   5   6
ENDBRANCH   4   5
ENDBRANCH   3   4
ENDBRANCH   2   3
ENDBRANCH   1   2
BRANCH   1  64
ATOM     64  C   UNL A   1      34.374  32.322  28.975  1.00  0.00     0.188 C 
BRANCH  64  65
ATOM     65  O   UNL A   1      34.859  31.785  27.743  1.00  0.00    -0.376 OA
BRANCH  65  66
ATOM     66  C   UNL A   1      34.600  30.385  27.569  1.00  0.00     0.202 C 
BRANCH  66  67
ATOM     67  C   UNL A   1      33.171  30.152  27.013  1.00  0.00     0.261 C 
BRANCH  67  68
ATOM     68  O   UNL A   1      32.927  28.803  26.556  1.00  0.00    -0.462 OA
BRANCH  68  69
ATOM     69  C   UNL A   1      32.344  28.689  25.356  1.00  0.00     0.324 C 
ATOM     70  O   UNL A   1      32.358  29.599  24.526  1.00  0.00    -0.250 OA
BRANCH  69  71
ATOM     71  C   UNL A   1      31.684  27.376  25.074  1.00  0.00     0.183 C 
ATOM     72  C   UNL A   1      31.034  26.954  26.396  1.00  0.00     0.034 C 
ATOM     73  N   UNL A   1      32.040  26.074  24.417  1.00  0.00    -0.184 NA
ATOM     74  C   UNL A   1      30.208  25.757  26.013  1.00  0.00     0.019 C 
ATOM     75  C   UNL A   1      30.962  25.121  24.853  1.00  0.00     0.103 C 
BRANCH  73  76
ATOM     76  S   UNL A   1      33.595  25.364  24.331  1.00  0.00     0.244 S 
ATOM     77  O   UNL A   1      33.986  25.348  22.938  1.00  0.00    -0.207 OA
ATOM     78  O   UNL A   1      34.424  26.047  25.305  1.00  0.00    -0.207 OA
BRANCH  76  79
ATOM     79  C   UNL A   1      33.506  23.657  24.908  1.00  0.00     0.090 A 
ATOM     80  C   UNL A   1      33.822  23.481  26.261  1.00  0.00     0.024 A 
ATOM     81  C   UNL A   1      33.003  22.530  24.169  1.00  0.00     0.005 A 
ATOM     82  C   UNL A   1      33.742  22.273  26.959  1.00  0.00     0.028 A 
ATOM     83  C   UNL A   1      32.949  21.359  24.890  1.00  0.00     0.019 A 
ATOM     84  C   UNL A   1      32.541  22.364  22.831  1.00  0.00     0.010 A 
ATOM     85  C   UNL A   1      33.294  21.218  26.216  1.00  0.00     0.050 A 
ATOM     86  C   UNL A   1      32.562  20.103  24.439  1.00  0.00     0.050 A 
ATOM     87  C   UNL A   1      32.135  21.101  22.331  1.00  0.00     0.002 A 
ATOM     88  N   UNL A   1      33.133  19.898  26.575  1.00  0.00    -0.321 N 
ATOM     89  C   UNL A   1      32.149  19.942  23.124  1.00  0.00     0.014 A 
ATOM     90  C   UNL A   1      32.683  19.122  25.505  1.00  0.00     0.256 C 
ATOM     91  H   UNL A   1      33.313  19.545  27.476  1.00  0.00     0.170 HD
ATOM     92  O   UNL A   1      32.498  17.917  25.557  1.00  0.00    -0.269 OA
ENDBRANCH  76  79
ENDBRANCH  73  76
ENDBRANCH  69  71
ENDBRANCH  68  69
ENDBRANCH  67  68
ENDBRANCH  66  67
ENDBRANCH  65  66
ENDBRANCH  64  65
ENDBRANCH   1  64
TORSDOF 19
ENDMDL
