MODEL 1
REMARK VINA RESULT:     -11.1      0.000      0.000
REMARK SMILES O=C(OCCOCCOCCOC(=O)c1sccc1S(=O)(=O)N1CCO[C@@H]2CCCC[C@@H]21)c1ccc(-c2c3nc(c(-c4c(F)cccc4F)c4ccc([nH]4)c(-c4c(F)cccc4F)c4nc(c(-c5c(F)cccc5F)c5ccc2[nH]5)C=C4)C=C3)cc1
REMARK SMILES IDX 7 1 6 2 5 3 4 4 3 5 2 6 1 7 33 8 34 9 86 10 35 11 85 12
REMARK SMILES IDX 36 13 37 14 38 15 79 16 39 17 84 18 78 19 80 20 40 21 83 22
REMARK SMILES IDX 77 23 76 24 41 26 67 27 50 28 66 29 51 30 54 31 65 32 81 33
REMARK SMILES IDX 52 34 53 35 64 37 82 38 55 39 42 40 43 41 48 42 44 43 45 44
REMARK SMILES IDX 47 45 49 46 46 47 68 48 69 49 74 50 70 51 71 52 73 53 75 54
REMARK SMILES IDX 72 55 56 56 57 57 62 58 58 59 59 60 61 61 63 62 60 63 8 64
REMARK SMILES IDX 9 65 10 66 11 67 12 68 13 69 14 70 15 71 16 72 19 73 17 74
REMARK SMILES IDX 18 75 20 76 21 77 22 78 23 79 24 80 32 81 25 82 27 83 31 84
REMARK SMILES IDX 26 85 28 86 30 87 29 88
REMARK H PARENT 80 25 54 36
REMARK Flexibility Score: inf
ROOT
ATOM      1  C   UNL A   1      39.843  21.011  26.145  1.00  0.00     0.188 C 
ENDROOT
BRANCH   1   2
ATOM      2  O   UNL A   1      41.114  21.262  26.743  1.00  0.00    -0.376 OA
BRANCH   2   3
ATOM      3  C   UNL A   1      42.174  20.452  26.224  1.00  0.00     0.202 C 
BRANCH   3   4
ATOM      4  C   UNL A   1      43.364  21.258  25.680  1.00  0.00     0.261 C 
BRANCH   4   5
ATOM      5  O   UNL A   1      42.953  22.451  24.987  1.00  0.00    -0.460 OA
BRANCH   5   6
ATOM      6  C   UNL A   1      43.417  23.719  25.074  1.00  0.00     0.338 C 
ATOM      7  O   UNL A   1      44.364  24.031  24.351  1.00  0.00    -0.246 OA
BRANCH   6   8
ATOM      8  C   UNL A   1      42.858  24.785  25.971  1.00  0.00     0.060 A 
ATOM      9  C   UNL A   1      43.254  26.122  26.012  1.00  0.00     0.016 A 
ATOM     10  C   UNL A   1      41.821  24.391  26.842  1.00  0.00     0.016 A 
ATOM     11  C   UNL A   1      42.709  27.012  26.933  1.00  0.00     0.010 A 
ATOM     12  C   UNL A   1      41.244  25.288  27.748  1.00  0.00     0.010 A 
ATOM     13  C   UNL A   1      41.718  26.598  27.815  1.00  0.00    -0.014 A 
BRANCH  13  14
ATOM     14  C   UNL A   1      41.355  27.502  28.920  1.00  0.00     0.031 A 
ATOM     15  C   UNL A   1      42.202  27.470  30.151  1.00  0.00     0.074 A 
ATOM     16  C   UNL A   1      40.391  28.426  28.775  1.00  0.00     0.049 A 
ATOM     17  N   UNL A   1      42.063  28.124  31.270  1.00  0.00    -0.248 NA
ATOM     18  C   UNL A   1      43.388  26.598  30.097  1.00  0.00     0.031 C 
ATOM     19  C   UNL A   1      39.635  28.660  27.549  1.00  0.00     0.029 A 
ATOM     20  N   UNL A   1      39.900  29.350  29.658  1.00  0.00    -0.354 N 
ATOM     21  C   UNL A   1      43.129  27.729  32.064  1.00  0.00     0.074 A 
ATOM     22  C   UNL A   1      43.907  26.779  31.299  1.00  0.00     0.031 C 
ATOM     23  C   UNL A   1      38.761  29.657  27.763  1.00  0.00     0.029 A 
ATOM     24  C   UNL A   1      38.847  30.076  29.156  1.00  0.00     0.049 A 
ATOM     25  H   UNL A   1      40.264  29.482  30.563  1.00  0.00     0.167 HD
ATOM     26  C   UNL A   1      43.416  28.116  33.326  1.00  0.00     0.037 A 
ATOM     27  C   UNL A   1      38.018  30.940  29.769  1.00  0.00     0.037 A 
ATOM     28  C   UNL A   1      42.608  29.039  34.073  1.00  0.00     0.049 A 
ATOM     29  C   UNL A   1      38.261  31.244  31.222  1.00  0.00     0.074 A 
ATOM     30  C   UNL A   1      42.753  29.451  35.383  1.00  0.00     0.029 A 
ATOM     31  N   UNL A   1      41.484  29.683  33.569  1.00  0.00    -0.354 N 
ATOM     32  N   UNL A   1      39.228  30.817  32.000  1.00  0.00    -0.248 NA
ATOM     33  C   UNL A   1      37.303  32.135  31.887  1.00  0.00     0.031 C 
ATOM     34  C   UNL A   1      41.681  30.297  35.690  1.00  0.00     0.029 A 
ATOM     35  C   UNL A   1      40.907  30.466  34.553  1.00  0.00     0.049 A 
ATOM     36  H   UNL A   1      41.149  29.594  32.648  1.00  0.00     0.167 HD
ATOM     37  C   UNL A   1      39.013  31.407  33.238  1.00  0.00     0.074 A 
ATOM     38  C   UNL A   1      37.828  32.233  33.100  1.00  0.00     0.031 C 
ATOM     39  C   UNL A   1      39.728  31.281  34.382  1.00  0.00     0.037 A 
BRANCH  26  40
ATOM     40  C   UNL A   1      44.585  27.444  33.981  1.00  0.00     0.057 A 
ATOM     41  C   UNL A   1      45.872  27.998  33.974  1.00  0.00     0.134 A 
ATOM     42  C   UNL A   1      44.428  26.180  34.563  1.00  0.00     0.134 A 
ATOM     43  F   UNL A   1      46.097  29.189  33.401  1.00  0.00    -0.206 F 
ATOM     44  C   UNL A   1      46.967  27.300  34.487  1.00  0.00     0.040 A 
ATOM     45  C   UNL A   1      45.509  25.485  35.104  1.00  0.00     0.040 A 
ATOM     46  F   UNL A   1      43.224  25.589  34.591  1.00  0.00    -0.206 F 
ATOM     47  C   UNL A   1      46.786  26.039  35.055  1.00  0.00     0.006 A 
ENDBRANCH  26  40
BRANCH  27  48
ATOM     48  C   UNL A   1      36.853  31.513  29.041  1.00  0.00     0.057 A 
ATOM     49  C   UNL A   1      36.835  32.845  28.613  1.00  0.00     0.134 A 
ATOM     50  C   UNL A   1      35.709  30.742  28.780  1.00  0.00     0.134 A 
ATOM     51  F   UNL A   1      37.885  33.644  28.848  1.00  0.00    -0.206 F 
ATOM     52  C   UNL A   1      35.719  33.395  27.975  1.00  0.00     0.040 A 
ATOM     53  C   UNL A   1      34.599  31.271  28.120  1.00  0.00     0.040 A 
ATOM     54  F   UNL A   1      35.656  29.457  29.160  1.00  0.00    -0.206 F 
ATOM     55  C   UNL A   1      34.598  32.605  27.723  1.00  0.00     0.006 A 
ENDBRANCH  27  48
BRANCH  39  56
ATOM     56  C   UNL A   1      39.272  32.083  35.565  1.00  0.00     0.057 A 
ATOM     57  C   UNL A   1      38.423  31.548  36.541  1.00  0.00     0.134 A 
ATOM     58  C   UNL A   1      39.742  33.388  35.757  1.00  0.00     0.134 A 
ATOM     59  F   UNL A   1      37.929  30.308  36.408  1.00  0.00    -0.206 F 
ATOM     60  C   UNL A   1      38.043  32.291  37.660  1.00  0.00     0.040 A 
ATOM     61  C   UNL A   1      39.394  34.130  36.886  1.00  0.00     0.040 A 
ATOM     62  F   UNL A   1      40.564  33.956  34.862  1.00  0.00    -0.206 F 
ATOM     63  C   UNL A   1      38.539  33.582  37.839  1.00  0.00     0.006 A 
ENDBRANCH  39  56
ENDBRANCH  13  14
ENDBRANCH   6   8
ENDBRANCH   5   6
ENDBRANCH   4   5
ENDBRANCH   3   4
ENDBRANCH   2   3
ENDBRANCH   1   2
BRANCH   1  64
ATOM     64  C   UNL A   1      38.844  22.173  26.112  1.00  0.00     0.188 C 
BRANCH  64  65
ATOM     65  O   UNL A   1      37.864  22.153  25.087  1.00  0.00    -0.376 OA
BRANCH  65  66
ATOM     66  C   UNL A   1      36.874  21.132  25.186  1.00  0.00     0.202 C 
BRANCH  66  67
ATOM     67  C   UNL A   1      35.441  21.597  25.433  1.00  0.00     0.261 C 
BRANCH  67  68
ATOM     68  O   UNL A   1      35.002  22.675  24.574  1.00  0.00    -0.459 OA
BRANCH  68  69
ATOM     69  C   UNL A   1      34.568  23.786  25.242  1.00  0.00     0.349 C 
ATOM     70  O   UNL A   1      35.256  24.768  25.481  1.00  0.00    -0.245 OA
BRANCH  69  71
ATOM     71  C   UNL A   1      33.201  23.650  25.677  1.00  0.00     0.132 A 
ATOM     72  S   UNL A   1      32.863  22.835  27.144  1.00  0.00    -0.136 S 
ATOM     73  C   UNL A   1      32.042  23.940  24.985  1.00  0.00     0.108 A 
ATOM     74  C   UNL A   1      31.188  22.762  26.799  1.00  0.00     0.067 A 
ATOM     75  C   UNL A   1      30.884  23.374  25.604  1.00  0.00     0.034 A 
BRANCH  73  76
ATOM     76  S   UNL A   1      31.975  24.821  23.491  1.00  0.00     0.245 S 
ATOM     77  O   UNL A   1      32.948  24.124  22.674  1.00  0.00    -0.207 OA
ATOM     78  O   UNL A   1      30.571  24.831  23.157  1.00  0.00    -0.207 OA
BRANCH  76  79
ATOM     79  N   UNL A   1      32.492  26.417  23.767  1.00  0.00    -0.190 NA
ATOM     80  C   UNL A   1      33.592  26.880  22.884  1.00  0.00     0.131 C 
ATOM     81  C   UNL A   1      31.510  27.420  24.309  1.00  0.00     0.102 C 
ATOM     82  C   UNL A   1      33.822  28.383  22.871  1.00  0.00     0.177 C 
ATOM     83  C   UNL A   1      32.005  28.892  24.260  1.00  0.00     0.136 C 
ATOM     84  C   UNL A   1      30.946  26.996  25.681  1.00  0.00     0.023 C 
ATOM     85  O   UNL A   1      33.423  29.004  24.088  1.00  0.00    -0.375 OA
ATOM     86  C   UNL A   1      31.632  29.725  25.486  1.00  0.00     0.034 C 
ATOM     87  C   UNL A   1      31.474  27.676  26.940  1.00  0.00     0.002 C 
ATOM     88  C   UNL A   1      32.074  29.056  26.771  1.00  0.00     0.003 C 
ENDBRANCH  76  79
ENDBRANCH  73  76
ENDBRANCH  69  71
ENDBRANCH  68  69
ENDBRANCH  67  68
ENDBRANCH  66  67
ENDBRANCH  65  66
ENDBRANCH  64  65
ENDBRANCH   1  64
TORSDOF 19
ENDMDL
MODEL 2
REMARK VINA RESULT:     -10.8      1.102      2.082
REMARK SMILES O=C(OCCOCCOCCOC(=O)c1sccc1S(=O)(=O)N1CCO[C@@H]2CCCC[C@@H]21)c1ccc(-c2c3nc(c(-c4c(F)cccc4F)c4ccc([nH]4)c(-c4c(F)cccc4F)c4nc(c(-c5c(F)cccc5F)c5ccc2[nH]5)C=C4)C=C3)cc1
REMARK SMILES IDX 7 1 6 2 5 3 4 4 3 5 2 6 1 7 33 8 34 9 86 10 35 11 85 12
REMARK SMILES IDX 36 13 37 14 38 15 79 16 39 17 84 18 78 19 80 20 40 21 83 22
REMARK SMILES IDX 77 23 76 24 41 26 67 27 50 28 66 29 51 30 54 31 65 32 81 33
REMARK SMILES IDX 52 34 53 35 64 37 82 38 55 39 42 40 43 41 48 42 44 43 45 44
REMARK SMILES IDX 47 45 49 46 46 47 68 48 69 49 74 50 70 51 71 52 73 53 75 54
REMARK SMILES IDX 72 55 56 56 57 57 62 58 58 59 59 60 61 61 63 62 60 63 8 64
REMARK SMILES IDX 9 65 10 66 11 67 12 68 13 69 14 70 15 71 16 72 19 73 17 74
REMARK SMILES IDX 18 75 20 76 21 77 22 78 23 79 24 80 32 81 25 82 27 83 31 84
REMARK SMILES IDX 26 85 28 86 30 87 29 88
REMARK H PARENT 80 25 54 36
REMARK Flexibility Score: inf
ROOT
ATOM      1  C   UNL A   1      40.173  20.809  26.062  1.00  0.00     0.188 C 
ENDROOT
BRANCH   1   2
ATOM      2  O   UNL A   1      41.430  21.153  26.645  1.00  0.00    -0.376 OA
BRANCH   2   3
ATOM      3  C   UNL A   1      42.538  20.412  26.125  1.00  0.00     0.202 C 
BRANCH   3   4
ATOM      4  C   UNL A   1      43.570  21.275  25.382  1.00  0.00     0.261 C 
BRANCH   4   5
ATOM      5  O   UNL A   1      43.021  22.525  24.929  1.00  0.00    -0.460 OA
BRANCH   5   6
ATOM      6  C   UNL A   1      43.492  23.787  25.057  1.00  0.00     0.338 C 
ATOM      7  O   UNL A   1      44.459  24.108  24.365  1.00  0.00    -0.246 OA
BRANCH   6   8
ATOM      8  C   UNL A   1      42.919  24.837  25.964  1.00  0.00     0.060 A 
ATOM      9  C   UNL A   1      43.260  26.189  25.983  1.00  0.00     0.016 A 
ATOM     10  C   UNL A   1      41.927  24.407  26.870  1.00  0.00     0.016 A 
ATOM     11  C   UNL A   1      42.709  27.063  26.915  1.00  0.00     0.010 A 
ATOM     12  C   UNL A   1      41.343  25.287  27.789  1.00  0.00     0.010 A 
ATOM     13  C   UNL A   1      41.764  26.616  27.831  1.00  0.00    -0.014 A 
BRANCH  13  14
ATOM     14  C   UNL A   1      41.400  27.513  28.941  1.00  0.00     0.031 A 
ATOM     15  C   UNL A   1      42.256  27.486  30.167  1.00  0.00     0.074 A 
ATOM     16  C   UNL A   1      40.426  28.428  28.806  1.00  0.00     0.049 A 
ATOM     17  N   UNL A   1      42.118  28.136  31.289  1.00  0.00    -0.248 NA
ATOM     18  C   UNL A   1      43.450  26.626  30.103  1.00  0.00     0.031 C 
ATOM     19  C   UNL A   1      39.660  28.659  27.586  1.00  0.00     0.029 A 
ATOM     20  N   UNL A   1      39.932  29.345  29.695  1.00  0.00    -0.354 N 
ATOM     21  C   UNL A   1      43.193  27.748  32.074  1.00  0.00     0.074 A 
ATOM     22  C   UNL A   1      43.975  26.809  31.302  1.00  0.00     0.031 C 
ATOM     23  C   UNL A   1      38.778  29.646  27.808  1.00  0.00     0.029 A 
ATOM     24  C   UNL A   1      38.869  30.062  29.202  1.00  0.00     0.049 A 
ATOM     25  H   UNL A   1      40.301  29.478  30.597  1.00  0.00     0.167 HD
ATOM     26  C   UNL A   1      43.485  28.135  33.336  1.00  0.00     0.037 A 
ATOM     27  C   UNL A   1      38.035  30.916  29.823  1.00  0.00     0.037 A 
ATOM     28  C   UNL A   1      42.672  29.048  34.091  1.00  0.00     0.049 A 
ATOM     29  C   UNL A   1      38.285  31.218  31.276  1.00  0.00     0.074 A 
ATOM     30  C   UNL A   1      42.823  29.457  35.401  1.00  0.00     0.029 A 
ATOM     31  N   UNL A   1      41.539  29.682  33.596  1.00  0.00    -0.354 N 
ATOM     32  N   UNL A   1      39.262  30.798  32.046  1.00  0.00    -0.248 NA
ATOM     33  C   UNL A   1      37.323  32.098  31.950  1.00  0.00     0.031 C 
ATOM     34  C   UNL A   1      41.745  30.292  35.718  1.00  0.00     0.029 A 
ATOM     35  C   UNL A   1      40.961  30.456  34.586  1.00  0.00     0.049 A 
ATOM     36  H   UNL A   1      41.199  29.593  32.677  1.00  0.00     0.167 HD
ATOM     37  C   UNL A   1      39.049  31.383  33.287  1.00  0.00     0.074 A 
ATOM     38  C   UNL A   1      37.856  32.197  33.159  1.00  0.00     0.031 C 
ATOM     39  C   UNL A   1      39.773  31.261  34.426  1.00  0.00     0.037 A 
BRANCH  26  40
ATOM     40  C   UNL A   1      44.664  27.472  33.981  1.00  0.00     0.057 A 
ATOM     41  C   UNL A   1      44.563  26.249  34.656  1.00  0.00     0.134 A 
ATOM     42  C   UNL A   1      45.908  28.114  33.989  1.00  0.00     0.134 A 
ATOM     43  F   UNL A   1      43.391  25.600  34.718  1.00  0.00    -0.206 F 
ATOM     44  C   UNL A   1      45.649  25.709  35.350  1.00  0.00     0.040 A 
ATOM     45  C   UNL A   1      47.008  27.570  34.653  1.00  0.00     0.040 A 
ATOM     46  F   UNL A   1      46.069  29.294  33.371  1.00  0.00    -0.206 F 
ATOM     47  C   UNL A   1      46.876  26.371  35.348  1.00  0.00     0.006 A 
ENDBRANCH  26  40
BRANCH  27  48
ATOM     48  C   UNL A   1      36.860  31.479  29.105  1.00  0.00     0.057 A 
ATOM     49  C   UNL A   1      35.720  30.712  28.843  1.00  0.00     0.134 A 
ATOM     50  C   UNL A   1      36.861  32.802  28.636  1.00  0.00     0.134 A 
ATOM     51  F   UNL A   1      35.660  29.433  29.244  1.00  0.00    -0.206 F 
ATOM     52  C   UNL A   1      34.637  31.227  28.124  1.00  0.00     0.040 A 
ATOM     53  C   UNL A   1      35.776  33.338  27.940  1.00  0.00     0.040 A 
ATOM     54  F   UNL A   1      37.919  33.598  28.853  1.00  0.00    -0.206 F 
ATOM     55  C   UNL A   1      34.662  32.547  27.674  1.00  0.00     0.006 A 
ENDBRANCH  27  48
BRANCH  39  56
ATOM     56  C   UNL A   1      39.317  32.054  35.614  1.00  0.00     0.057 A 
ATOM     57  C   UNL A   1      39.727  33.375  35.826  1.00  0.00     0.134 A 
ATOM     58  C   UNL A   1      38.404  31.503  36.522  1.00  0.00     0.134 A 
ATOM     59  F   UNL A   1      40.609  33.955  35.000  1.00  0.00    -0.206 F 
ATOM     60  C   UNL A   1      39.258  34.116  36.912  1.00  0.00     0.040 A 
ATOM     61  C   UNL A   1      37.904  32.243  37.594  1.00  0.00     0.040 A 
ATOM     62  F   UNL A   1      37.965  30.244  36.370  1.00  0.00    -0.206 F 
ATOM     63  C   UNL A   1      38.335  33.552  37.792  1.00  0.00     0.006 A 
ENDBRANCH  39  56
ENDBRANCH  13  14
ENDBRANCH   6   8
ENDBRANCH   5   6
ENDBRANCH   4   5
ENDBRANCH   3   4
ENDBRANCH   2   3
ENDBRANCH   1   2
BRANCH   1  64
ATOM     64  C   UNL A   1      39.061  21.862  26.129  1.00  0.00     0.188 C 
BRANCH  64  65
ATOM     65  O   UNL A   1      38.103  21.855  25.083  1.00  0.00    -0.376 OA
BRANCH  65  66
ATOM     66  C   UNL A   1      37.274  20.698  24.999  1.00  0.00     0.202 C 
BRANCH  66  67
ATOM     67  C   UNL A   1      35.789  20.903  25.292  1.00  0.00     0.261 C 
BRANCH  67  68
ATOM     68  O   UNL A   1      35.416  22.272  25.572  1.00  0.00    -0.459 OA
BRANCH  68  69
ATOM     69  C   UNL A   1      34.081  22.452  25.814  1.00  0.00     0.349 C 
ATOM     70  O   UNL A   1      33.608  22.797  26.888  1.00  0.00    -0.245 OA
BRANCH  69  71
ATOM     71  C   UNL A   1      33.281  22.145  24.656  1.00  0.00     0.132 A 
ATOM     72  S   UNL A   1      32.585  20.588  24.505  1.00  0.00    -0.136 S 
ATOM     73  C   UNL A   1      33.108  22.886  23.503  1.00  0.00     0.108 A 
ATOM     74  C   UNL A   1      32.164  20.858  22.868  1.00  0.00     0.067 A 
ATOM     75  C   UNL A   1      32.516  22.121  22.450  1.00  0.00     0.034 A 
BRANCH  73  76
ATOM     76  S   UNL A   1      33.615  24.533  23.301  1.00  0.00     0.245 S 
ATOM     77  O   UNL A   1      34.837  24.583  24.079  1.00  0.00    -0.207 OA
ATOM     78  O   UNL A   1      33.617  24.722  21.871  1.00  0.00    -0.207 OA
BRANCH  76  79
ATOM     79  N   UNL A   1      32.449  25.558  23.994  1.00  0.00    -0.190 NA
ATOM     80  C   UNL A   1      31.136  25.572  23.301  1.00  0.00     0.131 C 
ATOM     81  C   UNL A   1      32.505  25.835  25.472  1.00  0.00     0.102 C 
ATOM     82  C   UNL A   1      29.993  26.191  24.091  1.00  0.00     0.177 C 
ATOM     83  C   UNL A   1      31.246  26.548  26.039  1.00  0.00     0.136 C 
ATOM     84  C   UNL A   1      33.836  26.493  25.889  1.00  0.00     0.023 C 
ATOM     85  O   UNL A   1      30.445  27.165  25.025  1.00  0.00    -0.375 OA
ATOM     86  C   UNL A   1      31.545  27.615  27.091  1.00  0.00     0.034 C 
ATOM     87  C   UNL A   1      33.862  27.990  26.181  1.00  0.00     0.002 C 
ATOM     88  C   UNL A   1      32.551  28.630  26.587  1.00  0.00     0.003 C 
ENDBRANCH  76  79
ENDBRANCH  73  76
ENDBRANCH  69  71
ENDBRANCH  68  69
ENDBRANCH  67  68
ENDBRANCH  66  67
ENDBRANCH  65  66
ENDBRANCH  64  65
ENDBRANCH   1  64
TORSDOF 19
ENDMDL
MODEL 3
REMARK VINA RESULT:     -10.2      2.375      8.275
REMARK SMILES O=C(OCCOCCOCCOC(=O)c1sccc1S(=O)(=O)N1CCO[C@@H]2CCCC[C@@H]21)c1ccc(-c2c3nc(c(-c4c(F)cccc4F)c4ccc([nH]4)c(-c4c(F)cccc4F)c4nc(c(-c5c(F)cccc5F)c5ccc2[nH]5)C=C4)C=C3)cc1
REMARK SMILES IDX 7 1 6 2 5 3 4 4 3 5 2 6 1 7 33 8 34 9 86 10 35 11 85 12
REMARK SMILES IDX 36 13 37 14 38 15 79 16 39 17 84 18 78 19 80 20 40 21 83 22
REMARK SMILES IDX 77 23 76 24 41 26 67 27 50 28 66 29 51 30 54 31 65 32 81 33
REMARK SMILES IDX 52 34 53 35 64 37 82 38 55 39 42 40 43 41 48 42 44 43 45 44
REMARK SMILES IDX 47 45 49 46 46 47 68 48 69 49 74 50 70 51 71 52 73 53 75 54
REMARK SMILES IDX 72 55 56 56 57 57 62 58 58 59 59 60 61 61 63 62 60 63 8 64
REMARK SMILES IDX 9 65 10 66 11 67 12 68 13 69 14 70 15 71 16 72 19 73 17 74
REMARK SMILES IDX 18 75 20 76 21 77 22 78 23 79 24 80 32 81 25 82 27 83 31 84
REMARK SMILES IDX 26 85 28 86 30 87 29 88
REMARK H PARENT 80 25 54 36
REMARK Flexibility Score: inf
ROOT
ATOM      1  C   UNL A   1      30.861  30.289  24.982  1.00  0.00     0.188 C 
ENDROOT
BRANCH   1   2
ATOM      2  O   UNL A   1      30.562  31.563  25.552  1.00  0.00    -0.376 OA
BRANCH   2   3
ATOM      3  C   UNL A   1      31.393  31.916  26.662  1.00  0.00     0.202 C 
BRANCH   3   4
ATOM      4  C   UNL A   1      31.984  33.332  26.572  1.00  0.00     0.261 C 
BRANCH   4   5
ATOM      5  O   UNL A   1      32.198  33.925  27.866  1.00  0.00    -0.460 OA
BRANCH   5   6
ATOM      6  C   UNL A   1      33.341  34.338  28.462  1.00  0.00     0.338 C 
ATOM      7  O   UNL A   1      33.433  35.531  28.754  1.00  0.00    -0.246 OA
BRANCH   6   8
ATOM      8  C   UNL A   1      34.502  33.454  28.813  1.00  0.00     0.060 A 
ATOM      9  C   UNL A   1      34.444  32.093  29.111  1.00  0.00     0.016 A 
ATOM     10  C   UNL A   1      35.773  34.066  28.823  1.00  0.00     0.016 A 
ATOM     11  C   UNL A   1      35.581  31.384  29.487  1.00  0.00     0.010 A 
ATOM     12  C   UNL A   1      36.927  33.352  29.169  1.00  0.00     0.010 A 
ATOM     13  C   UNL A   1      36.821  32.010  29.535  1.00  0.00    -0.014 A 
BRANCH  13  14
ATOM     14  C   UNL A   1      37.936  31.286  30.170  1.00  0.00     0.031 A 
ATOM     15  C   UNL A   1      38.178  31.520  31.626  1.00  0.00     0.074 A 
ATOM     16  C   UNL A   1      38.620  30.340  29.505  1.00  0.00     0.049 A 
ATOM     17  N   UNL A   1      39.118  31.047  32.397  1.00  0.00    -0.248 NA
ATOM     18  C   UNL A   1      37.204  32.385  32.313  1.00  0.00     0.031 C 
ATOM     19  C   UNL A   1      38.337  29.909  28.140  1.00  0.00     0.029 A 
ATOM     20  N   UNL A   1      39.676  29.560  29.895  1.00  0.00    -0.354 N 
ATOM     21  C   UNL A   1      38.863  31.573  33.654  1.00  0.00     0.074 A 
ATOM     22  C   UNL A   1      37.682  32.400  33.545  1.00  0.00     0.031 C 
ATOM     23  C   UNL A   1      39.211  28.948  27.799  1.00  0.00     0.029 A 
ATOM     24  C   UNL A   1      40.155  28.754  28.892  1.00  0.00     0.049 A 
ATOM     25  H   UNL A   1      40.053  29.575  30.803  1.00  0.00     0.167 HD
ATOM     26  C   UNL A   1      39.570  31.391  34.792  1.00  0.00     0.037 A 
ATOM     27  C   UNL A   1      41.260  27.987  28.848  1.00  0.00     0.037 A 
ATOM     28  C   UNL A   1      40.758  30.587  34.864  1.00  0.00     0.049 A 
ATOM     29  C   UNL A   1      42.122  27.917  30.079  1.00  0.00     0.074 A 
ATOM     30  C   UNL A   1      41.601  30.387  35.939  1.00  0.00     0.029 A 
ATOM     31  N   UNL A   1      41.278  29.860  33.800  1.00  0.00    -0.354 N 
ATOM     32  N   UNL A   1      41.924  28.471  31.253  1.00  0.00    -0.248 NA
ATOM     33  C   UNL A   1      43.357  27.130  29.986  1.00  0.00     0.031 C 
ATOM     34  C   UNL A   1      42.666  29.587  35.508  1.00  0.00     0.029 A 
ATOM     35  C   UNL A   1      42.451  29.235  34.185  1.00  0.00     0.049 A 
ATOM     36  H   UNL A   1      40.873  29.800  32.906  1.00  0.00     0.167 HD
ATOM     37  C   UNL A   1      42.993  28.078  32.047  1.00  0.00     0.074 A 
ATOM     38  C   UNL A   1      43.829  27.228  31.221  1.00  0.00     0.031 C 
ATOM     39  C   UNL A   1      43.260  28.390  33.339  1.00  0.00     0.037 A 
BRANCH  26  40
ATOM     40  C   UNL A   1      39.118  32.170  35.990  1.00  0.00     0.057 A 
ATOM     41  C   UNL A   1      38.205  31.656  36.921  1.00  0.00     0.134 A 
ATOM     42  C   UNL A   1      39.551  33.489  36.169  1.00  0.00     0.134 A 
ATOM     43  F   UNL A   1      37.723  30.412  36.786  1.00  0.00    -0.206 F 
ATOM     44  C   UNL A   1      37.709  32.443  37.963  1.00  0.00     0.040 A 
ATOM     45  C   UNL A   1      39.085  34.275  37.223  1.00  0.00     0.040 A 
ATOM     46  F   UNL A   1      40.415  34.045  35.307  1.00  0.00    -0.206 F 
ATOM     47  C   UNL A   1      38.150  33.756  38.116  1.00  0.00     0.006 A 
ENDBRANCH  26  40
BRANCH  27  48
ATOM     48  C   UNL A   1      41.649  27.294  27.589  1.00  0.00     0.057 A 
ATOM     49  C   UNL A   1      42.361  27.950  26.578  1.00  0.00     0.134 A 
ATOM     50  C   UNL A   1      41.290  25.958  27.355  1.00  0.00     0.134 A 
ATOM     51  F   UNL A   1      42.717  29.234  26.727  1.00  0.00    -0.206 F 
ATOM     52  C   UNL A   1      42.681  27.313  25.375  1.00  0.00     0.040 A 
ATOM     53  C   UNL A   1      41.627  25.302  26.170  1.00  0.00     0.040 A 
ATOM     54  F   UNL A   1      40.609  25.266  28.281  1.00  0.00    -0.206 F 
ATOM     55  C   UNL A   1      42.317  25.983  25.171  1.00  0.00     0.006 A 
ENDBRANCH  27  48
BRANCH  39  56
ATOM     56  C   UNL A   1      44.485  27.778  33.950  1.00  0.00     0.057 A 
ATOM     57  C   UNL A   1      44.463  26.515  34.552  1.00  0.00     0.134 A 
ATOM     58  C   UNL A   1      45.716  28.442  33.876  1.00  0.00     0.134 A 
ATOM     59  F   UNL A   1      43.312  25.835  34.665  1.00  0.00    -0.206 F 
ATOM     60  C   UNL A   1      45.621  25.939  35.076  1.00  0.00     0.040 A 
ATOM     61  C   UNL A   1      46.887  27.864  34.369  1.00  0.00     0.040 A 
ATOM     62  F   UNL A   1      45.807  29.652  33.304  1.00  0.00    -0.206 F 
ATOM     63  C   UNL A   1      46.839  26.611  34.974  1.00  0.00     0.006 A 
ENDBRANCH  39  56
ENDBRANCH  13  14
ENDBRANCH   6   8
ENDBRANCH   5   6
ENDBRANCH   4   5
ENDBRANCH   3   4
ENDBRANCH   2   3
ENDBRANCH   1   2
BRANCH   1  64
ATOM     64  C   UNL A   1      30.065  29.876  23.739  1.00  0.00     0.188 C 
BRANCH  64  65
ATOM     65  O   UNL A   1      29.986  28.489  23.454  1.00  0.00    -0.376 OA
BRANCH  65  66
ATOM     66  C   UNL A   1      30.587  28.064  22.234  1.00  0.00     0.202 C 
BRANCH  66  67
ATOM     67  C   UNL A   1      31.136  26.639  22.207  1.00  0.00     0.261 C 
BRANCH  67  68
ATOM     68  O   UNL A   1      32.516  26.533  21.789  1.00  0.00    -0.459 OA
BRANCH  68  69
ATOM     69  C   UNL A   1      33.357  26.035  22.746  1.00  0.00     0.349 C 
ATOM     70  O   UNL A   1      34.048  25.035  22.614  1.00  0.00    -0.245 OA
BRANCH  69  71
ATOM     71  C   UNL A   1      33.305  26.808  23.961  1.00  0.00     0.132 A 
ATOM     72  S   UNL A   1      33.978  28.382  23.985  1.00  0.00    -0.136 S 
ATOM     73  C   UNL A   1      32.927  26.405  25.226  1.00  0.00     0.108 A 
ATOM     74  C   UNL A   1      33.879  28.475  25.691  1.00  0.00     0.067 A 
ATOM     75  C   UNL A   1      33.314  27.343  26.233  1.00  0.00     0.034 A 
BRANCH  73  76
ATOM     76  S   UNL A   1      32.144  24.899  25.593  1.00  0.00     0.245 S 
ATOM     77  O   UNL A   1      31.667  25.116  26.944  1.00  0.00    -0.207 OA
ATOM     78  O   UNL A   1      31.236  24.704  24.489  1.00  0.00    -0.207 OA
BRANCH  76  79
ATOM     79  N   UNL A   1      33.305  23.657  25.584  1.00  0.00    -0.190 NA
ATOM     80  C   UNL A   1      34.702  24.104  25.815  1.00  0.00     0.131 C 
ATOM     81  C   UNL A   1      32.896  22.271  26.002  1.00  0.00     0.102 C 
ATOM     82  C   UNL A   1      35.687  22.998  26.160  1.00  0.00     0.177 C 
ATOM     83  C   UNL A   1      34.082  21.291  26.222  1.00  0.00     0.136 C 
ATOM     84  C   UNL A   1      31.774  21.703  25.109  1.00  0.00     0.023 C 
ATOM     85  O   UNL A   1      35.301  21.740  25.618  1.00  0.00    -0.375 OA
ATOM     86  C   UNL A   1      33.827  19.869  25.723  1.00  0.00     0.034 C 
ATOM     87  C   UNL A   1      32.127  20.667  24.047  1.00  0.00     0.002 C 
ATOM     88  C   UNL A   1      33.386  19.857  24.274  1.00  0.00     0.003 C 
ENDBRANCH  76  79
ENDBRANCH  73  76
ENDBRANCH  69  71
ENDBRANCH  68  69
ENDBRANCH  67  68
ENDBRANCH  66  67
ENDBRANCH  65  66
ENDBRANCH  64  65
ENDBRANCH   1  64
TORSDOF 19
ENDMDL
