MODEL 1
REMARK VINA RESULT:     -10.6      0.000      0.000
REMARK SMILES CCCc1cc2c(cc1Cl)C=C(C(=O)OCCOCCOCCOC(=O)c1ccc(-c3c4nc(c(-c5c(F)cccc5F)c5ccc([nH]5)c(-c5c(F)cccc5F)c5nc(c(-c6c(F)cccc6F)c6ccc3[nH]6)C=C5)C=C4)cc1)[C@@H](C(F)(F)F)O2
REMARK SMILES IDX 19 1 18 2 17 3 16 4 15 5 13 6 14 7 12 8 4 9 5 10 9 11 6 12
REMARK SMILES IDX 8 13 10 14 7 15 86 16 11 17 81 18 3 19 2 20 1 21 82 22 83 23
REMARK SMILES IDX 84 24 85 25 20 26 21 27 22 28 23 29 24 30 25 31 26 32 27 33
REMARK SMILES IDX 28 34 80 35 29 36 79 37 30 38 31 39 32 40 73 41 33 42 78 43
REMARK SMILES IDX 72 44 74 45 34 46 77 47 71 48 70 49 35 51 61 52 44 53 60 54
REMARK SMILES IDX 45 55 48 56 59 57 75 58 46 59 47 60 58 62 76 63 49 64 36 65
REMARK SMILES IDX 37 66 42 67 38 68 39 69 41 70 43 71 40 72 62 73 63 74 68 75
REMARK SMILES IDX 64 76 65 77 67 78 69 79 66 80 50 81 51 82 56 83 52 84 53 85
REMARK SMILES IDX 55 86 57 87 54 88
REMARK H PARENT 74 50 48 61
REMARK Flexibility Score: inf
ROOT
ATOM      1  C   UNL A   1      40.301  21.639  26.544  1.00  0.00     0.188 C 
ENDROOT
BRANCH   1   2
ATOM      2  O   UNL A   1      39.161  20.955  26.072  1.00  0.00    -0.376 OA
BRANCH   2   3
ATOM      3  C   UNL A   1      38.081  21.631  25.450  1.00  0.00     0.202 C 
BRANCH   3   4
ATOM      4  C   UNL A   1      37.680  23.079  25.759  1.00  0.00     0.261 C 
BRANCH   4   5
ATOM      5  O   UNL A   1      36.607  23.600  24.972  1.00  0.00    -0.460 OA
BRANCH   5   6
ATOM      6  C   UNL A   1      35.387  23.530  25.555  1.00  0.00     0.338 C 
ATOM      7  O   UNL A   1      35.066  22.840  26.508  1.00  0.00    -0.246 OA
BRANCH   6   8
ATOM      8  C   UNL A   1      34.504  24.549  24.959  1.00  0.00     0.087 C 
ATOM      9  C   UNL A   1      31.498  28.490  24.159  1.00  0.00    -0.026 A 
ATOM     10  C   UNL A   1      31.871  27.363  23.410  1.00  0.00     0.052 A 
ATOM     11  C   UNL A   1      32.200  28.736  25.356  1.00  0.00     0.045 A 
ATOM     12  C   UNL A   1      32.826  26.460  23.885  1.00  0.00     0.128 A 
ATOM     13  C   UNL A   1      33.186  27.854  25.813  1.00  0.00     0.032 A 
ATOM     14  Cl  UNL A   1      31.868  30.117  26.345  1.00  0.00    -0.084 Cl
ATOM     15  C   UNL A   1      33.470  26.692  25.097  1.00  0.00     0.019 A 
ATOM     16  O   UNL A   1      33.065  25.370  23.096  1.00  0.00    -0.475 OA
ATOM     17  C   UNL A   1      34.389  25.703  25.627  1.00  0.00     0.027 C 
ATOM     18  C   UNL A   1      33.797  24.250  23.664  1.00  0.00     0.316 C 
BRANCH   9  19
ATOM     19  C   UNL A   1      30.336  29.382  23.758  1.00  0.00     0.037 C 
BRANCH  19  20
ATOM     20  C   UNL A   1      29.714  29.229  22.363  1.00  0.00     0.001 C 
ATOM     21  C   UNL A   1      28.552  30.177  22.084  1.00  0.00     0.004 C 
ENDBRANCH  19  20
ENDBRANCH   9  19
BRANCH  18  22
ATOM     22  C   UNL A   1      32.861  23.040  23.788  1.00  0.00     0.430 C 
ATOM     23  F   UNL A   1      32.528  22.803  25.079  1.00  0.00    -0.167 F 
ATOM     24  F   UNL A   1      31.703  23.239  23.117  1.00  0.00    -0.167 F 
ATOM     25  F   UNL A   1      33.423  21.911  23.299  1.00  0.00    -0.167 F 
ENDBRANCH  18  22
ENDBRANCH   6   8
ENDBRANCH   5   6
ENDBRANCH   4   5
ENDBRANCH   3   4
ENDBRANCH   2   3
ENDBRANCH   1   2
BRANCH   1  26
ATOM     26  C   UNL A   1      41.686  20.960  26.558  1.00  0.00     0.188 C 
BRANCH  26  27
ATOM     27  O   UNL A   1      42.442  20.818  25.373  1.00  0.00    -0.376 OA
BRANCH  27  28
ATOM     28  C   UNL A   1      43.855  20.946  25.426  1.00  0.00     0.202 C 
BRANCH  28  29
ATOM     29  C   UNL A   1      44.557  22.235  24.989  1.00  0.00     0.261 C 
BRANCH  29  30
ATOM     30  O   UNL A   1      43.730  23.406  25.034  1.00  0.00    -0.460 OA
BRANCH  30  31
ATOM     31  C   UNL A   1      44.389  24.572  25.241  1.00  0.00     0.338 C 
ATOM     32  O   UNL A   1      45.316  25.026  24.591  1.00  0.00    -0.246 OA
BRANCH  31  33
ATOM     33  C   UNL A   1      43.682  25.345  26.281  1.00  0.00     0.060 A 
ATOM     34  C   UNL A   1      42.702  24.749  27.073  1.00  0.00     0.016 A 
ATOM     35  C   UNL A   1      44.029  26.691  26.464  1.00  0.00     0.016 A 
ATOM     36  C   UNL A   1      42.086  25.500  28.077  1.00  0.00     0.010 A 
ATOM     37  C   UNL A   1      43.404  27.443  27.459  1.00  0.00     0.010 A 
ATOM     38  C   UNL A   1      42.445  26.845  28.287  1.00  0.00    -0.014 A 
BRANCH  38  39
ATOM     39  C   UNL A   1      41.924  27.561  29.475  1.00  0.00     0.031 A 
ATOM     40  C   UNL A   1      42.592  27.469  30.812  1.00  0.00     0.074 A 
ATOM     41  C   UNL A   1      40.824  28.321  29.320  1.00  0.00     0.049 A 
ATOM     42  N   UNL A   1      42.338  28.145  31.904  1.00  0.00    -0.248 NA
ATOM     43  C   UNL A   1      43.678  26.490  30.944  1.00  0.00     0.031 C 
ATOM     44  C   UNL A   1      40.062  28.451  28.077  1.00  0.00     0.029 A 
ATOM     45  N   UNL A   1      40.165  29.133  30.205  1.00  0.00    -0.354 N 
ATOM     46  C   UNL A   1      43.250  27.698  32.848  1.00  0.00     0.074 A 
ATOM     47  C   UNL A   1      44.028  26.651  32.215  1.00  0.00     0.031 C 
ATOM     48  C   UNL A   1      39.056  29.317  28.270  1.00  0.00     0.029 A 
ATOM     49  C   UNL A   1      39.096  29.792  29.650  1.00  0.00     0.049 A 
ATOM     50  H   UNL A   1      40.432  29.236  31.147  1.00  0.00     0.167 HD
ATOM     51  C   UNL A   1      43.433  28.138  34.117  1.00  0.00     0.037 A 
ATOM     52  C   UNL A   1      38.250  30.688  30.189  1.00  0.00     0.037 A 
ATOM     53  C   UNL A   1      42.635  29.160  34.750  1.00  0.00     0.049 A 
ATOM     54  C   UNL A   1      38.447  31.122  31.614  1.00  0.00     0.074 A 
ATOM     55  C   UNL A   1      42.774  29.706  36.016  1.00  0.00     0.029 A 
ATOM     56  N   UNL A   1      41.532  29.776  34.174  1.00  0.00    -0.354 N 
ATOM     57  N   UNL A   1      39.383  30.774  32.463  1.00  0.00    -0.248 NA
ATOM     58  C   UNL A   1      37.475  32.083  32.149  1.00  0.00     0.031 C 
ATOM     59  C   UNL A   1      41.727  30.612  36.224  1.00  0.00     0.029 A 
ATOM     60  C   UNL A   1      40.963  30.668  35.070  1.00  0.00     0.049 A 
ATOM     61  H   UNL A   1      41.203  29.603  33.263  1.00  0.00     0.167 HD
ATOM     62  C   UNL A   1      39.125  31.489  33.625  1.00  0.00     0.074 A 
ATOM     63  C   UNL A   1      37.959  32.307  33.362  1.00  0.00     0.031 C 
ATOM     64  C   UNL A   1      39.795  31.470  34.802  1.00  0.00     0.037 A 
BRANCH  51  65
ATOM     65  C   UNL A   1      44.547  27.518  34.909  1.00  0.00     0.057 A 
ATOM     66  C   UNL A   1      45.838  28.059  34.887  1.00  0.00     0.134 A 
ATOM     67  C   UNL A   1      44.350  26.350  35.659  1.00  0.00     0.134 A 
ATOM     68  F   UNL A   1      46.099  29.169  34.179  1.00  0.00    -0.206 F 
ATOM     69  C   UNL A   1      46.893  27.464  35.582  1.00  0.00     0.040 A 
ATOM     70  C   UNL A   1      45.390  25.759  36.378  1.00  0.00     0.040 A 
ATOM     71  F   UNL A   1      43.137  25.782  35.726  1.00  0.00    -0.206 F 
ATOM     72  C   UNL A   1      46.667  26.313  36.335  1.00  0.00     0.006 A 
ENDBRANCH  51  65
BRANCH  52  73
ATOM     73  C   UNL A   1      37.157  31.264  29.369  1.00  0.00     0.057 A 
ATOM     74  C   UNL A   1      37.261  32.543  28.811  1.00  0.00     0.134 A 
ATOM     75  C   UNL A   1      35.989  30.537  29.109  1.00  0.00     0.134 A 
ATOM     76  F   UNL A   1      38.353  33.290  29.031  1.00  0.00    -0.206 F 
ATOM     77  C   UNL A   1      36.244  33.079  28.023  1.00  0.00     0.040 A 
ATOM     78  C   UNL A   1      34.975  31.050  28.303  1.00  0.00     0.040 A 
ATOM     79  F   UNL A   1      35.841  29.299  29.605  1.00  0.00    -0.206 F 
ATOM     80  C   UNL A   1      35.099  32.328  27.759  1.00  0.00     0.006 A 
ENDBRANCH  52  73
BRANCH  64  81
ATOM     81  C   UNL A   1      39.284  32.373  35.887  1.00  0.00     0.057 A 
ATOM     82  C   UNL A   1      39.696  33.709  35.962  1.00  0.00     0.134 A 
ATOM     83  C   UNL A   1      38.387  31.919  36.864  1.00  0.00     0.134 A 
ATOM     84  F   UNL A   1      40.558  34.207  35.062  1.00  0.00    -0.206 F 
ATOM     85  C   UNL A   1      39.233  34.562  36.965  1.00  0.00     0.040 A 
ATOM     86  C   UNL A   1      37.894  32.770  37.855  1.00  0.00     0.040 A 
ATOM     87  F   UNL A   1      37.938  30.655  36.839  1.00  0.00    -0.206 F 
ATOM     88  C   UNL A   1      38.322  34.094  37.910  1.00  0.00     0.006 A 
ENDBRANCH  64  81
ENDBRANCH  38  39
ENDBRANCH  31  33
ENDBRANCH  30  31
ENDBRANCH  29  30
ENDBRANCH  28  29
ENDBRANCH  27  28
ENDBRANCH  26  27
ENDBRANCH   1  26
TORSDOF 20
ENDMDL
MODEL 2
REMARK VINA RESULT:     -10.5      4.874     10.165
REMARK SMILES CCCc1cc2c(cc1Cl)C=C(C(=O)OCCOCCOCCOC(=O)c1ccc(-c3c4nc(c(-c5c(F)cccc5F)c5ccc([nH]5)c(-c5c(F)cccc5F)c5nc(c(-c6c(F)cccc6F)c6ccc3[nH]6)C=C5)C=C4)cc1)[C@@H](C(F)(F)F)O2
REMARK SMILES IDX 19 1 18 2 17 3 16 4 15 5 13 6 14 7 12 8 4 9 5 10 9 11 6 12
REMARK SMILES IDX 8 13 10 14 7 15 86 16 11 17 81 18 3 19 2 20 1 21 82 22 83 23
REMARK SMILES IDX 84 24 85 25 20 26 21 27 22 28 23 29 24 30 25 31 26 32 27 33
REMARK SMILES IDX 28 34 80 35 29 36 79 37 30 38 31 39 32 40 73 41 33 42 78 43
REMARK SMILES IDX 72 44 74 45 34 46 77 47 71 48 70 49 35 51 61 52 44 53 60 54
REMARK SMILES IDX 45 55 48 56 59 57 75 58 46 59 47 60 58 62 76 63 49 64 36 65
REMARK SMILES IDX 37 66 42 67 38 68 39 69 41 70 43 71 40 72 62 73 63 74 68 75
REMARK SMILES IDX 64 76 65 77 67 78 69 79 66 80 50 81 51 82 56 83 52 84 53 85
REMARK SMILES IDX 55 86 57 87 54 88
REMARK H PARENT 74 50 48 61
REMARK Flexibility Score: inf
ROOT
ATOM      1  C   UNL A   1      34.930  33.383  28.000  1.00  0.00     0.188 C 
ENDROOT
BRANCH   1   2
ATOM      2  O   UNL A   1      34.960  32.043  27.559  1.00  0.00    -0.376 OA
BRANCH   2   3
ATOM      3  C   UNL A   1      33.966  31.104  27.937  1.00  0.00     0.202 C 
BRANCH   3   4
ATOM      4  C   UNL A   1      32.797  30.682  27.039  1.00  0.00     0.261 C 
BRANCH   4   5
ATOM      5  O   UNL A   1      33.129  29.773  25.987  1.00  0.00    -0.460 OA
BRANCH   5   6
ATOM      6  C   UNL A   1      32.069  29.266  25.316  1.00  0.00     0.338 C 
ATOM      7  O   UNL A   1      31.064  29.864  24.969  1.00  0.00    -0.246 OA
BRANCH   6   8
ATOM      8  C   UNL A   1      32.366  27.879  24.912  1.00  0.00     0.087 C 
ATOM      9  C   UNL A   1      33.859  23.088  24.762  1.00  0.00    -0.026 A 
ATOM     10  C   UNL A   1      33.401  24.011  23.810  1.00  0.00     0.052 A 
ATOM     11  C   UNL A   1      33.760  23.452  26.120  1.00  0.00     0.045 A 
ATOM     12  C   UNL A   1      32.963  25.284  24.185  1.00  0.00     0.128 A 
ATOM     13  C   UNL A   1      33.282  24.712  26.500  1.00  0.00     0.032 A 
ATOM     14  Cl  UNL A   1      34.245  22.385  27.393  1.00  0.00    -0.084 Cl
ATOM     15  C   UNL A   1      32.923  25.646  25.528  1.00  0.00     0.019 A 
ATOM     16  O   UNL A   1      32.596  26.116  23.165  1.00  0.00    -0.475 OA
ATOM     17  C   UNL A   1      32.558  26.999  25.901  1.00  0.00     0.027 C 
ATOM     18  C   UNL A   1      32.435  27.533  23.448  1.00  0.00     0.316 C 
BRANCH   9  19
ATOM     19  C   UNL A   1      34.512  21.774  24.371  1.00  0.00     0.037 C 
BRANCH  19  20
ATOM     20  C   UNL A   1      36.028  21.728  24.128  1.00  0.00     0.001 C 
ATOM     21  C   UNL A   1      36.776  20.728  25.003  1.00  0.00     0.004 C 
ENDBRANCH  19  20
ENDBRANCH   9  19
BRANCH  18  22
ATOM     22  C   UNL A   1      33.530  28.325  22.723  1.00  0.00     0.430 C 
ATOM     23  F   UNL A   1      33.067  29.519  22.282  1.00  0.00    -0.167 F 
ATOM     24  F   UNL A   1      34.574  28.592  23.544  1.00  0.00    -0.167 F 
ATOM     25  F   UNL A   1      34.018  27.656  21.654  1.00  0.00    -0.167 F 
ENDBRANCH  18  22
ENDBRANCH   6   8
ENDBRANCH   5   6
ENDBRANCH   4   5
ENDBRANCH   3   4
ENDBRANCH   2   3
ENDBRANCH   1   2
BRANCH   1  26
ATOM     26  C   UNL A   1      33.840  33.873  28.976  1.00  0.00     0.188 C 
BRANCH  26  27
ATOM     27  O   UNL A   1      34.045  35.011  29.788  1.00  0.00    -0.376 OA
BRANCH  27  28
ATOM     28  C   UNL A   1      33.918  34.896  31.198  1.00  0.00     0.202 C 
BRANCH  28  29
ATOM     29  C   UNL A   1      35.115  34.521  32.078  1.00  0.00     0.261 C 
BRANCH  29  30
ATOM     30  O   UNL A   1      36.052  33.631  31.459  1.00  0.00    -0.460 OA
BRANCH  30  31
ATOM     31  C   UNL A   1      36.263  32.464  32.116  1.00  0.00     0.338 C 
ATOM     32  O   UNL A   1      35.583  31.981  33.007  1.00  0.00    -0.246 OA
BRANCH  31  33
ATOM     33  C   UNL A   1      37.356  31.729  31.452  1.00  0.00     0.060 A 
ATOM     34  C   UNL A   1      37.407  31.623  30.062  1.00  0.00     0.016 A 
ATOM     35  C   UNL A   1      38.353  31.150  32.250  1.00  0.00     0.016 A 
ATOM     36  C   UNL A   1      38.481  30.958  29.468  1.00  0.00     0.010 A 
ATOM     37  C   UNL A   1      39.419  30.475  31.654  1.00  0.00     0.010 A 
ATOM     38  C   UNL A   1      39.501  30.396  30.257  1.00  0.00    -0.014 A 
BRANCH  38  39
ATOM     39  C   UNL A   1      40.723  29.869  29.605  1.00  0.00     0.031 A 
ATOM     40  C   UNL A   1      40.817  28.454  29.125  1.00  0.00     0.074 A 
ATOM     41  C   UNL A   1      41.760  30.709  29.438  1.00  0.00     0.049 A 
ATOM     42  N   UNL A   1      41.761  27.891  28.413  1.00  0.00    -0.248 NA
ATOM     43  C   UNL A   1      39.718  27.553  29.495  1.00  0.00     0.031 C 
ATOM     44  C   UNL A   1      41.801  32.096  29.906  1.00  0.00     0.029 A 
ATOM     45  N   UNL A   1      42.971  30.527  28.823  1.00  0.00    -0.354 N 
ATOM     46  C   UNL A   1      41.359  26.576  28.222  1.00  0.00     0.074 A 
ATOM     47  C   UNL A   1      40.111  26.412  28.941  1.00  0.00     0.031 C 
ATOM     48  C   UNL A   1      42.965  32.649  29.534  1.00  0.00     0.029 A 
ATOM     49  C   UNL A   1      43.755  31.654  28.815  1.00  0.00     0.049 A 
ATOM     50  H   UNL A   1      43.252  29.671  28.425  1.00  0.00     0.167 HD
ATOM     51  C   UNL A   1      41.967  25.607  27.495  1.00  0.00     0.037 A 
ATOM     52  C   UNL A   1      44.970  31.866  28.277  1.00  0.00     0.037 A 
ATOM     53  C   UNL A   1      43.225  25.770  26.807  1.00  0.00     0.049 A 
ATOM     54  C   UNL A   1      45.641  30.757  27.518  1.00  0.00     0.074 A 
ATOM     55  C   UNL A   1      43.896  24.860  26.006  1.00  0.00     0.029 A 
ATOM     56  N   UNL A   1      44.014  26.911  26.855  1.00  0.00    -0.354 N 
ATOM     57  N   UNL A   1      45.201  29.553  27.248  1.00  0.00    -0.248 NA
ATOM     58  C   UNL A   1      46.977  31.045  26.977  1.00  0.00     0.031 C 
ATOM     59  C   UNL A   1      45.113  25.431  25.613  1.00  0.00     0.029 A 
ATOM     60  C   UNL A   1      45.178  26.715  26.129  1.00  0.00     0.049 A 
ATOM     61  H   UNL A   1      43.780  27.737  27.336  1.00  0.00     0.167 HD
ATOM     62  C   UNL A   1      46.194  28.947  26.491  1.00  0.00     0.074 A 
ATOM     63  C   UNL A   1      47.248  29.925  26.323  1.00  0.00     0.031 C 
ATOM     64  C   UNL A   1      46.227  27.693  25.978  1.00  0.00     0.037 A 
BRANCH  51  65
ATOM     65  C   UNL A   1      41.275  24.278  27.402  1.00  0.00     0.057 A 
ATOM     66  C   UNL A   1      41.741  23.170  28.119  1.00  0.00     0.134 A 
ATOM     67  C   UNL A   1      40.172  24.084  26.559  1.00  0.00     0.134 A 
ATOM     68  F   UNL A   1      42.801  23.281  28.934  1.00  0.00    -0.206 F 
ATOM     69  C   UNL A   1      41.134  21.917  28.004  1.00  0.00     0.040 A 
ATOM     70  C   UNL A   1      39.541  22.844  26.454  1.00  0.00     0.040 A 
ATOM     71  F   UNL A   1      39.674  25.107  25.847  1.00  0.00    -0.206 F 
ATOM     72  C   UNL A   1      40.026  21.754  27.173  1.00  0.00     0.006 A 
ENDBRANCH  51  65
BRANCH  52  73
ATOM     73  C   UNL A   1      45.618  33.193  28.407  1.00  0.00     0.057 A 
ATOM     74  C   UNL A   1      46.471  33.485  29.477  1.00  0.00     0.134 A 
ATOM     75  C   UNL A   1      45.411  34.194  27.451  1.00  0.00     0.134 A 
ATOM     76  F   UNL A   1      46.702  32.569  30.429  1.00  0.00    -0.206 F 
ATOM     77  C   UNL A   1      47.099  34.725  29.591  1.00  0.00     0.040 A 
ATOM     78  C   UNL A   1      46.051  35.430  27.539  1.00  0.00     0.040 A 
ATOM     79  F   UNL A   1      44.615  33.965  26.395  1.00  0.00    -0.206 F 
ATOM     80  C   UNL A   1      46.896  35.699  28.615  1.00  0.00     0.006 A 
ENDBRANCH  52  73
BRANCH  64  81
ATOM     81  C   UNL A   1      47.442  27.320  25.178  1.00  0.00     0.057 A 
ATOM     82  C   UNL A   1      47.514  27.603  23.808  1.00  0.00     0.134 A 
ATOM     83  C   UNL A   1      48.541  26.675  25.763  1.00  0.00     0.134 A 
ATOM     84  F   UNL A   1      46.495  28.213  23.185  1.00  0.00    -0.206 F 
ATOM     85  C   UNL A   1      48.634  27.261  23.049  1.00  0.00     0.040 A 
ATOM     86  C   UNL A   1      49.679  26.354  25.020  1.00  0.00     0.040 A 
ATOM     87  F   UNL A   1      48.545  26.392  27.073  1.00  0.00    -0.206 F 
ATOM     88  C   UNL A   1      49.725  26.643  23.658  1.00  0.00     0.006 A 
ENDBRANCH  64  81
ENDBRANCH  38  39
ENDBRANCH  31  33
ENDBRANCH  30  31
ENDBRANCH  29  30
ENDBRANCH  28  29
ENDBRANCH  27  28
ENDBRANCH  26  27
ENDBRANCH   1  26
TORSDOF 20
ENDMDL
MODEL 3
REMARK VINA RESULT:     -10.3      0.636      1.737
REMARK SMILES CCCc1cc2c(cc1Cl)C=C(C(=O)OCCOCCOCCOC(=O)c1ccc(-c3c4nc(c(-c5c(F)cccc5F)c5ccc([nH]5)c(-c5c(F)cccc5F)c5nc(c(-c6c(F)cccc6F)c6ccc3[nH]6)C=C5)C=C4)cc1)[C@@H](C(F)(F)F)O2
REMARK SMILES IDX 19 1 18 2 17 3 16 4 15 5 13 6 14 7 12 8 4 9 5 10 9 11 6 12
REMARK SMILES IDX 8 13 10 14 7 15 86 16 11 17 81 18 3 19 2 20 1 21 82 22 83 23
REMARK SMILES IDX 84 24 85 25 20 26 21 27 22 28 23 29 24 30 25 31 26 32 27 33
REMARK SMILES IDX 28 34 80 35 29 36 79 37 30 38 31 39 32 40 73 41 33 42 78 43
REMARK SMILES IDX 72 44 74 45 34 46 77 47 71 48 70 49 35 51 61 52 44 53 60 54
REMARK SMILES IDX 45 55 48 56 59 57 75 58 46 59 47 60 58 62 76 63 49 64 36 65
REMARK SMILES IDX 37 66 42 67 38 68 39 69 41 70 43 71 40 72 62 73 63 74 68 75
REMARK SMILES IDX 64 76 65 77 67 78 69 79 66 80 50 81 51 82 56 83 52 84 53 85
REMARK SMILES IDX 55 86 57 87 54 88
REMARK H PARENT 74 50 48 61
REMARK Flexibility Score: inf
ROOT
ATOM      1  C   UNL A   1      40.487  20.495  26.780  1.00  0.00     0.188 C 
ENDROOT
BRANCH   1   2
ATOM      2  O   UNL A   1      39.481  20.436  25.793  1.00  0.00    -0.376 OA
BRANCH   2   3
ATOM      3  C   UNL A   1      38.568  21.502  25.584  1.00  0.00     0.202 C 
BRANCH   3   4
ATOM      4  C   UNL A   1      37.256  21.368  24.802  1.00  0.00     0.261 C 
BRANCH   4   5
ATOM      5  O   UNL A   1      36.646  22.601  24.413  1.00  0.00    -0.460 OA
BRANCH   5   6
ATOM      6  C   UNL A   1      35.586  22.975  25.168  1.00  0.00     0.338 C 
ATOM      7  O   UNL A   1      35.344  22.636  26.315  1.00  0.00    -0.246 OA
BRANCH   6   8
ATOM      8  C   UNL A   1      34.814  24.004  24.447  1.00  0.00     0.087 C 
ATOM      9  C   UNL A   1      32.096  28.036  23.197  1.00  0.00    -0.026 A 
ATOM     10  C   UNL A   1      32.480  26.859  22.537  1.00  0.00     0.052 A 
ATOM     11  C   UNL A   1      32.695  28.306  24.444  1.00  0.00     0.045 A 
ATOM     12  C   UNL A   1      33.341  25.937  23.138  1.00  0.00     0.128 A 
ATOM     13  C   UNL A   1      33.589  27.403  25.030  1.00  0.00     0.032 A 
ATOM     14  Cl  UNL A   1      32.342  29.746  25.338  1.00  0.00    -0.084 Cl
ATOM     15  C   UNL A   1      33.880  26.196  24.395  1.00  0.00     0.019 A 
ATOM     16  O   UNL A   1      33.598  24.801  22.423  1.00  0.00    -0.475 OA
ATOM     17  C   UNL A   1      34.696  25.192  25.052  1.00  0.00     0.027 C 
ATOM     18  C   UNL A   1      34.217  23.677  23.105  1.00  0.00     0.316 C 
BRANCH   9  19
ATOM     19  C   UNL A   1      31.023  28.961  22.650  1.00  0.00     0.037 C 
BRANCH  19  20
ATOM     20  C   UNL A   1      29.555  28.511  22.676  1.00  0.00     0.001 C 
ATOM     21  C   UNL A   1      28.545  29.651  22.616  1.00  0.00     0.004 C 
ENDBRANCH  19  20
ENDBRANCH   9  19
BRANCH  18  22
ATOM     22  C   UNL A   1      33.215  22.518  23.191  1.00  0.00     0.430 C 
ATOM     23  F   UNL A   1      32.611  22.296  22.000  1.00  0.00    -0.167 F 
ATOM     24  F   UNL A   1      33.824  21.361  23.541  1.00  0.00    -0.167 F 
ATOM     25  F   UNL A   1      32.244  22.754  24.103  1.00  0.00    -0.167 F 
ENDBRANCH  18  22
ENDBRANCH   6   8
ENDBRANCH   5   6
ENDBRANCH   4   5
ENDBRANCH   3   4
ENDBRANCH   2   3
ENDBRANCH   1   2
BRANCH   1  26
ATOM     26  C   UNL A   1      41.239  21.811  27.070  1.00  0.00     0.188 C 
BRANCH  26  27
ATOM     27  O   UNL A   1      41.903  22.515  26.040  1.00  0.00    -0.376 OA
BRANCH  27  28
ATOM     28  C   UNL A   1      42.986  21.898  25.359  1.00  0.00     0.202 C 
BRANCH  28  29
ATOM     29  C   UNL A   1      44.039  22.728  24.618  1.00  0.00     0.261 C 
BRANCH  29  30
ATOM     30  O   UNL A   1      43.728  24.124  24.513  1.00  0.00    -0.460 OA
BRANCH  30  31
ATOM     31  C   UNL A   1      44.585  24.957  25.153  1.00  0.00     0.338 C 
ATOM     32  O   UNL A   1      45.737  25.217  24.845  1.00  0.00    -0.246 OA
BRANCH  31  33
ATOM     33  C   UNL A   1      43.849  25.687  26.204  1.00  0.00     0.060 A 
ATOM     34  C   UNL A   1      42.876  25.049  26.972  1.00  0.00     0.016 A 
ATOM     35  C   UNL A   1      44.161  27.036  26.422  1.00  0.00     0.016 A 
ATOM     36  C   UNL A   1      42.233  25.761  27.986  1.00  0.00     0.010 A 
ATOM     37  C   UNL A   1      43.509  27.749  27.429  1.00  0.00     0.010 A 
ATOM     38  C   UNL A   1      42.556  27.108  28.232  1.00  0.00    -0.014 A 
BRANCH  38  39
ATOM     39  C   UNL A   1      42.007  27.783  29.431  1.00  0.00     0.031 A 
ATOM     40  C   UNL A   1      42.663  27.673  30.773  1.00  0.00     0.074 A 
ATOM     41  C   UNL A   1      40.891  28.521  29.283  1.00  0.00     0.049 A 
ATOM     42  N   UNL A   1      42.381  28.316  31.878  1.00  0.00    -0.248 NA
ATOM     43  C   UNL A   1      43.770  26.716  30.894  1.00  0.00     0.031 C 
ATOM     44  C   UNL A   1      40.139  28.664  28.035  1.00  0.00     0.029 A 
ATOM     45  N   UNL A   1      40.204  29.296  30.180  1.00  0.00    -0.354 N 
ATOM     46  C   UNL A   1      43.294  27.867  32.822  1.00  0.00     0.074 A 
ATOM     47  C   UNL A   1      44.102  26.854  32.171  1.00  0.00     0.031 C 
ATOM     48  C   UNL A   1      39.111  29.502  28.238  1.00  0.00     0.029 A 
ATOM     49  C   UNL A   1      39.126  29.943  29.629  1.00  0.00     0.049 A 
ATOM     50  H   UNL A   1      40.459  29.381  31.127  1.00  0.00     0.167 HD
ATOM     51  C   UNL A   1      43.453  28.279  34.103  1.00  0.00     0.037 A 
ATOM     52  C   UNL A   1      38.254  30.806  30.181  1.00  0.00     0.037 A 
ATOM     53  C   UNL A   1      42.625  29.267  34.752  1.00  0.00     0.049 A 
ATOM     54  C   UNL A   1      38.426  31.209  31.618  1.00  0.00     0.074 A 
ATOM     55  C   UNL A   1      42.739  29.784  36.032  1.00  0.00     0.029 A 
ATOM     56  N   UNL A   1      41.515  29.871  34.179  1.00  0.00    -0.354 N 
ATOM     57  N   UNL A   1      39.361  30.862  32.469  1.00  0.00    -0.248 NA
ATOM     58  C   UNL A   1      37.426  32.135  32.166  1.00  0.00     0.031 C 
ATOM     59  C   UNL A   1      41.669  30.661  36.250  1.00  0.00     0.029 A 
ATOM     60  C   UNL A   1      40.915  30.728  35.089  1.00  0.00     0.049 A 
ATOM     61  H   UNL A   1      41.199  29.714  33.260  1.00  0.00     0.167 HD
ATOM     62  C   UNL A   1      39.074  31.542  33.645  1.00  0.00     0.074 A 
ATOM     63  C   UNL A   1      37.893  32.339  33.390  1.00  0.00     0.031 C 
ATOM     64  C   UNL A   1      39.732  31.509  34.829  1.00  0.00     0.037 A 
BRANCH  51  65
ATOM     65  C   UNL A   1      44.573  27.665  34.892  1.00  0.00     0.057 A 
ATOM     66  C   UNL A   1      44.354  26.548  35.706  1.00  0.00     0.134 A 
ATOM     67  C   UNL A   1      45.863  28.214  34.882  1.00  0.00     0.134 A 
ATOM     68  F   UNL A   1      43.141  25.979  35.772  1.00  0.00    -0.206 F 
ATOM     69  C   UNL A   1      45.378  25.996  36.480  1.00  0.00     0.040 A 
ATOM     70  C   UNL A   1      46.900  27.658  35.633  1.00  0.00     0.040 A 
ATOM     71  F   UNL A   1      46.140  29.283  34.121  1.00  0.00    -0.206 F 
ATOM     72  C   UNL A   1      46.656  26.549  36.439  1.00  0.00     0.006 A 
ENDBRANCH  51  65
BRANCH  52  73
ATOM     73  C   UNL A   1      37.156  31.376  29.363  1.00  0.00     0.057 A 
ATOM     74  C   UNL A   1      35.998  30.642  29.085  1.00  0.00     0.134 A 
ATOM     75  C   UNL A   1      37.235  32.679  28.857  1.00  0.00     0.134 A 
ATOM     76  F   UNL A   1      35.868  29.386  29.536  1.00  0.00    -0.206 F 
ATOM     77  C   UNL A   1      34.955  31.183  28.334  1.00  0.00     0.040 A 
ATOM     78  C   UNL A   1      36.190  33.241  28.125  1.00  0.00     0.040 A 
ATOM     79  F   UNL A   1      38.315  33.435  29.105  1.00  0.00    -0.206 F 
ATOM     80  C   UNL A   1      35.046  32.490  27.859  1.00  0.00     0.006 A 
ENDBRANCH  52  73
BRANCH  64  81
ATOM     81  C   UNL A   1      39.189  32.373  35.930  1.00  0.00     0.057 A 
ATOM     82  C   UNL A   1      38.252  31.870  36.841  1.00  0.00     0.134 A 
ATOM     83  C   UNL A   1      39.591  33.706  36.088  1.00  0.00     0.134 A 
ATOM     84  F   UNL A   1      37.820  30.604  36.745  1.00  0.00    -0.206 F 
ATOM     85  C   UNL A   1      37.735  32.660  37.870  1.00  0.00     0.040 A 
ATOM     86  C   UNL A   1      39.103  34.498  37.130  1.00  0.00     0.040 A 
ATOM     87  F   UNL A   1      40.500  34.245  35.261  1.00  0.00    -0.206 F 
ATOM     88  C   UNL A   1      38.169  33.976  38.021  1.00  0.00     0.006 A 
ENDBRANCH  64  81
ENDBRANCH  38  39
ENDBRANCH  31  33
ENDBRANCH  30  31
ENDBRANCH  29  30
ENDBRANCH  28  29
ENDBRANCH  27  28
ENDBRANCH  26  27
ENDBRANCH   1  26
TORSDOF 20
ENDMDL
