MODEL 1
REMARK VINA RESULT:     -10.8      0.000      0.000
REMARK SMILES O=C(OCCOCCOCCOC(=O)[C@@H]1[C@H](C(=O)NCc2ccncc2)[C@H]2C=C[C@@H]1O2)c1ccc(-c2c3nc(c(-c4c(F)cccc4F)c4ccc([nH]4)c(-c4c(F)cccc4F)c4nc(c(-c5c(F)cccc5F)c5ccc2[nH]5)C=C4)C=C3)cc1
REMARK SMILES IDX 8 1 7 2 6 3 5 4 4 5 3 6 2 7 1 8 32 9 33 10 85 11 34 12 84 13
REMARK SMILES IDX 35 14 36 15 37 16 78 17 38 18 83 19 77 20 79 21 39 22 82 23
REMARK SMILES IDX 76 24 75 25 40 27 66 28 49 29 65 30 50 31 53 32 64 33 80 34
REMARK SMILES IDX 51 35 52 36 63 38 81 39 54 40 41 41 42 42 47 43 43 44 44 45
REMARK SMILES IDX 46 46 48 47 45 48 67 49 68 50 73 51 69 52 70 53 72 54 74 55
REMARK SMILES IDX 71 56 55 57 56 58 61 59 57 60 58 61 60 62 62 63 59 64 9 65
REMARK SMILES IDX 10 66 11 67 12 68 13 69 14 70 15 71 16 72 30 73 27 74 29 75
REMARK SMILES IDX 31 76 28 77 17 78 18 79 19 80 20 82 21 83 22 84 26 85 23 86
REMARK SMILES IDX 25 87 24 88
REMARK H PARENT 79 26 53 37 19 81
REMARK Flexibility Score: inf
ROOT
ATOM      1  C   UNL A   1      31.847  27.428  26.682  1.00  0.00     0.188 C 
ENDROOT
BRANCH   1   2
ATOM      2  C   UNL A   1      31.705  28.688  27.522  1.00  0.00     0.188 C 
BRANCH   2   3
ATOM      3  O   UNL A   1      32.595  29.754  27.247  1.00  0.00    -0.376 OA
BRANCH   3   4
ATOM      4  C   UNL A   1      32.086  30.784  26.414  1.00  0.00     0.202 C 
BRANCH   4   5
ATOM      5  C   UNL A   1      31.452  31.994  27.134  1.00  0.00     0.261 C 
BRANCH   5   6
ATOM      6  O   UNL A   1      32.178  33.236  27.052  1.00  0.00    -0.460 OA
BRANCH   6   7
ATOM      7  C   UNL A   1      32.873  33.898  28.015  1.00  0.00     0.338 C 
ATOM      8  O   UNL A   1      32.460  34.999  28.377  1.00  0.00    -0.246 OA
BRANCH   7   9
ATOM      9  C   UNL A   1      34.184  33.425  28.579  1.00  0.00     0.060 A 
ATOM     10  C   UNL A   1      35.424  33.601  27.971  1.00  0.00     0.016 A 
ATOM     11  C   UNL A   1      34.171  32.788  29.838  1.00  0.00     0.016 A 
ATOM     12  C   UNL A   1      36.611  33.241  28.593  1.00  0.00     0.010 A 
ATOM     13  C   UNL A   1      35.356  32.346  30.446  1.00  0.00     0.010 A 
ATOM     14  C   UNL A   1      36.579  32.576  29.811  1.00  0.00    -0.014 A 
BRANCH  14  15
ATOM     15  C   UNL A   1      37.835  31.935  30.235  1.00  0.00     0.031 A 
ATOM     16  C   UNL A   1      38.548  32.537  31.404  1.00  0.00     0.074 A 
ATOM     17  C   UNL A   1      38.198  30.746  29.727  1.00  0.00     0.049 A 
ATOM     18  N   UNL A   1      39.651  32.157  31.987  1.00  0.00    -0.248 NA
ATOM     19  C   UNL A   1      37.906  33.708  32.030  1.00  0.00     0.031 C 
ATOM     20  C   UNL A   1      37.439  30.003  28.722  1.00  0.00     0.029 A 
ATOM     21  N   UNL A   1      39.265  29.937  30.006  1.00  0.00    -0.354 N 
ATOM     22  C   UNL A   1      39.847  33.052  33.028  1.00  0.00     0.074 A 
ATOM     23  C   UNL A   1      38.743  33.984  33.016  1.00  0.00     0.031 C 
ATOM     24  C   UNL A   1      38.073  28.847  28.465  1.00  0.00     0.029 A 
ATOM     25  C   UNL A   1      39.315  28.810  29.224  1.00  0.00     0.049 A 
ATOM     26  H   UNL A   1      39.933  30.144  30.700  1.00  0.00     0.167 HD
ATOM     27  C   UNL A   1      40.879  33.098  33.898  1.00  0.00     0.037 A 
ATOM     28  C   UNL A   1      40.290  27.888  29.103  1.00  0.00     0.037 A 
ATOM     29  C   UNL A   1      41.970  32.166  33.861  1.00  0.00     0.049 A 
ATOM     30  C   UNL A   1      41.507  28.050  29.975  1.00  0.00     0.074 A 
ATOM     31  C   UNL A   1      43.110  32.137  34.638  1.00  0.00     0.029 A 
ATOM     32  N   UNL A   1      42.054  31.098  32.975  1.00  0.00    -0.354 N 
ATOM     33  N   UNL A   1      41.726  28.932  30.922  1.00  0.00    -0.248 NA
ATOM     34  C   UNL A   1      42.613  27.111  29.759  1.00  0.00     0.031 C 
ATOM     35  C   UNL A   1      43.916  31.092  34.177  1.00  0.00     0.029 A 
ATOM     36  C   UNL A   1      43.249  30.429  33.156  1.00  0.00     0.049 A 
ATOM     37  H   UNL A   1      41.364  30.856  32.315  1.00  0.00     0.167 HD
ATOM     38  C   UNL A   1      42.986  28.647  31.428  1.00  0.00     0.074 A 
ATOM     39  C   UNL A   1      43.472  27.494  30.694  1.00  0.00     0.031 C 
ATOM     40  C   UNL A   1      43.684  29.277  32.404  1.00  0.00     0.037 A 
BRANCH  27  41
ATOM     41  C   UNL A   1      40.915  34.249  34.855  1.00  0.00     0.057 A 
ATOM     42  C   UNL A   1      40.354  34.186  36.137  1.00  0.00     0.134 A 
ATOM     43  C   UNL A   1      41.491  35.465  34.461  1.00  0.00     0.134 A 
ATOM     44  F   UNL A   1      39.753  33.064  36.562  1.00  0.00    -0.206 F 
ATOM     45  C   UNL A   1      40.347  35.297  36.984  1.00  0.00     0.040 A 
ATOM     46  C   UNL A   1      41.512  36.572  35.308  1.00  0.00     0.040 A 
ATOM     47  F   UNL A   1      42.033  35.597  33.241  1.00  0.00    -0.206 F 
ATOM     48  C   UNL A   1      40.931  36.493  36.571  1.00  0.00     0.006 A 
ENDBRANCH  27  41
BRANCH  28  49
ATOM     49  C   UNL A   1      40.210  26.820  28.069  1.00  0.00     0.057 A 
ATOM     50  C   UNL A   1      39.516  25.625  28.291  1.00  0.00     0.134 A 
ATOM     51  C   UNL A   1      40.875  26.950  26.841  1.00  0.00     0.134 A 
ATOM     52  F   UNL A   1      38.873  25.424  29.450  1.00  0.00    -0.206 F 
ATOM     53  C   UNL A   1      39.506  24.594  27.346  1.00  0.00     0.040 A 
ATOM     54  C   UNL A   1      40.849  25.941  25.875  1.00  0.00     0.040 A 
ATOM     55  F   UNL A   1      41.558  28.068  26.554  1.00  0.00    -0.206 F 
ATOM     56  C   UNL A   1      40.171  24.752  26.133  1.00  0.00     0.006 A 
ENDBRANCH  28  49
BRANCH  40  57
ATOM     57  C   UNL A   1      45.029  28.715  32.746  1.00  0.00     0.057 A 
ATOM     58  C   UNL A   1      46.201  29.196  32.152  1.00  0.00     0.134 A 
ATOM     59  C   UNL A   1      45.152  27.736  33.741  1.00  0.00     0.134 A 
ATOM     60  F   UNL A   1      46.143  30.122  31.184  1.00  0.00    -0.206 F 
ATOM     61  C   UNL A   1      47.453  28.713  32.528  1.00  0.00     0.040 A 
ATOM     62  C   UNL A   1      46.401  27.269  34.147  1.00  0.00     0.040 A 
ATOM     63  F   UNL A   1      44.064  27.245  34.353  1.00  0.00    -0.206 F 
ATOM     64  C   UNL A   1      47.555  27.756  33.537  1.00  0.00     0.006 A 
ENDBRANCH  40  57
ENDBRANCH  14  15
ENDBRANCH   7   9
ENDBRANCH   6   7
ENDBRANCH   5   6
ENDBRANCH   4   5
ENDBRANCH   3   4
ENDBRANCH   2   3
ENDBRANCH   1   2
BRANCH   1  65
ATOM     65  O   UNL A   1      30.687  26.681  26.382  1.00  0.00    -0.376 OA
BRANCH  65  66
ATOM     66  C   UNL A   1      30.866  25.521  25.575  1.00  0.00     0.202 C 
BRANCH  66  67
ATOM     67  C   UNL A   1      30.857  24.142  26.255  1.00  0.00     0.261 C 
BRANCH  67  68
ATOM     68  O   UNL A   1      31.779  24.002  27.363  1.00  0.00    -0.463 OA
BRANCH  68  69
ATOM     69  C   UNL A   1      32.751  23.057  27.182  1.00  0.00     0.312 C 
ATOM     70  O   UNL A   1      32.934  22.119  27.941  1.00  0.00    -0.252 OA
BRANCH  69  71
ATOM     71  C   UNL A   1      33.712  23.427  26.077  1.00  0.00     0.147 C 
ATOM     72  C   UNL A   1      33.668  22.813  24.656  1.00  0.00     0.128 C 
ATOM     73  C   UNL A   1      35.151  23.052  26.512  1.00  0.00     0.157 C 
ATOM     74  C   UNL A   1      35.077  22.222  24.503  1.00  0.00     0.155 C 
ATOM     75  C   UNL A   1      36.155  23.821  25.706  1.00  0.00     0.004 C 
ATOM     76  O   UNL A   1      35.308  21.764  25.859  1.00  0.00    -0.365 OA
ATOM     77  C   UNL A   1      36.101  23.321  24.464  1.00  0.00     0.004 C 
BRANCH  72  78
ATOM     78  C   UNL A   1      32.627  21.843  24.133  1.00  0.00     0.227 C 
ATOM     79  O   UNL A   1      31.946  22.202  23.159  1.00  0.00    -0.275 OA
ATOM     80  N   UNL A   1      32.372  20.592  24.554  1.00  0.00    -0.352 N 
ATOM     81  H   UNL A   1      31.643  20.167  24.045  1.00  0.00     0.163 HD
BRANCH  80  82
ATOM     82  C   UNL A   1      32.914  19.718  25.579  1.00  0.00     0.151 C 
BRANCH  82  83
ATOM     83  C   UNL A   1      33.098  18.306  25.082  1.00  0.00    -0.026 A 
ATOM     84  C   UNL A   1      33.828  18.076  23.914  1.00  0.00     0.025 A 
ATOM     85  C   UNL A   1      32.594  17.191  25.761  1.00  0.00     0.025 A 
ATOM     86  C   UNL A   1      34.124  16.774  23.546  1.00  0.00     0.111 A 
ATOM     87  C   UNL A   1      32.951  15.922  25.319  1.00  0.00     0.111 A 
ATOM     88  N   UNL A   1      33.712  15.690  24.231  1.00  0.00    -0.265 NA
ENDBRANCH  82  83
ENDBRANCH  80  82
ENDBRANCH  72  78
ENDBRANCH  69  71
ENDBRANCH  68  69
ENDBRANCH  67  68
ENDBRANCH  66  67
ENDBRANCH  65  66
ENDBRANCH   1  65
TORSDOF 20
ENDMDL
MODEL 2
REMARK VINA RESULT:     -10.6      2.706      7.811
REMARK SMILES O=C(OCCOCCOCCOC(=O)[C@@H]1[C@H](C(=O)NCc2ccncc2)[C@H]2C=C[C@@H]1O2)c1ccc(-c2c3nc(c(-c4c(F)cccc4F)c4ccc([nH]4)c(-c4c(F)cccc4F)c4nc(c(-c5c(F)cccc5F)c5ccc2[nH]5)C=C4)C=C3)cc1
REMARK SMILES IDX 8 1 7 2 6 3 5 4 4 5 3 6 2 7 1 8 32 9 33 10 85 11 34 12 84 13
REMARK SMILES IDX 35 14 36 15 37 16 78 17 38 18 83 19 77 20 79 21 39 22 82 23
REMARK SMILES IDX 76 24 75 25 40 27 66 28 49 29 65 30 50 31 53 32 64 33 80 34
REMARK SMILES IDX 51 35 52 36 63 38 81 39 54 40 41 41 42 42 47 43 43 44 44 45
REMARK SMILES IDX 46 46 48 47 45 48 67 49 68 50 73 51 69 52 70 53 72 54 74 55
REMARK SMILES IDX 71 56 55 57 56 58 61 59 57 60 58 61 60 62 62 63 59 64 9 65
REMARK SMILES IDX 10 66 11 67 12 68 13 69 14 70 15 71 16 72 30 73 27 74 29 75
REMARK SMILES IDX 31 76 28 77 17 78 18 79 19 80 20 82 21 83 22 84 26 85 23 86
REMARK SMILES IDX 25 87 24 88
REMARK H PARENT 79 26 53 37 19 81
REMARK Flexibility Score: inf
ROOT
ATOM      1  C   UNL A   1      39.233  21.693  26.135  1.00  0.00     0.188 C 
ENDROOT
BRANCH   1   2
ATOM      2  C   UNL A   1      40.459  21.362  26.972  1.00  0.00     0.188 C 
BRANCH   2   3
ATOM      3  O   UNL A   1      41.303  20.325  26.504  1.00  0.00    -0.376 OA
BRANCH   3   4
ATOM      4  C   UNL A   1      42.680  20.650  26.400  1.00  0.00     0.202 C 
BRANCH   4   5
ATOM      5  C   UNL A   1      43.051  21.733  25.365  1.00  0.00     0.261 C 
BRANCH   5   6
ATOM      6  O   UNL A   1      43.961  22.757  25.811  1.00  0.00    -0.460 OA
BRANCH   6   7
ATOM      7  C   UNL A   1      43.906  24.104  25.631  1.00  0.00     0.338 C 
ATOM      8  O   UNL A   1      44.501  24.586  24.668  1.00  0.00    -0.246 OA
BRANCH   7   9
ATOM      9  C   UNL A   1      43.265  25.056  26.603  1.00  0.00     0.060 A 
ATOM     10  C   UNL A   1      43.629  26.389  26.771  1.00  0.00     0.016 A 
ATOM     11  C   UNL A   1      42.186  24.581  27.379  1.00  0.00     0.016 A 
ATOM     12  C   UNL A   1      42.928  27.247  27.604  1.00  0.00     0.010 A 
ATOM     13  C   UNL A   1      41.516  25.416  28.285  1.00  0.00     0.010 A 
ATOM     14  C   UNL A   1      41.896  26.756  28.394  1.00  0.00    -0.014 A 
BRANCH  14  15
ATOM     15  C   UNL A   1      41.435  27.635  29.481  1.00  0.00     0.031 A 
ATOM     16  C   UNL A   1      42.254  27.660  30.733  1.00  0.00     0.074 A 
ATOM     17  C   UNL A   1      40.453  28.526  29.266  1.00  0.00     0.049 A 
ATOM     18  N   UNL A   1      42.082  28.358  31.821  1.00  0.00    -0.248 NA
ATOM     19  C   UNL A   1      43.458  26.809  30.745  1.00  0.00     0.031 C 
ATOM     20  C   UNL A   1      39.744  28.693  27.999  1.00  0.00     0.029 A 
ATOM     21  N   UNL A   1      39.908  29.478  30.084  1.00  0.00    -0.354 N 
ATOM     22  C   UNL A   1      43.138  28.014  32.652  1.00  0.00     0.074 A 
ATOM     23  C   UNL A   1      43.960  27.062  31.942  1.00  0.00     0.031 C 
ATOM     24  C   UNL A   1      38.850  29.687  28.129  1.00  0.00     0.029 A 
ATOM     25  C   UNL A   1      38.870  30.165  29.504  1.00  0.00     0.049 A 
ATOM     26  H   UNL A   1      40.228  29.652  30.999  1.00  0.00     0.167 HD
ATOM     27  C   UNL A   1      43.375  28.444  33.911  1.00  0.00     0.037 A 
ATOM     28  C   UNL A   1      38.004  31.039  30.052  1.00  0.00     0.037 A 
ATOM     29  C   UNL A   1      42.520  29.374  34.590  1.00  0.00     0.049 A 
ATOM     30  C   UNL A   1      38.195  31.383  31.505  1.00  0.00     0.074 A 
ATOM     31  C   UNL A   1      42.606  29.842  35.886  1.00  0.00     0.029 A 
ATOM     32  N   UNL A   1      41.401  29.967  34.017  1.00  0.00    -0.354 N 
ATOM     33  N   UNL A   1      39.159  31.013  32.316  1.00  0.00    -0.248 NA
ATOM     34  C   UNL A   1      37.184  32.245  32.126  1.00  0.00     0.031 C 
ATOM     35  C   UNL A   1      41.500  30.666  36.118  1.00  0.00     0.029 A 
ATOM     36  C   UNL A   1      40.762  30.764  34.947  1.00  0.00     0.049 A 
ATOM     37  H   UNL A   1      41.107  29.837  33.086  1.00  0.00     0.167 HD
ATOM     38  C   UNL A   1      38.882  31.609  33.538  1.00  0.00     0.074 A 
ATOM     39  C   UNL A   1      37.669  32.382  33.353  1.00  0.00     0.031 C 
ATOM     40  C   UNL A   1      39.559  31.524  34.709  1.00  0.00     0.037 A 
BRANCH  27  41
ATOM     41  C   UNL A   1      44.523  27.817  34.641  1.00  0.00     0.057 A 
ATOM     42  C   UNL A   1      45.793  28.406  34.704  1.00  0.00     0.134 A 
ATOM     43  C   UNL A   1      44.358  26.571  35.260  1.00  0.00     0.134 A 
ATOM     44  F   UNL A   1      46.028  29.581  34.100  1.00  0.00    -0.206 F 
ATOM     45  C   UNL A   1      46.861  27.768  35.338  1.00  0.00     0.040 A 
ATOM     46  C   UNL A   1      45.411  25.936  35.917  1.00  0.00     0.040 A 
ATOM     47  F   UNL A   1      43.172  25.945  35.223  1.00  0.00    -0.206 F 
ATOM     48  C   UNL A   1      46.670  26.531  35.951  1.00  0.00     0.006 A 
ENDBRANCH  27  41
BRANCH  28  49
ATOM     49  C   UNL A   1      36.842  31.554  29.276  1.00  0.00     0.057 A 
ATOM     50  C   UNL A   1      35.743  30.747  28.966  1.00  0.00     0.134 A 
ATOM     51  C   UNL A   1      36.828  32.866  28.779  1.00  0.00     0.134 A 
ATOM     52  F   UNL A   1      35.696  29.476  29.392  1.00  0.00    -0.206 F 
ATOM     53  C   UNL A   1      34.688  31.213  28.173  1.00  0.00     0.040 A 
ATOM     54  C   UNL A   1      35.769  33.355  28.012  1.00  0.00     0.040 A 
ATOM     55  F   UNL A   1      37.845  33.701  29.038  1.00  0.00    -0.206 F 
ATOM     56  C   UNL A   1      34.698  32.522  27.697  1.00  0.00     0.006 A 
ENDBRANCH  28  49
BRANCH  40  57
ATOM     57  C   UNL A   1      39.016  32.308  35.864  1.00  0.00     0.057 A 
ATOM     58  C   UNL A   1      38.186  31.722  36.826  1.00  0.00     0.134 A 
ATOM     59  C   UNL A   1      39.396  33.643  36.052  1.00  0.00     0.134 A 
ATOM     60  F   UNL A   1      37.777  30.452  36.691  1.00  0.00    -0.206 F 
ATOM     61  C   UNL A   1      37.742  32.443  37.934  1.00  0.00     0.040 A 
ATOM     62  C   UNL A   1      38.984  34.363  37.172  1.00  0.00     0.040 A 
ATOM     63  F   UNL A   1      40.199  34.254  35.168  1.00  0.00    -0.206 F 
ATOM     64  C   UNL A   1      38.152  33.763  38.115  1.00  0.00     0.006 A 
ENDBRANCH  40  57
ENDBRANCH  14  15
ENDBRANCH   7   9
ENDBRANCH   6   7
ENDBRANCH   5   6
ENDBRANCH   4   5
ENDBRANCH   3   4
ENDBRANCH   2   3
ENDBRANCH   1   2
BRANCH   1  65
ATOM     65  O   UNL A   1      38.751  23.020  26.138  1.00  0.00    -0.376 OA
BRANCH  65  66
ATOM     66  C   UNL A   1      37.387  23.203  25.774  1.00  0.00     0.202 C 
BRANCH  66  67
ATOM     67  C   UNL A   1      36.999  23.095  24.290  1.00  0.00     0.261 C 
BRANCH  67  68
ATOM     68  O   UNL A   1      35.713  22.478  24.038  1.00  0.00    -0.463 OA
BRANCH  68  69
ATOM     69  C   UNL A   1      34.729  23.345  23.649  1.00  0.00     0.312 C 
ATOM     70  O   UNL A   1      34.473  23.600  22.484  1.00  0.00    -0.252 OA
BRANCH  69  71
ATOM     71  C   UNL A   1      34.154  24.119  24.812  1.00  0.00     0.147 C 
ATOM     72  C   UNL A   1      32.753  23.852  25.415  1.00  0.00     0.128 C 
ATOM     73  C   UNL A   1      34.019  25.608  24.409  1.00  0.00     0.157 C 
ATOM     74  C   UNL A   1      32.067  25.220  25.287  1.00  0.00     0.155 C 
ATOM     75  C   UNL A   1      33.932  26.472  25.632  1.00  0.00     0.004 C 
ATOM     76  O   UNL A   1      32.620  25.663  24.022  1.00  0.00    -0.365 OA
ATOM     77  C   UNL A   1      32.737  26.223  26.183  1.00  0.00     0.004 C 
BRANCH  72  78
ATOM     78  C   UNL A   1      31.802  22.743  25.011  1.00  0.00     0.227 C 
ATOM     79  O   UNL A   1      30.697  23.073  24.551  1.00  0.00    -0.275 OA
ATOM     80  N   UNL A   1      32.018  21.416  25.029  1.00  0.00    -0.352 N 
ATOM     81  H   UNL A   1      31.238  20.905  24.712  1.00  0.00     0.163 HD
BRANCH  80  82
ATOM     82  C   UNL A   1      33.127  20.557  25.403  1.00  0.00     0.151 C 
BRANCH  82  83
ATOM     83  C   UNL A   1      33.291  19.396  24.454  1.00  0.00    -0.026 A 
ATOM     84  C   UNL A   1      34.354  18.507  24.630  1.00  0.00     0.025 A 
ATOM     85  C   UNL A   1      32.398  19.140  23.408  1.00  0.00     0.025 A 
ATOM     86  C   UNL A   1      34.413  17.361  23.854  1.00  0.00     0.111 A 
ATOM     87  C   UNL A   1      32.534  17.959  22.687  1.00  0.00     0.111 A 
ATOM     88  N   UNL A   1      33.517  17.060  22.893  1.00  0.00    -0.265 NA
ENDBRANCH  82  83
ENDBRANCH  80  82
ENDBRANCH  72  78
ENDBRANCH  69  71
ENDBRANCH  68  69
ENDBRANCH  67  68
ENDBRANCH  66  67
ENDBRANCH  65  66
ENDBRANCH   1  65
TORSDOF 20
ENDMDL
MODEL 3
REMARK VINA RESULT:     -10.6      2.754      7.805
REMARK SMILES O=C(OCCOCCOCCOC(=O)[C@@H]1[C@H](C(=O)NCc2ccncc2)[C@H]2C=C[C@@H]1O2)c1ccc(-c2c3nc(c(-c4c(F)cccc4F)c4ccc([nH]4)c(-c4c(F)cccc4F)c4nc(c(-c5c(F)cccc5F)c5ccc2[nH]5)C=C4)C=C3)cc1
REMARK SMILES IDX 8 1 7 2 6 3 5 4 4 5 3 6 2 7 1 8 32 9 33 10 85 11 34 12 84 13
REMARK SMILES IDX 35 14 36 15 37 16 78 17 38 18 83 19 77 20 79 21 39 22 82 23
REMARK SMILES IDX 76 24 75 25 40 27 66 28 49 29 65 30 50 31 53 32 64 33 80 34
REMARK SMILES IDX 51 35 52 36 63 38 81 39 54 40 41 41 42 42 47 43 43 44 44 45
REMARK SMILES IDX 46 46 48 47 45 48 67 49 68 50 73 51 69 52 70 53 72 54 74 55
REMARK SMILES IDX 71 56 55 57 56 58 61 59 57 60 58 61 60 62 62 63 59 64 9 65
REMARK SMILES IDX 10 66 11 67 12 68 13 69 14 70 15 71 16 72 30 73 27 74 29 75
REMARK SMILES IDX 31 76 28 77 17 78 18 79 19 80 20 82 21 83 22 84 26 85 23 86
REMARK SMILES IDX 25 87 24 88
REMARK H PARENT 79 26 53 37 19 81
REMARK Flexibility Score: inf
ROOT
ATOM      1  C   UNL A   1      39.442  21.664  26.316  1.00  0.00     0.188 C 
ENDROOT
BRANCH   1   2
ATOM      2  C   UNL A   1      40.653  21.102  27.047  1.00  0.00     0.188 C 
BRANCH   2   3
ATOM      3  O   UNL A   1      41.458  20.171  26.346  1.00  0.00    -0.376 OA
BRANCH   3   4
ATOM      4  C   UNL A   1      42.820  20.535  26.182  1.00  0.00     0.202 C 
BRANCH   4   5
ATOM      5  C   UNL A   1      43.097  21.754  25.277  1.00  0.00     0.261 C 
BRANCH   5   6
ATOM      6  O   UNL A   1      44.104  22.675  25.740  1.00  0.00    -0.460 OA
BRANCH   6   7
ATOM      7  C   UNL A   1      44.160  24.029  25.619  1.00  0.00     0.338 C 
ATOM      8  O   UNL A   1      44.861  24.504  24.726  1.00  0.00    -0.246 OA
BRANCH   7   9
ATOM      9  C   UNL A   1      43.518  24.986  26.584  1.00  0.00     0.060 A 
ATOM     10  C   UNL A   1      43.908  26.309  26.774  1.00  0.00     0.016 A 
ATOM     11  C   UNL A   1      42.410  24.530  27.329  1.00  0.00     0.016 A 
ATOM     12  C   UNL A   1      43.206  27.176  27.599  1.00  0.00     0.010 A 
ATOM     13  C   UNL A   1      41.737  25.372  28.227  1.00  0.00     0.010 A 
ATOM     14  C   UNL A   1      42.145  26.701  28.359  1.00  0.00    -0.014 A 
BRANCH  14  15
ATOM     15  C   UNL A   1      41.678  27.581  29.443  1.00  0.00     0.031 A 
ATOM     16  C   UNL A   1      42.493  27.611  30.697  1.00  0.00     0.074 A 
ATOM     17  C   UNL A   1      40.694  28.468  29.223  1.00  0.00     0.049 A 
ATOM     18  N   UNL A   1      42.316  28.311  31.783  1.00  0.00    -0.248 NA
ATOM     19  C   UNL A   1      43.700  26.764  30.714  1.00  0.00     0.031 C 
ATOM     20  C   UNL A   1      39.987  28.631  27.954  1.00  0.00     0.029 A 
ATOM     21  N   UNL A   1      40.143  29.419  30.037  1.00  0.00    -0.354 N 
ATOM     22  C   UNL A   1      43.371  27.972  32.618  1.00  0.00     0.074 A 
ATOM     23  C   UNL A   1      44.198  27.021  31.912  1.00  0.00     0.031 C 
ATOM     24  C   UNL A   1      39.089  29.621  28.079  1.00  0.00     0.029 A 
ATOM     25  C   UNL A   1      39.104  30.102  29.454  1.00  0.00     0.049 A 
ATOM     26  H   UNL A   1      40.459  29.596  30.953  1.00  0.00     0.167 HD
ATOM     27  C   UNL A   1      43.603  28.405  33.876  1.00  0.00     0.037 A 
ATOM     28  C   UNL A   1      38.233  30.974  29.997  1.00  0.00     0.037 A 
ATOM     29  C   UNL A   1      42.742  29.334  34.551  1.00  0.00     0.049 A 
ATOM     30  C   UNL A   1      38.420  31.321  31.451  1.00  0.00     0.074 A 
ATOM     31  C   UNL A   1      42.824  29.804  35.846  1.00  0.00     0.029 A 
ATOM     32  N   UNL A   1      41.623  29.921  33.973  1.00  0.00    -0.354 N 
ATOM     33  N   UNL A   1      39.382  30.957  32.265  1.00  0.00    -0.248 NA
ATOM     34  C   UNL A   1      37.403  32.181  32.067  1.00  0.00     0.031 C 
ATOM     35  C   UNL A   1      41.714  30.625  36.073  1.00  0.00     0.029 A 
ATOM     36  C   UNL A   1      40.979  30.718  34.900  1.00  0.00     0.049 A 
ATOM     37  H   UNL A   1      41.333  29.789  33.042  1.00  0.00     0.167 HD
ATOM     38  C   UNL A   1      39.099  31.553  33.485  1.00  0.00     0.074 A 
ATOM     39  C   UNL A   1      37.884  32.322  33.295  1.00  0.00     0.031 C 
ATOM     40  C   UNL A   1      39.773  31.473  34.658  1.00  0.00     0.037 A 
BRANCH  27  41
ATOM     41  C   UNL A   1      44.751  27.784  34.610  1.00  0.00     0.057 A 
ATOM     42  C   UNL A   1      44.626  26.601  35.351  1.00  0.00     0.134 A 
ATOM     43  C   UNL A   1      46.003  28.414  34.607  1.00  0.00     0.134 A 
ATOM     44  F   UNL A   1      43.445  25.968  35.426  1.00  0.00    -0.206 F 
ATOM     45  C   UNL A   1      45.699  26.079  36.078  1.00  0.00     0.040 A 
ATOM     46  C   UNL A   1      47.087  27.889  35.309  1.00  0.00     0.040 A 
ATOM     47  F   UNL A   1      46.187  29.557  33.931  1.00  0.00    -0.206 F 
ATOM     48  C   UNL A   1      46.935  26.722  36.054  1.00  0.00     0.006 A 
ENDBRANCH  27  41
BRANCH  28  49
ATOM     49  C   UNL A   1      37.072  31.483  29.218  1.00  0.00     0.057 A 
ATOM     50  C   UNL A   1      37.047  32.777  28.687  1.00  0.00     0.134 A 
ATOM     51  C   UNL A   1      35.927  30.695  29.027  1.00  0.00     0.134 A 
ATOM     52  F   UNL A   1      38.099  33.593  28.846  1.00  0.00    -0.206 F 
ATOM     53  C   UNL A   1      35.923  33.277  28.019  1.00  0.00     0.040 A 
ATOM     54  C   UNL A   1      34.809  31.170  28.337  1.00  0.00     0.040 A 
ATOM     55  F   UNL A   1      35.877  29.443  29.504  1.00  0.00    -0.206 F 
ATOM     56  C   UNL A   1      34.801  32.470  27.840  1.00  0.00     0.006 A 
ENDBRANCH  28  49
BRANCH  40  57
ATOM     57  C   UNL A   1      39.225  32.257  35.810  1.00  0.00     0.057 A 
ATOM     58  C   UNL A   1      39.556  33.602  36.010  1.00  0.00     0.134 A 
ATOM     59  C   UNL A   1      38.293  31.676  36.680  1.00  0.00     0.134 A 
ATOM     60  F   UNL A   1      40.453  34.208  35.218  1.00  0.00    -0.206 F 
ATOM     61  C   UNL A   1      38.987  34.341  37.045  1.00  0.00     0.040 A 
ATOM     62  C   UNL A   1      37.695  32.414  37.699  1.00  0.00     0.040 A 
ATOM     63  F   UNL A   1      37.930  30.393  36.531  1.00  0.00    -0.206 F 
ATOM     64  C   UNL A   1      38.043  33.750  37.885  1.00  0.00     0.006 A 
ENDBRANCH  40  57
ENDBRANCH  14  15
ENDBRANCH   7   9
ENDBRANCH   6   7
ENDBRANCH   5   6
ENDBRANCH   4   5
ENDBRANCH   3   4
ENDBRANCH   2   3
ENDBRANCH   1   2
BRANCH   1  65
ATOM     65  O   UNL A   1      39.210  23.055  26.363  1.00  0.00    -0.376 OA
BRANCH  65  66
ATOM     66  C   UNL A   1      37.853  23.478  26.276  1.00  0.00     0.202 C 
BRANCH  66  67
ATOM     67  C   UNL A   1      37.235  23.689  24.884  1.00  0.00     0.261 C 
BRANCH  67  68
ATOM     68  O   UNL A   1      36.090  22.851  24.590  1.00  0.00    -0.463 OA
BRANCH  68  69
ATOM     69  C   UNL A   1      35.048  23.498  23.987  1.00  0.00     0.312 C 
ATOM     70  O   UNL A   1      34.944  23.637  22.780  1.00  0.00    -0.252 OA
BRANCH  69  71
ATOM     71  C   UNL A   1      34.164  24.214  24.982  1.00  0.00     0.147 C 
ATOM     72  C   UNL A   1      32.648  23.942  25.139  1.00  0.00     0.128 C 
ATOM     73  C   UNL A   1      34.155  25.727  24.650  1.00  0.00     0.157 C 
ATOM     74  C   UNL A   1      32.032  25.329  24.905  1.00  0.00     0.155 C 
ATOM     75  C   UNL A   1      33.723  26.520  25.849  1.00  0.00     0.004 C 
ATOM     76  O   UNL A   1      32.928  25.834  23.882  1.00  0.00    -0.365 OA
ATOM     77  C   UNL A   1      32.419  26.264  26.017  1.00  0.00     0.004 C 
BRANCH  72  78
ATOM     78  C   UNL A   1      31.850  22.878  24.411  1.00  0.00     0.227 C 
ATOM     79  O   UNL A   1      30.932  23.258  23.667  1.00  0.00    -0.275 OA
ATOM     80  N   UNL A   1      32.042  21.547  24.416  1.00  0.00    -0.352 N 
ATOM     81  H   UNL A   1      31.386  21.073  23.855  1.00  0.00     0.163 HD
BRANCH  80  82
ATOM     82  C   UNL A   1      32.986  20.644  25.049  1.00  0.00     0.151 C 
BRANCH  82  83
ATOM     83  C   UNL A   1      33.126  19.347  24.291  1.00  0.00    -0.026 A 
ATOM     84  C   UNL A   1      32.259  19.070  23.232  1.00  0.00     0.025 A 
ATOM     85  C   UNL A   1      34.120  18.405  24.578  1.00  0.00     0.025 A 
ATOM     86  C   UNL A   1      32.488  17.954  22.444  1.00  0.00     0.111 A 
ATOM     87  C   UNL A   1      34.277  17.318  23.726  1.00  0.00     0.111 A 
ATOM     88  N   UNL A   1      33.487  17.077  22.660  1.00  0.00    -0.265 NA
ENDBRANCH  82  83
ENDBRANCH  80  82
ENDBRANCH  72  78
ENDBRANCH  69  71
ENDBRANCH  68  69
ENDBRANCH  67  68
ENDBRANCH  66  67
ENDBRANCH  65  66
ENDBRANCH   1  65
TORSDOF 20
ENDMDL
