MODEL 1
REMARK VINA RESULT:      -9.1      0.000      0.000
REMARK SMILES CC(C)N(CC(F)(F)F)C(=O)N(CC(=O)OCCOCCOCCOC(=O)c1ccc(-c2c3nc(c(-c4c(F)cccc4F)c4ccc([nH]4)c(-c4c(F)cccc4F)c4nc(c(-c5c(F)cccc5F)c5ccc2[nH]5)C=C4)C=C3)cc1)C(C)(C)C
REMARK SMILES IDX 19 1 18 2 17 3 16 4 14 5 15 6 13 7 12 8 10 9 11 10 4 11 2 12
REMARK SMILES IDX 1 13 3 14 5 15 6 16 7 17 8 18 9 19 82 20 83 21 84 22 85 23
REMARK SMILES IDX 20 24 21 25 22 26 23 27 24 28 25 29 26 30 27 31 28 32 29 33
REMARK SMILES IDX 81 34 30 35 80 36 31 37 32 38 33 39 74 40 34 41 79 42 73 43
REMARK SMILES IDX 75 44 35 45 78 46 72 47 71 48 36 50 62 51 45 52 61 53 46 54
REMARK SMILES IDX 49 55 60 56 76 57 47 58 48 59 59 61 77 62 50 63 37 64 38 65
REMARK SMILES IDX 43 66 39 67 40 68 42 69 44 70 41 71 63 72 64 73 69 74 65 75
REMARK SMILES IDX 66 76 68 77 70 78 67 79 51 80 52 81 57 82 53 83 54 84 56 85
REMARK SMILES IDX 58 86 55 87
REMARK H PARENT 75 49 49 60
REMARK Flexibility Score: inf
ROOT
ATOM      1  O   UNL A   1      32.244  28.155  26.059  1.00  0.00    -0.376 OA
ENDROOT
BRANCH   1   2
ATOM      2  C   UNL A   1      31.243  28.022  25.049  1.00  0.00     0.202 C 
BRANCH   2   3
ATOM      3  C   UNL A   1      30.410  26.739  25.148  1.00  0.00     0.261 C 
BRANCH   3   4
ATOM      4  O   UNL A   1      30.593  26.045  26.409  1.00  0.00    -0.462 OA
BRANCH   4   5
ATOM      5  C   UNL A   1      30.916  24.728  26.322  1.00  0.00     0.325 C 
ATOM      6  O   UNL A   1      30.970  23.968  27.285  1.00  0.00    -0.250 OA
BRANCH   5   7
ATOM      7  C   UNL A   1      31.241  24.232  24.897  1.00  0.00     0.244 C 
BRANCH   7   8
ATOM      8  N   UNL A   1      32.617  24.324  24.371  1.00  0.00    -0.309 N 
BRANCH   8   9
ATOM      9  C   UNL A   1      33.775  24.012  25.079  1.00  0.00     0.321 C 
ATOM     10  O   UNL A   1      34.374  24.918  25.669  1.00  0.00    -0.248 OA
BRANCH   9  11
ATOM     11  N   UNL A   1      34.362  22.755  25.070  1.00  0.00    -0.313 N 
BRANCH  11  12
ATOM     12  C   UNL A   1      33.574  21.651  25.696  1.00  0.00     0.081 C 
ATOM     13  C   UNL A   1      33.887  20.281  25.078  1.00  0.00     0.031 C 
ATOM     14  C   UNL A   1      33.664  21.608  27.228  1.00  0.00     0.031 C 
ENDBRANCH  11  12
BRANCH  11  15
ATOM     15  C   UNL A   1      35.487  22.276  24.236  1.00  0.00     0.237 C 
BRANCH  15  16
ATOM     16  C   UNL A   1      36.881  22.418  24.849  1.00  0.00     0.406 C 
ATOM     17  F   UNL A   1      37.396  23.651  24.680  1.00  0.00    -0.169 F 
ATOM     18  F   UNL A   1      36.821  22.186  26.183  1.00  0.00    -0.169 F 
ATOM     19  F   UNL A   1      37.744  21.522  24.326  1.00  0.00    -0.169 F 
ENDBRANCH  15  16
ENDBRANCH  11  15
ENDBRANCH   9  11
ENDBRANCH   8   9
BRANCH   8  20
ATOM     20  C   UNL A   1      32.786  24.470  22.858  1.00  0.00     0.037 C 
ATOM     21  C   UNL A   1      32.907  23.096  22.143  1.00  0.00     0.034 C 
ATOM     22  C   UNL A   1      31.582  25.246  22.264  1.00  0.00     0.034 C 
ATOM     23  C   UNL A   1      34.031  25.287  22.450  1.00  0.00     0.034 C 
ENDBRANCH   8  20
ENDBRANCH   7   8
ENDBRANCH   5   7
ENDBRANCH   4   5
ENDBRANCH   3   4
ENDBRANCH   2   3
ENDBRANCH   1   2
BRANCH   1  24
ATOM     24  C   UNL A   1      32.073  29.217  26.993  1.00  0.00     0.188 C 
BRANCH  24  25
ATOM     25  C   UNL A   1      33.213  30.242  27.053  1.00  0.00     0.188 C 
BRANCH  25  26
ATOM     26  O   UNL A   1      32.832  31.601  27.226  1.00  0.00    -0.376 OA
BRANCH  26  27
ATOM     27  C   UNL A   1      33.849  32.494  27.673  1.00  0.00     0.202 C 
BRANCH  27  28
ATOM     28  C   UNL A   1      33.733  32.855  29.153  1.00  0.00     0.261 C 
BRANCH  28  29
ATOM     29  O   UNL A   1      35.050  33.094  29.690  1.00  0.00    -0.460 OA
BRANCH  29  30
ATOM     30  C   UNL A   1      35.361  32.341  30.764  1.00  0.00     0.338 C 
ATOM     31  O   UNL A   1      34.835  32.362  31.867  1.00  0.00    -0.246 OA
BRANCH  30  32
ATOM     32  C   UNL A   1      36.437  31.404  30.413  1.00  0.00     0.060 A 
ATOM     33  C   UNL A   1      37.150  30.766  31.429  1.00  0.00     0.016 A 
ATOM     34  C   UNL A   1      36.850  31.287  29.089  1.00  0.00     0.016 A 
ATOM     35  C   UNL A   1      38.334  30.087  31.145  1.00  0.00     0.010 A 
ATOM     36  C   UNL A   1      38.003  30.553  28.796  1.00  0.00     0.010 A 
ATOM     37  C   UNL A   1      38.785  29.991  29.824  1.00  0.00    -0.014 A 
BRANCH  37  38
ATOM     38  C   UNL A   1      40.126  29.434  29.498  1.00  0.00     0.031 A 
ATOM     39  C   UNL A   1      41.313  30.361  29.492  1.00  0.00     0.074 A 
ATOM     40  C   UNL A   1      40.308  28.132  29.208  1.00  0.00     0.049 A 
ATOM     41  N   UNL A   1      42.492  30.199  28.952  1.00  0.00    -0.248 NA
ATOM     42  C   UNL A   1      41.136  31.651  30.179  1.00  0.00     0.031 C 
ATOM     43  C   UNL A   1      39.286  27.090  29.277  1.00  0.00     0.029 A 
ATOM     44  N   UNL A   1      41.433  27.469  28.780  1.00  0.00    -0.354 N 
ATOM     45  C   UNL A   1      43.169  31.394  29.163  1.00  0.00     0.074 A 
ATOM     46  C   UNL A   1      42.280  32.261  29.905  1.00  0.00     0.031 C 
ATOM     47  C   UNL A   1      39.832  25.917  28.913  1.00  0.00     0.029 A 
ATOM     48  C   UNL A   1      41.213  26.143  28.498  1.00  0.00     0.049 A 
ATOM     49  H   UNL A   1      42.312  27.903  28.686  1.00  0.00     0.167 HD
ATOM     50  C   UNL A   1      44.412  31.740  28.755  1.00  0.00     0.037 A 
ATOM     51  C   UNL A   1      42.013  25.231  27.912  1.00  0.00     0.037 A 
ATOM     52  C   UNL A   1      45.317  30.851  28.077  1.00  0.00     0.049 A 
ATOM     53  C   UNL A   1      43.373  25.646  27.421  1.00  0.00     0.074 A 
ATOM     54  C   UNL A   1      46.599  31.103  27.619  1.00  0.00     0.029 A 
ATOM     55  N   UNL A   1      45.040  29.525  27.784  1.00  0.00    -0.354 N 
ATOM     56  N   UNL A   1      43.970  26.808  27.522  1.00  0.00    -0.248 NA
ATOM     57  C   UNL A   1      44.155  24.629  26.701  1.00  0.00     0.031 C 
ATOM     58  C   UNL A   1      47.089  29.933  27.028  1.00  0.00     0.029 A 
ATOM     59  C   UNL A   1      46.123  28.947  27.146  1.00  0.00     0.049 A 
ATOM     60  H   UNL A   1      44.199  29.063  27.999  1.00  0.00     0.167 HD
ATOM     61  C   UNL A   1      45.198  26.661  26.889  1.00  0.00     0.074 A 
ATOM     62  C   UNL A   1      45.268  25.293  26.421  1.00  0.00     0.031 C 
ATOM     63  C   UNL A   1      46.177  27.579  26.702  1.00  0.00     0.037 A 
BRANCH  50  64
ATOM     64  C   UNL A   1      44.845  33.157  28.979  1.00  0.00     0.057 A 
ATOM     65  C   UNL A   1      44.547  34.183  28.077  1.00  0.00     0.134 A 
ATOM     66  C   UNL A   1      45.552  33.497  30.141  1.00  0.00     0.134 A 
ATOM     67  F   UNL A   1      43.890  33.918  26.939  1.00  0.00    -0.206 F 
ATOM     68  C   UNL A   1      44.951  35.499  28.314  1.00  0.00     0.040 A 
ATOM     69  C   UNL A   1      45.944  34.811  30.398  1.00  0.00     0.040 A 
ATOM     70  F   UNL A   1      45.866  32.558  31.046  1.00  0.00    -0.206 F 
ATOM     71  C   UNL A   1      45.646  35.816  29.481  1.00  0.00     0.006 A 
ENDBRANCH  50  64
BRANCH  51  72
ATOM     72  C   UNL A   1      41.525  23.846  27.689  1.00  0.00     0.057 A 
ATOM     73  C   UNL A   1      41.976  22.786  28.482  1.00  0.00     0.134 A 
ATOM     74  C   UNL A   1      40.617  23.546  26.665  1.00  0.00     0.134 A 
ATOM     75  F   UNL A   1      42.870  23.005  29.457  1.00  0.00    -0.206 F 
ATOM     76  C   UNL A   1      41.547  21.475  28.262  1.00  0.00     0.040 A 
ATOM     77  C   UNL A   1      40.161  22.245  26.450  1.00  0.00     0.040 A 
ATOM     78  F   UNL A   1      40.153  24.518  25.866  1.00  0.00    -0.206 F 
ATOM     79  C   UNL A   1      40.631  21.204  27.247  1.00  0.00     0.006 A 
ENDBRANCH  51  72
BRANCH  63  80
ATOM     80  C   UNL A   1      47.416  27.124  25.995  1.00  0.00     0.057 A 
ATOM     81  C   UNL A   1      47.571  27.283  24.613  1.00  0.00     0.134 A 
ATOM     82  C   UNL A   1      48.478  26.560  26.710  1.00  0.00     0.134 A 
ATOM     83  F   UNL A   1      46.582  27.806  23.873  1.00  0.00    -0.206 F 
ATOM     84  C   UNL A   1      48.740  26.883  23.963  1.00  0.00     0.040 A 
ATOM     85  C   UNL A   1      49.658  26.171  26.074  1.00  0.00     0.040 A 
ATOM     86  F   UNL A   1      48.391  26.387  28.038  1.00  0.00    -0.206 F 
ATOM     87  C   UNL A   1      49.790  26.330  24.696  1.00  0.00     0.006 A 
ENDBRANCH  63  80
ENDBRANCH  37  38
ENDBRANCH  30  32
ENDBRANCH  29  30
ENDBRANCH  28  29
ENDBRANCH  27  28
ENDBRANCH  26  27
ENDBRANCH  25  26
ENDBRANCH  24  25
ENDBRANCH   1  24
TORSDOF 24
ENDMDL
MODEL 2
REMARK VINA RESULT:      -8.7      5.090      9.826
REMARK SMILES CC(C)N(CC(F)(F)F)C(=O)N(CC(=O)OCCOCCOCCOC(=O)c1ccc(-c2c3nc(c(-c4c(F)cccc4F)c4ccc([nH]4)c(-c4c(F)cccc4F)c4nc(c(-c5c(F)cccc5F)c5ccc2[nH]5)C=C4)C=C3)cc1)C(C)(C)C
REMARK SMILES IDX 19 1 18 2 17 3 16 4 14 5 15 6 13 7 12 8 10 9 11 10 4 11 2 12
REMARK SMILES IDX 1 13 3 14 5 15 6 16 7 17 8 18 9 19 82 20 83 21 84 22 85 23
REMARK SMILES IDX 20 24 21 25 22 26 23 27 24 28 25 29 26 30 27 31 28 32 29 33
REMARK SMILES IDX 81 34 30 35 80 36 31 37 32 38 33 39 74 40 34 41 79 42 73 43
REMARK SMILES IDX 75 44 35 45 78 46 72 47 71 48 36 50 62 51 45 52 61 53 46 54
REMARK SMILES IDX 49 55 60 56 76 57 47 58 48 59 59 61 77 62 50 63 37 64 38 65
REMARK SMILES IDX 43 66 39 67 40 68 42 69 44 70 41 71 63 72 64 73 69 74 65 75
REMARK SMILES IDX 66 76 68 77 70 78 67 79 51 80 52 81 57 82 53 83 54 84 56 85
REMARK SMILES IDX 58 86 55 87
REMARK H PARENT 75 49 49 60
REMARK Flexibility Score: inf
ROOT
ATOM      1  O   UNL A   1      38.535  22.592  25.792  1.00  0.00    -0.376 OA
ENDROOT
BRANCH   1   2
ATOM      2  C   UNL A   1      37.205  22.204  25.445  1.00  0.00     0.202 C 
BRANCH   2   3
ATOM      3  C   UNL A   1      36.109  23.085  26.056  1.00  0.00     0.261 C 
BRANCH   3   4
ATOM      4  O   UNL A   1      35.826  24.264  25.260  1.00  0.00    -0.462 OA
BRANCH   4   5
ATOM      5  C   UNL A   1      34.566  24.357  24.760  1.00  0.00     0.325 C 
ATOM      6  O   UNL A   1      34.213  23.867  23.691  1.00  0.00    -0.250 OA
BRANCH   5   7
ATOM      7  C   UNL A   1      33.578  25.157  25.635  1.00  0.00     0.244 C 
BRANCH   7   8
ATOM      8  N   UNL A   1      32.319  25.671  25.060  1.00  0.00    -0.309 N 
BRANCH   8   9
ATOM      9  C   UNL A   1      32.211  26.751  24.187  1.00  0.00     0.321 C 
ATOM     10  O   UNL A   1      32.674  26.643  23.047  1.00  0.00    -0.248 OA
BRANCH   9  11
ATOM     11  N   UNL A   1      31.710  27.989  24.561  1.00  0.00    -0.313 N 
BRANCH  11  12
ATOM     12  C   UNL A   1      30.836  28.679  23.566  1.00  0.00     0.081 C 
ATOM     13  C   UNL A   1      29.690  27.786  23.071  1.00  0.00     0.031 C 
ATOM     14  C   UNL A   1      30.319  30.049  24.029  1.00  0.00     0.031 C 
ENDBRANCH  11  12
BRANCH  11  15
ATOM     15  C   UNL A   1      31.629  28.572  25.920  1.00  0.00     0.237 C 
BRANCH  15  16
ATOM     16  C   UNL A   1      32.966  28.860  26.604  1.00  0.00     0.406 C 
ATOM     17  F   UNL A   1      33.976  29.003  25.725  1.00  0.00    -0.169 F 
ATOM     18  F   UNL A   1      32.879  30.015  27.310  1.00  0.00    -0.169 F 
ATOM     19  F   UNL A   1      33.296  27.884  27.476  1.00  0.00    -0.169 F 
ENDBRANCH  15  16
ENDBRANCH  11  15
ENDBRANCH   9  11
ENDBRANCH   8   9
BRANCH   8  20
ATOM     20  C   UNL A   1      31.079  24.782  25.169  1.00  0.00     0.037 C 
ATOM     21  C   UNL A   1      30.605  24.259  23.785  1.00  0.00     0.034 C 
ATOM     22  C   UNL A   1      31.375  23.573  26.094  1.00  0.00     0.034 C 
ATOM     23  C   UNL A   1      29.865  25.489  25.810  1.00  0.00     0.034 C 
ENDBRANCH   8  20
ENDBRANCH   7   8
ENDBRANCH   5   7
ENDBRANCH   4   5
ENDBRANCH   3   4
ENDBRANCH   2   3
ENDBRANCH   1   2
BRANCH   1  24
ATOM     24  C   UNL A   1      39.448  21.543  26.101  1.00  0.00     0.188 C 
BRANCH  24  25
ATOM     25  C   UNL A   1      40.794  21.983  26.691  1.00  0.00     0.188 C 
BRANCH  25  26
ATOM     26  O   UNL A   1      41.267  23.265  26.298  1.00  0.00    -0.376 OA
BRANCH  26  27
ATOM     27  C   UNL A   1      42.601  23.324  25.798  1.00  0.00     0.202 C 
BRANCH  27  28
ATOM     28  C   UNL A   1      42.947  24.660  25.143  1.00  0.00     0.261 C 
BRANCH  28  29
ATOM     29  O   UNL A   1      41.837  25.568  25.297  1.00  0.00    -0.460 OA
BRANCH  29  30
ATOM     30  C   UNL A   1      42.188  26.865  25.408  1.00  0.00     0.338 C 
ATOM     31  O   UNL A   1      42.481  27.638  24.508  1.00  0.00    -0.246 OA
BRANCH  30  32
ATOM     32  C   UNL A   1      42.121  27.273  26.819  1.00  0.00     0.060 A 
ATOM     33  C   UNL A   1      41.314  26.555  27.702  1.00  0.00     0.016 A 
ATOM     34  C   UNL A   1      42.721  28.460  27.226  1.00  0.00     0.016 A 
ATOM     35  C   UNL A   1      41.022  27.063  28.967  1.00  0.00     0.010 A 
ATOM     36  C   UNL A   1      42.479  28.940  28.516  1.00  0.00     0.010 A 
ATOM     37  C   UNL A   1      41.586  28.275  29.381  1.00  0.00    -0.014 A 
BRANCH  37  38
ATOM     38  C   UNL A   1      41.163  28.940  30.643  1.00  0.00     0.031 A 
ATOM     39  C   UNL A   1      39.953  29.837  30.619  1.00  0.00     0.074 A 
ATOM     40  C   UNL A   1      41.828  28.764  31.801  1.00  0.00     0.049 A 
ATOM     41  N   UNL A   1      39.577  30.749  31.476  1.00  0.00    -0.248 NA
ATOM     42  C   UNL A   1      39.056  29.690  29.461  1.00  0.00     0.031 C 
ATOM     43  C   UNL A   1      42.945  27.848  32.014  1.00  0.00     0.029 A 
ATOM     44  N   UNL A   1      41.655  29.373  33.021  1.00  0.00    -0.354 N 
ATOM     45  C   UNL A   1      38.447  31.340  30.923  1.00  0.00     0.074 A 
ATOM     46  C   UNL A   1      38.182  30.664  29.672  1.00  0.00     0.031 C 
ATOM     47  C   UNL A   1      43.355  27.948  33.290  1.00  0.00     0.029 A 
ATOM     48  C   UNL A   1      42.590  28.998  33.956  1.00  0.00     0.049 A 
ATOM     49  H   UNL A   1      40.931  30.014  33.207  1.00  0.00     0.167 HD
ATOM     50  C   UNL A   1      37.712  32.367  31.409  1.00  0.00     0.037 A 
ATOM     51  C   UNL A   1      42.842  29.490  35.184  1.00  0.00     0.037 A 
ATOM     52  C   UNL A   1      37.939  32.990  32.686  1.00  0.00     0.049 A 
ATOM     53  C   UNL A   1      42.047  30.664  35.688  1.00  0.00     0.074 A 
ATOM     54  C   UNL A   1      37.252  34.041  33.271  1.00  0.00     0.029 A 
ATOM     55  N   UNL A   1      38.917  32.598  33.586  1.00  0.00    -0.354 N 
ATOM     56  N   UNL A   1      41.050  31.295  35.117  1.00  0.00    -0.248 NA
ATOM     57  C   UNL A   1      42.439  31.217  36.994  1.00  0.00     0.031 C 
ATOM     58  C   UNL A   1      37.831  34.298  34.519  1.00  0.00     0.029 A 
ATOM     59  C   UNL A   1      38.857  33.389  34.720  1.00  0.00     0.049 A 
ATOM     60  H   UNL A   1      39.558  31.867  33.441  1.00  0.00     0.167 HD
ATOM     61  C   UNL A   1      40.689  32.310  35.995  1.00  0.00     0.074 A 
ATOM     62  C   UNL A   1      41.563  32.202  37.144  1.00  0.00     0.031 C 
ATOM     63  C   UNL A   1      39.728  33.254  35.858  1.00  0.00     0.037 A 
BRANCH  50  64
ATOM     64  C   UNL A   1      36.630  32.920  30.533  1.00  0.00     0.057 A 
ATOM     65  C   UNL A   1      35.287  32.562  30.684  1.00  0.00     0.134 A 
ATOM     66  C   UNL A   1      36.946  33.851  29.533  1.00  0.00     0.134 A 
ATOM     67  F   UNL A   1      34.924  31.661  31.610  1.00  0.00    -0.206 F 
ATOM     68  C   UNL A   1      34.294  33.099  29.862  1.00  0.00     0.040 A 
ATOM     69  C   UNL A   1      35.960  34.410  28.719  1.00  0.00     0.040 A 
ATOM     70  F   UNL A   1      38.216  34.236  29.339  1.00  0.00    -0.206 F 
ATOM     71  C   UNL A   1      34.630  34.031  28.880  1.00  0.00     0.006 A 
ENDBRANCH  50  64
BRANCH  51  72
ATOM     72  C   UNL A   1      43.944  28.925  36.002  1.00  0.00     0.057 A 
ATOM     73  C   UNL A   1      45.238  29.451  35.932  1.00  0.00     0.134 A 
ATOM     74  C   UNL A   1      43.737  27.832  36.854  1.00  0.00     0.134 A 
ATOM     75  F   UNL A   1      45.505  30.478  35.110  1.00  0.00    -0.206 F 
ATOM     76  C   UNL A   1      46.290  28.909  36.674  1.00  0.00     0.040 A 
ATOM     77  C   UNL A   1      44.773  27.296  37.621  1.00  0.00     0.040 A 
ATOM     78  F   UNL A   1      42.521  27.278  36.961  1.00  0.00    -0.206 F 
ATOM     79  C   UNL A   1      46.055  27.832  37.527  1.00  0.00     0.006 A 
ENDBRANCH  51  72
BRANCH  63  80
ATOM     80  C   UNL A   1      39.549  34.218  36.990  1.00  0.00     0.057 A 
ATOM     81  C   UNL A   1      38.845  33.867  38.148  1.00  0.00     0.134 A 
ATOM     82  C   UNL A   1      40.122  35.494  36.936  1.00  0.00     0.134 A 
ATOM     83  F   UNL A   1      38.264  32.662  38.251  1.00  0.00    -0.206 F 
ATOM     84  C   UNL A   1      38.706  34.760  39.212  1.00  0.00     0.040 A 
ATOM     85  C   UNL A   1      40.003  36.390  38.001  1.00  0.00     0.040 A 
ATOM     86  F   UNL A   1      40.813  35.886  35.856  1.00  0.00    -0.206 F 
ATOM     87  C   UNL A   1      39.291  36.024  39.141  1.00  0.00     0.006 A 
ENDBRANCH  63  80
ENDBRANCH  37  38
ENDBRANCH  30  32
ENDBRANCH  29  30
ENDBRANCH  28  29
ENDBRANCH  27  28
ENDBRANCH  26  27
ENDBRANCH  25  26
ENDBRANCH  24  25
ENDBRANCH   1  24
TORSDOF 24
ENDMDL
MODEL 3
REMARK VINA RESULT:      -8.7      4.379      9.335
REMARK SMILES CC(C)N(CC(F)(F)F)C(=O)N(CC(=O)OCCOCCOCCOC(=O)c1ccc(-c2c3nc(c(-c4c(F)cccc4F)c4ccc([nH]4)c(-c4c(F)cccc4F)c4nc(c(-c5c(F)cccc5F)c5ccc2[nH]5)C=C4)C=C3)cc1)C(C)(C)C
REMARK SMILES IDX 19 1 18 2 17 3 16 4 14 5 15 6 13 7 12 8 10 9 11 10 4 11 2 12
REMARK SMILES IDX 1 13 3 14 5 15 6 16 7 17 8 18 9 19 82 20 83 21 84 22 85 23
REMARK SMILES IDX 20 24 21 25 22 26 23 27 24 28 25 29 26 30 27 31 28 32 29 33
REMARK SMILES IDX 81 34 30 35 80 36 31 37 32 38 33 39 74 40 34 41 79 42 73 43
REMARK SMILES IDX 75 44 35 45 78 46 72 47 71 48 36 50 62 51 45 52 61 53 46 54
REMARK SMILES IDX 49 55 60 56 76 57 47 58 48 59 59 61 77 62 50 63 37 64 38 65
REMARK SMILES IDX 43 66 39 67 40 68 42 69 44 70 41 71 63 72 64 73 69 74 65 75
REMARK SMILES IDX 66 76 68 77 70 78 67 79 51 80 52 81 57 82 53 83 54 84 56 85
REMARK SMILES IDX 58 86 55 87
REMARK H PARENT 75 49 49 60
REMARK Flexibility Score: inf
ROOT
ATOM      1  O   UNL A   1      38.414  23.360  25.561  1.00  0.00    -0.376 OA
ENDROOT
BRANCH   1   2
ATOM      2  C   UNL A   1      37.069  23.801  25.750  1.00  0.00     0.202 C 
BRANCH   2   3
ATOM      3  C   UNL A   1      36.078  23.278  24.703  1.00  0.00     0.261 C 
BRANCH   3   4
ATOM      4  O   UNL A   1      35.245  24.325  24.144  1.00  0.00    -0.462 OA
BRANCH   4   5
ATOM      5  C   UNL A   1      34.383  23.941  23.166  1.00  0.00     0.325 C 
ATOM      6  O   UNL A   1      34.691  23.215  22.224  1.00  0.00    -0.250 OA
BRANCH   5   7
ATOM      7  C   UNL A   1      32.953  24.507  23.302  1.00  0.00     0.244 C 
BRANCH   7   8
ATOM      8  N   UNL A   1      32.741  25.946  23.554  1.00  0.00    -0.309 N 
BRANCH   8   9
ATOM      9  C   UNL A   1      33.090  26.622  24.721  1.00  0.00     0.321 C 
ATOM     10  O   UNL A   1      34.209  27.140  24.795  1.00  0.00    -0.248 OA
BRANCH   9  11
ATOM     11  N   UNL A   1      32.292  26.653  25.854  1.00  0.00    -0.313 N 
BRANCH  11  12
ATOM     12  C   UNL A   1      31.675  27.970  26.195  1.00  0.00     0.081 C 
ATOM     13  C   UNL A   1      31.375  28.109  27.694  1.00  0.00     0.031 C 
ATOM     14  C   UNL A   1      32.453  29.183  25.664  1.00  0.00     0.031 C 
ENDBRANCH  11  12
BRANCH  11  15
ATOM     15  C   UNL A   1      31.685  25.513  26.578  1.00  0.00     0.237 C 
BRANCH  15  16
ATOM     16  C   UNL A   1      30.341  25.020  26.042  1.00  0.00     0.406 C 
ATOM     17  F   UNL A   1      30.266  25.084  24.698  1.00  0.00    -0.169 F 
ATOM     18  F   UNL A   1      30.155  23.724  26.394  1.00  0.00    -0.169 F 
ATOM     19  F   UNL A   1      29.314  25.726  26.558  1.00  0.00    -0.169 F 
ENDBRANCH  15  16
ENDBRANCH  11  15
ENDBRANCH   9  11
ENDBRANCH   8   9
BRANCH   8  20
ATOM     20  C   UNL A   1      32.404  26.830  22.352  1.00  0.00     0.037 C 
ATOM     21  C   UNL A   1      31.160  27.724  22.610  1.00  0.00     0.034 C 
ATOM     22  C   UNL A   1      33.615  27.735  22.005  1.00  0.00     0.034 C 
ATOM     23  C   UNL A   1      32.114  26.036  21.061  1.00  0.00     0.034 C 
ENDBRANCH   8  20
ENDBRANCH   7   8
ENDBRANCH   5   7
ENDBRANCH   4   5
ENDBRANCH   3   4
ENDBRANCH   2   3
ENDBRANCH   1   2
BRANCH   1  24
ATOM     24  C   UNL A   1      38.973  22.549  26.590  1.00  0.00     0.188 C 
BRANCH  24  25
ATOM     25  C   UNL A   1      39.658  21.258  26.123  1.00  0.00     0.188 C 
BRANCH  25  26
ATOM     26  O   UNL A   1      40.795  20.842  26.868  1.00  0.00    -0.376 OA
BRANCH  26  27
ATOM     27  C   UNL A   1      41.832  20.193  26.136  1.00  0.00     0.202 C 
BRANCH  27  28
ATOM     28  C   UNL A   1      42.978  21.125  25.748  1.00  0.00     0.261 C 
BRANCH  28  29
ATOM     29  O   UNL A   1      42.436  22.358  25.232  1.00  0.00    -0.460 OA
BRANCH  29  30
ATOM     30  C   UNL A   1      43.262  23.419  25.339  1.00  0.00     0.338 C 
ATOM     31  O   UNL A   1      44.376  23.547  24.856  1.00  0.00    -0.246 OA
BRANCH  30  32
ATOM     32  C   UNL A   1      42.600  24.481  26.110  1.00  0.00     0.060 A 
ATOM     33  C   UNL A   1      42.793  25.814  25.745  1.00  0.00     0.016 A 
ATOM     34  C   UNL A   1      41.929  24.167  27.287  1.00  0.00     0.016 A 
ATOM     35  C   UNL A   1      42.405  26.845  26.599  1.00  0.00     0.010 A 
ATOM     36  C   UNL A   1      41.483  25.201  28.115  1.00  0.00     0.010 A 
ATOM     37  C   UNL A   1      41.762  26.548  27.806  1.00  0.00    -0.014 A 
BRANCH  37  38
ATOM     38  C   UNL A   1      41.492  27.600  28.824  1.00  0.00     0.031 A 
ATOM     39  C   UNL A   1      42.386  27.682  30.034  1.00  0.00     0.074 A 
ATOM     40  C   UNL A   1      40.477  28.474  28.696  1.00  0.00     0.049 A 
ATOM     41  N   UNL A   1      42.182  28.279  31.179  1.00  0.00    -0.248 NA
ATOM     42  C   UNL A   1      43.678  26.984  29.939  1.00  0.00     0.031 C 
ATOM     43  C   UNL A   1      39.594  28.596  27.538  1.00  0.00     0.029 A 
ATOM     44  N   UNL A   1      40.013  29.426  29.573  1.00  0.00    -0.354 N 
ATOM     45  C   UNL A   1      43.281  27.961  31.968  1.00  0.00     0.074 A 
ATOM     46  C   UNL A   1      44.162  27.144  31.163  1.00  0.00     0.031 C 
ATOM     47  C   UNL A   1      38.700  29.571  27.771  1.00  0.00     0.029 A 
ATOM     48  C   UNL A   1      38.889  30.078  29.127  1.00  0.00     0.049 A 
ATOM     49  H   UNL A   1      40.445  29.621  30.436  1.00  0.00     0.167 HD
ATOM     50  C   UNL A   1      43.519  28.305  33.255  1.00  0.00     0.037 A 
ATOM     51  C   UNL A   1      38.069  30.937  29.762  1.00  0.00     0.037 A 
ATOM     52  C   UNL A   1      42.674  29.174  34.030  1.00  0.00     0.049 A 
ATOM     53  C   UNL A   1      38.322  31.271  31.208  1.00  0.00     0.074 A 
ATOM     54  C   UNL A   1      42.826  29.584  35.343  1.00  0.00     0.029 A 
ATOM     55  N   UNL A   1      41.529  29.788  33.547  1.00  0.00    -0.354 N 
ATOM     56  N   UNL A   1      39.301  30.881  31.987  1.00  0.00    -0.248 NA
ATOM     57  C   UNL A   1      37.333  32.134  31.871  1.00  0.00     0.031 C 
ATOM     58  C   UNL A   1      41.757  30.430  35.662  1.00  0.00     0.029 A 
ATOM     59  C   UNL A   1      40.960  30.568  34.537  1.00  0.00     0.049 A 
ATOM     60  H   UNL A   1      41.175  29.684  32.635  1.00  0.00     0.167 HD
ATOM     61  C   UNL A   1      39.053  31.458  33.226  1.00  0.00     0.074 A 
ATOM     62  C   UNL A   1      37.840  32.237  33.091  1.00  0.00     0.031 C 
ATOM     63  C   UNL A   1      39.760  31.347  34.377  1.00  0.00     0.037 A 
BRANCH  50  64
ATOM     64  C   UNL A   1      44.713  27.696  33.924  1.00  0.00     0.057 A 
ATOM     65  C   UNL A   1      45.959  28.330  33.958  1.00  0.00     0.134 A 
ATOM     66  C   UNL A   1      44.597  26.457  34.571  1.00  0.00     0.134 A 
ATOM     67  F   UNL A   1      46.138  29.508  33.342  1.00  0.00    -0.206 F 
ATOM     68  C   UNL A   1      47.055  27.747  34.598  1.00  0.00     0.040 A 
ATOM     69  C   UNL A   1      45.680  25.874  35.231  1.00  0.00     0.040 A 
ATOM     70  F   UNL A   1      43.429  25.799  34.575  1.00  0.00    -0.206 F 
ATOM     71  C   UNL A   1      46.914  26.518  35.243  1.00  0.00     0.006 A 
ENDBRANCH  50  64
BRANCH  51  72
ATOM     72  C   UNL A   1      36.883  31.492  29.062  1.00  0.00     0.057 A 
ATOM     73  C   UNL A   1      36.874  32.810  28.592  1.00  0.00     0.134 A 
ATOM     74  C   UNL A   1      35.726  30.729  28.865  1.00  0.00     0.134 A 
ATOM     75  F   UNL A   1      37.942  33.600  28.779  1.00  0.00    -0.206 F 
ATOM     76  C   UNL A   1      35.754  33.352  27.958  1.00  0.00     0.040 A 
ATOM     77  C   UNL A   1      34.608  31.249  28.210  1.00  0.00     0.040 A 
ATOM     78  F   UNL A   1      35.669  29.461  29.297  1.00  0.00    -0.206 F 
ATOM     79  C   UNL A   1      34.619  32.568  27.760  1.00  0.00     0.006 A 
ENDBRANCH  51  72
BRANCH  63  80
ATOM     80  C   UNL A   1      39.259  32.108  35.565  1.00  0.00     0.057 A 
ATOM     81  C   UNL A   1      39.626  33.440  35.789  1.00  0.00     0.134 A 
ATOM     82  C   UNL A   1      38.371  31.515  36.469  1.00  0.00     0.134 A 
ATOM     83  F   UNL A   1      40.485  34.058  34.963  1.00  0.00    -0.206 F 
ATOM     84  C   UNL A   1      39.134  34.155  36.883  1.00  0.00     0.040 A 
ATOM     85  C   UNL A   1      37.859  32.224  37.557  1.00  0.00     0.040 A 
ATOM     86  F   UNL A   1      37.978  30.243  36.303  1.00  0.00    -0.206 F 
ATOM     87  C   UNL A   1      38.243  33.547  37.767  1.00  0.00     0.006 A 
ENDBRANCH  63  80
ENDBRANCH  37  38
ENDBRANCH  30  32
ENDBRANCH  29  30
ENDBRANCH  28  29
ENDBRANCH  27  28
ENDBRANCH  26  27
ENDBRANCH  25  26
ENDBRANCH  24  25
ENDBRANCH   1  24
TORSDOF 24
ENDMDL
