MODEL 1
REMARK VINA RESULT:     -11.3      0.000      0.000
REMARK SMILES Cc1c(Cl)cccc1NC(=O)C[C@](C)(C(=O)OCCOCCOCCOC(=O)c1ccc(-c2c3nc(c(-c4c(F)cccc4F)c4ccc([nH]4)c(-c4c(F)cccc4F)c4nc(c(-c5c(F)cccc5F)c5ccc2[nH]5)C=C4)C=C3)cc1)c1ccccc1
REMARK SMILES IDX 21 1 20 2 19 3 18 4 17 5 15 6 16 7 13 8 14 9 12 10 10 11
REMARK SMILES IDX 9 12 11 14 8 15 1 16 2 17 3 18 4 19 5 20 7 21 6 22 83 23
REMARK SMILES IDX 84 24 88 25 85 26 87 27 86 28 22 29 23 30 24 31 25 32 26 33
REMARK SMILES IDX 27 34 28 35 29 36 30 37 82 38 31 39 81 40 32 41 33 42 34 43
REMARK SMILES IDX 75 44 35 45 80 46 74 47 76 48 36 49 79 50 73 51 72 52 37 54
REMARK SMILES IDX 63 55 46 56 62 57 47 58 50 59 61 60 77 61 48 62 49 63 60 65
REMARK SMILES IDX 78 66 51 67 38 68 39 69 44 70 40 71 41 72 43 73 45 74 42 75
REMARK SMILES IDX 64 76 65 77 70 78 66 79 67 80 69 81 71 82 68 83 52 84 53 85
REMARK SMILES IDX 58 86 54 87 55 88 57 89 59 90 56 91
REMARK H PARENT 9 13 76 53 50 64
REMARK Flexibility Score: inf
ROOT
ATOM      1  C   UNL A   1      38.366  21.459  25.358  1.00  0.00     0.188 C 
ENDROOT
BRANCH   1   2
ATOM      2  O   UNL A   1      37.583  20.271  25.327  1.00  0.00    -0.376 OA
BRANCH   2   3
ATOM      3  C   UNL A   1      36.193  20.391  25.034  1.00  0.00     0.202 C 
BRANCH   3   4
ATOM      4  C   UNL A   1      35.398  21.429  25.831  1.00  0.00     0.261 C 
BRANCH   4   5
ATOM      5  O   UNL A   1      34.088  21.726  25.297  1.00  0.00    -0.463 OA
BRANCH   5   6
ATOM      6  C   UNL A   1      34.046  22.711  24.363  1.00  0.00     0.316 C 
ATOM      7  O   UNL A   1      34.871  22.795  23.456  1.00  0.00    -0.251 OA
BRANCH   6   8
ATOM      8  C   UNL A   1      32.877  23.732  24.520  1.00  0.00     0.099 C 
ATOM      9  C   UNL A   1      31.471  23.243  24.073  1.00  0.00     0.029 C 
BRANCH   8  10
ATOM     10  C   UNL A   1      32.786  24.082  26.043  1.00  0.00     0.123 C 
BRANCH  10  11
ATOM     11  C   UNL A   1      31.412  24.304  26.678  1.00  0.00     0.225 C 
ATOM     12  N   UNL A   1      30.647  25.424  26.533  1.00  0.00    -0.326 N 
ATOM     13  H   UNL A   1      29.732  25.301  26.873  1.00  0.00     0.169 HD
ATOM     14  O   UNL A   1      30.922  23.397  27.364  1.00  0.00    -0.275 OA
BRANCH  12  15
ATOM     15  C   UNL A   1      30.859  26.715  26.012  1.00  0.00     0.045 A 
ATOM     16  C   UNL A   1      29.369  26.166  23.984  1.00  0.00     0.048 C 
ATOM     17  C   UNL A   1      30.290  27.077  24.762  1.00  0.00    -0.009 A 
ATOM     18  C   UNL A   1      30.604  28.345  24.220  1.00  0.00     0.046 A 
ATOM     19  Cl  UNL A   1      30.010  28.855  22.673  1.00  0.00    -0.084 Cl
ATOM     20  C   UNL A   1      31.420  29.242  24.905  1.00  0.00     0.021 A 
ATOM     21  C   UNL A   1      31.594  27.667  26.721  1.00  0.00     0.026 A 
ATOM     22  C   UNL A   1      31.892  28.915  26.167  1.00  0.00     0.004 A 
ENDBRANCH  12  15
ENDBRANCH  10  11
ENDBRANCH   8  10
BRANCH   8  23
ATOM     23  C   UNL A   1      33.130  25.004  23.636  1.00  0.00    -0.030 A 
ATOM     24  C   UNL A   1      33.867  26.097  24.141  1.00  0.00     0.005 A 
ATOM     25  C   UNL A   1      32.551  25.163  22.362  1.00  0.00     0.005 A 
ATOM     26  C   UNL A   1      33.982  27.295  23.425  1.00  0.00     0.000 A 
ATOM     27  C   UNL A   1      32.690  26.353  21.637  1.00  0.00     0.000 A 
ATOM     28  C   UNL A   1      33.391  27.425  22.174  1.00  0.00     0.000 A 
ENDBRANCH   8  23
ENDBRANCH   6   8
ENDBRANCH   5   6
ENDBRANCH   4   5
ENDBRANCH   3   4
ENDBRANCH   2   3
ENDBRANCH   1   2
BRANCH   1  29
ATOM     29  C   UNL A   1      39.664  21.449  26.180  1.00  0.00     0.188 C 
BRANCH  29  30
ATOM     30  O   UNL A   1      40.380  20.236  26.134  1.00  0.00    -0.376 OA
BRANCH  30  31
ATOM     31  C   UNL A   1      41.670  20.209  26.710  1.00  0.00     0.202 C 
BRANCH  31  32
ATOM     32  C   UNL A   1      42.835  20.868  25.952  1.00  0.00     0.261 C 
BRANCH  32  33
ATOM     33  O   UNL A   1      43.356  22.088  26.503  1.00  0.00    -0.460 OA
BRANCH  33  34
ATOM     34  C   UNL A   1      43.283  23.215  25.759  1.00  0.00     0.338 C 
ATOM     35  O   UNL A   1      43.336  23.298  24.544  1.00  0.00    -0.246 OA
BRANCH  34  36
ATOM     36  C   UNL A   1      42.854  24.303  26.675  1.00  0.00     0.060 A 
ATOM     37  C   UNL A   1      43.456  25.566  26.569  1.00  0.00     0.016 A 
ATOM     38  C   UNL A   1      41.783  24.106  27.551  1.00  0.00     0.016 A 
ATOM     39  C   UNL A   1      42.982  26.637  27.335  1.00  0.00     0.010 A 
ATOM     40  C   UNL A   1      41.333  25.167  28.339  1.00  0.00     0.010 A 
ATOM     41  C   UNL A   1      41.939  26.432  28.248  1.00  0.00    -0.014 A 
BRANCH  41  42
ATOM     42  C   UNL A   1      41.600  27.462  29.259  1.00  0.00     0.031 A 
ATOM     43  C   UNL A   1      42.399  27.484  30.530  1.00  0.00     0.074 A 
ATOM     44  C   UNL A   1      40.583  28.323  29.085  1.00  0.00     0.049 A 
ATOM     45  N   UNL A   1      42.211  28.181  31.620  1.00  0.00    -0.248 NA
ATOM     46  C   UNL A   1      43.563  26.585  30.577  1.00  0.00     0.031 C 
ATOM     47  C   UNL A   1      39.760  28.432  27.886  1.00  0.00     0.029 A 
ATOM     48  N   UNL A   1      40.062  29.264  29.939  1.00  0.00    -0.354 N 
ATOM     49  C   UNL A   1      43.225  27.794  32.488  1.00  0.00     0.074 A 
ATOM     50  C   UNL A   1      44.013  26.791  31.804  1.00  0.00     0.031 C 
ATOM     51  C   UNL A   1      38.835  29.390  28.077  1.00  0.00     0.029 A 
ATOM     52  C   UNL A   1      38.968  29.923  29.433  1.00  0.00     0.049 A 
ATOM     53  H   UNL A   1      40.437  29.449  30.831  1.00  0.00     0.167 HD
ATOM     54  C   UNL A   1      43.474  28.230  33.744  1.00  0.00     0.037 A 
ATOM     55  C   UNL A   1      38.152  30.827  30.012  1.00  0.00     0.037 A 
ATOM     56  C   UNL A   1      42.673  29.204  34.433  1.00  0.00     0.049 A 
ATOM     57  C   UNL A   1      38.382  31.214  31.452  1.00  0.00     0.074 A 
ATOM     58  C   UNL A   1      42.837  29.709  35.711  1.00  0.00     0.029 A 
ATOM     59  N   UNL A   1      41.542  29.809  33.905  1.00  0.00    -0.354 N 
ATOM     60  N   UNL A   1      39.345  30.852  32.265  1.00  0.00    -0.248 NA
ATOM     61  C   UNL A   1      37.394  32.118  32.062  1.00  0.00     0.031 C 
ATOM     62  C   UNL A   1      41.777  30.582  35.974  1.00  0.00     0.029 A 
ATOM     63  C   UNL A   1      40.980  30.659  34.842  1.00  0.00     0.049 A 
ATOM     64  H   UNL A   1      41.192  29.656  32.998  1.00  0.00     0.167 HD
ATOM     65  C   UNL A   1      39.090  31.496  33.472  1.00  0.00     0.074 A 
ATOM     66  C   UNL A   1      37.890  32.283  33.281  1.00  0.00     0.031 C 
ATOM     67  C   UNL A   1      39.787  31.439  34.633  1.00  0.00     0.037 A 
BRANCH  54  68
ATOM     68  C   UNL A   1      44.636  27.610  34.458  1.00  0.00     0.057 A 
ATOM     69  C   UNL A   1      45.913  28.187  34.434  1.00  0.00     0.134 A 
ATOM     70  C   UNL A   1      44.482  26.411  35.166  1.00  0.00     0.134 A 
ATOM     71  F   UNL A   1      46.132  29.323  33.754  1.00  0.00    -0.206 F 
ATOM     72  C   UNL A   1      47.001  27.577  35.060  1.00  0.00     0.040 A 
ATOM     73  C   UNL A   1      45.556  25.806  35.819  1.00  0.00     0.040 A 
ATOM     74  F   UNL A   1      43.286  25.806  35.227  1.00  0.00    -0.206 F 
ATOM     75  C   UNL A   1      46.823  26.385  35.758  1.00  0.00     0.006 A 
ENDBRANCH  54  68
BRANCH  55  76
ATOM     76  C   UNL A   1      37.020  31.416  29.252  1.00  0.00     0.057 A 
ATOM     77  C   UNL A   1      35.862  30.673  28.997  1.00  0.00     0.134 A 
ATOM     78  C   UNL A   1      37.076  32.716  28.734  1.00  0.00     0.134 A 
ATOM     79  F   UNL A   1      35.761  29.410  29.438  1.00  0.00    -0.206 F 
ATOM     80  C   UNL A   1      34.805  31.195  28.249  1.00  0.00     0.040 A 
ATOM     81  C   UNL A   1      36.017  33.260  28.006  1.00  0.00     0.040 A 
ATOM     82  F   UNL A   1      38.161  33.478  28.934  1.00  0.00    -0.206 F 
ATOM     83  C   UNL A   1      34.879  32.496  27.756  1.00  0.00     0.006 A 
ENDBRANCH  55  76
BRANCH  67  84
ATOM     84  C   UNL A   1      39.288  32.265  35.784  1.00  0.00     0.057 A 
ATOM     85  C   UNL A   1      39.684  33.596  35.962  1.00  0.00     0.134 A 
ATOM     86  C   UNL A   1      38.349  31.742  36.682  1.00  0.00     0.134 A 
ATOM     87  F   UNL A   1      40.589  34.152  35.143  1.00  0.00    -0.206 F 
ATOM     88  C   UNL A   1      39.170  34.376  37.000  1.00  0.00     0.040 A 
ATOM     89  C   UNL A   1      37.809  32.519  37.709  1.00  0.00     0.040 A 
ATOM     90  F   UNL A   1      37.922  30.477  36.561  1.00  0.00    -0.206 F 
ATOM     91  C   UNL A   1      38.222  33.840  37.871  1.00  0.00     0.006 A 
ENDBRANCH  67  84
ENDBRANCH  41  42
ENDBRANCH  34  36
ENDBRANCH  33  34
ENDBRANCH  32  33
ENDBRANCH  31  32
ENDBRANCH  30  31
ENDBRANCH  29  30
ENDBRANCH   1  29
TORSDOF 21
ENDMDL
MODEL 2
REMARK VINA RESULT:     -10.7      1.448      6.192
REMARK SMILES Cc1c(Cl)cccc1NC(=O)C[C@](C)(C(=O)OCCOCCOCCOC(=O)c1ccc(-c2c3nc(c(-c4c(F)cccc4F)c4ccc([nH]4)c(-c4c(F)cccc4F)c4nc(c(-c5c(F)cccc5F)c5ccc2[nH]5)C=C4)C=C3)cc1)c1ccccc1
REMARK SMILES IDX 21 1 20 2 19 3 18 4 17 5 15 6 16 7 13 8 14 9 12 10 10 11
REMARK SMILES IDX 9 12 11 14 8 15 1 16 2 17 3 18 4 19 5 20 7 21 6 22 83 23
REMARK SMILES IDX 84 24 88 25 85 26 87 27 86 28 22 29 23 30 24 31 25 32 26 33
REMARK SMILES IDX 27 34 28 35 29 36 30 37 82 38 31 39 81 40 32 41 33 42 34 43
REMARK SMILES IDX 75 44 35 45 80 46 74 47 76 48 36 49 79 50 73 51 72 52 37 54
REMARK SMILES IDX 63 55 46 56 62 57 47 58 50 59 61 60 77 61 48 62 49 63 60 65
REMARK SMILES IDX 78 66 51 67 38 68 39 69 44 70 40 71 41 72 43 73 45 74 42 75
REMARK SMILES IDX 64 76 65 77 70 78 66 79 67 80 69 81 71 82 68 83 52 84 53 85
REMARK SMILES IDX 58 86 54 87 55 88 57 89 59 90 56 91
REMARK H PARENT 9 13 76 53 50 64
REMARK Flexibility Score: inf
ROOT
ATOM      1  C   UNL A   1      39.042  22.023  26.091  1.00  0.00     0.188 C 
ENDROOT
BRANCH   1   2
ATOM      2  O   UNL A   1      37.768  21.533  25.687  1.00  0.00    -0.376 OA
BRANCH   2   3
ATOM      3  C   UNL A   1      37.377  21.721  24.329  1.00  0.00     0.202 C 
BRANCH   3   4
ATOM      4  C   UNL A   1      36.337  22.808  24.045  1.00  0.00     0.261 C 
BRANCH   4   5
ATOM      5  O   UNL A   1      34.967  22.346  24.039  1.00  0.00    -0.463 OA
BRANCH   5   6
ATOM      6  C   UNL A   1      34.262  22.586  25.175  1.00  0.00     0.316 C 
ATOM      7  O   UNL A   1      34.639  22.199  26.279  1.00  0.00    -0.251 OA
BRANCH   6   8
ATOM      8  C   UNL A   1      32.940  23.390  24.984  1.00  0.00     0.099 C 
ATOM      9  C   UNL A   1      31.727  22.598  24.421  1.00  0.00     0.029 C 
BRANCH   8  10
ATOM     10  C   UNL A   1      32.530  23.928  26.396  1.00  0.00     0.123 C 
BRANCH  10  11
ATOM     11  C   UNL A   1      31.050  24.158  26.709  1.00  0.00     0.225 C 
ATOM     12  N   UNL A   1      30.338  25.273  26.378  1.00  0.00    -0.326 N 
ATOM     13  H   UNL A   1      29.370  25.153  26.509  1.00  0.00     0.169 HD
ATOM     14  O   UNL A   1      30.419  23.262  27.286  1.00  0.00    -0.275 OA
BRANCH  12  15
ATOM     15  C   UNL A   1      30.661  26.554  25.892  1.00  0.00     0.045 A 
ATOM     16  C   UNL A   1      29.341  26.095  23.729  1.00  0.00     0.048 C 
ATOM     17  C   UNL A   1      30.230  26.952  24.600  1.00  0.00    -0.009 A 
ATOM     18  C   UNL A   1      30.656  28.207  24.103  1.00  0.00     0.046 A 
ATOM     19  Cl  UNL A   1      30.235  28.756  22.514  1.00  0.00    -0.084 Cl
ATOM     20  C   UNL A   1      31.448  29.057  24.870  1.00  0.00     0.021 A 
ATOM     21  C   UNL A   1      31.375  27.463  26.677  1.00  0.00     0.026 A 
ATOM     22  C   UNL A   1      31.784  28.698  26.167  1.00  0.00     0.004 A 
ENDBRANCH  12  15
ENDBRANCH  10  11
ENDBRANCH   8  10
BRANCH   8  23
ATOM     23  C   UNL A   1      33.142  24.551  23.947  1.00  0.00    -0.030 A 
ATOM     24  C   UNL A   1      33.810  25.739  24.317  1.00  0.00     0.005 A 
ATOM     25  C   UNL A   1      32.581  24.515  22.656  1.00  0.00     0.005 A 
ATOM     26  C   UNL A   1      33.875  26.840  23.454  1.00  0.00     0.000 A 
ATOM     27  C   UNL A   1      32.671  25.607  21.786  1.00  0.00     0.000 A 
ATOM     28  C   UNL A   1      33.303  26.776  22.190  1.00  0.00     0.000 A 
ENDBRANCH   8  23
ENDBRANCH   6   8
ENDBRANCH   5   6
ENDBRANCH   4   5
ENDBRANCH   3   4
ENDBRANCH   2   3
ENDBRANCH   1   2
BRANCH   1  29
ATOM     29  C   UNL A   1      40.192  21.014  26.236  1.00  0.00     0.188 C 
BRANCH  29  30
ATOM     30  O   UNL A   1      41.323  21.504  26.919  1.00  0.00    -0.376 OA
BRANCH  30  31
ATOM     31  C   UNL A   1      42.478  21.798  26.160  1.00  0.00     0.202 C 
BRANCH  31  32
ATOM     32  C   UNL A   1      42.832  23.270  25.889  1.00  0.00     0.261 C 
BRANCH  32  33
ATOM     33  O   UNL A   1      41.843  24.249  26.243  1.00  0.00    -0.460 OA
BRANCH  33  34
ATOM     34  C   UNL A   1      42.052  25.536  25.883  1.00  0.00     0.338 C 
ATOM     35  O   UNL A   1      42.273  25.960  24.762  1.00  0.00    -0.246 OA
BRANCH  34  36
ATOM     36  C   UNL A   1      41.692  26.369  27.059  1.00  0.00     0.060 A 
ATOM     37  C   UNL A   1      42.253  27.649  27.191  1.00  0.00     0.016 A 
ATOM     38  C   UNL A   1      40.716  25.935  27.960  1.00  0.00     0.016 A 
ATOM     39  C   UNL A   1      41.834  28.498  28.222  1.00  0.00     0.010 A 
ATOM     40  C   UNL A   1      40.323  26.770  29.008  1.00  0.00     0.010 A 
ATOM     41  C   UNL A   1      40.890  28.047  29.154  1.00  0.00    -0.014 A 
BRANCH  41  42
ATOM     42  C   UNL A   1      40.630  28.807  30.400  1.00  0.00     0.031 A 
ATOM     43  C   UNL A   1      39.548  29.848  30.371  1.00  0.00     0.074 A 
ATOM     44  C   UNL A   1      41.360  28.622  31.512  1.00  0.00     0.049 A 
ATOM     45  N   UNL A   1      39.223  30.738  31.272  1.00  0.00    -0.248 NA
ATOM     46  C   UNL A   1      38.727  29.893  29.150  1.00  0.00     0.031 C 
ATOM     47  C   UNL A   1      42.407  27.621  31.683  1.00  0.00     0.029 A 
ATOM     48  N   UNL A   1      41.335  29.292  32.712  1.00  0.00    -0.354 N 
ATOM     49  C   UNL A   1      38.172  31.459  30.721  1.00  0.00     0.074 A 
ATOM     50  C   UNL A   1      37.924  30.914  29.404  1.00  0.00     0.031 C 
ATOM     51  C   UNL A   1      42.926  27.738  32.918  1.00  0.00     0.029 A 
ATOM     52  C   UNL A   1      42.284  28.860  33.605  1.00  0.00     0.049 A 
ATOM     53  H   UNL A   1      40.697  30.015  32.912  1.00  0.00     0.167 HD
ATOM     54  C   UNL A   1      37.479  32.488  31.261  1.00  0.00     0.037 A 
ATOM     55  C   UNL A   1      42.615  29.337  34.822  1.00  0.00     0.037 A 
ATOM     56  C   UNL A   1      37.745  33.048  32.557  1.00  0.00     0.049 A 
ATOM     57  C   UNL A   1      41.903  30.555  35.356  1.00  0.00     0.074 A 
ATOM     58  C   UNL A   1      37.104  34.096  33.193  1.00  0.00     0.029 A 
ATOM     59  N   UNL A   1      38.750  32.615  33.410  1.00  0.00    -0.354 N 
ATOM     60  N   UNL A   1      40.906  31.229  34.835  1.00  0.00    -0.248 NA
ATOM     61  C   UNL A   1      42.384  31.095  36.638  1.00  0.00     0.031 C 
ATOM     62  C   UNL A   1      37.753  34.330  34.410  1.00  0.00     0.029 A 
ATOM     63  C   UNL A   1      38.767  33.395  34.554  1.00  0.00     0.049 A 
ATOM     64  H   UNL A   1      39.360  31.865  33.228  1.00  0.00     0.167 HD
ATOM     65  C   UNL A   1      40.627  32.256  35.731  1.00  0.00     0.074 A 
ATOM     66  C   UNL A   1      41.552  32.109  36.836  1.00  0.00     0.031 C 
ATOM     67  C   UNL A   1      39.691  33.233  35.646  1.00  0.00     0.037 A 
BRANCH  54  68
ATOM     68  C   UNL A   1      36.399  33.094  30.417  1.00  0.00     0.057 A 
ATOM     69  C   UNL A   1      36.687  33.981  29.371  1.00  0.00     0.134 A 
ATOM     70  C   UNL A   1      35.051  32.801  30.664  1.00  0.00     0.134 A 
ATOM     71  F   UNL A   1      37.956  34.320  29.099  1.00  0.00    -0.206 F 
ATOM     72  C   UNL A   1      35.672  34.580  28.623  1.00  0.00     0.040 A 
ATOM     73  C   UNL A   1      34.030  33.372  29.905  1.00  0.00     0.040 A 
ATOM     74  F   UNL A   1      34.707  31.961  31.652  1.00  0.00    -0.206 F 
ATOM     75  C   UNL A   1      34.339  34.273  28.887  1.00  0.00     0.006 A 
ENDBRANCH  54  68
BRANCH  55  76
ATOM     76  C   UNL A   1      43.687  28.689  35.620  1.00  0.00     0.057 A 
ATOM     77  C   UNL A   1      45.018  29.109  35.509  1.00  0.00     0.134 A 
ATOM     78  C   UNL A   1      43.421  27.619  36.483  1.00  0.00     0.134 A 
ATOM     79  F   UNL A   1      45.342  30.108  34.674  1.00  0.00    -0.206 F 
ATOM     80  C   UNL A   1      46.046  28.485  36.219  1.00  0.00     0.040 A 
ATOM     81  C   UNL A   1      44.435  27.002  37.218  1.00  0.00     0.040 A 
ATOM     82  F   UNL A   1      42.169  27.161  36.628  1.00  0.00    -0.206 F 
ATOM     83  C   UNL A   1      45.754  27.431  37.082  1.00  0.00     0.006 A 
ENDBRANCH  55  76
BRANCH  67  84
ATOM     84  C   UNL A   1      39.599  34.208  36.784  1.00  0.00     0.057 A 
ATOM     85  C   UNL A   1      40.179  35.480  36.714  1.00  0.00     0.134 A 
ATOM     86  C   UNL A   1      38.863  33.894  37.934  1.00  0.00     0.134 A 
ATOM     87  F   UNL A   1      40.907  35.839  35.646  1.00  0.00    -0.206 F 
ATOM     88  C   UNL A   1      40.039  36.403  37.753  1.00  0.00     0.040 A 
ATOM     89  C   UNL A   1      38.694  34.816  38.968  1.00  0.00     0.040 A 
ATOM     90  F   UNL A   1      38.274  32.695  38.059  1.00  0.00    -0.206 F 
ATOM     91  C   UNL A   1      39.286  36.074  38.880  1.00  0.00     0.006 A 
ENDBRANCH  67  84
ENDBRANCH  41  42
ENDBRANCH  34  36
ENDBRANCH  33  34
ENDBRANCH  32  33
ENDBRANCH  31  32
ENDBRANCH  30  31
ENDBRANCH  29  30
ENDBRANCH   1  29
TORSDOF 21
ENDMDL
MODEL 3
REMARK VINA RESULT:     -10.5      1.070      1.913
REMARK SMILES Cc1c(Cl)cccc1NC(=O)C[C@](C)(C(=O)OCCOCCOCCOC(=O)c1ccc(-c2c3nc(c(-c4c(F)cccc4F)c4ccc([nH]4)c(-c4c(F)cccc4F)c4nc(c(-c5c(F)cccc5F)c5ccc2[nH]5)C=C4)C=C3)cc1)c1ccccc1
REMARK SMILES IDX 21 1 20 2 19 3 18 4 17 5 15 6 16 7 13 8 14 9 12 10 10 11
REMARK SMILES IDX 9 12 11 14 8 15 1 16 2 17 3 18 4 19 5 20 7 21 6 22 83 23
REMARK SMILES IDX 84 24 88 25 85 26 87 27 86 28 22 29 23 30 24 31 25 32 26 33
REMARK SMILES IDX 27 34 28 35 29 36 30 37 82 38 31 39 81 40 32 41 33 42 34 43
REMARK SMILES IDX 75 44 35 45 80 46 74 47 76 48 36 49 79 50 73 51 72 52 37 54
REMARK SMILES IDX 63 55 46 56 62 57 47 58 50 59 61 60 77 61 48 62 49 63 60 65
REMARK SMILES IDX 78 66 51 67 38 68 39 69 44 70 40 71 41 72 43 73 45 74 42 75
REMARK SMILES IDX 64 76 65 77 70 78 66 79 67 80 69 81 71 82 68 83 52 84 53 85
REMARK SMILES IDX 58 86 54 87 55 88 57 89 59 90 56 91
REMARK H PARENT 9 13 76 53 50 64
REMARK Flexibility Score: inf
ROOT
ATOM      1  C   UNL A   1      39.967  21.494  26.520  1.00  0.00     0.188 C 
ENDROOT
BRANCH   1   2
ATOM      2  O   UNL A   1      38.655  21.796  26.057  1.00  0.00    -0.376 OA
BRANCH   2   3
ATOM      3  C   UNL A   1      38.068  20.927  25.092  1.00  0.00     0.202 C 
BRANCH   3   4
ATOM      4  C   UNL A   1      36.551  21.014  24.904  1.00  0.00     0.261 C 
BRANCH   4   5
ATOM      5  O   UNL A   1      36.022  22.359  24.872  1.00  0.00    -0.463 OA
BRANCH   5   6
ATOM      6  C   UNL A   1      35.580  22.787  23.661  1.00  0.00     0.316 C 
ATOM      7  O   UNL A   1      36.302  22.812  22.667  1.00  0.00    -0.251 OA
BRANCH   6   8
ATOM      8  C   UNL A   1      34.090  23.245  23.617  1.00  0.00     0.099 C 
ATOM      9  C   UNL A   1      33.242  22.719  22.426  1.00  0.00     0.029 C 
BRANCH   8  10
ATOM     10  C   UNL A   1      33.419  22.723  24.933  1.00  0.00     0.123 C 
BRANCH  10  11
ATOM     11  C   UNL A   1      31.950  22.297  24.904  1.00  0.00     0.225 C 
ATOM     12  N   UNL A   1      30.890  23.133  24.710  1.00  0.00    -0.326 N 
ATOM     13  H   UNL A   1      30.050  22.645  24.552  1.00  0.00     0.169 HD
ATOM     14  O   UNL A   1      31.677  21.097  25.041  1.00  0.00    -0.275 OA
BRANCH  12  15
ATOM     15  C   UNL A   1      30.714  24.530  24.681  1.00  0.00     0.045 A 
ATOM     16  C   UNL A   1      31.760  24.734  27.026  1.00  0.00     0.048 C 
ATOM     17  C   UNL A   1      31.084  25.314  25.805  1.00  0.00    -0.009 A 
ATOM     18  C   UNL A   1      30.802  26.700  25.783  1.00  0.00     0.046 A 
ATOM     19  Cl  UNL A   1      31.157  27.731  27.130  1.00  0.00    -0.084 Cl
ATOM     20  C   UNL A   1      30.211  27.300  24.674  1.00  0.00     0.021 A 
ATOM     21  C   UNL A   1      30.211  25.170  23.546  1.00  0.00     0.026 A 
ATOM     22  C   UNL A   1      29.941  26.541  23.545  1.00  0.00     0.004 A 
ENDBRANCH  12  15
ENDBRANCH  10  11
ENDBRANCH   8  10
BRANCH   8  23
ATOM     23  C   UNL A   1      33.994  24.805  23.486  1.00  0.00    -0.030 A 
ATOM     24  C   UNL A   1      34.258  25.640  24.593  1.00  0.00     0.005 A 
ATOM     25  C   UNL A   1      33.539  25.436  22.311  1.00  0.00     0.005 A 
ATOM     26  C   UNL A   1      34.040  27.022  24.537  1.00  0.00     0.000 A 
ATOM     27  C   UNL A   1      33.347  26.821  22.249  1.00  0.00     0.000 A 
ATOM     28  C   UNL A   1      33.581  27.613  23.366  1.00  0.00     0.000 A 
ENDBRANCH   8  23
ENDBRANCH   6   8
ENDBRANCH   5   6
ENDBRANCH   4   5
ENDBRANCH   3   4
ENDBRANCH   2   3
ENDBRANCH   1   2
BRANCH   1  29
ATOM     29  C   UNL A   1      40.463  20.046  26.392  1.00  0.00     0.188 C 
BRANCH  29  30
ATOM     30  O   UNL A   1      41.794  19.840  26.806  1.00  0.00    -0.376 OA
BRANCH  30  31
ATOM     31  C   UNL A   1      42.822  20.084  25.867  1.00  0.00     0.202 C 
BRANCH  31  32
ATOM     32  C   UNL A   1      43.595  21.411  25.942  1.00  0.00     0.261 C 
BRANCH  32  33
ATOM     33  O   UNL A   1      42.919  22.581  25.455  1.00  0.00    -0.460 OA
BRANCH  33  34
ATOM     34  C   UNL A   1      43.647  23.698  25.226  1.00  0.00     0.338 C 
ATOM     35  O   UNL A   1      44.392  23.910  24.285  1.00  0.00    -0.246 OA
BRANCH  34  36
ATOM     36  C   UNL A   1      43.163  24.723  26.186  1.00  0.00     0.060 A 
ATOM     37  C   UNL A   1      43.727  26.008  26.159  1.00  0.00     0.016 A 
ATOM     38  C   UNL A   1      42.079  24.450  27.024  1.00  0.00     0.016 A 
ATOM     39  C   UNL A   1      43.203  27.023  26.967  1.00  0.00     0.010 A 
ATOM     40  C   UNL A   1      41.579  25.455  27.854  1.00  0.00     0.010 A 
ATOM     41  C   UNL A   1      42.146  26.740  27.842  1.00  0.00    -0.014 A 
BRANCH  41  42
ATOM     42  C   UNL A   1      41.752  27.706  28.895  1.00  0.00     0.031 A 
ATOM     43  C   UNL A   1      42.553  27.721  30.166  1.00  0.00     0.074 A 
ATOM     44  C   UNL A   1      40.686  28.513  28.759  1.00  0.00     0.049 A 
ATOM     45  N   UNL A   1      42.330  28.361  31.284  1.00  0.00    -0.248 NA
ATOM     46  C   UNL A   1      43.768  26.890  30.173  1.00  0.00     0.031 C 
ATOM     47  C   UNL A   1      39.854  28.624  27.566  1.00  0.00     0.029 A 
ATOM     48  N   UNL A   1      40.115  29.387  29.652  1.00  0.00    -0.354 N 
ATOM     49  C   UNL A   1      43.367  27.997  32.133  1.00  0.00     0.074 A 
ATOM     50  C   UNL A   1      44.210  27.071  31.407  1.00  0.00     0.031 C 
ATOM     51  C   UNL A   1      38.876  29.519  27.799  1.00  0.00     0.029 A 
ATOM     52  C   UNL A   1      38.983  30.001  29.176  1.00  0.00     0.049 A 
ATOM     53  H   UNL A   1      40.482  29.556  30.550  1.00  0.00     0.167 HD
ATOM     54  C   UNL A   1      43.595  28.394  33.406  1.00  0.00     0.037 A 
ATOM     55  C   UNL A   1      38.119  30.832  29.793  1.00  0.00     0.037 A 
ATOM     56  C   UNL A   1      42.742  29.291  34.137  1.00  0.00     0.049 A 
ATOM     57  C   UNL A   1      38.332  31.172  31.248  1.00  0.00     0.074 A 
ATOM     58  C   UNL A   1      42.882  29.751  35.434  1.00  0.00     0.029 A 
ATOM     59  N   UNL A   1      41.577  29.851  33.635  1.00  0.00    -0.354 N 
ATOM     60  N   UNL A   1      39.317  30.832  32.044  1.00  0.00    -0.248 NA
ATOM     61  C   UNL A   1      37.295  31.991  31.896  1.00  0.00     0.031 C 
ATOM     62  C   UNL A   1      41.774  30.550  35.735  1.00  0.00     0.029 A 
ATOM     63  C   UNL A   1      40.970  30.627  34.608  1.00  0.00     0.049 A 
ATOM     64  H   UNL A   1      41.233  29.716  32.724  1.00  0.00     0.167 HD
ATOM     65  C   UNL A   1      39.030  31.410  33.276  1.00  0.00     0.074 A 
ATOM     66  C   UNL A   1      37.786  32.134  33.120  1.00  0.00     0.031 C 
ATOM     67  C   UNL A   1      39.733  31.345  34.434  1.00  0.00     0.037 A 
BRANCH  54  68
ATOM     68  C   UNL A   1      44.794  27.814  34.093  1.00  0.00     0.057 A 
ATOM     69  C   UNL A   1      46.053  28.427  34.030  1.00  0.00     0.134 A 
ATOM     70  C   UNL A   1      44.694  26.615  34.811  1.00  0.00     0.134 A 
ATOM     71  F   UNL A   1      46.220  29.564  33.337  1.00  0.00    -0.206 F 
ATOM     72  C   UNL A   1      47.174  27.853  34.630  1.00  0.00     0.040 A 
ATOM     73  C   UNL A   1      45.802  26.047  35.439  1.00  0.00     0.040 A 
ATOM     74  F   UNL A   1      43.519  25.976  34.909  1.00  0.00    -0.206 F 
ATOM     75  C   UNL A   1      47.050  26.661  35.340  1.00  0.00     0.006 A 
ENDBRANCH  54  68
BRANCH  55  76
ATOM     76  C   UNL A   1      36.952  31.386  29.060  1.00  0.00     0.057 A 
ATOM     77  C   UNL A   1      36.937  32.721  28.638  1.00  0.00     0.134 A 
ATOM     78  C   UNL A   1      35.815  30.615  28.789  1.00  0.00     0.134 A 
ATOM     79  F   UNL A   1      37.984  33.521  28.896  1.00  0.00    -0.206 F 
ATOM     80  C   UNL A   1      35.834  33.272  27.984  1.00  0.00     0.040 A 
ATOM     81  C   UNL A   1      34.715  31.145  28.114  1.00  0.00     0.040 A 
ATOM     82  F   UNL A   1      35.761  29.332  29.174  1.00  0.00    -0.206 F 
ATOM     83  C   UNL A   1      34.719  32.480  27.714  1.00  0.00     0.006 A 
ENDBRANCH  55  76
BRANCH  67  84
ATOM     84  C   UNL A   1      39.192  32.093  35.618  1.00  0.00     0.057 A 
ATOM     85  C   UNL A   1      38.329  31.489  36.540  1.00  0.00     0.134 A 
ATOM     86  C   UNL A   1      39.596  33.410  35.874  1.00  0.00     0.134 A 
ATOM     87  F   UNL A   1      37.895  30.235  36.346  1.00  0.00    -0.206 F 
ATOM     88  C   UNL A   1      37.877  32.173  37.671  1.00  0.00     0.040 A 
ATOM     89  C   UNL A   1      39.171  34.095  37.014  1.00  0.00     0.040 A 
ATOM     90  F   UNL A   1      40.430  34.042  35.035  1.00  0.00    -0.206 F 
ATOM     91  C   UNL A   1      38.307  33.477  37.914  1.00  0.00     0.006 A 
ENDBRANCH  67  84
ENDBRANCH  41  42
ENDBRANCH  34  36
ENDBRANCH  33  34
ENDBRANCH  32  33
ENDBRANCH  31  32
ENDBRANCH  30  31
ENDBRANCH  29  30
ENDBRANCH   1  29
TORSDOF 21
ENDMDL
