MODEL 1
REMARK VINA RESULT:     -10.2      0.000      0.000
REMARK SMILES C[C@H](Cc1ccc(C2CC2)cc1)C(=O)OCCOCCOCCOC(=O)c1ccc(-c2c3nc(c(-c4c(F)cccc4F)c4ccc([nH]4)c(-c4c(F)cccc4F)c4nc(c(-c5c(F)cccc5F)c5ccc2[nH]5)C=C4)C=C3)cc1
REMARK SMILES IDX 19 1 18 2 17 3 16 4 15 5 13 6 14 7 2 8 1 9 3 10 4 11 5 12
REMARK SMILES IDX 12 13 6 14 11 15 7 16 8 17 9 18 10 19 20 20 21 21 22 22
REMARK SMILES IDX 23 23 24 24 25 25 26 26 27 27 28 28 80 29 29 30 79 31 30 32
REMARK SMILES IDX 31 33 32 34 73 35 33 36 78 37 72 38 74 39 34 40 77 41 71 42
REMARK SMILES IDX 70 43 35 45 61 46 44 47 60 48 45 49 48 50 59 51 75 52 46 53
REMARK SMILES IDX 47 54 58 56 76 57 49 58 36 59 37 60 42 61 38 62 39 63 41 64
REMARK SMILES IDX 43 65 40 66 62 67 63 68 68 69 64 70 65 71 67 72 69 73 66 74
REMARK SMILES IDX 50 75 51 76 56 77 52 78 53 79 55 80 57 81 54 82
REMARK H PARENT 74 44 48 55
REMARK Flexibility Score: inf
ROOT
ATOM      1  C   UNL A   1      34.036  31.681  27.950  1.00  0.00     0.188 C 
ENDROOT
BRANCH   1   2
ATOM      2  O   UNL A   1      33.494  30.871  26.913  1.00  0.00    -0.376 OA
BRANCH   2   3
ATOM      3  C   UNL A   1      32.922  29.614  27.259  1.00  0.00     0.202 C 
BRANCH   3   4
ATOM      4  C   UNL A   1      33.624  28.333  26.773  1.00  0.00     0.261 C 
BRANCH   4   5
ATOM      5  O   UNL A   1      33.803  28.225  25.343  1.00  0.00    -0.463 OA
BRANCH   5   6
ATOM      6  C   UNL A   1      33.363  27.091  24.750  1.00  0.00     0.309 C 
ATOM      7  O   UNL A   1      34.010  26.465  23.914  1.00  0.00    -0.252 OA
BRANCH   6   8
ATOM      8  C   UNL A   1      31.987  26.591  25.213  1.00  0.00     0.100 C 
ATOM      9  C   UNL A   1      32.173  25.192  25.816  1.00  0.00     0.020 C 
BRANCH   8  10
ATOM     10  C   UNL A   1      30.729  26.642  24.317  1.00  0.00     0.050 C 
BRANCH  10  11
ATOM     11  C   UNL A   1      30.097  27.942  23.891  1.00  0.00    -0.047 A 
ATOM     12  C   UNL A   1      28.924  28.013  23.147  1.00  0.00     0.004 A 
ATOM     13  C   UNL A   1      30.680  29.146  24.317  1.00  0.00     0.004 A 
ATOM     14  C   UNL A   1      28.357  29.250  22.830  1.00  0.00     0.004 A 
ATOM     15  C   UNL A   1      30.089  30.382  24.019  1.00  0.00     0.004 A 
ATOM     16  C   UNL A   1      28.900  30.464  23.283  1.00  0.00    -0.045 A 
BRANCH  16  17
ATOM     17  C   UNL A   1      28.143  31.746  23.016  1.00  0.00     0.019 C 
ATOM     18  C   UNL A   1      28.808  33.087  22.835  1.00  0.00     0.009 C 
ATOM     19  C   UNL A   1      28.194  32.392  21.654  1.00  0.00     0.009 C 
ENDBRANCH  16  17
ENDBRANCH  10  11
ENDBRANCH   8  10
ENDBRANCH   6   8
ENDBRANCH   5   6
ENDBRANCH   4   5
ENDBRANCH   3   4
ENDBRANCH   2   3
ENDBRANCH   1   2
BRANCH   1  20
ATOM     20  C   UNL A   1      33.661  33.171  28.003  1.00  0.00     0.188 C 
BRANCH  20  21
ATOM     21  O   UNL A   1      34.499  33.950  28.825  1.00  0.00    -0.376 OA
BRANCH  21  22
ATOM     22  C   UNL A   1      33.883  34.754  29.812  1.00  0.00     0.202 C 
BRANCH  22  23
ATOM     23  C   UNL A   1      34.477  34.606  31.221  1.00  0.00     0.261 C 
BRANCH  23  24
ATOM     24  O   UNL A   1      35.752  33.941  31.298  1.00  0.00    -0.460 OA
BRANCH  24  25
ATOM     25  C   UNL A   1      35.826  32.820  32.049  1.00  0.00     0.338 C 
ATOM     26  O   UNL A   1      35.036  32.459  32.909  1.00  0.00    -0.246 OA
BRANCH  25  27
ATOM     27  C   UNL A   1      36.891  31.965  31.472  1.00  0.00     0.060 A 
ATOM     28  C   UNL A   1      37.753  31.268  32.334  1.00  0.00     0.016 A 
ATOM     29  C   UNL A   1      37.017  31.822  30.089  1.00  0.00     0.016 A 
ATOM     30  C   UNL A   1      38.760  30.448  31.815  1.00  0.00     0.010 A 
ATOM     31  C   UNL A   1      38.040  31.024  29.571  1.00  0.00     0.010 A 
ATOM     32  C   UNL A   1      38.937  30.360  30.429  1.00  0.00    -0.014 A 
BRANCH  32  33
ATOM     33  C   UNL A   1      40.184  29.787  29.863  1.00  0.00     0.031 A 
ATOM     34  C   UNL A   1      41.356  30.713  29.677  1.00  0.00     0.074 A 
ATOM     35  C   UNL A   1      40.285  28.498  29.498  1.00  0.00     0.049 A 
ATOM     36  N   UNL A   1      42.498  30.506  29.074  1.00  0.00    -0.248 NA
ATOM     37  C   UNL A   1      41.207  32.064  30.241  1.00  0.00     0.031 C 
ATOM     38  C   UNL A   1      39.252  27.480  29.671  1.00  0.00     0.029 A 
ATOM     39  N   UNL A   1      41.314  27.832  28.876  1.00  0.00    -0.354 N 
ATOM     40  C   UNL A   1      43.192  31.706  29.166  1.00  0.00     0.074 A 
ATOM     41  C   UNL A   1      42.334  32.643  29.857  1.00  0.00     0.031 C 
ATOM     42  C   UNL A   1      39.689  26.322  29.145  1.00  0.00     0.029 A 
ATOM     43  C   UNL A   1      41.015  26.529  28.558  1.00  0.00     0.049 A 
ATOM     44  H   UNL A   1      42.183  28.249  28.676  1.00  0.00     0.167 HD
ATOM     45  C   UNL A   1      44.433  32.004  28.716  1.00  0.00     0.037 A 
ATOM     46  C   UNL A   1      41.715  25.624  27.847  1.00  0.00     0.037 A 
ATOM     47  C   UNL A   1      45.285  31.074  28.023  1.00  0.00     0.049 A 
ATOM     48  C   UNL A   1      43.062  26.000  27.278  1.00  0.00     0.074 A 
ATOM     49  C   UNL A   1      46.565  31.275  27.538  1.00  0.00     0.029 A 
ATOM     50  N   UNL A   1      44.936  29.770  27.705  1.00  0.00    -0.354 N 
ATOM     51  N   UNL A   1      43.718  27.131  27.378  1.00  0.00    -0.248 NA
ATOM     52  C   UNL A   1      43.765  24.971  26.497  1.00  0.00     0.031 C 
ATOM     53  C   UNL A   1      46.968  30.113  26.875  1.00  0.00     0.029 A 
ATOM     54  C   UNL A   1      45.967  29.164  27.006  1.00  0.00     0.049 A 
ATOM     55  H   UNL A   1      44.082  29.339  27.940  1.00  0.00     0.167 HD
ATOM     56  C   UNL A   1      44.922  26.936  26.709  1.00  0.00     0.074 A 
ATOM     57  C   UNL A   1      44.908  25.577  26.211  1.00  0.00     0.031 C 
ATOM     58  C   UNL A   1      45.950  27.804  26.528  1.00  0.00     0.037 A 
BRANCH  45  59
ATOM     59  C   UNL A   1      44.923  33.407  28.926  1.00  0.00     0.057 A 
ATOM     60  C   UNL A   1      44.688  34.426  27.992  1.00  0.00     0.134 A 
ATOM     61  C   UNL A   1      45.636  33.745  30.083  1.00  0.00     0.134 A 
ATOM     62  F   UNL A   1      44.029  34.166  26.853  1.00  0.00    -0.206 F 
ATOM     63  C   UNL A   1      45.172  35.721  28.188  1.00  0.00     0.040 A 
ATOM     64  C   UNL A   1      46.095  35.044  30.305  1.00  0.00     0.040 A 
ATOM     65  F   UNL A   1      45.894  32.820  31.020  1.00  0.00    -0.206 F 
ATOM     66  C   UNL A   1      45.872  36.034  29.352  1.00  0.00     0.006 A 
ENDBRANCH  45  59
BRANCH  46  67
ATOM     67  C   UNL A   1      41.152  24.269  27.605  1.00  0.00     0.057 A 
ATOM     68  C   UNL A   1      41.644  23.148  28.283  1.00  0.00     0.134 A 
ATOM     69  C   UNL A   1      40.130  24.058  26.672  1.00  0.00     0.134 A 
ATOM     70  F   UNL A   1      42.643  23.278  29.167  1.00  0.00    -0.206 F 
ATOM     71  C   UNL A   1      41.150  21.865  28.032  1.00  0.00     0.040 A 
ATOM     72  C   UNL A   1      39.607  22.786  26.431  1.00  0.00     0.040 A 
ATOM     73  F   UNL A   1      39.617  25.089  25.982  1.00  0.00    -0.206 F 
ATOM     74  C   UNL A   1      40.124  21.683  27.109  1.00  0.00     0.006 A 
ENDBRANCH  46  67
BRANCH  58  75
ATOM     75  C   UNL A   1      47.174  27.301  25.815  1.00  0.00     0.057 A 
ATOM     76  C   UNL A   1      47.372  27.490  24.442  1.00  0.00     0.134 A 
ATOM     77  C   UNL A   1      48.200  26.667  26.533  1.00  0.00     0.134 A 
ATOM     78  F   UNL A   1      46.429  28.080  23.693  1.00  0.00    -0.206 F 
ATOM     79  C   UNL A   1      48.534  27.047  23.805  1.00  0.00     0.040 A 
ATOM     80  C   UNL A   1      49.377  26.249  25.913  1.00  0.00     0.040 A 
ATOM     81  F   UNL A   1      48.082  26.466  27.854  1.00  0.00    -0.206 F 
ATOM     82  C   UNL A   1      49.544  26.433  24.543  1.00  0.00     0.006 A 
ENDBRANCH  58  75
ENDBRANCH  32  33
ENDBRANCH  25  27
ENDBRANCH  24  25
ENDBRANCH  23  24
ENDBRANCH  22  23
ENDBRANCH  21  22
ENDBRANCH  20  21
ENDBRANCH   1  20
TORSDOF 20
ENDMDL
MODEL 2
REMARK VINA RESULT:     -10.2      4.959      9.815
REMARK SMILES C[C@H](Cc1ccc(C2CC2)cc1)C(=O)OCCOCCOCCOC(=O)c1ccc(-c2c3nc(c(-c4c(F)cccc4F)c4ccc([nH]4)c(-c4c(F)cccc4F)c4nc(c(-c5c(F)cccc5F)c5ccc2[nH]5)C=C4)C=C3)cc1
REMARK SMILES IDX 19 1 18 2 17 3 16 4 15 5 13 6 14 7 2 8 1 9 3 10 4 11 5 12
REMARK SMILES IDX 12 13 6 14 11 15 7 16 8 17 9 18 10 19 20 20 21 21 22 22
REMARK SMILES IDX 23 23 24 24 25 25 26 26 27 27 28 28 80 29 29 30 79 31 30 32
REMARK SMILES IDX 31 33 32 34 73 35 33 36 78 37 72 38 74 39 34 40 77 41 71 42
REMARK SMILES IDX 70 43 35 45 61 46 44 47 60 48 45 49 48 50 59 51 75 52 46 53
REMARK SMILES IDX 47 54 58 56 76 57 49 58 36 59 37 60 42 61 38 62 39 63 41 64
REMARK SMILES IDX 43 65 40 66 62 67 63 68 68 69 64 70 65 71 67 72 69 73 66 74
REMARK SMILES IDX 50 75 51 76 56 77 52 78 53 79 55 80 57 81 54 82
REMARK H PARENT 74 44 48 55
REMARK Flexibility Score: inf
ROOT
ATOM      1  C   UNL A   1      39.204  21.753  26.253  1.00  0.00     0.188 C 
ENDROOT
BRANCH   1   2
ATOM      2  O   UNL A   1      38.581  20.929  25.274  1.00  0.00    -0.376 OA
BRANCH   2   3
ATOM      3  C   UNL A   1      37.439  21.431  24.589  1.00  0.00     0.202 C 
BRANCH   3   4
ATOM      4  C   UNL A   1      36.048  21.160  25.190  1.00  0.00     0.261 C 
BRANCH   4   5
ATOM      5  O   UNL A   1      35.005  22.076  24.786  1.00  0.00    -0.463 OA
BRANCH   5   6
ATOM      6  C   UNL A   1      33.775  21.555  24.569  1.00  0.00     0.309 C 
ATOM      7  O   UNL A   1      33.386  20.502  25.068  1.00  0.00    -0.252 OA
BRANCH   6   8
ATOM      8  C   UNL A   1      32.850  22.388  23.671  1.00  0.00     0.100 C 
ATOM      9  C   UNL A   1      32.294  21.462  22.581  1.00  0.00     0.020 C 
BRANCH   8  10
ATOM     10  C   UNL A   1      33.263  23.753  23.076  1.00  0.00     0.050 C 
BRANCH  10  11
ATOM     11  C   UNL A   1      33.219  25.026  23.881  1.00  0.00    -0.047 A 
ATOM     12  C   UNL A   1      32.334  26.066  23.618  1.00  0.00     0.004 A 
ATOM     13  C   UNL A   1      34.068  25.150  24.993  1.00  0.00     0.004 A 
ATOM     14  C   UNL A   1      32.305  27.200  24.435  1.00  0.00     0.004 A 
ATOM     15  C   UNL A   1      34.012  26.278  25.824  1.00  0.00     0.004 A 
ATOM     16  C   UNL A   1      33.114  27.324  25.577  1.00  0.00    -0.045 A 
BRANCH  16  17
ATOM     17  C   UNL A   1      32.916  28.517  26.485  1.00  0.00     0.019 C 
ATOM     18  C   UNL A   1      31.767  29.484  26.357  1.00  0.00     0.009 C 
ATOM     19  C   UNL A   1      31.807  28.521  27.508  1.00  0.00     0.009 C 
ENDBRANCH  16  17
ENDBRANCH  10  11
ENDBRANCH   8  10
ENDBRANCH   6   8
ENDBRANCH   5   6
ENDBRANCH   4   5
ENDBRANCH   3   4
ENDBRANCH   2   3
ENDBRANCH   1   2
BRANCH   1  20
ATOM     20  C   UNL A   1      40.450  21.227  26.984  1.00  0.00     0.188 C 
BRANCH  20  21
ATOM     21  O   UNL A   1      41.318  20.466  26.175  1.00  0.00    -0.376 OA
BRANCH  21  22
ATOM     22  C   UNL A   1      42.705  20.566  26.430  1.00  0.00     0.202 C 
BRANCH  22  23
ATOM     23  C   UNL A   1      43.490  21.381  25.391  1.00  0.00     0.261 C 
BRANCH  23  24
ATOM     24  O   UNL A   1      42.897  22.634  25.000  1.00  0.00    -0.460 OA
BRANCH  24  25
ATOM     25  C   UNL A   1      43.691  23.728  25.009  1.00  0.00     0.338 C 
ATOM     26  O   UNL A   1      44.628  23.962  24.260  1.00  0.00    -0.246 OA
BRANCH  25  27
ATOM     27  C   UNL A   1      43.070  24.723  25.918  1.00  0.00     0.060 A 
ATOM     28  C   UNL A   1      43.396  26.081  25.772  1.00  0.00     0.016 A 
ATOM     29  C   UNL A   1      42.144  24.323  26.882  1.00  0.00     0.016 A 
ATOM     30  C   UNL A   1      42.818  27.039  26.610  1.00  0.00     0.010 A 
ATOM     31  C   UNL A   1      41.587  25.278  27.737  1.00  0.00     0.010 A 
ATOM     32  C   UNL A   1      41.945  26.635  27.627  1.00  0.00    -0.014 A 
BRANCH  32  33
ATOM     33  C   UNL A   1      41.591  27.564  28.730  1.00  0.00     0.031 A 
ATOM     34  C   UNL A   1      42.385  27.472  30.004  1.00  0.00     0.074 A 
ATOM     35  C   UNL A   1      40.584  28.450  28.632  1.00  0.00     0.049 A 
ATOM     36  N   UNL A   1      42.189  28.056  31.157  1.00  0.00    -0.248 NA
ATOM     37  C   UNL A   1      43.559  26.583  29.970  1.00  0.00     0.031 C 
ATOM     38  C   UNL A   1      39.770  28.685  27.442  1.00  0.00     0.029 A 
ATOM     39  N   UNL A   1      40.063  29.305  29.573  1.00  0.00    -0.354 N 
ATOM     40  C   UNL A   1      43.198  27.588  31.991  1.00  0.00     0.074 A 
ATOM     41  C   UNL A   1      43.987  26.654  31.220  1.00  0.00     0.031 C 
ATOM     42  C   UNL A   1      38.833  29.605  27.732  1.00  0.00     0.029 A 
ATOM     43  C   UNL A   1      38.954  29.991  29.139  1.00  0.00     0.049 A 
ATOM     44  H   UNL A   1      40.447  29.414  30.473  1.00  0.00     0.167 HD
ATOM     45  C   UNL A   1      43.446  27.909  33.282  1.00  0.00     0.037 A 
ATOM     46  C   UNL A   1      38.117  30.806  29.810  1.00  0.00     0.037 A 
ATOM     47  C   UNL A   1      42.657  28.834  34.051  1.00  0.00     0.049 A 
ATOM     48  C   UNL A   1      38.360  31.085  31.274  1.00  0.00     0.074 A 
ATOM     49  C   UNL A   1      42.835  29.235  35.363  1.00  0.00     0.029 A 
ATOM     50  N   UNL A   1      41.531  29.493  33.579  1.00  0.00    -0.354 N 
ATOM     51  N   UNL A   1      39.321  30.651  32.054  1.00  0.00    -0.248 NA
ATOM     52  C   UNL A   1      37.399  31.969  31.951  1.00  0.00     0.031 C 
ATOM     53  C   UNL A   1      41.784  30.090  35.704  1.00  0.00     0.029 A 
ATOM     54  C   UNL A   1      40.989  30.277  34.584  1.00  0.00     0.049 A 
ATOM     55  H   UNL A   1      41.171  29.415  32.666  1.00  0.00     0.167 HD
ATOM     56  C   UNL A   1      39.102  31.237  33.296  1.00  0.00     0.074 A 
ATOM     57  C   UNL A   1      37.920  32.062  33.166  1.00  0.00     0.031 C 
ATOM     58  C   UNL A   1      39.821  31.108  34.440  1.00  0.00     0.037 A 
BRANCH  45  59
ATOM     59  C   UNL A   1      44.597  27.216  33.953  1.00  0.00     0.057 A 
ATOM     60  C   UNL A   1      45.891  27.756  33.959  1.00  0.00     0.134 A 
ATOM     61  C   UNL A   1      44.405  25.994  34.609  1.00  0.00     0.134 A 
ATOM     62  F   UNL A   1      46.148  28.914  33.334  1.00  0.00    -0.206 F 
ATOM     63  C   UNL A   1      46.957  27.089  34.566  1.00  0.00     0.040 A 
ATOM     64  C   UNL A   1      45.456  25.334  35.247  1.00  0.00     0.040 A 
ATOM     65  F   UNL A   1      43.192  25.422  34.644  1.00  0.00    -0.206 F 
ATOM     66  C   UNL A   1      46.738  25.876  35.218  1.00  0.00     0.006 A 
ENDBRANCH  45  59
BRANCH  46  67
ATOM     67  C   UNL A   1      36.948  31.409  29.117  1.00  0.00     0.057 A 
ATOM     68  C   UNL A   1      35.768  30.683  28.919  1.00  0.00     0.134 A 
ATOM     69  C   UNL A   1      36.992  32.714  28.611  1.00  0.00     0.134 A 
ATOM     70  F   UNL A   1      35.674  29.418  29.353  1.00  0.00    -0.206 F 
ATOM     71  C   UNL A   1      34.680  31.226  28.231  1.00  0.00     0.040 A 
ATOM     72  C   UNL A   1      35.902  33.280  27.946  1.00  0.00     0.040 A 
ATOM     73  F   UNL A   1      38.095  33.463  28.760  1.00  0.00    -0.206 F 
ATOM     74  C   UNL A   1      34.744  32.531  27.749  1.00  0.00     0.006 A 
ENDBRANCH  46  67
BRANCH  58  75
ATOM     75  C   UNL A   1      39.392  31.920  35.630  1.00  0.00     0.057 A 
ATOM     76  C   UNL A   1      39.889  33.206  35.878  1.00  0.00     0.134 A 
ATOM     77  C   UNL A   1      38.418  31.425  36.510  1.00  0.00     0.134 A 
ATOM     78  F   UNL A   1      40.828  33.738  35.083  1.00  0.00    -0.206 F 
ATOM     79  C   UNL A   1      39.450  33.959  36.970  1.00  0.00     0.040 A 
ATOM     80  C   UNL A   1      37.950  32.181  37.586  1.00  0.00     0.040 A 
ATOM     81  F   UNL A   1      37.890  30.206  36.324  1.00  0.00    -0.206 F 
ATOM     82  C   UNL A   1      38.471  33.450  37.822  1.00  0.00     0.006 A 
ENDBRANCH  58  75
ENDBRANCH  32  33
ENDBRANCH  25  27
ENDBRANCH  24  25
ENDBRANCH  23  24
ENDBRANCH  22  23
ENDBRANCH  21  22
ENDBRANCH  20  21
ENDBRANCH   1  20
TORSDOF 20
ENDMDL
MODEL 3
REMARK VINA RESULT:     -10.2      5.165     10.774
REMARK SMILES C[C@H](Cc1ccc(C2CC2)cc1)C(=O)OCCOCCOCCOC(=O)c1ccc(-c2c3nc(c(-c4c(F)cccc4F)c4ccc([nH]4)c(-c4c(F)cccc4F)c4nc(c(-c5c(F)cccc5F)c5ccc2[nH]5)C=C4)C=C3)cc1
REMARK SMILES IDX 19 1 18 2 17 3 16 4 15 5 13 6 14 7 2 8 1 9 3 10 4 11 5 12
REMARK SMILES IDX 12 13 6 14 11 15 7 16 8 17 9 18 10 19 20 20 21 21 22 22
REMARK SMILES IDX 23 23 24 24 25 25 26 26 27 27 28 28 80 29 29 30 79 31 30 32
REMARK SMILES IDX 31 33 32 34 73 35 33 36 78 37 72 38 74 39 34 40 77 41 71 42
REMARK SMILES IDX 70 43 35 45 61 46 44 47 60 48 45 49 48 50 59 51 75 52 46 53
REMARK SMILES IDX 47 54 58 56 76 57 49 58 36 59 37 60 42 61 38 62 39 63 41 64
REMARK SMILES IDX 43 65 40 66 62 67 63 68 68 69 64 70 65 71 67 72 69 73 66 74
REMARK SMILES IDX 50 75 51 76 56 77 52 78 53 79 55 80 57 81 54 82
REMARK H PARENT 74 44 48 55
REMARK Flexibility Score: inf
ROOT
ATOM      1  C   UNL A   1      40.407  20.695  26.767  1.00  0.00     0.188 C 
ENDROOT
BRANCH   1   2
ATOM      2  O   UNL A   1      39.595  21.476  25.898  1.00  0.00    -0.376 OA
BRANCH   2   3
ATOM      3  C   UNL A   1      39.402  22.854  26.203  1.00  0.00     0.202 C 
BRANCH   3   4
ATOM      4  C   UNL A   1      37.962  23.369  26.379  1.00  0.00     0.261 C 
BRANCH   4   5
ATOM      5  O   UNL A   1      36.991  22.836  25.450  1.00  0.00    -0.463 OA
BRANCH   5   6
ATOM      6  C   UNL A   1      35.688  23.109  25.694  1.00  0.00     0.309 C 
ATOM      7  O   UNL A   1      35.249  23.383  26.808  1.00  0.00    -0.252 OA
BRANCH   6   8
ATOM      8  C   UNL A   1      34.766  23.094  24.467  1.00  0.00     0.100 C 
ATOM      9  C   UNL A   1      34.442  24.549  24.104  1.00  0.00     0.020 C 
BRANCH   8  10
ATOM     10  C   UNL A   1      33.502  22.209  24.376  1.00  0.00     0.050 C 
BRANCH  10  11
ATOM     11  C   UNL A   1      33.579  20.709  24.258  1.00  0.00    -0.047 A 
ATOM     12  C   UNL A   1      34.641  19.957  24.748  1.00  0.00     0.004 A 
ATOM     13  C   UNL A   1      32.497  20.022  23.683  1.00  0.00     0.004 A 
ATOM     14  C   UNL A   1      34.628  18.563  24.657  1.00  0.00     0.004 A 
ATOM     15  C   UNL A   1      32.479  18.622  23.621  1.00  0.00     0.004 A 
ATOM     16  C   UNL A   1      33.537  17.854  24.125  1.00  0.00    -0.045 A 
BRANCH  16  17
ATOM     17  C   UNL A   1      33.544  16.344  24.197  1.00  0.00     0.019 C 
ATOM     18  C   UNL A   1      34.481  15.552  25.071  1.00  0.00     0.009 C 
ATOM     19  C   UNL A   1      33.025  15.637  25.423  1.00  0.00     0.009 C 
ENDBRANCH  16  17
ENDBRANCH  10  11
ENDBRANCH   8  10
ENDBRANCH   6   8
ENDBRANCH   5   6
ENDBRANCH   4   5
ENDBRANCH   3   4
ENDBRANCH   2   3
ENDBRANCH   1   2
BRANCH   1  20
ATOM     20  C   UNL A   1      41.112  19.449  26.205  1.00  0.00     0.188 C 
BRANCH  20  21
ATOM     21  O   UNL A   1      42.119  19.730  25.261  1.00  0.00    -0.376 OA
BRANCH  21  22
ATOM     22  C   UNL A   1      43.401  20.068  25.752  1.00  0.00     0.202 C 
BRANCH  22  23
ATOM     23  C   UNL A   1      43.960  21.398  25.222  1.00  0.00     0.261 C 
BRANCH  23  24
ATOM     24  O   UNL A   1      43.206  22.576  25.567  1.00  0.00    -0.460 OA
BRANCH  24  25
ATOM     25  C   UNL A   1      43.775  23.775  25.310  1.00  0.00     0.338 C 
ATOM     26  O   UNL A   1      44.524  24.050  24.385  1.00  0.00    -0.246 OA
BRANCH  25  27
ATOM     27  C   UNL A   1      43.127  24.774  26.195  1.00  0.00     0.060 A 
ATOM     28  C   UNL A   1      43.409  26.138  26.011  1.00  0.00     0.016 A 
ATOM     29  C   UNL A   1      42.220  24.372  27.177  1.00  0.00     0.016 A 
ATOM     30  C   UNL A   1      42.805  27.099  26.826  1.00  0.00     0.010 A 
ATOM     31  C   UNL A   1      41.638  25.332  28.008  1.00  0.00     0.010 A 
ATOM     32  C   UNL A   1      41.951  26.696  27.860  1.00  0.00    -0.014 A 
BRANCH  32  33
ATOM     33  C   UNL A   1      41.573  27.643  28.939  1.00  0.00     0.031 A 
ATOM     34  C   UNL A   1      42.345  27.577  30.228  1.00  0.00     0.074 A 
ATOM     35  C   UNL A   1      40.566  28.523  28.806  1.00  0.00     0.049 A 
ATOM     36  N   UNL A   1      42.126  28.181  31.367  1.00  0.00    -0.248 NA
ATOM     37  C   UNL A   1      43.523  26.693  30.231  1.00  0.00     0.031 C 
ATOM     38  C   UNL A   1      39.772  28.733  27.599  1.00  0.00     0.029 A 
ATOM     39  N   UNL A   1      40.024  29.392  29.723  1.00  0.00    -0.354 N 
ATOM     40  C   UNL A   1      43.122  27.733  32.226  1.00  0.00     0.074 A 
ATOM     41  C   UNL A   1      43.929  26.788  31.487  1.00  0.00     0.031 C 
ATOM     42  C   UNL A   1      38.826  29.654  27.855  1.00  0.00     0.029 A 
ATOM     43  C   UNL A   1      38.921  30.066  29.257  1.00  0.00     0.049 A 
ATOM     44  H   UNL A   1      40.391  29.520  30.627  1.00  0.00     0.167 HD
ATOM     45  C   UNL A   1      43.346  28.077  33.516  1.00  0.00     0.037 A 
ATOM     46  C   UNL A   1      38.069  30.889  29.898  1.00  0.00     0.037 A 
ATOM     47  C   UNL A   1      42.539  29.013  34.254  1.00  0.00     0.049 A 
ATOM     48  C   UNL A   1      38.284  31.196  31.360  1.00  0.00     0.074 A 
ATOM     49  C   UNL A   1      42.692  29.438  35.561  1.00  0.00     0.029 A 
ATOM     50  N   UNL A   1      41.420  29.659  33.750  1.00  0.00    -0.354 N 
ATOM     51  N   UNL A   1      39.233  30.779  32.165  1.00  0.00    -0.248 NA
ATOM     52  C   UNL A   1      37.307  32.088  32.004  1.00  0.00     0.031 C 
ATOM     53  C   UNL A   1      41.632  30.294  35.868  1.00  0.00     0.029 A 
ATOM     54  C   UNL A   1      40.857  30.458  34.731  1.00  0.00     0.049 A 
ATOM     55  H   UNL A   1      41.076  29.562  32.833  1.00  0.00     0.167 HD
ATOM     56  C   UNL A   1      38.989  31.387  33.392  1.00  0.00     0.074 A 
ATOM     57  C   UNL A   1      37.807  32.204  33.227  1.00  0.00     0.031 C 
ATOM     58  C   UNL A   1      39.688  31.282  34.551  1.00  0.00     0.037 A 
BRANCH  45  59
ATOM     59  C   UNL A   1      44.487  27.402  34.220  1.00  0.00     0.057 A 
ATOM     60  C   UNL A   1      44.332  26.181  34.891  1.00  0.00     0.134 A 
ATOM     61  C   UNL A   1      45.763  27.980  34.221  1.00  0.00     0.134 A 
ATOM     62  F   UNL A   1      43.132  25.582  34.945  1.00  0.00    -0.206 F 
ATOM     63  C   UNL A   1      45.396  25.577  35.563  1.00  0.00     0.040 A 
ATOM     64  C   UNL A   1      46.841  27.369  34.861  1.00  0.00     0.040 A 
ATOM     65  F   UNL A   1      45.983  29.146  33.595  1.00  0.00    -0.206 F 
ATOM     66  C   UNL A   1      46.658  26.169  35.543  1.00  0.00     0.006 A 
ENDBRANCH  45  59
BRANCH  46  67
ATOM     67  C   UNL A   1      36.910  31.475  29.173  1.00  0.00     0.057 A 
ATOM     68  C   UNL A   1      35.779  30.707  28.873  1.00  0.00     0.134 A 
ATOM     69  C   UNL A   1      36.916  32.806  28.739  1.00  0.00     0.134 A 
ATOM     70  F   UNL A   1      35.723  29.417  29.234  1.00  0.00    -0.206 F 
ATOM     71  C   UNL A   1      34.703  31.236  28.155  1.00  0.00     0.040 A 
ATOM     72  C   UNL A   1      35.837  33.356  28.045  1.00  0.00     0.040 A 
ATOM     73  F   UNL A   1      37.972  33.595  28.988  1.00  0.00    -0.206 F 
ATOM     74  C   UNL A   1      34.728  32.567  27.746  1.00  0.00     0.006 A 
ENDBRANCH  46  67
BRANCH  58  75
ATOM     75  C   UNL A   1      39.235  32.113  35.719  1.00  0.00     0.057 A 
ATOM     76  C   UNL A   1      39.638  33.442  35.894  1.00  0.00     0.134 A 
ATOM     77  C   UNL A   1      38.329  31.587  36.652  1.00  0.00     0.134 A 
ATOM     78  F   UNL A   1      40.510  34.007  35.044  1.00  0.00    -0.206 F 
ATOM     79  C   UNL A   1      39.177  34.210  36.966  1.00  0.00     0.040 A 
ATOM     80  C   UNL A   1      37.837  32.354  37.709  1.00  0.00     0.040 A 
ATOM     81  F   UNL A   1      37.890  30.325  36.538  1.00  0.00    -0.206 F 
ATOM     82  C   UNL A   1      38.266  33.669  37.872  1.00  0.00     0.006 A 
ENDBRANCH  58  75
ENDBRANCH  32  33
ENDBRANCH  25  27
ENDBRANCH  24  25
ENDBRANCH  23  24
ENDBRANCH  22  23
ENDBRANCH  21  22
ENDBRANCH  20  21
ENDBRANCH   1  20
TORSDOF 20
ENDMDL
