MODEL 1
REMARK VINA RESULT:     -10.6      0.000      0.000
REMARK SMILES Cc1cccc(-c2cc(C(=O)OCCOCCOCCOC(=O)c3ccc(-c4c5nc(c(-c6c(F)cccc6F)c6ccc([nH]6)c(-c6c(F)cccc6F)c6nc(c(-c7c(F)cccc7F)c7ccc4[nH]7)C=C6)C=C5)cc3)ccn2)c1
REMARK SMILES IDX 17 1 16 2 15 3 14 4 13 5 12 6 10 7 11 8 9 9 7 10 8 11 80 12
REMARK SMILES IDX 79 13 78 14 6 15 1 16 2 17 3 18 81 19 4 20 5 21 18 22 19 23
REMARK SMILES IDX 20 24 21 25 22 26 23 27 24 28 25 29 77 30 26 31 76 32 27 33
REMARK SMILES IDX 28 34 29 35 70 36 30 37 75 38 69 39 71 40 31 41 74 42 68 43
REMARK SMILES IDX 67 44 32 46 58 47 41 48 57 49 42 50 45 51 56 52 72 53 43 54
REMARK SMILES IDX 44 55 55 57 73 58 46 59 33 60 34 61 39 62 35 63 36 64 38 65
REMARK SMILES IDX 40 66 37 67 59 68 60 69 65 70 61 71 62 72 64 73 66 74 63 75
REMARK SMILES IDX 47 76 48 77 53 78 49 79 50 80 52 81 54 82 51 83
REMARK H PARENT 71 45 45 56
REMARK Flexibility Score: inf
ROOT
ATOM      1  C   UNL A   1      33.557  26.458  23.890  1.00  0.00     0.188 C 
ENDROOT
BRANCH   1   2
ATOM      2  C   UNL A   1      33.339  25.833  25.273  1.00  0.00     0.188 C 
BRANCH   2   3
ATOM      3  O   UNL A   1      34.391  25.081  25.902  1.00  0.00    -0.376 OA
BRANCH   3   4
ATOM      4  C   UNL A   1      34.472  23.672  25.711  1.00  0.00     0.202 C 
BRANCH   4   5
ATOM      5  C   UNL A   1      35.858  23.103  25.223  1.00  0.00     0.261 C 
BRANCH   5   6
ATOM      6  O   UNL A   1      37.064  23.111  26.111  1.00  0.00    -0.460 OA
BRANCH   6   7
ATOM      7  C   UNL A   1      38.005  22.181  25.733  1.00  0.00     0.338 C 
ATOM      8  O   UNL A   1      37.778  21.591  24.683  1.00  0.00    -0.246 OA
BRANCH   7   9
ATOM      9  C   UNL A   1      39.422  22.054  26.502  1.00  0.00     0.063 A 
ATOM     10  C   UNL A   1      41.634  21.196  26.706  1.00  0.00     0.071 A 
ATOM     11  C   UNL A   1      40.302  21.041  26.239  1.00  0.00     0.044 A 
ATOM     12  N   UNL A   1      42.111  22.142  27.562  1.00  0.00    -0.256 NA
ATOM     13  C   UNL A   1      41.333  23.173  27.733  1.00  0.00     0.112 A 
ATOM     14  C   UNL A   1      40.078  23.148  27.169  1.00  0.00     0.036 A 
BRANCH  10  15
ATOM     15  C   UNL A   1      42.750  20.690  25.942  1.00  0.00     0.000 A 
ATOM     16  C   UNL A   1      46.031  22.080  24.642  1.00  0.00     0.044 C 
ATOM     17  C   UNL A   1      44.953  21.110  25.015  1.00  0.00    -0.050 A 
ATOM     18  C   UNL A   1      45.044  19.747  24.712  1.00  0.00     0.003 A 
ATOM     19  C   UNL A   1      43.802  21.572  25.637  1.00  0.00     0.013 A 
ATOM     20  C   UNL A   1      44.037  18.854  25.098  1.00  0.00     0.001 A 
ATOM     21  C   UNL A   1      42.898  19.323  25.731  1.00  0.00     0.010 A 
ENDBRANCH  10  15
ENDBRANCH   7   9
ENDBRANCH   6   7
ENDBRANCH   5   6
ENDBRANCH   4   5
ENDBRANCH   3   4
ENDBRANCH   2   3
ENDBRANCH   1   2
BRANCH   1  22
ATOM     22  O   UNL A   1      34.040  27.782  24.037  1.00  0.00    -0.376 OA
BRANCH  22  23
ATOM     23  C   UNL A   1      33.122  28.828  23.765  1.00  0.00     0.202 C 
BRANCH  23  24
ATOM     24  C   UNL A   1      32.506  29.429  25.040  1.00  0.00     0.261 C 
BRANCH  24  25
ATOM     25  O   UNL A   1      33.550  29.724  26.005  1.00  0.00    -0.460 OA
BRANCH  25  26
ATOM     26  C   UNL A   1      33.285  30.679  26.950  1.00  0.00     0.338 C 
ATOM     27  O   UNL A   1      32.330  31.449  26.913  1.00  0.00    -0.246 OA
BRANCH  26  28
ATOM     28  C   UNL A   1      34.451  30.839  27.886  1.00  0.00     0.060 A 
ATOM     29  C   UNL A   1      35.277  31.968  28.004  1.00  0.00     0.016 A 
ATOM     30  C   UNL A   1      34.965  29.678  28.378  1.00  0.00     0.016 A 
ATOM     31  C   UNL A   1      36.615  31.868  28.552  1.00  0.00     0.010 A 
ATOM     32  C   UNL A   1      36.348  29.594  28.515  1.00  0.00     0.010 A 
ATOM     33  C   UNL A   1      37.223  30.630  28.789  1.00  0.00    -0.014 A 
BRANCH  33  34
ATOM     34  C   UNL A   1      38.691  30.246  29.188  1.00  0.00     0.031 A 
ATOM     35  C   UNL A   1      39.603  28.869  28.988  1.00  0.00     0.074 A 
ATOM     36  C   UNL A   1      39.286  31.315  29.752  1.00  0.00     0.049 A 
ATOM     37  N   UNL A   1      40.478  28.406  29.858  1.00  0.00    -0.248 NA
ATOM     38  C   UNL A   1      39.557  27.809  27.921  1.00  0.00     0.031 C 
ATOM     39  C   UNL A   1      40.680  31.512  30.074  1.00  0.00     0.029 A 
ATOM     40  N   UNL A   1      38.621  32.380  30.387  1.00  0.00    -0.354 N 
ATOM     41  C   UNL A   1      41.153  27.324  29.229  1.00  0.00     0.074 A 
ATOM     42  C   UNL A   1      40.232  26.755  28.344  1.00  0.00     0.031 C 
ATOM     43  C   UNL A   1      40.743  32.380  31.100  1.00  0.00     0.029 A 
ATOM     44  C   UNL A   1      39.377  32.651  31.534  1.00  0.00     0.049 A 
ATOM     45  H   UNL A   1      37.801  32.836  30.089  1.00  0.00     0.167 HD
ATOM     46  C   UNL A   1      42.518  27.237  29.164  1.00  0.00     0.037 A 
ATOM     47  C   UNL A   1      38.835  32.402  32.761  1.00  0.00     0.037 A 
ATOM     48  C   UNL A   1      43.034  28.073  30.214  1.00  0.00     0.049 A 
ATOM     49  C   UNL A   1      39.620  31.355  33.523  1.00  0.00     0.074 A 
ATOM     50  C   UNL A   1      43.626  29.316  30.252  1.00  0.00     0.029 A 
ATOM     51  N   UNL A   1      42.583  27.794  31.485  1.00  0.00    -0.354 N 
ATOM     52  N   UNL A   1      40.551  30.618  32.978  1.00  0.00    -0.248 NA
ATOM     53  C   UNL A   1      39.452  31.055  34.942  1.00  0.00     0.031 C 
ATOM     54  C   UNL A   1      43.344  29.862  31.541  1.00  0.00     0.029 A 
ATOM     55  C   UNL A   1      42.632  28.924  32.269  1.00  0.00     0.049 A 
ATOM     56  H   UNL A   1      42.270  26.912  31.789  1.00  0.00     0.167 HD
ATOM     57  C   UNL A   1      41.073  29.759  33.901  1.00  0.00     0.074 A 
ATOM     58  C   UNL A   1      40.365  30.081  35.123  1.00  0.00     0.031 C 
ATOM     59  C   UNL A   1      42.018  28.830  33.582  1.00  0.00     0.037 A 
BRANCH  46  60
ATOM     60  C   UNL A   1      43.410  26.617  28.052  1.00  0.00     0.057 A 
ATOM     61  C   UNL A   1      43.420  27.232  26.777  1.00  0.00     0.134 A 
ATOM     62  C   UNL A   1      44.169  25.418  28.071  1.00  0.00     0.134 A 
ATOM     63  F   UNL A   1      42.813  28.409  26.568  1.00  0.00    -0.206 F 
ATOM     64  C   UNL A   1      44.044  26.684  25.637  1.00  0.00     0.040 A 
ATOM     65  C   UNL A   1      44.819  24.873  26.940  1.00  0.00     0.040 A 
ATOM     66  F   UNL A   1      44.345  24.667  29.159  1.00  0.00    -0.206 F 
ATOM     67  C   UNL A   1      44.741  25.493  25.710  1.00  0.00     0.006 A 
ENDBRANCH  46  60
BRANCH  47  68
ATOM     68  C   UNL A   1      37.368  32.719  32.834  1.00  0.00     0.057 A 
ATOM     69  C   UNL A   1      37.004  34.072  33.030  1.00  0.00     0.134 A 
ATOM     70  C   UNL A   1      36.346  31.872  32.397  1.00  0.00     0.134 A 
ATOM     71  F   UNL A   1      37.916  34.954  33.468  1.00  0.00    -0.206 F 
ATOM     72  C   UNL A   1      35.748  34.581  32.677  1.00  0.00     0.040 A 
ATOM     73  C   UNL A   1      35.064  32.367  32.073  1.00  0.00     0.040 A 
ATOM     74  F   UNL A   1      36.589  30.579  32.142  1.00  0.00    -0.206 F 
ATOM     75  C   UNL A   1      34.779  33.729  32.167  1.00  0.00     0.006 A 
ENDBRANCH  47  68
BRANCH  59  76
ATOM     76  C   UNL A   1      42.390  27.635  34.423  1.00  0.00     0.057 A 
ATOM     77  C   UNL A   1      41.535  26.546  34.632  1.00  0.00     0.134 A 
ATOM     78  C   UNL A   1      43.744  27.428  34.778  1.00  0.00     0.134 A 
ATOM     79  F   UNL A   1      40.248  26.585  34.261  1.00  0.00    -0.206 F 
ATOM     80  C   UNL A   1      41.994  25.334  35.158  1.00  0.00     0.040 A 
ATOM     81  C   UNL A   1      44.225  26.201  35.232  1.00  0.00     0.040 A 
ATOM     82  F   UNL A   1      44.665  28.392  34.612  1.00  0.00    -0.206 F 
ATOM     83  C   UNL A   1      43.346  25.148  35.431  1.00  0.00     0.006 A 
ENDBRANCH  59  76
ENDBRANCH  33  34
ENDBRANCH  26  28
ENDBRANCH  25  26
ENDBRANCH  24  25
ENDBRANCH  23  24
ENDBRANCH  22  23
ENDBRANCH   1  22
TORSDOF 18
ENDMDL
MODEL 2
REMARK VINA RESULT:     -10.5      2.434      4.651
REMARK SMILES Cc1cccc(-c2cc(C(=O)OCCOCCOCCOC(=O)c3ccc(-c4c5nc(c(-c6c(F)cccc6F)c6ccc([nH]6)c(-c6c(F)cccc6F)c6nc(c(-c7c(F)cccc7F)c7ccc4[nH]7)C=C6)C=C5)cc3)ccn2)c1
REMARK SMILES IDX 17 1 16 2 15 3 14 4 13 5 12 6 10 7 11 8 9 9 7 10 8 11 80 12
REMARK SMILES IDX 79 13 78 14 6 15 1 16 2 17 3 18 81 19 4 20 5 21 18 22 19 23
REMARK SMILES IDX 20 24 21 25 22 26 23 27 24 28 25 29 77 30 26 31 76 32 27 33
REMARK SMILES IDX 28 34 29 35 70 36 30 37 75 38 69 39 71 40 31 41 74 42 68 43
REMARK SMILES IDX 67 44 32 46 58 47 41 48 57 49 42 50 45 51 56 52 72 53 43 54
REMARK SMILES IDX 44 55 55 57 73 58 46 59 33 60 34 61 39 62 35 63 36 64 38 65
REMARK SMILES IDX 40 66 37 67 59 68 60 69 65 70 61 71 62 72 64 73 66 74 63 75
REMARK SMILES IDX 47 76 48 77 53 78 49 79 50 80 52 81 54 82 51 83
REMARK H PARENT 71 45 45 56
REMARK Flexibility Score: inf
ROOT
ATOM      1  C   UNL A   1      31.557  29.720  24.844  1.00  0.00     0.188 C 
ENDROOT
BRANCH   1   2
ATOM      2  C   UNL A   1      30.509  29.271  23.819  1.00  0.00     0.188 C 
BRANCH   2   3
ATOM      3  O   UNL A   1      29.788  28.042  24.011  1.00  0.00    -0.376 OA
BRANCH   3   4
ATOM      4  C   UNL A   1      30.015  26.940  23.138  1.00  0.00     0.202 C 
BRANCH   4   5
ATOM      5  C   UNL A   1      31.160  27.109  22.069  1.00  0.00     0.261 C 
BRANCH   5   6
ATOM      6  O   UNL A   1      31.705  25.937  21.312  1.00  0.00    -0.460 OA
BRANCH   6   7
ATOM      7  C   UNL A   1      32.935  25.533  21.778  1.00  0.00     0.338 C 
ATOM      8  O   UNL A   1      33.857  26.322  21.599  1.00  0.00    -0.246 OA
BRANCH   7   9
ATOM      9  C   UNL A   1      33.096  24.217  22.705  1.00  0.00     0.063 A 
ATOM     10  C   UNL A   1      34.413  22.657  23.930  1.00  0.00     0.071 A 
ATOM     11  C   UNL A   1      34.295  23.579  22.857  1.00  0.00     0.044 A 
ATOM     12  N   UNL A   1      33.417  22.169  24.720  1.00  0.00    -0.256 NA
ATOM     13  C   UNL A   1      32.300  22.837  24.675  1.00  0.00     0.112 A 
ATOM     14  C   UNL A   1      32.181  23.854  23.754  1.00  0.00     0.036 A 
BRANCH  10  15
ATOM     15  C   UNL A   1      35.657  22.510  24.649  1.00  0.00     0.000 A 
ATOM     16  C   UNL A   1      38.276  19.798  25.064  1.00  0.00     0.044 C 
ATOM     17  C   UNL A   1      37.597  21.132  25.122  1.00  0.00    -0.050 A 
ATOM     18  C   UNL A   1      38.170  22.228  25.775  1.00  0.00     0.003 A 
ATOM     19  C   UNL A   1      36.340  21.284  24.555  1.00  0.00     0.013 A 
ATOM     20  C   UNL A   1      37.530  23.473  25.790  1.00  0.00     0.001 A 
ATOM     21  C   UNL A   1      36.281  23.620  25.209  1.00  0.00     0.010 A 
ENDBRANCH  10  15
ENDBRANCH   7   9
ENDBRANCH   6   7
ENDBRANCH   5   6
ENDBRANCH   4   5
ENDBRANCH   3   4
ENDBRANCH   2   3
ENDBRANCH   1   2
BRANCH   1  22
ATOM     22  O   UNL A   1      31.483  28.894  25.993  1.00  0.00    -0.376 OA
BRANCH  22  23
ATOM     23  C   UNL A   1      32.262  29.287  27.111  1.00  0.00     0.202 C 
BRANCH  23  24
ATOM     24  C   UNL A   1      33.227  30.443  26.790  1.00  0.00     0.261 C 
BRANCH  24  25
ATOM     25  O   UNL A   1      33.715  31.038  28.021  1.00  0.00    -0.460 OA
BRANCH  25  26
ATOM     26  C   UNL A   1      35.005  31.498  28.031  1.00  0.00     0.338 C 
ATOM     27  O   UNL A   1      35.353  32.604  27.628  1.00  0.00    -0.246 OA
BRANCH  26  28
ATOM     28  C   UNL A   1      35.965  30.384  28.347  1.00  0.00     0.060 A 
ATOM     29  C   UNL A   1      36.310  29.919  29.626  1.00  0.00     0.016 A 
ATOM     30  C   UNL A   1      36.835  30.065  27.349  1.00  0.00     0.016 A 
ATOM     31  C   UNL A   1      37.551  29.208  29.859  1.00  0.00     0.010 A 
ATOM     32  C   UNL A   1      38.140  29.743  27.711  1.00  0.00     0.010 A 
ATOM     33  C   UNL A   1      38.553  29.137  28.884  1.00  0.00    -0.014 A 
BRANCH  33  34
ATOM     34  C   UNL A   1      40.029  28.608  28.940  1.00  0.00     0.031 A 
ATOM     35  C   UNL A   1      40.715  27.114  28.683  1.00  0.00     0.074 A 
ATOM     36  C   UNL A   1      40.855  29.640  29.200  1.00  0.00     0.049 A 
ATOM     37  N   UNL A   1      41.741  26.626  29.350  1.00  0.00    -0.248 NA
ATOM     38  C   UNL A   1      40.283  25.976  27.798  1.00  0.00     0.031 C 
ATOM     39  C   UNL A   1      42.297  29.688  29.130  1.00  0.00     0.029 A 
ATOM     40  N   UNL A   1      40.492  30.834  29.850  1.00  0.00    -0.354 N 
ATOM     41  C   UNL A   1      42.113  25.414  28.706  1.00  0.00     0.074 A 
ATOM     42  C   UNL A   1      40.939  24.889  28.160  1.00  0.00     0.031 C 
ATOM     43  C   UNL A   1      42.716  30.630  29.994  1.00  0.00     0.029 A 
ATOM     44  C   UNL A   1      41.549  31.110  30.725  1.00  0.00     0.049 A 
ATOM     45  H   UNL A   1      39.671  31.361  29.718  1.00  0.00     0.167 HD
ATOM     46  C   UNL A   1      43.397  25.150  28.307  1.00  0.00     0.037 A 
ATOM     47  C   UNL A   1      41.332  31.044  32.070  1.00  0.00     0.037 A 
ATOM     48  C   UNL A   1      44.254  26.006  29.082  1.00  0.00     0.049 A 
ATOM     49  C   UNL A   1      42.185  29.981  32.728  1.00  0.00     0.074 A 
ATOM     50  C   UNL A   1      44.954  27.163  28.817  1.00  0.00     0.029 A 
ATOM     51  N   UNL A   1      44.133  25.903  30.450  1.00  0.00    -0.354 N 
ATOM     52  N   UNL A   1      42.860  29.085  32.058  1.00  0.00    -0.248 NA
ATOM     53  C   UNL A   1      42.373  29.834  34.169  1.00  0.00     0.031 C 
ATOM     54  C   UNL A   1      45.081  27.854  30.059  1.00  0.00     0.029 A 
ATOM     55  C   UNL A   1      44.500  27.084  31.053  1.00  0.00     0.049 A 
ATOM     56  H   UNL A   1      43.827  25.099  30.928  1.00  0.00     0.167 HD
ATOM     57  C   UNL A   1      43.522  28.255  32.915  1.00  0.00     0.074 A 
ATOM     58  C   UNL A   1      43.201  28.773  34.228  1.00  0.00     0.031 C 
ATOM     59  C   UNL A   1      44.252  27.189  32.481  1.00  0.00     0.037 A 
BRANCH  46  60
ATOM     60  C   UNL A   1      43.894  24.323  27.087  1.00  0.00     0.057 A 
ATOM     61  C   UNL A   1      44.891  23.342  27.301  1.00  0.00     0.134 A 
ATOM     62  C   UNL A   1      43.577  24.470  25.712  1.00  0.00     0.134 A 
ATOM     63  F   UNL A   1      45.285  23.009  28.538  1.00  0.00    -0.206 F 
ATOM     64  C   UNL A   1      45.550  22.643  26.269  1.00  0.00     0.040 A 
ATOM     65  C   UNL A   1      44.214  23.757  24.671  1.00  0.00     0.040 A 
ATOM     66  F   UNL A   1      42.646  25.306  25.249  1.00  0.00    -0.206 F 
ATOM     67  C   UNL A   1      45.221  22.854  24.943  1.00  0.00     0.006 A 
ENDBRANCH  46  60
BRANCH  47  68
ATOM     68  C   UNL A   1      39.976  31.550  32.475  1.00  0.00     0.057 A 
ATOM     69  C   UNL A   1      39.024  30.592  32.897  1.00  0.00     0.134 A 
ATOM     70  C   UNL A   1      39.682  32.879  32.792  1.00  0.00     0.134 A 
ATOM     71  F   UNL A   1      39.213  29.293  32.619  1.00  0.00    -0.206 F 
ATOM     72  C   UNL A   1      37.927  30.915  33.705  1.00  0.00     0.040 A 
ATOM     73  C   UNL A   1      38.558  33.221  33.575  1.00  0.00     0.040 A 
ATOM     74  F   UNL A   1      40.533  33.864  32.473  1.00  0.00    -0.206 F 
ATOM     75  C   UNL A   1      37.707  32.234  34.073  1.00  0.00     0.006 A 
ENDBRANCH  47  68
BRANCH  59  76
ATOM     76  C   UNL A   1      44.716  26.037  33.337  1.00  0.00     0.057 A 
ATOM     77  C   UNL A   1      43.838  25.182  34.015  1.00  0.00     0.134 A 
ATOM     78  C   UNL A   1      46.054  25.588  33.233  1.00  0.00     0.134 A 
ATOM     79  F   UNL A   1      42.530  25.454  34.111  1.00  0.00    -0.206 F 
ATOM     80  C   UNL A   1      44.263  23.963  34.555  1.00  0.00     0.040 A 
ATOM     81  C   UNL A   1      46.468  24.341  33.702  1.00  0.00     0.040 A 
ATOM     82  F   UNL A   1      46.986  26.312  32.594  1.00  0.00    -0.206 F 
ATOM     83  C   UNL A   1      45.571  23.526  34.373  1.00  0.00     0.006 A 
ENDBRANCH  59  76
ENDBRANCH  33  34
ENDBRANCH  26  28
ENDBRANCH  25  26
ENDBRANCH  24  25
ENDBRANCH  23  24
ENDBRANCH  22  23
ENDBRANCH   1  22
TORSDOF 18
ENDMDL
MODEL 3
REMARK VINA RESULT:     -10.4      4.053      9.773
REMARK SMILES Cc1cccc(-c2cc(C(=O)OCCOCCOCCOC(=O)c3ccc(-c4c5nc(c(-c6c(F)cccc6F)c6ccc([nH]6)c(-c6c(F)cccc6F)c6nc(c(-c7c(F)cccc7F)c7ccc4[nH]7)C=C6)C=C5)cc3)ccn2)c1
REMARK SMILES IDX 17 1 16 2 15 3 14 4 13 5 12 6 10 7 11 8 9 9 7 10 8 11 80 12
REMARK SMILES IDX 79 13 78 14 6 15 1 16 2 17 3 18 81 19 4 20 5 21 18 22 19 23
REMARK SMILES IDX 20 24 21 25 22 26 23 27 24 28 25 29 77 30 26 31 76 32 27 33
REMARK SMILES IDX 28 34 29 35 70 36 30 37 75 38 69 39 71 40 31 41 74 42 68 43
REMARK SMILES IDX 67 44 32 46 58 47 41 48 57 49 42 50 45 51 56 52 72 53 43 54
REMARK SMILES IDX 44 55 55 57 73 58 46 59 33 60 34 61 39 62 35 63 36 64 38 65
REMARK SMILES IDX 40 66 37 67 59 68 60 69 65 70 61 71 62 72 64 73 66 74 63 75
REMARK SMILES IDX 47 76 48 77 53 78 49 79 50 80 52 81 54 82 51 83
REMARK H PARENT 71 45 45 56
REMARK Flexibility Score: inf
ROOT
ATOM      1  C   UNL A   1      35.963  31.917  32.303  1.00  0.00     0.188 C 
ENDROOT
BRANCH   1   2
ATOM      2  C   UNL A   1      34.725  32.807  32.143  1.00  0.00     0.188 C 
BRANCH   2   3
ATOM      3  O   UNL A   1      34.856  34.239  32.160  1.00  0.00    -0.376 OA
BRANCH   3   4
ATOM      4  C   UNL A   1      33.734  35.052  32.488  1.00  0.00     0.202 C 
BRANCH   4   5
ATOM      5  C   UNL A   1      33.423  36.253  31.516  1.00  0.00     0.261 C 
BRANCH   5   6
ATOM      6  O   UNL A   1      32.480  36.103  30.362  1.00  0.00    -0.460 OA
BRANCH   6   7
ATOM      7  C   UNL A   1      33.116  36.186  29.145  1.00  0.00     0.338 C 
ATOM      8  O   UNL A   1      33.288  37.320  28.711  1.00  0.00    -0.246 OA
BRANCH   7   9
ATOM      9  C   UNL A   1      33.798  34.890  28.459  1.00  0.00     0.063 A 
ATOM     10  C   UNL A   1      35.611  33.373  28.170  1.00  0.00     0.071 A 
ATOM     11  C   UNL A   1      35.148  34.676  28.496  1.00  0.00     0.044 A 
ATOM     12  N   UNL A   1      34.898  32.348  27.627  1.00  0.00    -0.256 NA
ATOM     13  C   UNL A   1      33.604  32.484  27.689  1.00  0.00     0.112 A 
ATOM     14  C   UNL A   1      33.091  33.676  28.148  1.00  0.00     0.036 A 
BRANCH  10  15
ATOM     15  C   UNL A   1      36.758  32.806  28.839  1.00  0.00     0.000 A 
ATOM     16  C   UNL A   1      38.453  29.415  28.966  1.00  0.00     0.044 C 
ATOM     17  C   UNL A   1      38.202  30.880  29.148  1.00  0.00    -0.050 A 
ATOM     18  C   UNL A   1      39.078  31.699  29.869  1.00  0.00     0.003 A 
ATOM     19  C   UNL A   1      37.045  31.445  28.630  1.00  0.00     0.013 A 
ATOM     20  C   UNL A   1      38.837  33.072  29.999  1.00  0.00     0.001 A 
ATOM     21  C   UNL A   1      37.686  33.630  29.467  1.00  0.00     0.010 A 
ENDBRANCH  10  15
ENDBRANCH   7   9
ENDBRANCH   6   7
ENDBRANCH   5   6
ENDBRANCH   4   5
ENDBRANCH   3   4
ENDBRANCH   2   3
ENDBRANCH   1   2
BRANCH   1  22
ATOM     22  O   UNL A   1      36.840  32.488  33.259  1.00  0.00    -0.376 OA
BRANCH  22  23
ATOM     23  C   UNL A   1      38.105  31.867  33.414  1.00  0.00     0.202 C 
BRANCH  23  24
ATOM     24  C   UNL A   1      38.277  31.195  34.788  1.00  0.00     0.261 C 
BRANCH  24  25
ATOM     25  O   UNL A   1      39.010  29.951  34.644  1.00  0.00    -0.460 OA
BRANCH  25  26
ATOM     26  C   UNL A   1      40.375  30.008  34.738  1.00  0.00     0.338 C 
ATOM     27  O   UNL A   1      40.999  30.916  35.278  1.00  0.00    -0.246 OA
BRANCH  26  28
ATOM     28  C   UNL A   1      41.013  28.960  33.867  1.00  0.00     0.060 A 
ATOM     29  C   UNL A   1      42.382  28.664  33.786  1.00  0.00     0.016 A 
ATOM     30  C   UNL A   1      40.254  28.535  32.819  1.00  0.00     0.016 A 
ATOM     31  C   UNL A   1      42.944  28.011  32.620  1.00  0.00     0.010 A 
ATOM     32  C   UNL A   1      40.905  28.284  31.614  1.00  0.00     0.010 A 
ATOM     33  C   UNL A   1      42.204  27.837  31.445  1.00  0.00    -0.014 A 
BRANCH  33  34
ATOM     34  C   UNL A   1      42.616  27.347  30.013  1.00  0.00     0.031 A 
ATOM     35  C   UNL A   1      43.360  25.969  29.450  1.00  0.00     0.074 A 
ATOM     36  C   UNL A   1      42.202  28.251  29.104  1.00  0.00     0.049 A 
ATOM     37  N   UNL A   1      44.214  25.924  28.448  1.00  0.00    -0.248 NA
ATOM     38  C   UNL A   1      43.360  24.565  29.991  1.00  0.00     0.031 C 
ATOM     39  C   UNL A   1      42.158  28.135  27.665  1.00  0.00     0.029 A 
ATOM     40  N   UNL A   1      41.961  29.614  29.358  1.00  0.00    -0.354 N 
ATOM     41  C   UNL A   1      44.471  24.550  28.186  1.00  0.00     0.074 A 
ATOM     42  C   UNL A   1      44.337  23.890  29.411  1.00  0.00     0.031 C 
ATOM     43  C   UNL A   1      42.261  29.375  27.153  1.00  0.00     0.029 A 
ATOM     44  C   UNL A   1      42.504  30.292  28.260  1.00  0.00     0.049 A 
ATOM     45  H   UNL A   1      41.508  30.005  30.139  1.00  0.00     0.167 HD
ATOM     46  C   UNL A   1      44.358  23.998  26.937  1.00  0.00     0.037 A 
ATOM     47  C   UNL A   1      43.594  31.091  28.447  1.00  0.00     0.037 A 
ATOM     48  C   UNL A   1      44.457  25.083  25.998  1.00  0.00     0.049 A 
ATOM     49  C   UNL A   1      44.793  30.605  27.662  1.00  0.00     0.074 A 
ATOM     50  C   UNL A   1      43.552  25.768  25.219  1.00  0.00     0.029 A 
ATOM     51  N   UNL A   1      45.590  25.860  26.091  1.00  0.00    -0.354 N 
ATOM     52  N   UNL A   1      44.842  29.438  27.075  1.00  0.00    -0.248 NA
ATOM     53  C   UNL A   1      46.018  31.370  27.449  1.00  0.00     0.031 C 
ATOM     54  C   UNL A   1      44.100  27.069  25.007  1.00  0.00     0.029 A 
ATOM     55  C   UNL A   1      45.341  27.128  25.619  1.00  0.00     0.049 A 
ATOM     56  H   UNL A   1      46.455  25.552  26.446  1.00  0.00     0.167 HD
ATOM     57  C   UNL A   1      46.047  29.271  26.456  1.00  0.00     0.074 A 
ATOM     58  C   UNL A   1      46.746  30.516  26.703  1.00  0.00     0.031 C 
ATOM     59  C   UNL A   1      46.388  28.115  25.822  1.00  0.00     0.037 A 
BRANCH  46  60
ATOM     60  C   UNL A   1      43.928  22.559  26.536  1.00  0.00     0.057 A 
ATOM     61  C   UNL A   1      44.803  21.797  25.726  1.00  0.00     0.134 A 
ATOM     62  C   UNL A   1      42.698  21.890  26.770  1.00  0.00     0.134 A 
ATOM     63  F   UNL A   1      46.040  22.227  25.444  1.00  0.00    -0.206 F 
ATOM     64  C   UNL A   1      44.470  20.552  25.153  1.00  0.00     0.040 A 
ATOM     65  C   UNL A   1      42.364  20.631  26.219  1.00  0.00     0.040 A 
ATOM     66  F   UNL A   1      41.717  22.381  27.528  1.00  0.00    -0.206 F 
ATOM     67  C   UNL A   1      43.242  19.965  25.388  1.00  0.00     0.006 A 
ENDBRANCH  46  60
BRANCH  47  68
ATOM     68  C   UNL A   1      43.560  31.840  29.750  1.00  0.00     0.057 A 
ATOM     69  C   UNL A   1      42.759  33.005  29.811  1.00  0.00     0.134 A 
ATOM     70  C   UNL A   1      43.968  31.319  30.980  1.00  0.00     0.134 A 
ATOM     71  F   UNL A   1      42.337  33.587  28.677  1.00  0.00    -0.206 F 
ATOM     72  C   UNL A   1      42.274  33.533  31.013  1.00  0.00     0.040 A 
ATOM     73  C   UNL A   1      43.516  31.866  32.201  1.00  0.00     0.040 A 
ATOM     74  F   UNL A   1      44.699  30.197  31.041  1.00  0.00    -0.206 F 
ATOM     75  C   UNL A   1      42.630  32.943  32.217  1.00  0.00     0.006 A 
ENDBRANCH  47  68
BRANCH  59  76
ATOM     76  C   UNL A   1      47.786  27.712  25.426  1.00  0.00     0.057 A 
ATOM     77  C   UNL A   1      48.748  27.272  26.344  1.00  0.00     0.134 A 
ATOM     78  C   UNL A   1      48.080  27.466  24.064  1.00  0.00     0.134 A 
ATOM     79  F   UNL A   1      48.552  27.371  27.666  1.00  0.00    -0.206 F 
ATOM     80  C   UNL A   1      49.923  26.632  25.935  1.00  0.00     0.040 A 
ATOM     81  C   UNL A   1      49.211  26.762  23.653  1.00  0.00     0.040 A 
ATOM     82  F   UNL A   1      47.230  27.827  23.090  1.00  0.00    -0.206 F 
ATOM     83  C   UNL A   1      50.143  26.348  24.591  1.00  0.00     0.006 A 
ENDBRANCH  59  76
ENDBRANCH  33  34
ENDBRANCH  26  28
ENDBRANCH  25  26
ENDBRANCH  24  25
ENDBRANCH  23  24
ENDBRANCH  22  23
ENDBRANCH   1  22
TORSDOF 18
ENDMDL
