MODEL 1
REMARK VINA RESULT:      -9.7      0.000      0.000
REMARK SMILES C[C@@H](NC(=O)NCCC(=O)NC1CC1)C(=O)OCCOCCOCCOC(=O)c1ccc(-c2c3nc(c(-c4c(F)cccc4F)c4ccc([nH]4)c(-c4c(F)cccc4F)c4nc(c(-c5c(F)cccc5F)c5ccc2[nH]5)C=C4)C=C3)cc1
REMARK SMILES IDX 20 1 19 2 18 3 17 4 15 5 16 6 2 7 1 8 3 9 4 10 5 12 6 13
REMARK SMILES IDX 7 15 8 16 9 17 10 18 11 19 12 21 13 22 14 23 21 24 22 25
REMARK SMILES IDX 23 26 24 27 25 28 26 29 27 30 28 31 29 32 30 33 82 34 31 35
REMARK SMILES IDX 81 36 32 37 33 38 34 39 75 40 35 41 80 42 74 43 76 44 36 45
REMARK SMILES IDX 79 46 73 47 72 48 37 50 63 51 46 52 62 53 47 54 50 55 61 56
REMARK SMILES IDX 77 57 48 58 49 59 60 61 78 62 51 63 38 64 39 65 44 66 40 67
REMARK SMILES IDX 41 68 43 69 45 70 42 71 64 72 65 73 70 74 66 75 67 76 69 77
REMARK SMILES IDX 71 78 68 79 52 80 53 81 58 82 54 83 55 84 57 85 59 86 56 87
REMARK H PARENT 3 11 6 14 11 20 76 49 50 60
REMARK Flexibility Score: inf
ROOT
ATOM      1  O   UNL A   1      33.051  30.338  25.788  1.00  0.00    -0.376 OA
ENDROOT
BRANCH   1   2
ATOM      2  C   UNL A   1      33.623  29.049  25.943  1.00  0.00     0.202 C 
BRANCH   2   3
ATOM      3  C   UNL A   1      33.427  28.127  24.735  1.00  0.00     0.261 C 
BRANCH   3   4
ATOM      4  O   UNL A   1      33.521  26.678  24.794  1.00  0.00    -0.462 OA
BRANCH   4   5
ATOM      5  C   UNL A   1      32.613  25.759  25.187  1.00  0.00     0.328 C 
ATOM      6  O   UNL A   1      31.467  25.954  25.578  1.00  0.00    -0.250 OA
BRANCH   5   7
ATOM      7  C   UNL A   1      33.193  24.360  25.162  1.00  0.00     0.190 C 
ATOM      8  C   UNL A   1      34.587  24.464  24.532  1.00  0.00     0.043 C 
BRANCH   7   9
ATOM      9  N   UNL A   1      33.285  23.798  26.506  1.00  0.00    -0.325 N 
ATOM     10  C   UNL A   1      32.662  22.799  27.140  1.00  0.00     0.315 C 
ATOM     11  H   UNL A   1      33.951  24.255  27.070  1.00  0.00     0.166 HD
ATOM     12  O   UNL A   1      32.934  22.626  28.330  1.00  0.00    -0.249 OA
ATOM     13  N   UNL A   1      31.723  22.009  26.602  1.00  0.00    -0.338 N 
ATOM     14  H   UNL A   1      31.216  21.511  27.283  1.00  0.00     0.165 HD
BRANCH  13  15
ATOM     15  C   UNL A   1      31.274  21.714  25.251  1.00  0.00     0.127 C 
BRANCH  15  16
ATOM     16  C   UNL A   1      32.179  20.951  24.297  1.00  0.00     0.121 C 
BRANCH  16  17
ATOM     17  C   UNL A   1      32.824  19.779  24.967  1.00  0.00     0.221 C 
ATOM     18  O   UNL A   1      32.155  18.824  25.364  1.00  0.00    -0.275 OA
ATOM     19  N   UNL A   1      34.170  19.798  25.193  1.00  0.00    -0.353 N 
ATOM     20  H   UNL A   1      34.501  18.990  25.648  1.00  0.00     0.163 HD
BRANCH  19  21
ATOM     21  C   UNL A   1      35.198  20.751  24.905  1.00  0.00     0.082 C 
ATOM     22  C   UNL A   1      35.960  21.450  25.996  1.00  0.00     0.027 C 
ATOM     23  C   UNL A   1      36.692  20.604  25.002  1.00  0.00     0.027 C 
ENDBRANCH  19  21
ENDBRANCH  16  17
ENDBRANCH  15  16
ENDBRANCH  13  15
ENDBRANCH   7   9
ENDBRANCH   5   7
ENDBRANCH   4   5
ENDBRANCH   3   4
ENDBRANCH   2   3
ENDBRANCH   1   2
BRANCH   1  24
ATOM     24  C   UNL A   1      32.164  30.712  26.827  1.00  0.00     0.188 C 
BRANCH  24  25
ATOM     25  C   UNL A   1      31.607  32.139  26.679  1.00  0.00     0.188 C 
BRANCH  25  26
ATOM     26  O   UNL A   1      32.149  33.212  27.424  1.00  0.00    -0.376 OA
BRANCH  26  27
ATOM     27  C   UNL A   1      33.409  33.029  28.027  1.00  0.00     0.202 C 
BRANCH  27  28
ATOM     28  C   UNL A   1      33.812  33.917  29.221  1.00  0.00     0.261 C 
BRANCH  28  29
ATOM     29  O   UNL A   1      35.095  33.688  29.834  1.00  0.00    -0.460 OA
BRANCH  29  30
ATOM     30  C   UNL A   1      35.184  32.687  30.758  1.00  0.00     0.338 C 
ATOM     31  O   UNL A   1      34.369  32.390  31.589  1.00  0.00    -0.246 OA
BRANCH  30  32
ATOM     32  C   UNL A   1      36.385  31.858  30.413  1.00  0.00     0.060 A 
ATOM     33  C   UNL A   1      37.041  31.140  31.429  1.00  0.00     0.016 A 
ATOM     34  C   UNL A   1      36.833  31.754  29.098  1.00  0.00     0.016 A 
ATOM     35  C   UNL A   1      38.127  30.307  31.134  1.00  0.00     0.010 A 
ATOM     36  C   UNL A   1      37.957  30.968  28.811  1.00  0.00     0.010 A 
ATOM     37  C   UNL A   1      38.620  30.252  29.826  1.00  0.00    -0.014 A 
BRANCH  37  38
ATOM     38  C   UNL A   1      39.947  29.648  29.538  1.00  0.00     0.031 A 
ATOM     39  C   UNL A   1      41.137  30.569  29.498  1.00  0.00     0.074 A 
ATOM     40  C   UNL A   1      40.103  28.341  29.265  1.00  0.00     0.049 A 
ATOM     41  N   UNL A   1      42.348  30.346  29.061  1.00  0.00    -0.248 NA
ATOM     42  C   UNL A   1      40.923  31.932  30.014  1.00  0.00     0.031 C 
ATOM     43  C   UNL A   1      39.058  27.324  29.335  1.00  0.00     0.029 A 
ATOM     44  N   UNL A   1      41.214  27.652  28.831  1.00  0.00    -0.354 N 
ATOM     45  C   UNL A   1      43.029  31.546  29.215  1.00  0.00     0.074 A 
ATOM     46  C   UNL A   1      42.102  32.494  29.793  1.00  0.00     0.031 C 
ATOM     47  C   UNL A   1      39.563  26.150  28.912  1.00  0.00     0.029 A 
ATOM     48  C   UNL A   1      40.952  26.345  28.494  1.00  0.00     0.049 A 
ATOM     49  H   UNL A   1      42.109  28.057  28.769  1.00  0.00     0.167 HD
ATOM     50  C   UNL A   1      44.310  31.836  28.893  1.00  0.00     0.037 A 
ATOM     51  C   UNL A   1      41.725  25.434  27.868  1.00  0.00     0.037 A 
ATOM     52  C   UNL A   1      45.239  30.893  28.333  1.00  0.00     0.049 A 
ATOM     53  C   UNL A   1      43.124  25.810  27.437  1.00  0.00     0.074 A 
ATOM     54  C   UNL A   1      46.572  31.085  28.020  1.00  0.00     0.029 A 
ATOM     55  N   UNL A   1      44.927  29.589  27.991  1.00  0.00    -0.354 N 
ATOM     56  N   UNL A   1      43.771  26.936  27.611  1.00  0.00    -0.248 NA
ATOM     57  C   UNL A   1      43.894  24.788  26.707  1.00  0.00     0.031 C 
ATOM     58  C   UNL A   1      47.054  29.913  27.431  1.00  0.00     0.029 A 
ATOM     59  C   UNL A   1      46.034  28.975  27.429  1.00  0.00     0.049 A 
ATOM     60  H   UNL A   1      44.051  29.161  28.128  1.00  0.00     0.167 HD
ATOM     61  C   UNL A   1      45.025  26.752  27.035  1.00  0.00     0.074 A 
ATOM     62  C   UNL A   1      45.057  25.399  26.522  1.00  0.00     0.031 C 
ATOM     63  C   UNL A   1      46.055  27.625  26.933  1.00  0.00     0.037 A 
BRANCH  50  64
ATOM     64  C   UNL A   1      44.782  33.243  29.097  1.00  0.00     0.057 A 
ATOM     65  C   UNL A   1      45.438  33.646  30.265  1.00  0.00     0.134 A 
ATOM     66  C   UNL A   1      44.641  34.188  28.071  1.00  0.00     0.134 A 
ATOM     67  F   UNL A   1      45.589  32.792  31.289  1.00  0.00    -0.206 F 
ATOM     68  C   UNL A   1      45.937  34.942  30.408  1.00  0.00     0.040 A 
ATOM     69  C   UNL A   1      45.155  35.478  28.194  1.00  0.00     0.040 A 
ATOM     70  F   UNL A   1      44.020  33.863  26.927  1.00  0.00    -0.206 F 
ATOM     71  C   UNL A   1      45.806  35.858  29.366  1.00  0.00     0.006 A 
ENDBRANCH  50  64
BRANCH  51  72
ATOM     72  C   UNL A   1      41.186  24.089  27.526  1.00  0.00     0.057 A 
ATOM     73  C   UNL A   1      40.220  23.923  26.525  1.00  0.00     0.134 A 
ATOM     74  C   UNL A   1      41.565  22.950  28.247  1.00  0.00     0.134 A 
ATOM     75  F   UNL A   1      39.788  24.980  25.821  1.00  0.00    -0.206 F 
ATOM     76  C   UNL A   1      39.632  22.680  26.273  1.00  0.00     0.040 A 
ATOM     77  C   UNL A   1      41.007  21.696  27.985  1.00  0.00     0.040 A 
ATOM     78  F   UNL A   1      42.477  23.039  29.226  1.00  0.00    -0.206 F 
ATOM     79  C   UNL A   1      40.028  21.562  27.003  1.00  0.00     0.006 A 
ENDBRANCH  51  72
BRANCH  63  80
ATOM     80  C   UNL A   1      47.316  27.147  26.271  1.00  0.00     0.057 A 
ATOM     81  C   UNL A   1      47.546  27.333  24.902  1.00  0.00     0.134 A 
ATOM     82  C   UNL A   1      48.338  26.553  27.024  1.00  0.00     0.134 A 
ATOM     83  F   UNL A   1      46.603  27.885  24.124  1.00  0.00    -0.206 F 
ATOM     84  C   UNL A   1      48.741  26.933  24.303  1.00  0.00     0.040 A 
ATOM     85  C   UNL A   1      49.548  26.174  26.441  1.00  0.00     0.040 A 
ATOM     86  F   UNL A   1      48.187  26.358  28.342  1.00  0.00    -0.206 F 
ATOM     87  C   UNL A   1      49.751  26.359  25.075  1.00  0.00     0.006 A 
ENDBRANCH  63  80
ENDBRANCH  37  38
ENDBRANCH  30  32
ENDBRANCH  29  30
ENDBRANCH  28  29
ENDBRANCH  27  28
ENDBRANCH  26  27
ENDBRANCH  25  26
ENDBRANCH  24  25
ENDBRANCH   1  24
TORSDOF 22
ENDMDL
MODEL 2
REMARK VINA RESULT:      -9.1      2.031      3.904
REMARK SMILES C[C@@H](NC(=O)NCCC(=O)NC1CC1)C(=O)OCCOCCOCCOC(=O)c1ccc(-c2c3nc(c(-c4c(F)cccc4F)c4ccc([nH]4)c(-c4c(F)cccc4F)c4nc(c(-c5c(F)cccc5F)c5ccc2[nH]5)C=C4)C=C3)cc1
REMARK SMILES IDX 20 1 19 2 18 3 17 4 15 5 16 6 2 7 1 8 3 9 4 10 5 12 6 13
REMARK SMILES IDX 7 15 8 16 9 17 10 18 11 19 12 21 13 22 14 23 21 24 22 25
REMARK SMILES IDX 23 26 24 27 25 28 26 29 27 30 28 31 29 32 30 33 82 34 31 35
REMARK SMILES IDX 81 36 32 37 33 38 34 39 75 40 35 41 80 42 74 43 76 44 36 45
REMARK SMILES IDX 79 46 73 47 72 48 37 50 63 51 46 52 62 53 47 54 50 55 61 56
REMARK SMILES IDX 77 57 48 58 49 59 60 61 78 62 51 63 38 64 39 65 44 66 40 67
REMARK SMILES IDX 41 68 43 69 45 70 42 71 64 72 65 73 70 74 66 75 67 76 69 77
REMARK SMILES IDX 71 78 68 79 52 80 53 81 58 82 54 83 55 84 57 85 59 86 56 87
REMARK H PARENT 3 11 6 14 11 20 76 49 50 60
REMARK Flexibility Score: inf
ROOT
ATOM      1  O   UNL A   1      34.970  29.744  27.097  1.00  0.00    -0.376 OA
ENDROOT
BRANCH   1   2
ATOM      2  C   UNL A   1      33.771  29.006  26.925  1.00  0.00     0.202 C 
BRANCH   2   3
ATOM      3  C   UNL A   1      33.942  27.713  26.122  1.00  0.00     0.261 C 
BRANCH   3   4
ATOM      4  O   UNL A   1      32.901  26.711  25.963  1.00  0.00    -0.462 OA
BRANCH   4   5
ATOM      5  C   UNL A   1      32.791  25.699  25.076  1.00  0.00     0.328 C 
ATOM      6  O   UNL A   1      31.903  24.856  25.004  1.00  0.00    -0.250 OA
BRANCH   5   7
ATOM      7  C   UNL A   1      33.981  25.649  24.140  1.00  0.00     0.190 C 
ATOM      8  C   UNL A   1      34.923  24.563  24.673  1.00  0.00     0.043 C 
BRANCH   7   9
ATOM      9  N   UNL A   1      33.571  25.339  22.774  1.00  0.00    -0.325 N 
ATOM     10  C   UNL A   1      32.917  26.015  21.823  1.00  0.00     0.315 C 
ATOM     11  H   UNL A   1      33.833  24.432  22.490  1.00  0.00     0.166 HD
ATOM     12  O   UNL A   1      32.667  25.419  20.774  1.00  0.00    -0.249 OA
ATOM     13  N   UNL A   1      32.462  27.270  21.943  1.00  0.00    -0.338 N 
ATOM     14  H   UNL A   1      31.804  27.498  21.248  1.00  0.00     0.165 HD
BRANCH  13  15
ATOM     15  C   UNL A   1      32.709  28.374  22.856  1.00  0.00     0.127 C 
BRANCH  15  16
ATOM     16  C   UNL A   1      31.567  28.954  23.676  1.00  0.00     0.121 C 
BRANCH  16  17
ATOM     17  C   UNL A   1      30.257  28.330  23.315  1.00  0.00     0.221 C 
ATOM     18  O   UNL A   1      30.080  27.115  23.414  1.00  0.00    -0.275 OA
ATOM     19  N   UNL A   1      29.260  29.115  22.811  1.00  0.00    -0.353 N 
ATOM     20  H   UNL A   1      28.441  28.615  22.593  1.00  0.00     0.163 HD
BRANCH  19  21
ATOM     21  C   UNL A   1      29.163  30.516  22.535  1.00  0.00     0.082 C 
ATOM     22  C   UNL A   1      28.027  31.090  21.735  1.00  0.00     0.027 C 
ATOM     23  C   UNL A   1      28.252  31.549  23.142  1.00  0.00     0.027 C 
ENDBRANCH  19  21
ENDBRANCH  16  17
ENDBRANCH  15  16
ENDBRANCH  13  15
ENDBRANCH   7   9
ENDBRANCH   5   7
ENDBRANCH   4   5
ENDBRANCH   3   4
ENDBRANCH   2   3
ENDBRANCH   1   2
BRANCH   1  24
ATOM     24  C   UNL A   1      34.932  30.678  28.163  1.00  0.00     0.188 C 
BRANCH  24  25
ATOM     25  C   UNL A   1      33.995  31.871  27.903  1.00  0.00     0.188 C 
BRANCH  25  26
ATOM     26  O   UNL A   1      34.455  33.200  28.044  1.00  0.00    -0.376 OA
BRANCH  26  27
ATOM     27  C   UNL A   1      33.707  34.078  28.854  1.00  0.00     0.202 C 
BRANCH  27  28
ATOM     28  C   UNL A   1      34.065  34.221  30.347  1.00  0.00     0.261 C 
BRANCH  28  29
ATOM     29  O   UNL A   1      35.389  33.842  30.767  1.00  0.00    -0.460 OA
BRANCH  29  30
ATOM     30  C   UNL A   1      35.541  32.614  31.344  1.00  0.00     0.338 C 
ATOM     31  O   UNL A   1      34.696  31.957  31.889  1.00  0.00    -0.246 OA
BRANCH  30  32
ATOM     32  C   UNL A   1      36.905  32.108  30.979  1.00  0.00     0.060 A 
ATOM     33  C   UNL A   1      37.388  32.310  29.673  1.00  0.00     0.016 A 
ATOM     34  C   UNL A   1      37.715  31.481  31.923  1.00  0.00     0.016 A 
ATOM     35  C   UNL A   1      38.680  31.906  29.315  1.00  0.00     0.010 A 
ATOM     36  C   UNL A   1      38.985  31.022  31.548  1.00  0.00     0.010 A 
ATOM     37  C   UNL A   1      39.470  31.218  30.241  1.00  0.00    -0.014 A 
BRANCH  37  38
ATOM     38  C   UNL A   1      40.695  30.497  29.808  1.00  0.00     0.031 A 
ATOM     39  C   UNL A   1      41.948  31.308  29.615  1.00  0.00     0.074 A 
ATOM     40  C   UNL A   1      40.702  29.179  29.537  1.00  0.00     0.049 A 
ATOM     41  N   UNL A   1      43.075  30.976  29.041  1.00  0.00    -0.248 NA
ATOM     42  C   UNL A   1      41.918  32.686  30.132  1.00  0.00     0.031 C 
ATOM     43  C   UNL A   1      39.587  28.259  29.744  1.00  0.00     0.029 A 
ATOM     44  N   UNL A   1      41.690  28.393  28.986  1.00  0.00    -0.354 N 
ATOM     45  C   UNL A   1      43.872  32.111  29.097  1.00  0.00     0.074 A 
ATOM     46  C   UNL A   1      43.107  33.140  29.765  1.00  0.00     0.031 C 
ATOM     47  C   UNL A   1      39.933  27.044  29.282  1.00  0.00     0.029 A 
ATOM     48  C   UNL A   1      41.276  27.113  28.702  1.00  0.00     0.049 A 
ATOM     49  H   UNL A   1      42.603  28.716  28.814  1.00  0.00     0.167 HD
ATOM     50  C   UNL A   1      45.126  32.284  28.623  1.00  0.00     0.037 A 
ATOM     51  C   UNL A   1      41.886  26.134  28.003  1.00  0.00     0.037 A 
ATOM     52  C   UNL A   1      45.896  31.260  27.971  1.00  0.00     0.049 A 
ATOM     53  C   UNL A   1      43.251  26.381  27.405  1.00  0.00     0.074 A 
ATOM     54  C   UNL A   1      47.195  31.331  27.501  1.00  0.00     0.029 A 
ATOM     55  N   UNL A   1      45.432  29.987  27.688  1.00  0.00    -0.354 N 
ATOM     56  N   UNL A   1      44.011  27.446  27.485  1.00  0.00    -0.248 NA
ATOM     57  C   UNL A   1      43.837  25.292  26.604  1.00  0.00     0.031 C 
ATOM     58  C   UNL A   1      47.499  30.118  26.877  1.00  0.00     0.029 A 
ATOM     59  C   UNL A   1      46.407  29.275  27.008  1.00  0.00     0.049 A 
ATOM     60  H   UNL A   1      44.544  29.640  27.932  1.00  0.00     0.167 HD
ATOM     61  C   UNL A   1      45.167  27.148  26.769  1.00  0.00     0.074 A 
ATOM     62  C   UNL A   1      45.019  25.796  26.276  1.00  0.00     0.031 C 
ATOM     63  C   UNL A   1      46.251  27.926  26.533  1.00  0.00     0.037 A 
BRANCH  50  64
ATOM     64  C   UNL A   1      45.741  33.645  28.748  1.00  0.00     0.057 A 
ATOM     65  C   UNL A   1      46.516  34.011  29.854  1.00  0.00     0.134 A 
ATOM     66  C   UNL A   1      45.614  34.573  27.707  1.00  0.00     0.134 A 
ATOM     67  F   UNL A   1      46.662  33.172  30.891  1.00  0.00    -0.206 F 
ATOM     68  C   UNL A   1      47.143  35.257  29.921  1.00  0.00     0.040 A 
ATOM     69  C   UNL A   1      46.253  35.812  27.753  1.00  0.00     0.040 A 
ATOM     70  F   UNL A   1      44.883  34.281  26.620  1.00  0.00    -0.206 F 
ATOM     71  C   UNL A   1      47.021  36.156  28.863  1.00  0.00     0.006 A 
ENDBRANCH  50  64
BRANCH  51  72
ATOM     72  C   UNL A   1      41.194  24.841  27.746  1.00  0.00     0.057 A 
ATOM     73  C   UNL A   1      41.601  23.657  28.376  1.00  0.00     0.134 A 
ATOM     74  C   UNL A   1      40.162  24.744  26.804  1.00  0.00     0.134 A 
ATOM     75  F   UNL A   1      42.607  23.676  29.262  1.00  0.00    -0.206 F 
ATOM     76  C   UNL A   1      41.027  22.423  28.058  1.00  0.00     0.040 A 
ATOM     77  C   UNL A   1      39.558  23.522  26.500  1.00  0.00     0.040 A 
ATOM     78  F   UNL A   1      39.729  25.835  26.156  1.00  0.00    -0.206 F 
ATOM     79  C   UNL A   1      39.999  22.354  27.119  1.00  0.00     0.006 A 
ENDBRANCH  51  72
BRANCH  63  80
ATOM     80  C   UNL A   1      47.377  27.335  25.735  1.00  0.00     0.057 A 
ATOM     81  C   UNL A   1      47.456  27.489  24.345  1.00  0.00     0.134 A 
ATOM     82  C   UNL A   1      48.428  26.661  26.372  1.00  0.00     0.134 A 
ATOM     83  F   UNL A   1      46.477  28.114  23.674  1.00  0.00    -0.206 F 
ATOM     84  C   UNL A   1      48.532  26.981  23.615  1.00  0.00     0.040 A 
ATOM     85  C   UNL A   1      49.523  26.173  25.657  1.00  0.00     0.040 A 
ATOM     86  F   UNL A   1      48.421  26.491  27.702  1.00  0.00    -0.206 F 
ATOM     87  C   UNL A   1      49.575  26.329  24.273  1.00  0.00     0.006 A 
ENDBRANCH  63  80
ENDBRANCH  37  38
ENDBRANCH  30  32
ENDBRANCH  29  30
ENDBRANCH  28  29
ENDBRANCH  27  28
ENDBRANCH  26  27
ENDBRANCH  25  26
ENDBRANCH  24  25
ENDBRANCH   1  24
TORSDOF 22
ENDMDL
MODEL 3
REMARK VINA RESULT:      -8.8      2.489      7.160
REMARK SMILES C[C@@H](NC(=O)NCCC(=O)NC1CC1)C(=O)OCCOCCOCCOC(=O)c1ccc(-c2c3nc(c(-c4c(F)cccc4F)c4ccc([nH]4)c(-c4c(F)cccc4F)c4nc(c(-c5c(F)cccc5F)c5ccc2[nH]5)C=C4)C=C3)cc1
REMARK SMILES IDX 20 1 19 2 18 3 17 4 15 5 16 6 2 7 1 8 3 9 4 10 5 12 6 13
REMARK SMILES IDX 7 15 8 16 9 17 10 18 11 19 12 21 13 22 14 23 21 24 22 25
REMARK SMILES IDX 23 26 24 27 25 28 26 29 27 30 28 31 29 32 30 33 82 34 31 35
REMARK SMILES IDX 81 36 32 37 33 38 34 39 75 40 35 41 80 42 74 43 76 44 36 45
REMARK SMILES IDX 79 46 73 47 72 48 37 50 63 51 46 52 62 53 47 54 50 55 61 56
REMARK SMILES IDX 77 57 48 58 49 59 60 61 78 62 51 63 38 64 39 65 44 66 40 67
REMARK SMILES IDX 41 68 43 69 45 70 42 71 64 72 65 73 70 74 66 75 67 76 69 77
REMARK SMILES IDX 71 78 68 79 52 80 53 81 58 82 54 83 55 84 57 85 59 86 56 87
REMARK H PARENT 3 11 6 14 11 20 76 49 50 60
REMARK Flexibility Score: inf
ROOT
ATOM      1  O   UNL A   1      35.239  32.250  27.708  1.00  0.00    -0.376 OA
ENDROOT
BRANCH   1   2
ATOM      2  C   UNL A   1      34.087  31.426  27.631  1.00  0.00     0.202 C 
BRANCH   2   3
ATOM      3  C   UNL A   1      34.393  29.931  27.499  1.00  0.00     0.261 C 
BRANCH   3   4
ATOM      4  O   UNL A   1      33.619  29.011  26.684  1.00  0.00    -0.462 OA
BRANCH   4   5
ATOM      5  C   UNL A   1      32.312  28.677  26.745  1.00  0.00     0.328 C 
ATOM      6  O   UNL A   1      31.549  28.797  27.698  1.00  0.00    -0.250 OA
BRANCH   5   7
ATOM      7  C   UNL A   1      31.842  28.034  25.457  1.00  0.00     0.190 C 
ATOM      8  C   UNL A   1      31.130  26.732  25.841  1.00  0.00     0.043 C 
BRANCH   7   9
ATOM      9  N   UNL A   1      30.935  28.912  24.723  1.00  0.00    -0.325 N 
ATOM     10  C   UNL A   1      30.681  29.109  23.425  1.00  0.00     0.315 C 
ATOM     11  H   UNL A   1      30.392  29.483  25.314  1.00  0.00     0.166 HD
ATOM     12  O   UNL A   1      29.882  30.002  23.134  1.00  0.00    -0.249 OA
ATOM     13  N   UNL A   1      31.269  28.455  22.415  1.00  0.00    -0.338 N 
ATOM     14  H   UNL A   1      31.138  28.906  21.550  1.00  0.00     0.165 HD
BRANCH  13  15
ATOM     15  C   UNL A   1      32.055  27.238  22.292  1.00  0.00     0.127 C 
BRANCH  15  16
ATOM     16  C   UNL A   1      31.497  26.045  21.533  1.00  0.00     0.121 C 
BRANCH  16  17
ATOM     17  C   UNL A   1      32.586  25.220  20.925  1.00  0.00     0.221 C 
ATOM     18  O   UNL A   1      33.109  25.540  19.857  1.00  0.00    -0.275 OA
ATOM     19  N   UNL A   1      32.966  24.061  21.539  1.00  0.00    -0.353 N 
ATOM     20  H   UNL A   1      33.680  23.581  21.061  1.00  0.00     0.163 HD
BRANCH  19  21
ATOM     21  C   UNL A   1      32.538  23.400  22.735  1.00  0.00     0.082 C 
ATOM     22  C   UNL A   1      33.413  22.408  23.449  1.00  0.00     0.027 C 
ATOM     23  C   UNL A   1      32.952  23.641  24.161  1.00  0.00     0.027 C 
ENDBRANCH  19  21
ENDBRANCH  16  17
ENDBRANCH  15  16
ENDBRANCH  13  15
ENDBRANCH   7   9
ENDBRANCH   5   7
ENDBRANCH   4   5
ENDBRANCH   3   4
ENDBRANCH   2   3
ENDBRANCH   1   2
BRANCH   1  24
ATOM     24  C   UNL A   1      35.732  32.442  29.022  1.00  0.00     0.188 C 
BRANCH  24  25
ATOM     25  C   UNL A   1      34.673  32.972  30.006  1.00  0.00     0.188 C 
BRANCH  25  26
ATOM     26  O   UNL A   1      34.532  32.408  31.295  1.00  0.00    -0.376 OA
BRANCH  26  27
ATOM     27  C   UNL A   1      35.535  32.671  32.248  1.00  0.00     0.202 C 
BRANCH  27  28
ATOM     28  C   UNL A   1      36.392  31.508  32.787  1.00  0.00     0.261 C 
BRANCH  28  29
ATOM     29  O   UNL A   1      36.647  30.392  31.914  1.00  0.00    -0.460 OA
BRANCH  29  30
ATOM     30  C   UNL A   1      37.427  29.380  32.393  1.00  0.00     0.338 C 
ATOM     31  O   UNL A   1      37.113  28.531  33.184  1.00  0.00    -0.246 OA
BRANCH  30  32
ATOM     32  C   UNL A   1      38.691  29.362  31.587  1.00  0.00     0.060 A 
ATOM     33  C   UNL A   1      38.617  29.474  30.187  1.00  0.00     0.016 A 
ATOM     34  C   UNL A   1      39.937  29.279  32.205  1.00  0.00     0.016 A 
ATOM     35  C   UNL A   1      39.779  29.523  29.408  1.00  0.00     0.010 A 
ATOM     36  C   UNL A   1      41.099  29.268  31.421  1.00  0.00     0.010 A 
ATOM     37  C   UNL A   1      41.028  29.374  30.019  1.00  0.00    -0.014 A 
BRANCH  37  38
ATOM     38  C   UNL A   1      42.243  29.097  29.210  1.00  0.00     0.031 A 
ATOM     39  C   UNL A   1      42.407  27.707  28.656  1.00  0.00     0.074 A 
ATOM     40  C   UNL A   1      43.204  30.015  29.009  1.00  0.00     0.049 A 
ATOM     41  N   UNL A   1      43.456  27.145  28.116  1.00  0.00    -0.248 NA
ATOM     42  C   UNL A   1      41.226  26.831  28.735  1.00  0.00     0.031 C 
ATOM     43  C   UNL A   1      43.148  31.414  29.424  1.00  0.00     0.029 A 
ATOM     44  N   UNL A   1      44.446  29.886  28.427  1.00  0.00    -0.354 N 
ATOM     45  C   UNL A   1      43.074  25.842  27.822  1.00  0.00     0.074 A 
ATOM     46  C   UNL A   1      41.696  25.697  28.237  1.00  0.00     0.031 C 
ATOM     47  C   UNL A   1      44.321  32.004  29.129  1.00  0.00     0.029 A 
ATOM     48  C   UNL A   1      45.228  31.011  28.550  1.00  0.00     0.049 A 
ATOM     49  H   UNL A   1      44.745  29.068  27.969  1.00  0.00     0.167 HD
ATOM     50  C   UNL A   1      43.809  24.852  27.268  1.00  0.00     0.037 A 
ATOM     51  C   UNL A   1      46.536  31.197  28.280  1.00  0.00     0.037 A 
ATOM     52  C   UNL A   1      45.174  24.997  26.842  1.00  0.00     0.049 A 
ATOM     53  C   UNL A   1      47.360  30.049  27.745  1.00  0.00     0.074 A 
ATOM     54  C   UNL A   1      45.984  24.062  26.223  1.00  0.00     0.029 A 
ATOM     55  N   UNL A   1      45.931  26.145  27.000  1.00  0.00    -0.354 N 
ATOM     56  N   UNL A   1      46.987  28.829  27.444  1.00  0.00    -0.248 NA
ATOM     57  C   UNL A   1      48.795  30.302  27.527  1.00  0.00     0.031 C 
ATOM     58  C   UNL A   1      47.253  24.623  26.062  1.00  0.00     0.029 A 
ATOM     59  C   UNL A   1      47.215  25.927  26.531  1.00  0.00     0.049 A 
ATOM     60  H   UNL A   1      45.606  26.990  27.388  1.00  0.00     0.167 HD
ATOM     61  C   UNL A   1      48.129  28.181  26.982  1.00  0.00     0.074 A 
ATOM     62  C   UNL A   1      49.206  29.145  27.025  1.00  0.00     0.031 C 
ATOM     63  C   UNL A   1      48.275  26.899  26.568  1.00  0.00     0.037 A 
BRANCH  50  64
ATOM     64  C   UNL A   1      43.173  23.504  27.125  1.00  0.00     0.057 A 
ATOM     65  C   UNL A   1      42.997  22.645  28.216  1.00  0.00     0.134 A 
ATOM     66  C   UNL A   1      42.662  23.095  25.886  1.00  0.00     0.134 A 
ATOM     67  F   UNL A   1      43.478  22.973  29.424  1.00  0.00    -0.206 F 
ATOM     68  C   UNL A   1      42.336  21.423  28.079  1.00  0.00     0.040 A 
ATOM     69  C   UNL A   1      41.980  21.887  25.742  1.00  0.00     0.040 A 
ATOM     70  F   UNL A   1      42.799  23.874  24.802  1.00  0.00    -0.206 F 
ATOM     71  C   UNL A   1      41.816  21.047  26.842  1.00  0.00     0.006 A 
ENDBRANCH  50  64
BRANCH  51  72
ATOM     72  C   UNL A   1      47.195  32.498  28.581  1.00  0.00     0.057 A 
ATOM     73  C   UNL A   1      47.706  32.781  29.854  1.00  0.00     0.134 A 
ATOM     74  C   UNL A   1      47.256  33.519  27.624  1.00  0.00     0.134 A 
ATOM     75  F   UNL A   1      47.646  31.858  30.826  1.00  0.00    -0.206 F 
ATOM     76  C   UNL A   1      48.227  34.038  30.172  1.00  0.00     0.040 A 
ATOM     77  C   UNL A   1      47.802  34.770  27.919  1.00  0.00     0.040 A 
ATOM     78  F   UNL A   1      46.776  33.320  26.388  1.00  0.00    -0.206 F 
ATOM     79  C   UNL A   1      48.279  35.036  29.201  1.00  0.00     0.006 A 
ENDBRANCH  51  72
BRANCH  63  80
ATOM     80  C   UNL A   1      49.634  26.466  26.098  1.00  0.00     0.057 A 
ATOM     81  C   UNL A   1      50.095  26.754  24.808  1.00  0.00     0.134 A 
ATOM     82  C   UNL A   1      50.516  25.811  26.969  1.00  0.00     0.134 A 
ATOM     83  F   UNL A   1      49.295  27.369  23.923  1.00  0.00    -0.206 F 
ATOM     84  C   UNL A   1      51.378  26.395  24.394  1.00  0.00     0.040 A 
ATOM     85  C   UNL A   1      51.812  25.471  26.576  1.00  0.00     0.040 A 
ATOM     86  F   UNL A   1      50.143  25.517  28.222  1.00  0.00    -0.206 F 
ATOM     87  C   UNL A   1      52.245  25.759  25.283  1.00  0.00     0.006 A 
ENDBRANCH  63  80
ENDBRANCH  37  38
ENDBRANCH  30  32
ENDBRANCH  29  30
ENDBRANCH  28  29
ENDBRANCH  27  28
ENDBRANCH  26  27
ENDBRANCH  25  26
ENDBRANCH  24  25
ENDBRANCH   1  24
TORSDOF 22
ENDMDL
