MODEL 1
REMARK VINA RESULT:     -11.8      0.000      0.000
REMARK SMILES O=C(C[C@H](NC(=O)[C@]12C[C@H]3C[C@H](C[C@H](C3)C1)C2)c1cccc([N+](=O)[O-])c1)OCCOCCOCCOC(=O)c1ccc(-c2c3nc(c(-c4c(F)cccc4F)c4ccc([nH]4)c(-c4c(F)cccc4F)c4nc(c(-c5c(F)cccc5F)c5ccc2[nH]5)C=C4)C=C3)cc1
REMARK SMILES IDX 31 1 30 2 29 3 28 4 27 5 2 6 1 7 3 8 4 9 18 10 19 11 26 12
REMARK SMILES IDX 20 13 22 14 21 15 23 16 24 17 25 18 5 19 6 20 7 22 8 23 9 24
REMARK SMILES IDX 16 25 17 26 10 27 14 28 12 29 11 30 15 31 13 32 32 33 33 34
REMARK SMILES IDX 34 35 35 36 36 37 37 38 38 39 39 40 40 41 92 42 41 43 91 44
REMARK SMILES IDX 42 45 43 46 44 47 85 48 45 49 90 50 84 51 86 52 46 53 89 54
REMARK SMILES IDX 83 55 82 56 47 58 73 59 56 60 72 61 57 62 60 63 71 64 87 65
REMARK SMILES IDX 58 66 59 67 70 69 88 70 61 71 48 72 49 73 54 74 50 75 51 76
REMARK SMILES IDX 53 77 55 78 52 79 74 80 75 81 80 82 76 83 77 84 79 85 81 86
REMARK SMILES IDX 78 87 62 88 63 89 68 90 64 91 65 92 67 93 69 94 66 95
REMARK H PARENT 5 21 86 57 60 68
REMARK Flexibility Score: inf
ROOT
ATOM      1  C   UNL A   1      33.860  33.797  28.435  1.00  0.00     0.188 C 
ENDROOT
BRANCH   1   2
ATOM      2  O   UNL A   1      34.734  32.965  27.692  1.00  0.00    -0.376 OA
BRANCH   2   3
ATOM      3  C   UNL A   1      34.502  31.567  27.758  1.00  0.00     0.202 C 
BRANCH   3   4
ATOM      4  C   UNL A   1      33.150  31.090  27.235  1.00  0.00     0.261 C 
BRANCH   4   5
ATOM      5  O   UNL A   1      33.245  30.240  26.070  1.00  0.00    -0.463 OA
BRANCH   5   6
ATOM      6  C   UNL A   1      32.575  29.113  25.785  1.00  0.00     0.308 C 
ATOM      7  O   UNL A   1      32.438  28.255  26.657  1.00  0.00    -0.252 OA
BRANCH   6   8
ATOM      8  C   UNL A   1      32.333  28.730  24.343  1.00  0.00     0.152 C 
BRANCH   8   9
ATOM      9  C   UNL A   1      31.719  27.385  23.944  1.00  0.00     0.123 C 
BRANCH   9  10
ATOM     10  C   UNL A   1      30.218  27.568  23.787  1.00  0.00    -0.018 A 
ATOM     11  C   UNL A   1      29.320  26.539  24.119  1.00  0.00     0.006 A 
ATOM     12  C   UNL A   1      29.711  28.783  23.295  1.00  0.00     0.091 A 
ATOM     13  C   UNL A   1      27.949  26.693  23.900  1.00  0.00     0.007 A 
ATOM     14  C   UNL A   1      28.338  28.929  23.073  1.00  0.00     0.269 A 
ATOM     15  C   UNL A   1      27.455  27.884  23.366  1.00  0.00     0.085 A 
BRANCH  14  16
ATOM     16  N   UNL A   1      27.837  30.179  22.495  1.00  0.00     0.062 N 
ATOM     17  O   UNL A   1      27.263  30.973  23.253  1.00  0.00    -0.258 OA
ATOM     18  O   UNL A   1      28.013  30.365  21.283  1.00  0.00    -0.258 OA
ENDBRANCH  14  16
ENDBRANCH   9  10
BRANCH   9  19
ATOM     19  N   UNL A   1      32.311  26.789  22.753  1.00  0.00    -0.348 N 
ATOM     20  C   UNL A   1      33.248  25.827  22.543  1.00  0.00     0.226 C 
ATOM     21  H   UNL A   1      31.954  27.165  21.916  1.00  0.00     0.164 HD
ATOM     22  O   UNL A   1      33.739  25.847  21.408  1.00  0.00    -0.274 OA
BRANCH  20  23
ATOM     23  C   UNL A   1      33.632  24.715  23.544  1.00  0.00     0.050 C 
ATOM     24  C   UNL A   1      34.605  23.636  23.031  1.00  0.00     0.020 C 
ATOM     25  C   UNL A   1      32.330  23.962  23.973  1.00  0.00     0.020 C 
ATOM     26  C   UNL A   1      34.197  25.384  24.819  1.00  0.00     0.020 C 
ATOM     27  C   UNL A   1      34.920  22.604  24.131  1.00  0.00    -0.010 C 
ATOM     28  C   UNL A   1      32.617  22.923  25.072  1.00  0.00    -0.010 C 
ATOM     29  C   UNL A   1      34.510  24.348  25.905  1.00  0.00    -0.010 C 
ATOM     30  C   UNL A   1      35.516  23.328  25.350  1.00  0.00     0.007 C 
ATOM     31  C   UNL A   1      33.625  21.893  24.546  1.00  0.00     0.007 C 
ATOM     32  C   UNL A   1      33.212  23.633  26.298  1.00  0.00     0.007 C 
ENDBRANCH  20  23
ENDBRANCH   9  19
ENDBRANCH   8   9
ENDBRANCH   6   8
ENDBRANCH   5   6
ENDBRANCH   4   5
ENDBRANCH   3   4
ENDBRANCH   2   3
ENDBRANCH   1   2
BRANCH   1  33
ATOM     33  C   UNL A   1      34.326  34.131  29.869  1.00  0.00     0.188 C 
BRANCH  33  34
ATOM     34  O   UNL A   1      33.441  34.791  30.764  1.00  0.00    -0.376 OA
BRANCH  34  35
ATOM     35  C   UNL A   1      33.683  34.733  32.161  1.00  0.00     0.202 C 
BRANCH  35  36
ATOM     36  C   UNL A   1      35.051  34.229  32.643  1.00  0.00     0.261 C 
BRANCH  36  37
ATOM     37  O   UNL A   1      35.163  32.796  32.754  1.00  0.00    -0.460 OA
BRANCH  37  38
ATOM     38  C   UNL A   1      36.279  32.349  33.381  1.00  0.00     0.338 C 
ATOM     39  O   UNL A   1      36.570  32.491  34.555  1.00  0.00    -0.246 OA
BRANCH  38  40
ATOM     40  C   UNL A   1      37.084  31.491  32.483  1.00  0.00     0.060 A 
ATOM     41  C   UNL A   1      38.082  30.696  33.066  1.00  0.00     0.016 A 
ATOM     42  C   UNL A   1      36.949  31.542  31.095  1.00  0.00     0.016 A 
ATOM     43  C   UNL A   1      38.991  30.009  32.262  1.00  0.00     0.010 A 
ATOM     44  C   UNL A   1      37.876  30.864  30.287  1.00  0.00     0.010 A 
ATOM     45  C   UNL A   1      38.931  30.135  30.868  1.00  0.00    -0.014 A 
BRANCH  45  46
ATOM     46  C   UNL A   1      40.091  29.677  30.058  1.00  0.00     0.031 A 
ATOM     47  C   UNL A   1      41.227  30.639  29.812  1.00  0.00     0.074 A 
ATOM     48  C   UNL A   1      40.183  28.413  29.609  1.00  0.00     0.049 A 
ATOM     49  N   UNL A   1      42.356  30.449  29.175  1.00  0.00    -0.248 NA
ATOM     50  C   UNL A   1      41.069  31.994  30.363  1.00  0.00     0.031 C 
ATOM     51  C   UNL A   1      39.179  27.370  29.803  1.00  0.00     0.029 A 
ATOM     52  N   UNL A   1      41.181  27.793  28.896  1.00  0.00    -0.354 N 
ATOM     53  C   UNL A   1      43.046  31.652  29.262  1.00  0.00     0.074 A 
ATOM     54  C   UNL A   1      42.191  32.579  29.972  1.00  0.00     0.031 C 
ATOM     55  C   UNL A   1      39.607  26.240  29.213  1.00  0.00     0.029 A 
ATOM     56  C   UNL A   1      40.907  26.484  28.587  1.00  0.00     0.049 A 
ATOM     57  H   UNL A   1      42.015  28.246  28.632  1.00  0.00     0.167 HD
ATOM     58  C   UNL A   1      44.287  31.958  28.812  1.00  0.00     0.037 A 
ATOM     59  C   UNL A   1      41.618  25.588  27.874  1.00  0.00     0.037 A 
ATOM     60  C   UNL A   1      45.142  31.050  28.095  1.00  0.00     0.049 A 
ATOM     61  C   UNL A   1      42.969  25.971  27.324  1.00  0.00     0.074 A 
ATOM     62  C   UNL A   1      46.412  31.275  27.591  1.00  0.00     0.029 A 
ATOM     63  N   UNL A   1      44.814  29.741  27.777  1.00  0.00    -0.354 N 
ATOM     64  N   UNL A   1      43.617  27.106  27.432  1.00  0.00    -0.248 NA
ATOM     65  C   UNL A   1      43.692  24.941  26.562  1.00  0.00     0.031 C 
ATOM     66  C   UNL A   1      46.836  30.115  26.933  1.00  0.00     0.029 A 
ATOM     67  C   UNL A   1      45.850  29.153  27.069  1.00  0.00     0.049 A 
ATOM     68  H   UNL A   1      43.970  29.295  28.018  1.00  0.00     0.167 HD
ATOM     69  C   UNL A   1      44.829  26.916  26.777  1.00  0.00     0.074 A 
ATOM     70  C   UNL A   1      44.835  25.553  26.293  1.00  0.00     0.031 C 
ATOM     71  C   UNL A   1      45.848  27.793  26.593  1.00  0.00     0.037 A 
BRANCH  58  72
ATOM     72  C   UNL A   1      44.791  33.346  29.078  1.00  0.00     0.057 A 
ATOM     73  C   UNL A   1      45.559  33.644  30.211  1.00  0.00     0.134 A 
ATOM     74  C   UNL A   1      44.537  34.387  28.177  1.00  0.00     0.134 A 
ATOM     75  F   UNL A   1      45.826  32.694  31.120  1.00  0.00    -0.206 F 
ATOM     76  C   UNL A   1      46.039  34.933  30.449  1.00  0.00     0.040 A 
ATOM     77  C   UNL A   1      45.032  35.674  28.391  1.00  0.00     0.040 A 
ATOM     78  F   UNL A   1      43.810  34.167  27.070  1.00  0.00    -0.206 F 
ATOM     79  C   UNL A   1      45.782  35.950  29.532  1.00  0.00     0.006 A 
ENDBRANCH  58  72
BRANCH  59  80
ATOM     80  C   UNL A   1      41.067  24.232  27.619  1.00  0.00     0.057 A 
ATOM     81  C   UNL A   1      41.554  23.106  28.293  1.00  0.00     0.134 A 
ATOM     82  C   UNL A   1      40.071  24.026  26.657  1.00  0.00     0.134 A 
ATOM     83  F   UNL A   1      42.527  23.235  29.207  1.00  0.00    -0.206 F 
ATOM     84  C   UNL A   1      41.089  21.822  28.002  1.00  0.00     0.040 A 
ATOM     85  C   UNL A   1      39.578  22.752  26.375  1.00  0.00     0.040 A 
ATOM     86  F   UNL A   1      39.559  25.063  25.979  1.00  0.00    -0.206 F 
ATOM     87  C   UNL A   1      40.095  21.644  27.042  1.00  0.00     0.006 A 
ENDBRANCH  59  80
BRANCH  71  88
ATOM     88  C   UNL A   1      47.063  27.296  25.863  1.00  0.00     0.057 A 
ATOM     89  C   UNL A   1      47.192  27.413  24.473  1.00  0.00     0.134 A 
ATOM     90  C   UNL A   1      48.127  26.712  26.563  1.00  0.00     0.134 A 
ATOM     91  F   UNL A   1      46.205  27.952  23.742  1.00  0.00    -0.206 F 
ATOM     92  C   UNL A   1      48.321  26.937  23.803  1.00  0.00     0.040 A 
ATOM     93  C   UNL A   1      49.272  26.258  25.907  1.00  0.00     0.040 A 
ATOM     94  F   UNL A   1      48.075  26.579  27.897  1.00  0.00    -0.206 F 
ATOM     95  C   UNL A   1      49.367  26.362  24.520  1.00  0.00     0.006 A 
ENDBRANCH  71  88
ENDBRANCH  45  46
ENDBRANCH  38  40
ENDBRANCH  37  38
ENDBRANCH  36  37
ENDBRANCH  35  36
ENDBRANCH  34  35
ENDBRANCH  33  34
ENDBRANCH   1  33
TORSDOF 22
ENDMDL
MODEL 2
REMARK VINA RESULT:     -10.9      1.218      2.049
REMARK SMILES O=C(C[C@H](NC(=O)[C@]12C[C@H]3C[C@H](C[C@H](C3)C1)C2)c1cccc([N+](=O)[O-])c1)OCCOCCOCCOC(=O)c1ccc(-c2c3nc(c(-c4c(F)cccc4F)c4ccc([nH]4)c(-c4c(F)cccc4F)c4nc(c(-c5c(F)cccc5F)c5ccc2[nH]5)C=C4)C=C3)cc1
REMARK SMILES IDX 31 1 30 2 29 3 28 4 27 5 2 6 1 7 3 8 4 9 18 10 19 11 26 12
REMARK SMILES IDX 20 13 22 14 21 15 23 16 24 17 25 18 5 19 6 20 7 22 8 23 9 24
REMARK SMILES IDX 16 25 17 26 10 27 14 28 12 29 11 30 15 31 13 32 32 33 33 34
REMARK SMILES IDX 34 35 35 36 36 37 37 38 38 39 39 40 40 41 92 42 41 43 91 44
REMARK SMILES IDX 42 45 43 46 44 47 85 48 45 49 90 50 84 51 86 52 46 53 89 54
REMARK SMILES IDX 83 55 82 56 47 58 73 59 56 60 72 61 57 62 60 63 71 64 87 65
REMARK SMILES IDX 58 66 59 67 70 69 88 70 61 71 48 72 49 73 54 74 50 75 51 76
REMARK SMILES IDX 53 77 55 78 52 79 74 80 75 81 80 82 76 83 77 84 79 85 81 86
REMARK SMILES IDX 78 87 62 88 63 89 68 90 64 91 65 92 67 93 69 94 66 95
REMARK H PARENT 5 21 86 57 60 68
REMARK Flexibility Score: inf
ROOT
ATOM      1  C   UNL A   1      35.190  33.886  29.032  1.00  0.00     0.188 C 
ENDROOT
BRANCH   1   2
ATOM      2  O   UNL A   1      35.196  32.805  28.116  1.00  0.00    -0.376 OA
BRANCH   2   3
ATOM      3  C   UNL A   1      34.014  32.023  28.035  1.00  0.00     0.202 C 
BRANCH   3   4
ATOM      4  C   UNL A   1      34.199  30.585  27.561  1.00  0.00     0.261 C 
BRANCH   4   5
ATOM      5  O   UNL A   1      32.991  29.793  27.626  1.00  0.00    -0.463 OA
BRANCH   5   6
ATOM      6  C   UNL A   1      32.769  28.547  27.183  1.00  0.00     0.308 C 
ATOM      7  O   UNL A   1      32.049  27.793  27.838  1.00  0.00    -0.252 OA
BRANCH   6   8
ATOM      8  C   UNL A   1      33.676  27.953  26.130  1.00  0.00     0.152 C 
BRANCH   8   9
ATOM      9  C   UNL A   1      33.512  26.517  25.622  1.00  0.00     0.123 C 
BRANCH   9  10
ATOM     10  C   UNL A   1      32.720  26.552  24.325  1.00  0.00    -0.018 A 
ATOM     11  C   UNL A   1      33.312  26.200  23.100  1.00  0.00     0.006 A 
ATOM     12  C   UNL A   1      31.371  26.947  24.341  1.00  0.00     0.091 A 
ATOM     13  C   UNL A   1      32.595  26.307  21.907  1.00  0.00     0.007 A 
ATOM     14  C   UNL A   1      30.661  27.057  23.143  1.00  0.00     0.269 A 
ATOM     15  C   UNL A   1      31.270  26.746  21.922  1.00  0.00     0.085 A 
BRANCH  14  16
ATOM     16  N   UNL A   1      29.276  27.537  23.175  1.00  0.00     0.062 N 
ATOM     17  O   UNL A   1      29.026  28.608  22.603  1.00  0.00    -0.258 OA
ATOM     18  O   UNL A   1      28.440  26.847  23.775  1.00  0.00    -0.258 OA
ENDBRANCH  14  16
ENDBRANCH   9  10
BRANCH   9  19
ATOM     19  N   UNL A   1      34.768  25.795  25.460  1.00  0.00    -0.348 N 
ATOM     20  C   UNL A   1      35.124  24.486  25.550  1.00  0.00     0.226 C 
ATOM     21  H   UNL A   1      35.524  26.384  25.236  1.00  0.00     0.164 HD
ATOM     22  O   UNL A   1      36.340  24.309  25.696  1.00  0.00    -0.274 OA
BRANCH  20  23
ATOM     23  C   UNL A   1      34.170  23.284  25.383  1.00  0.00     0.050 C 
ATOM     24  C   UNL A   1      32.781  23.414  26.039  1.00  0.00     0.020 C 
ATOM     25  C   UNL A   1      34.840  22.025  26.026  1.00  0.00     0.020 C 
ATOM     26  C   UNL A   1      34.023  22.986  23.873  1.00  0.00     0.020 C 
ATOM     27  C   UNL A   1      31.925  22.160  25.781  1.00  0.00    -0.010 C 
ATOM     28  C   UNL A   1      34.002  20.756  25.783  1.00  0.00    -0.010 C 
ATOM     29  C   UNL A   1      33.166  21.739  23.627  1.00  0.00    -0.010 C 
ATOM     30  C   UNL A   1      31.783  21.946  24.264  1.00  0.00     0.007 C 
ATOM     31  C   UNL A   1      32.612  20.938  26.404  1.00  0.00     0.007 C 
ATOM     32  C   UNL A   1      33.855  20.529  24.271  1.00  0.00     0.007 C 
ENDBRANCH  20  23
ENDBRANCH   9  19
ENDBRANCH   8   9
ENDBRANCH   6   8
ENDBRANCH   5   6
ENDBRANCH   4   5
ENDBRANCH   3   4
ENDBRANCH   2   3
ENDBRANCH   1   2
BRANCH   1  33
ATOM     33  C   UNL A   1      33.813  34.545  29.266  1.00  0.00     0.188 C 
BRANCH  33  34
ATOM     34  O   UNL A   1      33.258  34.577  30.574  1.00  0.00    -0.376 OA
BRANCH  34  35
ATOM     35  C   UNL A   1      34.066  34.980  31.670  1.00  0.00     0.202 C 
BRANCH  35  36
ATOM     36  C   UNL A   1      34.633  33.894  32.594  1.00  0.00     0.261 C 
BRANCH  36  37
ATOM     37  O   UNL A   1      36.068  33.760  32.560  1.00  0.00    -0.460 OA
BRANCH  37  38
ATOM     38  C   UNL A   1      36.571  32.726  33.280  1.00  0.00     0.338 C 
ATOM     39  O   UNL A   1      36.333  32.456  34.444  1.00  0.00    -0.246 OA
BRANCH  38  40
ATOM     40  C   UNL A   1      37.362  31.817  32.421  1.00  0.00     0.060 A 
ATOM     41  C   UNL A   1      38.408  31.101  33.021  1.00  0.00     0.016 A 
ATOM     42  C   UNL A   1      37.166  31.748  31.040  1.00  0.00     0.016 A 
ATOM     43  C   UNL A   1      39.302  30.373  32.237  1.00  0.00     0.010 A 
ATOM     44  C   UNL A   1      38.078  31.030  30.251  1.00  0.00     0.010 A 
ATOM     45  C   UNL A   1      39.178  30.380  30.841  1.00  0.00    -0.014 A 
BRANCH  45  46
ATOM     46  C   UNL A   1      40.317  29.888  30.020  1.00  0.00     0.031 A 
ATOM     47  C   UNL A   1      41.466  30.824  29.740  1.00  0.00     0.074 A 
ATOM     48  C   UNL A   1      40.377  28.615  29.591  1.00  0.00     0.049 A 
ATOM     49  N   UNL A   1      42.580  30.602  29.088  1.00  0.00    -0.248 NA
ATOM     50  C   UNL A   1      41.343  32.190  30.271  1.00  0.00     0.031 C 
ATOM     51  C   UNL A   1      39.357  27.594  29.819  1.00  0.00     0.029 A 
ATOM     52  N   UNL A   1      41.351  27.964  28.872  1.00  0.00    -0.354 N 
ATOM     53  C   UNL A   1      43.294  31.792  29.144  1.00  0.00     0.074 A 
ATOM     54  C   UNL A   1      42.468  32.747  29.851  1.00  0.00     0.031 C 
ATOM     55  C   UNL A   1      39.754  26.446  29.241  1.00  0.00     0.029 A 
ATOM     56  C   UNL A   1      41.048  26.655  28.590  1.00  0.00     0.049 A 
ATOM     57  H   UNL A   1      42.189  28.396  28.587  1.00  0.00     0.167 HD
ATOM     58  C   UNL A   1      44.533  32.067  28.668  1.00  0.00     0.037 A 
ATOM     59  C   UNL A   1      41.730  25.734  27.881  1.00  0.00     0.037 A 
ATOM     60  C   UNL A   1      45.358  31.131  27.953  1.00  0.00     0.049 A 
ATOM     61  C   UNL A   1      43.079  26.083  27.302  1.00  0.00     0.074 A 
ATOM     62  C   UNL A   1      46.624  31.324  27.424  1.00  0.00     0.029 A 
ATOM     63  N   UNL A   1      45.001  29.824  27.662  1.00  0.00    -0.354 N 
ATOM     64  N   UNL A   1      43.750  27.207  27.380  1.00  0.00    -0.248 NA
ATOM     65  C   UNL A   1      43.769  25.027  26.546  1.00  0.00     0.031 C 
ATOM     66  C   UNL A   1      47.015  30.146  26.779  1.00  0.00     0.029 A 
ATOM     67  C   UNL A   1      46.014  29.205  26.948  1.00  0.00     0.049 A 
ATOM     68  H   UNL A   1      44.153  29.398  27.924  1.00  0.00     0.167 HD
ATOM     69  C   UNL A   1      44.947  26.983  26.710  1.00  0.00     0.074 A 
ATOM     70  C   UNL A   1      44.920  25.612  26.249  1.00  0.00     0.031 C 
ATOM     71  C   UNL A   1      45.978  27.837  26.494  1.00  0.00     0.037 A 
BRANCH  58  72
ATOM     72  C   UNL A   1      45.067  33.449  28.902  1.00  0.00     0.057 A 
ATOM     73  C   UNL A   1      44.802  34.499  28.013  1.00  0.00     0.134 A 
ATOM     74  C   UNL A   1      45.824  33.744  30.043  1.00  0.00     0.134 A 
ATOM     75  F   UNL A   1      44.096  34.280  26.894  1.00  0.00    -0.206 F 
ATOM     76  C   UNL A   1      45.289  35.788  28.240  1.00  0.00     0.040 A 
ATOM     77  C   UNL A   1      46.295  35.033  30.293  1.00  0.00     0.040 A 
ATOM     78  F   UNL A   1      46.110  32.784  30.936  1.00  0.00    -0.206 F 
ATOM     79  C   UNL A   1      46.031  36.058  29.388  1.00  0.00     0.006 A 
ENDBRANCH  58  72
BRANCH  59  80
ATOM     80  C   UNL A   1      41.150  24.385  27.657  1.00  0.00     0.057 A 
ATOM     81  C   UNL A   1      41.635  23.259  28.333  1.00  0.00     0.134 A 
ATOM     82  C   UNL A   1      40.125  24.185  26.725  1.00  0.00     0.134 A 
ATOM     83  F   UNL A   1      42.635  23.382  29.219  1.00  0.00    -0.206 F 
ATOM     84  C   UNL A   1      41.141  21.980  28.071  1.00  0.00     0.040 A 
ATOM     85  C   UNL A   1      39.604  22.915  26.472  1.00  0.00     0.040 A 
ATOM     86  F   UNL A   1      39.613  25.222  26.047  1.00  0.00    -0.206 F 
ATOM     87  C   UNL A   1      40.119  21.807  27.140  1.00  0.00     0.006 A 
ENDBRANCH  59  80
BRANCH  71  88
ATOM     88  C   UNL A   1      47.172  27.305  25.753  1.00  0.00     0.057 A 
ATOM     89  C   UNL A   1      47.338  27.504  24.377  1.00  0.00     0.134 A 
ATOM     90  C   UNL A   1      48.178  26.604  26.430  1.00  0.00     0.134 A 
ATOM     91  F   UNL A   1      46.406  28.157  23.666  1.00  0.00    -0.206 F 
ATOM     92  C   UNL A   1      48.446  26.995  23.694  1.00  0.00     0.040 A 
ATOM     93  C   UNL A   1      49.303  26.116  25.764  1.00  0.00     0.040 A 
ATOM     94  F   UNL A   1      48.089  26.389  27.751  1.00  0.00    -0.206 F 
ATOM     95  C   UNL A   1      49.435  26.303  24.389  1.00  0.00     0.006 A 
ENDBRANCH  71  88
ENDBRANCH  45  46
ENDBRANCH  38  40
ENDBRANCH  37  38
ENDBRANCH  36  37
ENDBRANCH  35  36
ENDBRANCH  34  35
ENDBRANCH  33  34
ENDBRANCH   1  33
TORSDOF 22
ENDMDL
MODEL 3
REMARK VINA RESULT:     -10.5      4.238      7.192
REMARK SMILES O=C(C[C@H](NC(=O)[C@]12C[C@H]3C[C@H](C[C@H](C3)C1)C2)c1cccc([N+](=O)[O-])c1)OCCOCCOCCOC(=O)c1ccc(-c2c3nc(c(-c4c(F)cccc4F)c4ccc([nH]4)c(-c4c(F)cccc4F)c4nc(c(-c5c(F)cccc5F)c5ccc2[nH]5)C=C4)C=C3)cc1
REMARK SMILES IDX 31 1 30 2 29 3 28 4 27 5 2 6 1 7 3 8 4 9 18 10 19 11 26 12
REMARK SMILES IDX 20 13 22 14 21 15 23 16 24 17 25 18 5 19 6 20 7 22 8 23 9 24
REMARK SMILES IDX 16 25 17 26 10 27 14 28 12 29 11 30 15 31 13 32 32 33 33 34
REMARK SMILES IDX 34 35 35 36 36 37 37 38 38 39 39 40 40 41 92 42 41 43 91 44
REMARK SMILES IDX 42 45 43 46 44 47 85 48 45 49 90 50 84 51 86 52 46 53 89 54
REMARK SMILES IDX 83 55 82 56 47 58 73 59 56 60 72 61 57 62 60 63 71 64 87 65
REMARK SMILES IDX 58 66 59 67 70 69 88 70 61 71 48 72 49 73 54 74 50 75 51 76
REMARK SMILES IDX 53 77 55 78 52 79 74 80 75 81 80 82 76 83 77 84 79 85 81 86
REMARK SMILES IDX 78 87 62 88 63 89 68 90 64 91 65 92 67 93 69 94 66 95
REMARK H PARENT 5 21 86 57 60 68
REMARK Flexibility Score: inf
ROOT
ATOM      1  C   UNL A   1      31.590  28.281  25.212  1.00  0.00     0.188 C 
ENDROOT
BRANCH   1   2
ATOM      2  O   UNL A   1      31.974  27.594  26.390  1.00  0.00    -0.376 OA
BRANCH   2   3
ATOM      3  C   UNL A   1      31.511  26.260  26.537  1.00  0.00     0.202 C 
BRANCH   3   4
ATOM      4  C   UNL A   1      30.779  25.673  25.333  1.00  0.00     0.261 C 
BRANCH   4   5
ATOM      5  O   UNL A   1      31.041  24.267  25.125  1.00  0.00    -0.463 OA
BRANCH   5   6
ATOM      6  C   UNL A   1      31.153  23.586  23.974  1.00  0.00     0.308 C 
ATOM      7  O   UNL A   1      30.342  23.789  23.071  1.00  0.00    -0.252 OA
BRANCH   6   8
ATOM      8  C   UNL A   1      32.000  22.335  23.923  1.00  0.00     0.152 C 
BRANCH   8   9
ATOM      9  C   UNL A   1      31.755  21.141  24.849  1.00  0.00     0.123 C 
BRANCH   9  10
ATOM     10  C   UNL A   1      32.232  19.880  24.147  1.00  0.00    -0.018 A 
ATOM     11  C   UNL A   1      32.258  19.793  22.744  1.00  0.00     0.006 A 
ATOM     12  C   UNL A   1      32.651  18.774  24.906  1.00  0.00     0.091 A 
ATOM     13  C   UNL A   1      32.629  18.604  22.112  1.00  0.00     0.007 A 
ATOM     14  C   UNL A   1      33.015  17.585  24.268  1.00  0.00     0.269 A 
ATOM     15  C   UNL A   1      32.998  17.492  22.872  1.00  0.00     0.085 A 
BRANCH  14  16
ATOM     16  N   UNL A   1      33.382  16.422  25.079  1.00  0.00     0.062 N 
ATOM     17  O   UNL A   1      34.359  15.752  24.716  1.00  0.00    -0.258 OA
ATOM     18  O   UNL A   1      32.691  16.175  26.078  1.00  0.00    -0.258 OA
ENDBRANCH  14  16
ENDBRANCH   9  10
BRANCH   9  19
ATOM     19  N   UNL A   1      32.358  21.276  26.170  1.00  0.00    -0.348 N 
ATOM     20  C   UNL A   1      33.633  21.430  26.616  1.00  0.00     0.226 C 
ATOM     21  H   UNL A   1      31.697  21.249  26.899  1.00  0.00     0.164 HD
ATOM     22  O   UNL A   1      33.780  21.152  27.812  1.00  0.00    -0.274 OA
BRANCH  20  23
ATOM     23  C   UNL A   1      34.808  22.000  25.791  1.00  0.00     0.050 C 
ATOM     24  C   UNL A   1      35.239  21.183  24.557  1.00  0.00     0.020 C 
ATOM     25  C   UNL A   1      36.065  22.091  26.716  1.00  0.00     0.020 C 
ATOM     26  C   UNL A   1      34.454  23.447  25.378  1.00  0.00     0.020 C 
ATOM     27  C   UNL A   1      36.402  21.869  23.816  1.00  0.00    -0.010 C 
ATOM     28  C   UNL A   1      37.244  22.773  25.998  1.00  0.00    -0.010 C 
ATOM     29  C   UNL A   1      35.616  24.120  24.638  1.00  0.00    -0.010 C 
ATOM     30  C   UNL A   1      35.971  23.285  23.397  1.00  0.00     0.007 C 
ATOM     31  C   UNL A   1      37.616  21.963  24.749  1.00  0.00     0.007 C 
ATOM     32  C   UNL A   1      36.828  24.191  25.576  1.00  0.00     0.007 C 
ENDBRANCH  20  23
ENDBRANCH   9  19
ENDBRANCH   8   9
ENDBRANCH   6   8
ENDBRANCH   5   6
ENDBRANCH   4   5
ENDBRANCH   3   4
ENDBRANCH   2   3
ENDBRANCH   1   2
BRANCH   1  33
ATOM     33  C   UNL A   1      32.239  29.669  25.015  1.00  0.00     0.188 C 
BRANCH  33  34
ATOM     34  O   UNL A   1      32.318  30.573  26.109  1.00  0.00    -0.376 OA
BRANCH  34  35
ATOM     35  C   UNL A   1      31.295  31.538  26.299  1.00  0.00     0.202 C 
BRANCH  35  36
ATOM     36  C   UNL A   1      31.682  32.907  26.873  1.00  0.00     0.261 C 
BRANCH  36  37
ATOM     37  O   UNL A   1      33.065  33.031  27.260  1.00  0.00    -0.460 OA
BRANCH  37  38
ATOM     38  C   UNL A   1      33.324  33.986  28.188  1.00  0.00     0.338 C 
ATOM     39  O   UNL A   1      32.663  34.981  28.424  1.00  0.00    -0.246 OA
BRANCH  38  40
ATOM     40  C   UNL A   1      34.471  33.599  29.040  1.00  0.00     0.060 A 
ATOM     41  C   UNL A   1      35.749  34.016  28.640  1.00  0.00     0.016 A 
ATOM     42  C   UNL A   1      34.322  32.753  30.141  1.00  0.00     0.016 A 
ATOM     43  C   UNL A   1      36.882  33.533  29.292  1.00  0.00     0.010 A 
ATOM     44  C   UNL A   1      35.465  32.254  30.785  1.00  0.00     0.010 A 
ATOM     45  C   UNL A   1      36.751  32.603  30.332  1.00  0.00    -0.014 A 
BRANCH  45  46
ATOM     46  C   UNL A   1      37.957  31.857  30.780  1.00  0.00     0.031 A 
ATOM     47  C   UNL A   1      38.538  32.168  32.137  1.00  0.00     0.074 A 
ATOM     48  C   UNL A   1      38.490  30.868  30.040  1.00  0.00     0.049 A 
ATOM     49  N   UNL A   1      39.555  31.617  32.753  1.00  0.00    -0.248 NA
ATOM     50  C   UNL A   1      37.881  33.239  32.902  1.00  0.00     0.031 C 
ATOM     51  C   UNL A   1      38.009  30.438  28.730  1.00  0.00     0.029 A 
ATOM     52  N   UNL A   1      39.557  30.041  30.297  1.00  0.00    -0.354 N 
ATOM     53  C   UNL A   1      39.649  32.263  33.979  1.00  0.00     0.074 A 
ATOM     54  C   UNL A   1      38.617  33.279  34.002  1.00  0.00     0.031 C 
ATOM     55  C   UNL A   1      38.787  29.432  28.290  1.00  0.00     0.029 A 
ATOM     56  C   UNL A   1      39.828  29.158  29.281  1.00  0.00     0.049 A 
ATOM     57  H   UNL A   1      40.078  30.079  31.132  1.00  0.00     0.167 HD
ATOM     58  C   UNL A   1      40.501  32.026  35.006  1.00  0.00     0.037 A 
ATOM     59  C   UNL A   1      40.808  28.241  29.161  1.00  0.00     0.037 A 
ATOM     60  C   UNL A   1      41.538  31.030  34.991  1.00  0.00     0.049 A 
ATOM     61  C   UNL A   1      41.788  28.039  30.289  1.00  0.00     0.074 A 
ATOM     62  C   UNL A   1      42.457  30.724  35.982  1.00  0.00     0.029 A 
ATOM     63  N   UNL A   1      41.799  30.175  33.931  1.00  0.00    -0.354 N 
ATOM     64  N   UNL A   1      41.852  28.644  31.451  1.00  0.00    -0.248 NA
ATOM     65  C   UNL A   1      42.827  27.017  30.092  1.00  0.00     0.031 C 
ATOM     66  C   UNL A   1      43.298  29.712  35.505  1.00  0.00     0.029 A 
ATOM     67  C   UNL A   1      42.873  29.356  34.236  1.00  0.00     0.049 A 
ATOM     68  H   UNL A   1      41.295  30.155  33.085  1.00  0.00     0.167 HD
ATOM     69  C   UNL A   1      42.915  28.058  32.129  1.00  0.00     0.074 A 
ATOM     70  C   UNL A   1      43.455  27.036  31.257  1.00  0.00     0.031 C 
ATOM     71  C   UNL A   1      43.402  28.339  33.363  1.00  0.00     0.037 A 
BRANCH  58  72
ATOM     72  C   UNL A   1      40.349  32.873  36.234  1.00  0.00     0.057 A 
ATOM     73  C   UNL A   1      39.383  32.588  37.208  1.00  0.00     0.134 A 
ATOM     74  C   UNL A   1      41.198  33.963  36.465  1.00  0.00     0.134 A 
ATOM     75  F   UNL A   1      38.530  31.567  37.040  1.00  0.00    -0.206 F 
ATOM     76  C   UNL A   1      39.253  33.370  38.357  1.00  0.00     0.040 A 
ATOM     77  C   UNL A   1      41.094  34.736  37.622  1.00  0.00     0.040 A 
ATOM     78  F   UNL A   1      42.147  34.287  35.573  1.00  0.00    -0.206 F 
ATOM     79  C   UNL A   1      40.116  34.443  38.570  1.00  0.00     0.006 A 
ENDBRANCH  58  72
BRANCH  59  80
ATOM     80  C   UNL A   1      40.931  27.441  27.915  1.00  0.00     0.057 A 
ATOM     81  C   UNL A   1      40.409  26.145  27.824  1.00  0.00     0.134 A 
ATOM     82  C   UNL A   1      41.618  27.939  26.802  1.00  0.00     0.134 A 
ATOM     83  F   UNL A   1      39.764  25.602  28.867  1.00  0.00    -0.206 F 
ATOM     84  C   UNL A   1      40.587  25.364  26.680  1.00  0.00     0.040 A 
ATOM     85  C   UNL A   1      41.781  27.179  25.643  1.00  0.00     0.040 A 
ATOM     86  F   UNL A   1      42.138  29.174  26.823  1.00  0.00    -0.206 F 
ATOM     87  C   UNL A   1      41.272  25.883  25.584  1.00  0.00     0.006 A 
ENDBRANCH  59  80
BRANCH  71  88
ATOM     88  C   UNL A   1      44.556  27.513  33.854  1.00  0.00     0.057 A 
ATOM     89  C   UNL A   1      44.371  26.246  34.422  1.00  0.00     0.134 A 
ATOM     90  C   UNL A   1      45.871  27.982  33.738  1.00  0.00     0.134 A 
ATOM     91  F   UNL A   1      43.137  25.742  34.573  1.00  0.00    -0.206 F 
ATOM     92  C   UNL A   1      45.450  25.490  34.887  1.00  0.00     0.040 A 
ATOM     93  C   UNL A   1      46.959  27.224  34.174  1.00  0.00     0.040 A 
ATOM     94  F   UNL A   1      46.121  29.182  33.194  1.00  0.00    -0.206 F 
ATOM     95  C   UNL A   1      46.749  25.977  34.759  1.00  0.00     0.006 A 
ENDBRANCH  71  88
ENDBRANCH  45  46
ENDBRANCH  38  40
ENDBRANCH  37  38
ENDBRANCH  36  37
ENDBRANCH  35  36
ENDBRANCH  34  35
ENDBRANCH  33  34
ENDBRANCH   1  33
TORSDOF 22
ENDMDL
