MODEL 1
REMARK VINA RESULT:     -10.5      0.000      0.000
REMARK SMILES O=C(CCc1cccnc1)Nc1ccsc1C(=O)OCCOCCOCCOC(=O)c1ccc(-c2c3nc(c(-c4c(F)cccc4F)c4ccc([nH]4)c(-c4c(F)cccc4F)c4nc(c(-c5c(F)cccc5F)c5ccc2[nH]5)C=C4)C=C3)cc1
REMARK SMILES IDX 23 1 22 2 21 3 20 4 19 5 17 6 18 7 16 8 12 9 13 10 14 11
REMARK SMILES IDX 15 12 11 13 1 14 2 15 3 17 4 18 5 19 6 20 10 21 7 22 9 23
REMARK SMILES IDX 8 24 24 25 25 26 26 27 27 28 28 29 29 30 30 31 31 32 32 33
REMARK SMILES IDX 84 34 33 35 83 36 34 37 35 38 36 39 77 40 37 41 82 42 76 43
REMARK SMILES IDX 78 44 38 45 81 46 75 47 74 48 39 50 65 51 48 52 64 53 49 54
REMARK SMILES IDX 52 55 63 56 79 57 50 58 51 59 62 61 80 62 53 63 40 64 41 65
REMARK SMILES IDX 46 66 42 67 43 68 45 69 47 70 44 71 66 72 67 73 72 74 68 75
REMARK SMILES IDX 69 76 71 77 73 78 70 79 54 80 55 81 60 82 56 83 57 84 59 85
REMARK SMILES IDX 61 86 58 87
REMARK H PARENT 11 16 78 49 52 60
REMARK Flexibility Score: inf
ROOT
ATOM      1  C   UNL A   1      39.277  21.833  26.135  1.00  0.00     0.188 C 
ENDROOT
BRANCH   1   2
ATOM      2  O   UNL A   1      38.203  21.593  25.233  1.00  0.00    -0.376 OA
BRANCH   2   3
ATOM      3  C   UNL A   1      37.153  22.556  25.168  1.00  0.00     0.202 C 
BRANCH   3   4
ATOM      4  C   UNL A   1      36.393  22.646  23.842  1.00  0.00     0.261 C 
BRANCH   4   5
ATOM      5  O   UNL A   1      35.016  22.245  23.987  1.00  0.00    -0.459 OA
BRANCH   5   6
ATOM      6  C   UNL A   1      34.120  23.272  23.837  1.00  0.00     0.350 C 
ATOM      7  O   UNL A   1      34.077  23.990  22.844  1.00  0.00    -0.245 OA
BRANCH   6   8
ATOM      8  C   UNL A   1      33.160  23.272  24.929  1.00  0.00     0.136 A 
ATOM      9  C   UNL A   1      31.955  23.938  25.125  1.00  0.00     0.066 A 
ATOM     10  C   UNL A   1      31.412  23.644  26.420  1.00  0.00     0.039 A 
ATOM     11  C   UNL A   1      32.197  22.790  27.156  1.00  0.00     0.068 A 
ATOM     12  S   UNL A   1      33.578  22.306  26.296  1.00  0.00    -0.135 S 
BRANCH   9  13
ATOM     13  N   UNL A   1      31.362  24.758  24.157  1.00  0.00    -0.325 N 
ATOM     14  O   UNL A   1      31.995  26.840  24.960  1.00  0.00    -0.275 OA
ATOM     15  C   UNL A   1      31.339  26.140  24.189  1.00  0.00     0.224 C 
ATOM     16  H   UNL A   1      30.930  24.315  23.392  1.00  0.00     0.169 HD
BRANCH  15  17
ATOM     17  C   UNL A   1      30.321  26.817  23.276  1.00  0.00     0.105 C 
BRANCH  17  18
ATOM     18  C   UNL A   1      30.605  28.250  22.838  1.00  0.00     0.047 C 
BRANCH  18  19
ATOM     19  C   UNL A   1      29.538  29.291  23.070  1.00  0.00    -0.029 A 
ATOM     20  C   UNL A   1      29.899  30.502  23.674  1.00  0.00     0.007 A 
ATOM     21  C   UNL A   1      28.195  29.136  22.733  1.00  0.00     0.114 A 
ATOM     22  C   UNL A   1      28.947  31.496  23.872  1.00  0.00     0.020 A 
ATOM     23  N   UNL A   1      27.259  30.098  22.882  1.00  0.00    -0.264 NA
ATOM     24  C   UNL A   1      27.654  31.255  23.449  1.00  0.00     0.111 A 
ENDBRANCH  18  19
ENDBRANCH  17  18
ENDBRANCH  15  17
ENDBRANCH   9  13
ENDBRANCH   6   8
ENDBRANCH   5   6
ENDBRANCH   4   5
ENDBRANCH   3   4
ENDBRANCH   2   3
ENDBRANCH   1   2
BRANCH   1  25
ATOM     25  C   UNL A   1      40.446  20.831  26.165  1.00  0.00     0.188 C 
BRANCH  25  26
ATOM     26  O   UNL A   1      41.697  21.365  26.577  1.00  0.00    -0.376 OA
BRANCH  26  27
ATOM     27  C   UNL A   1      42.832  20.768  25.951  1.00  0.00     0.202 C 
BRANCH  27  28
ATOM     28  C   UNL A   1      43.820  21.787  25.365  1.00  0.00     0.261 C 
BRANCH  28  29
ATOM     29  O   UNL A   1      43.214  23.021  24.948  1.00  0.00    -0.460 OA
BRANCH  29  30
ATOM     30  C   UNL A   1      43.973  24.134  25.063  1.00  0.00     0.338 C 
ATOM     31  O   UNL A   1      44.987  24.399  24.442  1.00  0.00    -0.246 OA
BRANCH  30  32
ATOM     32  C   UNL A   1      43.251  25.088  25.928  1.00  0.00     0.060 A 
ATOM     33  C   UNL A   1      43.850  26.321  26.211  1.00  0.00     0.016 A 
ATOM     34  C   UNL A   1      41.991  24.773  26.446  1.00  0.00     0.016 A 
ATOM     35  C   UNL A   1      43.205  27.231  27.049  1.00  0.00     0.010 A 
ATOM     36  C   UNL A   1      41.357  25.673  27.303  1.00  0.00     0.010 A 
ATOM     37  C   UNL A   1      41.979  26.888  27.637  1.00  0.00    -0.014 A 
BRANCH  37  38
ATOM     38  C   UNL A   1      41.478  27.684  28.782  1.00  0.00     0.031 A 
ATOM     39  C   UNL A   1      42.190  27.541  30.099  1.00  0.00     0.074 A 
ATOM     40  C   UNL A   1      40.432  28.519  28.663  1.00  0.00     0.049 A 
ATOM     41  N   UNL A   1      41.961  28.140  31.238  1.00  0.00    -0.248 NA
ATOM     42  C   UNL A   1      43.316  26.592  30.131  1.00  0.00     0.031 C 
ATOM     43  C   UNL A   1      39.666  28.755  27.442  1.00  0.00     0.029 A 
ATOM     44  N   UNL A   1      39.833  29.322  29.601  1.00  0.00    -0.354 N 
ATOM     45  C   UNL A   1      42.919  27.651  32.116  1.00  0.00     0.074 A 
ATOM     46  C   UNL A   1      43.711  26.681  31.391  1.00  0.00     0.031 C 
ATOM     47  C   UNL A   1      38.688  29.640  27.708  1.00  0.00     0.029 A 
ATOM     48  C   UNL A   1      38.754  30.020  29.120  1.00  0.00     0.049 A 
ATOM     49  H   UNL A   1      40.147  29.390  30.531  1.00  0.00     0.167 HD
ATOM     50  C   UNL A   1      43.131  27.984  33.410  1.00  0.00     0.037 A 
ATOM     51  C   UNL A   1      37.916  30.864  29.753  1.00  0.00     0.037 A 
ATOM     52  C   UNL A   1      42.334  28.926  34.144  1.00  0.00     0.049 A 
ATOM     53  C   UNL A   1      38.137  31.179  31.211  1.00  0.00     0.074 A 
ATOM     54  C   UNL A   1      42.468  29.329  35.460  1.00  0.00     0.029 A 
ATOM     55  N   UNL A   1      41.244  29.605  33.623  1.00  0.00    -0.354 N 
ATOM     56  N   UNL A   1      39.074  30.747  32.019  1.00  0.00    -0.248 NA
ATOM     57  C   UNL A   1      37.187  32.109  31.839  1.00  0.00     0.031 C 
ATOM     58  C   UNL A   1      41.436  30.230  35.747  1.00  0.00     0.029 A 
ATOM     59  C   UNL A   1      40.685  30.414  34.596  1.00  0.00     0.049 A 
ATOM     60  H   UNL A   1      40.916  29.524  32.699  1.00  0.00     0.167 HD
ATOM     61  C   UNL A   1      38.847  31.375  33.238  1.00  0.00     0.074 A 
ATOM     62  C   UNL A   1      37.686  32.221  33.063  1.00  0.00     0.031 C 
ATOM     63  C   UNL A   1      39.540  31.263  34.398  1.00  0.00     0.037 A 
BRANCH  50  64
ATOM     64  C   UNL A   1      44.264  27.300  34.109  1.00  0.00     0.057 A 
ATOM     65  C   UNL A   1      45.565  27.819  34.076  1.00  0.00     0.134 A 
ATOM     66  C   UNL A   1      44.056  26.112  34.818  1.00  0.00     0.134 A 
ATOM     67  F   UNL A   1      45.832  28.943  33.394  1.00  0.00    -0.206 F 
ATOM     68  C   UNL A   1      46.625  27.168  34.710  1.00  0.00     0.040 A 
ATOM     69  C   UNL A   1      45.104  25.462  35.472  1.00  0.00     0.040 A 
ATOM     70  F   UNL A   1      42.835  25.562  34.882  1.00  0.00    -0.206 F 
ATOM     71  C   UNL A   1      46.393  25.988  35.414  1.00  0.00     0.006 A 
ENDBRANCH  50  64
BRANCH  51  72
ATOM     72  C   UNL A   1      36.787  31.485  29.018  1.00  0.00     0.057 A 
ATOM     73  C   UNL A   1      36.821  32.833  28.642  1.00  0.00     0.134 A 
ATOM     74  C   UNL A   1      35.633  30.756  28.710  1.00  0.00     0.134 A 
ATOM     75  F   UNL A   1      37.889  33.589  28.936  1.00  0.00    -0.206 F 
ATOM     76  C   UNL A   1      35.739  33.439  28.001  1.00  0.00     0.040 A 
ATOM     77  C   UNL A   1      34.552  31.345  28.050  1.00  0.00     0.040 A 
ATOM     78  F   UNL A   1      35.538  29.462  29.048  1.00  0.00    -0.206 F 
ATOM     79  C   UNL A   1      34.601  32.693  27.699  1.00  0.00     0.006 A 
ENDBRANCH  51  72
BRANCH  63  80
ATOM     80  C   UNL A   1      39.091  32.107  35.554  1.00  0.00     0.057 A 
ATOM     81  C   UNL A   1      38.253  31.603  36.556  1.00  0.00     0.134 A 
ATOM     82  C   UNL A   1      39.544  33.426  35.688  1.00  0.00     0.134 A 
ATOM     83  F   UNL A   1      37.778  30.351  36.479  1.00  0.00    -0.206 F 
ATOM     84  C   UNL A   1      37.869  32.388  37.644  1.00  0.00     0.040 A 
ATOM     85  C   UNL A   1      39.184  34.213  36.782  1.00  0.00     0.040 A 
ATOM     86  F   UNL A   1      40.358  33.963  34.766  1.00  0.00    -0.206 F 
ATOM     87  C   UNL A   1      38.339  33.695  37.762  1.00  0.00     0.006 A 
ENDBRANCH  63  80
ENDBRANCH  37  38
ENDBRANCH  30  32
ENDBRANCH  29  30
ENDBRANCH  28  29
ENDBRANCH  27  28
ENDBRANCH  26  27
ENDBRANCH  25  26
ENDBRANCH   1  25
TORSDOF 21
ENDMDL
MODEL 2
REMARK VINA RESULT:     -10.5      2.195      4.560
REMARK SMILES O=C(CCc1cccnc1)Nc1ccsc1C(=O)OCCOCCOCCOC(=O)c1ccc(-c2c3nc(c(-c4c(F)cccc4F)c4ccc([nH]4)c(-c4c(F)cccc4F)c4nc(c(-c5c(F)cccc5F)c5ccc2[nH]5)C=C4)C=C3)cc1
REMARK SMILES IDX 23 1 22 2 21 3 20 4 19 5 17 6 18 7 16 8 12 9 13 10 14 11
REMARK SMILES IDX 15 12 11 13 1 14 2 15 3 17 4 18 5 19 6 20 10 21 7 22 9 23
REMARK SMILES IDX 8 24 24 25 25 26 26 27 27 28 28 29 29 30 30 31 31 32 32 33
REMARK SMILES IDX 84 34 33 35 83 36 34 37 35 38 36 39 77 40 37 41 82 42 76 43
REMARK SMILES IDX 78 44 38 45 81 46 75 47 74 48 39 50 65 51 48 52 64 53 49 54
REMARK SMILES IDX 52 55 63 56 79 57 50 58 51 59 62 61 80 62 53 63 40 64 41 65
REMARK SMILES IDX 46 66 42 67 43 68 45 69 47 70 44 71 66 72 67 73 72 74 68 75
REMARK SMILES IDX 69 76 71 77 73 78 70 79 54 80 55 81 60 82 56 83 57 84 59 85
REMARK SMILES IDX 61 86 58 87
REMARK H PARENT 11 16 78 49 52 60
REMARK Flexibility Score: inf
ROOT
ATOM      1  C   UNL A   1      39.870  21.887  26.537  1.00  0.00     0.188 C 
ENDROOT
BRANCH   1   2
ATOM      2  O   UNL A   1      38.686  21.917  25.750  1.00  0.00    -0.376 OA
BRANCH   2   3
ATOM      3  C   UNL A   1      37.658  22.834  26.119  1.00  0.00     0.202 C 
BRANCH   3   4
ATOM      4  C   UNL A   1      36.953  23.564  24.973  1.00  0.00     0.261 C 
BRANCH   4   5
ATOM      5  O   UNL A   1      35.629  23.043  24.742  1.00  0.00    -0.459 OA
BRANCH   5   6
ATOM      6  C   UNL A   1      35.155  23.271  23.476  1.00  0.00     0.350 C 
ATOM      7  O   UNL A   1      35.765  22.958  22.460  1.00  0.00    -0.245 OA
BRANCH   6   8
ATOM      8  C   UNL A   1      33.793  23.779  23.527  1.00  0.00     0.136 A 
ATOM      9  C   UNL A   1      32.562  23.206  23.227  1.00  0.00     0.066 A 
ATOM     10  C   UNL A   1      31.502  24.161  23.384  1.00  0.00     0.039 A 
ATOM     11  C   UNL A   1      31.942  25.399  23.784  1.00  0.00     0.068 A 
ATOM     12  S   UNL A   1      33.625  25.428  24.006  1.00  0.00    -0.135 S 
BRANCH   9  13
ATOM     13  N   UNL A   1      32.407  21.867  22.851  1.00  0.00    -0.325 N 
ATOM     14  O   UNL A   1      32.098  20.902  24.938  1.00  0.00    -0.275 OA
ATOM     15  C   UNL A   1      32.283  20.803  23.725  1.00  0.00     0.224 C 
ATOM     16  H   UNL A   1      32.382  21.667  21.888  1.00  0.00     0.169 HD
BRANCH  15  17
ATOM     17  C   UNL A   1      32.523  19.417  23.136  1.00  0.00     0.105 C 
BRANCH  17  18
ATOM     18  C   UNL A   1      32.203  18.209  24.010  1.00  0.00     0.047 C 
BRANCH  18  19
ATOM     19  C   UNL A   1      33.345  17.338  24.471  1.00  0.00    -0.029 A 
ATOM     20  C   UNL A   1      34.630  17.892  24.536  1.00  0.00     0.007 A 
ATOM     21  C   UNL A   1      33.222  15.999  24.835  1.00  0.00     0.114 A 
ATOM     22  C   UNL A   1      35.699  17.127  24.989  1.00  0.00     0.020 A 
ATOM     23  N   UNL A   1      34.237  15.245  25.310  1.00  0.00    -0.264 NA
ATOM     24  C   UNL A   1      35.452  15.824  25.376  1.00  0.00     0.111 A 
ENDBRANCH  18  19
ENDBRANCH  17  18
ENDBRANCH  15  17
ENDBRANCH   9  13
ENDBRANCH   6   8
ENDBRANCH   5   6
ENDBRANCH   4   5
ENDBRANCH   3   4
ENDBRANCH   2   3
ENDBRANCH   1   2
BRANCH   1  25
ATOM     25  C   UNL A   1      40.723  20.604  26.530  1.00  0.00     0.188 C 
BRANCH  25  26
ATOM     26  O   UNL A   1      42.100  20.784  26.834  1.00  0.00    -0.376 OA
BRANCH  26  27
ATOM     27  C   UNL A   1      42.983  20.559  25.736  1.00  0.00     0.202 C 
BRANCH  27  28
ATOM     28  C   UNL A   1      43.952  21.722  25.476  1.00  0.00     0.261 C 
BRANCH  28  29
ATOM     29  O   UNL A   1      43.320  22.916  24.987  1.00  0.00    -0.460 OA
BRANCH  29  30
ATOM     30  C   UNL A   1      44.039  24.057  25.075  1.00  0.00     0.338 C 
ATOM     31  O   UNL A   1      45.028  24.355  24.429  1.00  0.00    -0.246 OA
BRANCH  30  32
ATOM     32  C   UNL A   1      43.301  24.991  25.948  1.00  0.00     0.060 A 
ATOM     33  C   UNL A   1      43.797  26.291  26.109  1.00  0.00     0.016 A 
ATOM     34  C   UNL A   1      42.126  24.592  26.594  1.00  0.00     0.016 A 
ATOM     35  C   UNL A   1      43.137  27.186  26.951  1.00  0.00     0.010 A 
ATOM     36  C   UNL A   1      41.481  25.481  27.455  1.00  0.00     0.010 A 
ATOM     37  C   UNL A   1      42.005  26.767  27.665  1.00  0.00    -0.014 A 
BRANCH  37  38
ATOM     38  C   UNL A   1      41.525  27.582  28.805  1.00  0.00     0.031 A 
ATOM     39  C   UNL A   1      42.251  27.448  30.116  1.00  0.00     0.074 A 
ATOM     40  C   UNL A   1      40.487  28.427  28.688  1.00  0.00     0.049 A 
ATOM     41  N   UNL A   1      42.041  28.063  31.250  1.00  0.00    -0.248 NA
ATOM     42  C   UNL A   1      43.367  26.487  30.147  1.00  0.00     0.031 C 
ATOM     43  C   UNL A   1      39.710  28.656  27.473  1.00  0.00     0.029 A 
ATOM     44  N   UNL A   1      39.907  29.247  29.623  1.00  0.00    -0.354 N 
ATOM     45  C   UNL A   1      43.004  27.575  32.123  1.00  0.00     0.074 A 
ATOM     46  C   UNL A   1      43.777  26.588  31.401  1.00  0.00     0.031 C 
ATOM     47  C   UNL A   1      38.743  29.555  27.739  1.00  0.00     0.029 A 
ATOM     48  C   UNL A   1      38.830  29.951  29.145  1.00  0.00     0.049 A 
ATOM     49  H   UNL A   1      40.232  29.324  30.548  1.00  0.00     0.167 HD
ATOM     50  C   UNL A   1      43.234  27.922  33.410  1.00  0.00     0.037 A 
ATOM     51  C   UNL A   1      38.008  30.812  29.777  1.00  0.00     0.037 A 
ATOM     52  C   UNL A   1      42.455  28.881  34.142  1.00  0.00     0.049 A 
ATOM     53  C   UNL A   1      38.249  31.142  31.228  1.00  0.00     0.074 A 
ATOM     54  C   UNL A   1      42.609  29.299  35.451  1.00  0.00     0.029 A 
ATOM     55  N   UNL A   1      41.367  29.565  33.625  1.00  0.00    -0.354 N 
ATOM     56  N   UNL A   1      39.191  30.710  32.032  1.00  0.00    -0.248 NA
ATOM     57  C   UNL A   1      37.316  32.090  31.856  1.00  0.00     0.031 C 
ATOM     58  C   UNL A   1      41.589  30.214  35.739  1.00  0.00     0.029 A 
ATOM     59  C   UNL A   1      40.828  30.392  34.594  1.00  0.00     0.049 A 
ATOM     60  H   UNL A   1      41.028  29.476  32.705  1.00  0.00     0.167 HD
ATOM     61  C   UNL A   1      38.985  31.355  33.245  1.00  0.00     0.074 A 
ATOM     62  C   UNL A   1      37.831  32.212  33.073  1.00  0.00     0.031 C 
ATOM     63  C   UNL A   1      39.689  31.251  34.398  1.00  0.00     0.037 A 
BRANCH  50  64
ATOM     64  C   UNL A   1      44.368  27.234  34.105  1.00  0.00     0.057 A 
ATOM     65  C   UNL A   1      45.679  27.722  34.026  1.00  0.00     0.134 A 
ATOM     66  C   UNL A   1      44.150  26.074  34.857  1.00  0.00     0.134 A 
ATOM     67  F   UNL A   1      45.955  28.818  33.302  1.00  0.00    -0.206 F 
ATOM     68  C   UNL A   1      46.739  27.068  34.656  1.00  0.00     0.040 A 
ATOM     69  C   UNL A   1      45.198  25.422  35.507  1.00  0.00     0.040 A 
ATOM     70  F   UNL A   1      42.919  25.555  34.966  1.00  0.00    -0.206 F 
ATOM     71  C   UNL A   1      46.497  25.916  35.403  1.00  0.00     0.006 A 
ENDBRANCH  50  64
BRANCH  51  72
ATOM     72  C   UNL A   1      36.877  31.435  29.048  1.00  0.00     0.057 A 
ATOM     73  C   UNL A   1      36.929  32.773  28.638  1.00  0.00     0.134 A 
ATOM     74  C   UNL A   1      35.705  30.721  28.777  1.00  0.00     0.134 A 
ATOM     75  F   UNL A   1      38.015  33.516  28.894  1.00  0.00    -0.206 F 
ATOM     76  C   UNL A   1      35.846  33.383  28.001  1.00  0.00     0.040 A 
ATOM     77  C   UNL A   1      34.623  31.313  28.123  1.00  0.00     0.040 A 
ATOM     78  F   UNL A   1      35.593  29.437  29.149  1.00  0.00    -0.206 F 
ATOM     79  C   UNL A   1      34.690  32.651  27.738  1.00  0.00     0.006 A 
ENDBRANCH  51  72
BRANCH  63  80
ATOM     80  C   UNL A   1      39.263  32.113  35.549  1.00  0.00     0.057 A 
ATOM     81  C   UNL A   1      39.755  33.413  35.721  1.00  0.00     0.134 A 
ATOM     82  C   UNL A   1      38.311  31.652  36.467  1.00  0.00     0.134 A 
ATOM     83  F   UNL A   1      40.676  33.907  34.881  1.00  0.00    -0.206 F 
ATOM     84  C   UNL A   1      39.327  34.218  36.777  1.00  0.00     0.040 A 
ATOM     85  C   UNL A   1      37.860  32.456  37.515  1.00  0.00     0.040 A 
ATOM     86  F   UNL A   1      37.793  30.420  36.351  1.00  0.00    -0.206 F 
ATOM     87  C   UNL A   1      38.372  33.742  37.674  1.00  0.00     0.006 A 
ENDBRANCH  63  80
ENDBRANCH  37  38
ENDBRANCH  30  32
ENDBRANCH  29  30
ENDBRANCH  28  29
ENDBRANCH  27  28
ENDBRANCH  26  27
ENDBRANCH  25  26
ENDBRANCH   1  25
TORSDOF 21
ENDMDL
MODEL 3
REMARK VINA RESULT:     -10.3      3.940      6.159
REMARK SMILES O=C(CCc1cccnc1)Nc1ccsc1C(=O)OCCOCCOCCOC(=O)c1ccc(-c2c3nc(c(-c4c(F)cccc4F)c4ccc([nH]4)c(-c4c(F)cccc4F)c4nc(c(-c5c(F)cccc5F)c5ccc2[nH]5)C=C4)C=C3)cc1
REMARK SMILES IDX 23 1 22 2 21 3 20 4 19 5 17 6 18 7 16 8 12 9 13 10 14 11
REMARK SMILES IDX 15 12 11 13 1 14 2 15 3 17 4 18 5 19 6 20 10 21 7 22 9 23
REMARK SMILES IDX 8 24 24 25 25 26 26 27 27 28 28 29 29 30 30 31 31 32 32 33
REMARK SMILES IDX 84 34 33 35 83 36 34 37 35 38 36 39 77 40 37 41 82 42 76 43
REMARK SMILES IDX 78 44 38 45 81 46 75 47 74 48 39 50 65 51 48 52 64 53 49 54
REMARK SMILES IDX 52 55 63 56 79 57 50 58 51 59 62 61 80 62 53 63 40 64 41 65
REMARK SMILES IDX 46 66 42 67 43 68 45 69 47 70 44 71 66 72 67 73 72 74 68 75
REMARK SMILES IDX 69 76 71 77 73 78 70 79 54 80 55 81 60 82 56 83 57 84 59 85
REMARK SMILES IDX 61 86 58 87
REMARK H PARENT 11 16 78 49 52 60
REMARK Flexibility Score: inf
ROOT
ATOM      1  C   UNL A   1      36.986  23.704  25.427  1.00  0.00     0.188 C 
ENDROOT
BRANCH   1   2
ATOM      2  O   UNL A   1      35.757  24.301  25.825  1.00  0.00    -0.376 OA
BRANCH   2   3
ATOM      3  C   UNL A   1      34.595  24.028  25.044  1.00  0.00     0.202 C 
BRANCH   3   4
ATOM      4  C   UNL A   1      33.958  25.224  24.331  1.00  0.00     0.261 C 
BRANCH   4   5
ATOM      5  O   UNL A   1      34.103  26.440  25.092  1.00  0.00    -0.459 OA
BRANCH   5   6
ATOM      6  C   UNL A   1      33.705  27.566  24.421  1.00  0.00     0.350 C 
ATOM      7  O   UNL A   1      33.652  27.640  23.199  1.00  0.00    -0.245 OA
BRANCH   6   8
ATOM      8  C   UNL A   1      33.219  28.569  25.356  1.00  0.00     0.136 A 
ATOM      9  C   UNL A   1      32.049  29.319  25.410  1.00  0.00     0.066 A 
ATOM     10  C   UNL A   1      32.078  30.233  26.515  1.00  0.00     0.039 A 
ATOM     11  C   UNL A   1      33.238  30.161  27.249  1.00  0.00     0.068 A 
ATOM     12  S   UNL A   1      34.292  28.976  26.644  1.00  0.00    -0.135 S 
BRANCH   9  13
ATOM     13  N   UNL A   1      30.990  29.160  24.508  1.00  0.00    -0.325 N 
ATOM     14  O   UNL A   1      30.382  26.974  24.991  1.00  0.00    -0.275 OA
ATOM     15  C   UNL A   1      30.297  27.984  24.291  1.00  0.00     0.224 C 
ATOM     16  H   UNL A   1      30.717  29.950  23.988  1.00  0.00     0.169 HD
BRANCH  15  17
ATOM     17  C   UNL A   1      29.470  27.916  23.012  1.00  0.00     0.105 C 
BRANCH  17  18
ATOM     18  C   UNL A   1      28.131  28.648  22.994  1.00  0.00     0.047 C 
BRANCH  18  19
ATOM     19  C   UNL A   1      28.112  30.089  22.548  1.00  0.00    -0.029 A 
ATOM     20  C   UNL A   1      28.249  30.373  21.183  1.00  0.00     0.007 A 
ATOM     21  C   UNL A   1      27.976  31.180  23.403  1.00  0.00     0.114 A 
ATOM     22  C   UNL A   1      28.202  31.688  20.734  1.00  0.00     0.020 A 
ATOM     23  N   UNL A   1      27.892  32.463  22.990  1.00  0.00    -0.264 NA
ATOM     24  C   UNL A   1      28.008  32.690  21.667  1.00  0.00     0.111 A 
ENDBRANCH  18  19
ENDBRANCH  17  18
ENDBRANCH  15  17
ENDBRANCH   9  13
ENDBRANCH   6   8
ENDBRANCH   5   6
ENDBRANCH   4   5
ENDBRANCH   3   4
ENDBRANCH   2   3
ENDBRANCH   1   2
BRANCH   1  25
ATOM     25  C   UNL A   1      36.954  22.275  24.855  1.00  0.00     0.188 C 
BRANCH  25  26
ATOM     26  O   UNL A   1      38.105  21.484  25.121  1.00  0.00    -0.376 OA
BRANCH  26  27
ATOM     27  C   UNL A   1      37.877  20.076  25.094  1.00  0.00     0.202 C 
BRANCH  27  28
ATOM     28  C   UNL A   1      39.136  19.242  25.370  1.00  0.00     0.261 C 
BRANCH  28  29
ATOM     29  O   UNL A   1      39.968  19.762  26.420  1.00  0.00    -0.460 OA
BRANCH  29  30
ATOM     30  C   UNL A   1      41.303  19.657  26.238  1.00  0.00     0.338 C 
ATOM     31  O   UNL A   1      41.909  18.716  25.758  1.00  0.00    -0.246 OA
BRANCH  30  32
ATOM     32  C   UNL A   1      41.905  20.973  26.532  1.00  0.00     0.060 A 
ATOM     33  C   UNL A   1      42.141  21.319  27.868  1.00  0.00     0.016 A 
ATOM     34  C   UNL A   1      42.241  21.854  25.499  1.00  0.00     0.016 A 
ATOM     35  C   UNL A   1      42.680  22.567  28.178  1.00  0.00     0.010 A 
ATOM     36  C   UNL A   1      42.758  23.112  25.811  1.00  0.00     0.010 A 
ATOM     37  C   UNL A   1      42.944  23.486  27.153  1.00  0.00    -0.014 A 
BRANCH  37  38
ATOM     38  C   UNL A   1      43.173  24.909  27.497  1.00  0.00     0.031 A 
ATOM     39  C   UNL A   1      44.554  25.466  27.286  1.00  0.00     0.074 A 
ATOM     40  C   UNL A   1      42.190  25.693  27.971  1.00  0.00     0.049 A 
ATOM     41  N   UNL A   1      45.003  26.677  27.488  1.00  0.00    -0.248 NA
ATOM     42  C   UNL A   1      45.565  24.525  26.775  1.00  0.00     0.031 C 
ATOM     43  C   UNL A   1      40.811  25.277  28.209  1.00  0.00     0.029 A 
ATOM     44  N   UNL A   1      42.217  27.013  28.343  1.00  0.00    -0.354 N 
ATOM     45  C   UNL A   1      46.341  26.647  27.118  1.00  0.00     0.074 A 
ATOM     46  C   UNL A   1      46.642  25.291  26.712  1.00  0.00     0.031 C 
ATOM     47  C   UNL A   1      40.120  26.324  28.699  1.00  0.00     0.029 A 
ATOM     48  C   UNL A   1      41.015  27.475  28.819  1.00  0.00     0.049 A 
ATOM     49  H   UNL A   1      43.021  27.576  28.277  1.00  0.00     0.167 HD
ATOM     50  C   UNL A   1      47.240  27.657  27.106  1.00  0.00     0.037 A 
ATOM     51  C   UNL A   1      40.683  28.690  29.299  1.00  0.00     0.037 A 
ATOM     52  C   UNL A   1      46.955  28.999  27.532  1.00  0.00     0.049 A 
ATOM     53  C   UNL A   1      41.717  29.787  29.329  1.00  0.00     0.074 A 
ATOM     54  C   UNL A   1      47.800  30.093  27.559  1.00  0.00     0.029 A 
ATOM     55  N   UNL A   1      45.728  29.424  28.015  1.00  0.00    -0.354 N 
ATOM     56  N   UNL A   1      42.966  29.760  28.933  1.00  0.00    -0.248 NA
ATOM     57  C   UNL A   1      41.286  31.088  29.864  1.00  0.00     0.031 C 
ATOM     58  C   UNL A   1      47.092  31.177  28.093  1.00  0.00     0.029 A 
ATOM     59  C   UNL A   1      45.797  30.763  28.359  1.00  0.00     0.049 A 
ATOM     60  H   UNL A   1      44.927  28.859  28.101  1.00  0.00     0.167 HD
ATOM     61  C   UNL A   1      43.461  31.042  29.140  1.00  0.00     0.074 A 
ATOM     62  C   UNL A   1      42.376  31.825  29.692  1.00  0.00     0.031 C 
ATOM     63  C   UNL A   1      44.701  31.530  28.891  1.00  0.00     0.037 A 
BRANCH  50  64
ATOM     64  C   UNL A   1      48.621  27.329  26.633  1.00  0.00     0.057 A 
ATOM     65  C   UNL A   1      48.957  27.364  25.273  1.00  0.00     0.134 A 
ATOM     66  C   UNL A   1      49.625  26.974  27.541  1.00  0.00     0.134 A 
ATOM     67  F   UNL A   1      48.032  27.675  24.352  1.00  0.00    -0.206 F 
ATOM     68  C   UNL A   1      50.240  27.036  24.831  1.00  0.00     0.040 A 
ATOM     69  C   UNL A   1      50.916  26.664  27.114  1.00  0.00     0.040 A 
ATOM     70  F   UNL A   1      49.364  26.918  28.855  1.00  0.00    -0.206 F 
ATOM     71  C   UNL A   1      51.224  26.689  25.755  1.00  0.00     0.006 A 
ENDBRANCH  50  64
BRANCH  51  72
ATOM     72  C   UNL A   1      39.307  28.947  29.789  1.00  0.00     0.057 A 
ATOM     73  C   UNL A   1      38.966  28.739  31.131  1.00  0.00     0.134 A 
ATOM     74  C   UNL A   1      38.293  29.370  28.922  1.00  0.00     0.134 A 
ATOM     75  F   UNL A   1      39.889  28.307  32.003  1.00  0.00    -0.206 F 
ATOM     76  C   UNL A   1      37.660  28.924  31.589  1.00  0.00     0.040 A 
ATOM     77  C   UNL A   1      36.988  29.579  29.372  1.00  0.00     0.040 A 
ATOM     78  F   UNL A   1      38.557  29.583  27.624  1.00  0.00    -0.206 F 
ATOM     79  C   UNL A   1      36.667  29.350  30.709  1.00  0.00     0.006 A 
ENDBRANCH  51  72
BRANCH  63  80
ATOM     80  C   UNL A   1      44.941  32.983  29.171  1.00  0.00     0.057 A 
ATOM     81  C   UNL A   1      45.476  33.424  30.387  1.00  0.00     0.134 A 
ATOM     82  C   UNL A   1      44.675  33.948  28.190  1.00  0.00     0.134 A 
ATOM     83  F   UNL A   1      45.742  32.550  31.369  1.00  0.00    -0.206 F 
ATOM     84  C   UNL A   1      45.725  34.777  30.624  1.00  0.00     0.040 A 
ATOM     85  C   UNL A   1      44.941  35.300  28.408  1.00  0.00     0.040 A 
ATOM     86  F   UNL A   1      44.171  33.588  27.000  1.00  0.00    -0.206 F 
ATOM     87  C   UNL A   1      45.463  35.718  29.630  1.00  0.00     0.006 A 
ENDBRANCH  63  80
ENDBRANCH  37  38
ENDBRANCH  30  32
ENDBRANCH  29  30
ENDBRANCH  28  29
ENDBRANCH  27  28
ENDBRANCH  26  27
ENDBRANCH  25  26
ENDBRANCH   1  25
TORSDOF 21
ENDMDL
