MODEL 1
REMARK VINA RESULT:     -10.4      0.000      0.000
REMARK SMILES C[N@H+]([C@@H]1CCOC2(CCCC2)C1)C(C)(C)C(=O)OCCOCCOCCOC(=O)c1ccc(-c2c3nc(c(-c4c(F)cccc4F)c4ccc([nH]4)c(-c4c(F)cccc4F)c4nc(c(-c5c(F)cccc5F)c5ccc2[nH]5)C=C4)C=C3)cc1
REMARK SMILES IDX 22 1 21 2 20 3 19 4 18 5 16 6 17 7 13 8 14 9 15 10 2 11 1 12
REMARK SMILES IDX 3 14 4 15 12 16 5 17 7 18 6 19 8 20 11 21 9 22 10 23 23 24
REMARK SMILES IDX 24 25 25 26 26 27 27 28 28 29 29 30 30 31 31 32 83 33 32 34
REMARK SMILES IDX 82 35 33 36 34 37 35 38 76 39 36 40 81 41 75 42 77 43 37 44
REMARK SMILES IDX 80 45 74 46 73 47 38 49 64 50 47 51 63 52 48 53 51 54 62 55
REMARK SMILES IDX 78 56 49 57 50 58 61 60 79 61 52 62 39 63 40 64 45 65 41 66
REMARK SMILES IDX 42 67 44 68 46 69 43 70 65 71 66 72 71 73 67 74 68 75 70 76
REMARK SMILES IDX 72 77 69 78 53 79 54 80 59 81 55 82 56 83 58 84 60 85 57 86
REMARK H PARENT 2 13 77 48 51 59
REMARK Flexibility Score: inf
ROOT
ATOM      1  C   UNL A   1      39.767  21.708  26.073  1.00  0.00     0.188 C 
ENDROOT
BRANCH   1   2
ATOM      2  O   UNL A   1      38.756  22.597  26.479  1.00  0.00    -0.376 OA
BRANCH   2   3
ATOM      3  C   UNL A   1      37.917  23.086  25.449  1.00  0.00     0.202 C 
BRANCH   3   4
ATOM      4  C   UNL A   1      36.445  23.508  25.698  1.00  0.00     0.261 C 
BRANCH   4   5
ATOM      5  O   UNL A   1      35.687  24.183  24.675  1.00  0.00    -0.459 OA
BRANCH   5   6
ATOM      6  C   UNL A   1      35.236  23.434  23.626  1.00  0.00     0.367 C 
ATOM      7  O   UNL A   1      35.962  23.194  22.666  1.00  0.00    -0.245 OA
BRANCH   6   8
ATOM      8  C   UNL A   1      33.712  22.992  23.759  1.00  0.00     0.190 C 
ATOM      9  C   UNL A   1      33.736  21.559  24.344  1.00  0.00     0.092 C 
ATOM     10  C   UNL A   1      33.007  22.742  22.383  1.00  0.00     0.092 C 
BRANCH   8  11
ATOM     11  N   UNL A   1      32.891  23.925  24.662  1.00  0.00    -0.321 N 
ATOM     12  C   UNL A   1      32.623  23.386  25.999  1.00  0.00     0.333 C 
ATOM     13  H   UNL A   1      33.578  24.673  24.760  1.00  0.00     0.349 HD
BRANCH  11  14
ATOM     14  C   UNL A   1      31.764  24.727  24.092  1.00  0.00     0.189 C 
ATOM     15  C   UNL A   1      32.089  25.432  22.762  1.00  0.00     0.093 C 
ATOM     16  C   UNL A   1      31.220  25.904  24.969  1.00  0.00     0.100 C 
ATOM     17  C   UNL A   1      33.152  26.497  22.979  1.00  0.00     0.167 C 
ATOM     18  C   UNL A   1      32.213  27.075  25.129  1.00  0.00     0.074 C 
ATOM     19  O   UNL A   1      32.683  27.522  23.847  1.00  0.00    -0.375 OA
ATOM     20  C   UNL A   1      31.531  28.320  25.752  1.00  0.00     0.036 C 
ATOM     21  C   UNL A   1      33.377  26.760  26.088  1.00  0.00     0.036 C 
ATOM     22  C   UNL A   1      32.296  28.636  27.032  1.00  0.00     0.003 C 
ATOM     23  C   UNL A   1      33.682  28.074  26.786  1.00  0.00     0.003 C 
ENDBRANCH  11  14
ENDBRANCH   8  11
ENDBRANCH   6   8
ENDBRANCH   5   6
ENDBRANCH   4   5
ENDBRANCH   3   4
ENDBRANCH   2   3
ENDBRANCH   1   2
BRANCH   1  24
ATOM     24  C   UNL A   1      40.545  21.162  27.264  1.00  0.00     0.188 C 
BRANCH  24  25
ATOM     25  O   UNL A   1      41.942  20.937  27.233  1.00  0.00    -0.376 OA
BRANCH  25  26
ATOM     26  C   UNL A   1      42.597  20.765  25.988  1.00  0.00     0.202 C 
BRANCH  26  27
ATOM     27  C   UNL A   1      43.964  21.423  25.719  1.00  0.00     0.261 C 
BRANCH  27  28
ATOM     28  O   UNL A   1      44.231  22.661  26.394  1.00  0.00    -0.460 OA
BRANCH  28  29
ATOM     29  C   UNL A   1      44.085  23.778  25.642  1.00  0.00     0.338 C 
ATOM     30  O   UNL A   1      44.355  23.915  24.457  1.00  0.00    -0.246 OA
BRANCH  29  31
ATOM     31  C   UNL A   1      43.326  24.781  26.424  1.00  0.00     0.060 A 
ATOM     32  C   UNL A   1      43.834  26.089  26.505  1.00  0.00     0.016 A 
ATOM     33  C   UNL A   1      42.134  24.447  27.068  1.00  0.00     0.016 A 
ATOM     34  C   UNL A   1      43.168  27.060  27.246  1.00  0.00     0.010 A 
ATOM     35  C   UNL A   1      41.490  25.410  27.850  1.00  0.00     0.010 A 
ATOM     36  C   UNL A   1      42.026  26.707  27.973  1.00  0.00    -0.014 A 
BRANCH  36  37
ATOM     37  C   UNL A   1      41.564  27.599  29.064  1.00  0.00     0.031 A 
ATOM     38  C   UNL A   1      42.298  27.535  30.377  1.00  0.00     0.074 A 
ATOM     39  C   UNL A   1      40.554  28.470  28.896  1.00  0.00     0.049 A 
ATOM     40  N   UNL A   1      42.054  28.156  31.501  1.00  0.00    -0.248 NA
ATOM     41  C   UNL A   1      43.467  26.639  30.423  1.00  0.00     0.031 C 
ATOM     42  C   UNL A   1      39.805  28.677  27.661  1.00  0.00     0.029 A 
ATOM     43  N   UNL A   1      39.983  29.342  29.791  1.00  0.00    -0.354 N 
ATOM     44  C   UNL A   1      43.030  27.718  32.389  1.00  0.00     0.074 A 
ATOM     45  C   UNL A   1      43.846  26.755  31.685  1.00  0.00     0.031 C 
ATOM     46  C   UNL A   1      38.856  29.606  27.880  1.00  0.00     0.029 A 
ATOM     47  C   UNL A   1      38.912  30.031  29.278  1.00  0.00     0.049 A 
ATOM     48  H   UNL A   1      40.311  29.461  30.712  1.00  0.00     0.167 HD
ATOM     49  C   UNL A   1      43.231  28.089  33.675  1.00  0.00     0.037 A 
ATOM     50  C   UNL A   1      38.062  30.886  29.882  1.00  0.00     0.037 A 
ATOM     51  C   UNL A   1      42.418  29.045  34.376  1.00  0.00     0.049 A 
ATOM     52  C   UNL A   1      38.255  31.220  31.341  1.00  0.00     0.074 A 
ATOM     53  C   UNL A   1      42.542  29.491  35.680  1.00  0.00     0.029 A 
ATOM     54  N   UNL A   1      41.322  29.697  33.833  1.00  0.00    -0.354 N 
ATOM     55  N   UNL A   1      39.182  30.808  32.172  1.00  0.00    -0.248 NA
ATOM     56  C   UNL A   1      37.284  32.145  31.941  1.00  0.00     0.031 C 
ATOM     57  C   UNL A   1      41.489  30.371  35.943  1.00  0.00     0.029 A 
ATOM     58  C   UNL A   1      40.747  30.525  34.783  1.00  0.00     0.049 A 
ATOM     59  H   UNL A   1      40.999  29.587  32.909  1.00  0.00     0.167 HD
ATOM     60  C   UNL A   1      38.930  31.455  33.378  1.00  0.00     0.074 A 
ATOM     61  C   UNL A   1      37.769  32.293  33.165  1.00  0.00     0.031 C 
ATOM     62  C   UNL A   1      39.600  31.367  34.555  1.00  0.00     0.037 A 
BRANCH  49  63
ATOM     63  C   UNL A   1      44.360  27.429  34.412  1.00  0.00     0.057 A 
ATOM     64  C   UNL A   1      45.644  27.988  34.465  1.00  0.00     0.134 A 
ATOM     65  C   UNL A   1      44.156  26.222  35.091  1.00  0.00     0.134 A 
ATOM     66  F   UNL A   1      45.914  29.134  33.818  1.00  0.00    -0.206 F 
ATOM     67  C   UNL A   1      46.688  27.358  35.145  1.00  0.00     0.040 A 
ATOM     68  C   UNL A   1      45.183  25.598  35.801  1.00  0.00     0.040 A 
ATOM     69  F   UNL A   1      42.951  25.630  35.082  1.00  0.00    -0.206 F 
ATOM     70  C   UNL A   1      46.455  26.164  35.823  1.00  0.00     0.006 A 
ENDBRANCH  49  63
BRANCH  50  71
ATOM     71  C   UNL A   1      36.932  31.482  29.122  1.00  0.00     0.057 A 
ATOM     72  C   UNL A   1      36.966  32.817  28.700  1.00  0.00     0.134 A 
ATOM     73  C   UNL A   1      35.774  30.747  28.840  1.00  0.00     0.134 A 
ATOM     74  F   UNL A   1      38.035  33.582  28.963  1.00  0.00    -0.206 F 
ATOM     75  C   UNL A   1      35.880  33.406  28.049  1.00  0.00     0.040 A 
ATOM     76  C   UNL A   1      34.693  31.315  28.165  1.00  0.00     0.040 A 
ATOM     77  F   UNL A   1      35.677  29.465  29.219  1.00  0.00    -0.206 F 
ATOM     78  C   UNL A   1      34.740  32.652  27.776  1.00  0.00     0.006 A 
ENDBRANCH  50  71
BRANCH  62  79
ATOM     79  C   UNL A   1      39.137  32.245  35.684  1.00  0.00     0.057 A 
ATOM     80  C   UNL A   1      39.522  33.588  35.796  1.00  0.00     0.134 A 
ATOM     81  C   UNL A   1      38.267  31.743  36.661  1.00  0.00     0.134 A 
ATOM     82  F   UNL A   1      40.360  34.132  34.899  1.00  0.00    -0.206 F 
ATOM     83  C   UNL A   1      39.088  34.387  36.856  1.00  0.00     0.040 A 
ATOM     84  C   UNL A   1      37.800  32.540  37.707  1.00  0.00     0.040 A 
ATOM     85  F   UNL A   1      37.845  30.471  36.610  1.00  0.00    -0.206 F 
ATOM     86  C   UNL A   1      38.219  33.864  37.811  1.00  0.00     0.006 A 
ENDBRANCH  62  79
ENDBRANCH  36  37
ENDBRANCH  29  31
ENDBRANCH  28  29
ENDBRANCH  27  28
ENDBRANCH  26  27
ENDBRANCH  25  26
ENDBRANCH  24  25
ENDBRANCH   1  24
TORSDOF 19
ENDMDL
MODEL 2
REMARK VINA RESULT:     -10.0      4.246      9.716
REMARK SMILES C[N@H+]([C@@H]1CCOC2(CCCC2)C1)C(C)(C)C(=O)OCCOCCOCCOC(=O)c1ccc(-c2c3nc(c(-c4c(F)cccc4F)c4ccc([nH]4)c(-c4c(F)cccc4F)c4nc(c(-c5c(F)cccc5F)c5ccc2[nH]5)C=C4)C=C3)cc1
REMARK SMILES IDX 22 1 21 2 20 3 19 4 18 5 16 6 17 7 13 8 14 9 15 10 2 11 1 12
REMARK SMILES IDX 3 14 4 15 12 16 5 17 7 18 6 19 8 20 11 21 9 22 10 23 23 24
REMARK SMILES IDX 24 25 25 26 26 27 27 28 28 29 29 30 30 31 31 32 83 33 32 34
REMARK SMILES IDX 82 35 33 36 34 37 35 38 76 39 36 40 81 41 75 42 77 43 37 44
REMARK SMILES IDX 80 45 74 46 73 47 38 49 64 50 47 51 63 52 48 53 51 54 62 55
REMARK SMILES IDX 78 56 49 57 50 58 61 60 79 61 52 62 39 63 40 64 45 65 41 66
REMARK SMILES IDX 42 67 44 68 46 69 43 70 65 71 66 72 71 73 67 74 68 75 70 76
REMARK SMILES IDX 72 77 69 78 53 79 54 80 59 81 55 82 56 83 58 84 60 85 57 86
REMARK H PARENT 2 13 77 48 51 59
REMARK Flexibility Score: inf
ROOT
ATOM      1  C   UNL A   1      34.686  31.653  28.079  1.00  0.00     0.188 C 
ENDROOT
BRANCH   1   2
ATOM      2  O   UNL A   1      33.954  31.046  27.042  1.00  0.00    -0.376 OA
BRANCH   2   3
ATOM      3  C   UNL A   1      32.555  30.969  27.241  1.00  0.00     0.202 C 
BRANCH   3   4
ATOM      4  C   UNL A   1      31.741  29.679  26.957  1.00  0.00     0.261 C 
BRANCH   4   5
ATOM      5  O   UNL A   1      32.264  28.651  26.093  1.00  0.00    -0.459 OA
BRANCH   5   6
ATOM      6  C   UNL A   1      31.507  27.528  25.920  1.00  0.00     0.367 C 
ATOM      7  O   UNL A   1      31.041  26.928  26.883  1.00  0.00    -0.245 OA
BRANCH   6   8
ATOM      8  C   UNL A   1      31.368  27.073  24.400  1.00  0.00     0.190 C 
ATOM      9  C   UNL A   1      31.546  28.358  23.555  1.00  0.00     0.092 C 
ATOM     10  C   UNL A   1      29.914  26.651  24.000  1.00  0.00     0.092 C 
BRANCH   8  11
ATOM     11  N   UNL A   1      32.404  26.016  23.991  1.00  0.00    -0.321 N 
ATOM     12  C   UNL A   1      33.422  26.502  23.054  1.00  0.00     0.333 C 
ATOM     13  H   UNL A   1      32.851  25.891  24.899  1.00  0.00     0.349 HD
BRANCH  11  14
ATOM     14  C   UNL A   1      31.984  24.601  23.750  1.00  0.00     0.189 C 
ATOM     15  C   UNL A   1      31.297  23.924  24.952  1.00  0.00     0.093 C 
ATOM     16  C   UNL A   1      33.114  23.578  23.394  1.00  0.00     0.100 C 
ATOM     17  C   UNL A   1      32.283  23.767  26.098  1.00  0.00     0.167 C 
ATOM     18  C   UNL A   1      34.081  23.284  24.559  1.00  0.00     0.074 C 
ATOM     19  O   UNL A   1      33.355  22.905  25.740  1.00  0.00    -0.375 OA
ATOM     20  C   UNL A   1      34.992  22.068  24.252  1.00  0.00     0.036 C 
ATOM     21  C   UNL A   1      35.067  24.435  24.838  1.00  0.00     0.036 C 
ATOM     22  C   UNL A   1      36.429  22.573  24.331  1.00  0.00     0.003 C 
ATOM     23  C   UNL A   1      36.355  23.759  25.274  1.00  0.00     0.003 C 
ENDBRANCH  11  14
ENDBRANCH   8  11
ENDBRANCH   6   8
ENDBRANCH   5   6
ENDBRANCH   4   5
ENDBRANCH   3   4
ENDBRANCH   2   3
ENDBRANCH   1   2
BRANCH   1  24
ATOM     24  C   UNL A   1      34.584  33.173  28.022  1.00  0.00     0.188 C 
BRANCH  24  25
ATOM     25  O   UNL A   1      33.628  33.907  28.764  1.00  0.00    -0.376 OA
BRANCH  25  26
ATOM     26  C   UNL A   1      34.028  34.594  29.938  1.00  0.00     0.202 C 
BRANCH  26  27
ATOM     27  C   UNL A   1      34.400  33.818  31.217  1.00  0.00     0.261 C 
BRANCH  27  28
ATOM     28  O   UNL A   1      35.795  33.735  31.540  1.00  0.00    -0.460 OA
BRANCH  28  29
ATOM     29  C   UNL A   1      36.135  32.747  32.402  1.00  0.00     0.338 C 
ATOM     30  O   UNL A   1      35.623  32.498  33.484  1.00  0.00    -0.246 OA
BRANCH  29  31
ATOM     31  C   UNL A   1      37.103  31.847  31.735  1.00  0.00     0.060 A 
ATOM     32  C   UNL A   1      38.136  31.286  32.505  1.00  0.00     0.016 A 
ATOM     33  C   UNL A   1      37.000  31.552  30.375  1.00  0.00     0.016 A 
ATOM     34  C   UNL A   1      39.082  30.452  31.918  1.00  0.00     0.010 A 
ATOM     35  C   UNL A   1      37.976  30.752  29.775  1.00  0.00     0.010 A 
ATOM     36  C   UNL A   1      39.042  30.231  30.537  1.00  0.00    -0.014 A 
BRANCH  36  37
ATOM     37  C   UNL A   1      40.249  29.703  29.857  1.00  0.00     0.031 A 
ATOM     38  C   UNL A   1      41.410  30.641  29.666  1.00  0.00     0.074 A 
ATOM     39  C   UNL A   1      40.340  28.423  29.455  1.00  0.00     0.049 A 
ATOM     40  N   UNL A   1      42.546  30.449  29.049  1.00  0.00    -0.248 NA
ATOM     41  C   UNL A   1      41.261  31.985  30.251  1.00  0.00     0.031 C 
ATOM     42  C   UNL A   1      39.317  27.399  29.636  1.00  0.00     0.029 A 
ATOM     43  N   UNL A   1      41.356  27.777  28.795  1.00  0.00    -0.354 N 
ATOM     44  C   UNL A   1      43.240  31.647  29.160  1.00  0.00     0.074 A 
ATOM     45  C   UNL A   1      42.385  32.570  29.872  1.00  0.00     0.031 C 
ATOM     46  C   UNL A   1      39.749  26.251  29.082  1.00  0.00     0.029 A 
ATOM     47  C   UNL A   1      41.064  26.473  28.479  1.00  0.00     0.049 A 
ATOM     48  H   UNL A   1      42.212  28.207  28.569  1.00  0.00     0.167 HD
ATOM     49  C   UNL A   1      44.481  31.952  28.715  1.00  0.00     0.037 A 
ATOM     50  C   UNL A   1      41.769  25.575  27.763  1.00  0.00     0.037 A 
ATOM     51  C   UNL A   1      45.331  31.035  28.004  1.00  0.00     0.049 A 
ATOM     52  C   UNL A   1      43.114  25.964  27.202  1.00  0.00     0.074 A 
ATOM     53  C   UNL A   1      46.607  31.246  27.512  1.00  0.00     0.029 A 
ATOM     54  N   UNL A   1      44.987  29.733  27.675  1.00  0.00    -0.354 N 
ATOM     55  N   UNL A   1      43.767  27.095  27.317  1.00  0.00    -0.248 NA
ATOM     56  C   UNL A   1      43.823  24.943  26.417  1.00  0.00     0.031 C 
ATOM     57  C   UNL A   1      47.012  30.091  26.839  1.00  0.00     0.029 A 
ATOM     58  C   UNL A   1      46.017  29.137  26.967  1.00  0.00     0.049 A 
ATOM     59  H   UNL A   1      44.135  29.297  27.909  1.00  0.00     0.167 HD
ATOM     60  C   UNL A   1      44.978  26.908  26.656  1.00  0.00     0.074 A 
ATOM     61  C   UNL A   1      44.970  25.551  26.152  1.00  0.00     0.031 C 
ATOM     62  C   UNL A   1      46.004  27.778  26.484  1.00  0.00     0.037 A 
BRANCH  49  63
ATOM     63  C   UNL A   1      44.977  33.348  28.958  1.00  0.00     0.057 A 
ATOM     64  C   UNL A   1      45.734  33.684  30.087  1.00  0.00     0.134 A 
ATOM     65  C   UNL A   1      44.703  34.369  28.039  1.00  0.00     0.134 A 
ATOM     66  F   UNL A   1      46.015  32.757  31.019  1.00  0.00    -0.206 F 
ATOM     67  C   UNL A   1      46.179  34.989  30.307  1.00  0.00     0.040 A 
ATOM     68  C   UNL A   1      45.169  35.670  28.231  1.00  0.00     0.040 A 
ATOM     69  F   UNL A   1      43.983  34.117  26.935  1.00  0.00    -0.206 F 
ATOM     70  C   UNL A   1      45.904  35.984  29.372  1.00  0.00     0.006 A 
ENDBRANCH  49  63
BRANCH  50  71
ATOM     71  C   UNL A   1      41.218  24.217  27.512  1.00  0.00     0.057 A 
ATOM     72  C   UNL A   1      40.167  24.015  26.609  1.00  0.00     0.134 A 
ATOM     73  C   UNL A   1      41.696  23.097  28.203  1.00  0.00     0.134 A 
ATOM     74  F   UNL A   1      39.647  25.052  25.936  1.00  0.00    -0.206 F 
ATOM     75  C   UNL A   1      39.595  22.755  26.420  1.00  0.00     0.040 A 
ATOM     76  C   UNL A   1      41.153  21.826  28.003  1.00  0.00     0.040 A 
ATOM     77  F   UNL A   1      42.699  23.222  29.084  1.00  0.00    -0.206 F 
ATOM     78  C   UNL A   1      40.093  21.655  27.117  1.00  0.00     0.006 A 
ENDBRANCH  50  71
BRANCH  62  79
ATOM     79  C   UNL A   1      47.231  27.273  25.778  1.00  0.00     0.057 A 
ATOM     80  C   UNL A   1      47.434  27.454  24.403  1.00  0.00     0.134 A 
ATOM     81  C   UNL A   1      48.242  26.619  26.495  1.00  0.00     0.134 A 
ATOM     82  F   UNL A   1      46.503  28.067  23.654  1.00  0.00    -0.206 F 
ATOM     83  C   UNL A   1      48.577  26.972  23.763  1.00  0.00     0.040 A 
ATOM     84  C   UNL A   1      49.404  26.161  25.873  1.00  0.00     0.040 A 
ATOM     85  F   UNL A   1      48.123  26.423  27.817  1.00  0.00    -0.206 F 
ATOM     86  C   UNL A   1      49.570  26.329  24.500  1.00  0.00     0.006 A 
ENDBRANCH  62  79
ENDBRANCH  36  37
ENDBRANCH  29  31
ENDBRANCH  28  29
ENDBRANCH  27  28
ENDBRANCH  26  27
ENDBRANCH  25  26
ENDBRANCH  24  25
ENDBRANCH   1  24
TORSDOF 19
ENDMDL
MODEL 3
REMARK VINA RESULT:      -9.8      0.903      6.301
REMARK SMILES C[N@H+]([C@@H]1CCOC2(CCCC2)C1)C(C)(C)C(=O)OCCOCCOCCOC(=O)c1ccc(-c2c3nc(c(-c4c(F)cccc4F)c4ccc([nH]4)c(-c4c(F)cccc4F)c4nc(c(-c5c(F)cccc5F)c5ccc2[nH]5)C=C4)C=C3)cc1
REMARK SMILES IDX 22 1 21 2 20 3 19 4 18 5 16 6 17 7 13 8 14 9 15 10 2 11 1 12
REMARK SMILES IDX 3 14 4 15 12 16 5 17 7 18 6 19 8 20 11 21 9 22 10 23 23 24
REMARK SMILES IDX 24 25 25 26 26 27 27 28 28 29 29 30 30 31 31 32 83 33 32 34
REMARK SMILES IDX 82 35 33 36 34 37 35 38 76 39 36 40 81 41 75 42 77 43 37 44
REMARK SMILES IDX 80 45 74 46 73 47 38 49 64 50 47 51 63 52 48 53 51 54 62 55
REMARK SMILES IDX 78 56 49 57 50 58 61 60 79 61 52 62 39 63 40 64 45 65 41 66
REMARK SMILES IDX 42 67 44 68 46 69 43 70 65 71 66 72 71 73 67 74 68 75 70 76
REMARK SMILES IDX 72 77 69 78 53 79 54 80 59 81 55 82 56 83 58 84 60 85 57 86
REMARK H PARENT 2 13 77 48 51 59
REMARK Flexibility Score: inf
ROOT
ATOM      1  C   UNL A   1      40.797  21.763  27.562  1.00  0.00     0.188 C 
ENDROOT
BRANCH   1   2
ATOM      2  O   UNL A   1      39.705  21.194  26.881  1.00  0.00    -0.376 OA
BRANCH   2   3
ATOM      3  C   UNL A   1      38.906  22.096  26.138  1.00  0.00     0.202 C 
BRANCH   3   4
ATOM      4  C   UNL A   1      37.617  21.656  25.397  1.00  0.00     0.261 C 
BRANCH   4   5
ATOM      5  O   UNL A   1      36.316  21.919  25.959  1.00  0.00    -0.459 OA
BRANCH   5   6
ATOM      6  C   UNL A   1      35.505  22.789  25.290  1.00  0.00     0.367 C 
ATOM      7  O   UNL A   1      35.953  23.827  24.812  1.00  0.00    -0.245 OA
BRANCH   6   8
ATOM      8  C   UNL A   1      33.973  22.355  25.267  1.00  0.00     0.190 C 
ATOM      9  C   UNL A   1      33.844  21.204  26.295  1.00  0.00     0.092 C 
ATOM     10  C   UNL A   1      33.544  21.627  23.948  1.00  0.00     0.092 C 
BRANCH   8  11
ATOM     11  N   UNL A   1      33.016  23.502  25.625  1.00  0.00    -0.321 N 
ATOM     12  C   UNL A   1      32.467  23.426  26.983  1.00  0.00     0.333 C 
ATOM     13  H   UNL A   1      33.691  24.266  25.605  1.00  0.00     0.349 HD
BRANCH  11  14
ATOM     14  C   UNL A   1      32.052  24.026  24.608  1.00  0.00     0.189 C 
ATOM     15  C   UNL A   1      32.690  24.404  23.258  1.00  0.00     0.093 C 
ATOM     16  C   UNL A   1      31.268  25.328  24.983  1.00  0.00     0.100 C 
ATOM     17  C   UNL A   1      33.631  25.585  23.435  1.00  0.00     0.167 C 
ATOM     18  C   UNL A   1      32.153  26.590  25.061  1.00  0.00     0.074 C 
ATOM     19  O   UNL A   1      32.926  26.745  23.859  1.00  0.00    -0.375 OA
ATOM     20  C   UNL A   1      31.299  27.881  25.147  1.00  0.00     0.036 C 
ATOM     21  C   UNL A   1      33.038  26.636  26.321  1.00  0.00     0.036 C 
ATOM     22  C   UNL A   1      31.698  28.578  26.443  1.00  0.00     0.003 C 
ATOM     23  C   UNL A   1      33.117  28.105  26.698  1.00  0.00     0.003 C 
ENDBRANCH  11  14
ENDBRANCH   8  11
ENDBRANCH   6   8
ENDBRANCH   5   6
ENDBRANCH   4   5
ENDBRANCH   3   4
ENDBRANCH   2   3
ENDBRANCH   1   2
BRANCH   1  24
ATOM     24  C   UNL A   1      42.065  20.939  27.375  1.00  0.00     0.188 C 
BRANCH  24  25
ATOM     25  O   UNL A   1      42.877  21.031  26.219  1.00  0.00    -0.376 OA
BRANCH  25  26
ATOM     26  C   UNL A   1      42.699  22.112  25.320  1.00  0.00     0.202 C 
BRANCH  26  27
ATOM     27  C   UNL A   1      43.902  22.952  24.849  1.00  0.00     0.261 C 
BRANCH  27  28
ATOM     28  O   UNL A   1      43.659  24.340  24.585  1.00  0.00    -0.460 OA
BRANCH  28  29
ATOM     29  C   UNL A   1      44.471  25.208  25.235  1.00  0.00     0.338 C 
ATOM     30  O   UNL A   1      45.630  25.485  24.961  1.00  0.00    -0.246 OA
BRANCH  29  31
ATOM     31  C   UNL A   1      43.668  25.961  26.225  1.00  0.00     0.060 A 
ATOM     32  C   UNL A   1      43.963  27.319  26.431  1.00  0.00     0.016 A 
ATOM     33  C   UNL A   1      42.639  25.347  26.940  1.00  0.00     0.016 A 
ATOM     34  C   UNL A   1      43.249  28.062  27.366  1.00  0.00     0.010 A 
ATOM     35  C   UNL A   1      41.954  26.081  27.913  1.00  0.00     0.010 A 
ATOM     36  C   UNL A   1      42.283  27.429  28.156  1.00  0.00    -0.014 A 
BRANCH  36  37
ATOM     37  C   UNL A   1      41.828  28.090  29.403  1.00  0.00     0.031 A 
ATOM     38  C   UNL A   1      40.570  28.915  29.337  1.00  0.00     0.074 A 
ATOM     39  C   UNL A   1      42.475  27.937  30.571  1.00  0.00     0.049 A 
ATOM     40  N   UNL A   1      40.000  29.643  30.260  1.00  0.00    -0.248 NA
ATOM     41  C   UNL A   1      39.865  28.921  28.043  1.00  0.00     0.031 C 
ATOM     42  C   UNL A   1      43.663  27.117  30.785  1.00  0.00     0.029 A 
ATOM     43  N   UNL A   1      42.215  28.487  31.802  1.00  0.00    -0.354 N 
ATOM     44  C   UNL A   1      38.879  30.201  29.658  1.00  0.00     0.074 A 
ATOM     45  C   UNL A   1      38.869  29.757  28.282  1.00  0.00     0.031 C 
ATOM     46  C   UNL A   1      44.043  27.231  32.071  1.00  0.00     0.029 A 
ATOM     47  C   UNL A   1      43.144  28.158  32.758  1.00  0.00     0.049 A 
ATOM     48  H   UNL A   1      41.437  29.062  31.982  1.00  0.00     0.167 HD
ATOM     49  C   UNL A   1      37.938  31.007  30.202  1.00  0.00     0.037 A 
ATOM     50  C   UNL A   1      43.265  28.582  34.032  1.00  0.00     0.037 A 
ATOM     51  C   UNL A   1      37.949  31.452  31.569  1.00  0.00     0.049 A 
ATOM     52  C   UNL A   1      42.251  29.548  34.592  1.00  0.00     0.074 A 
ATOM     53  C   UNL A   1      37.039  32.268  32.218  1.00  0.00     0.029 A 
ATOM     54  N   UNL A   1      38.925  31.124  32.498  1.00  0.00    -0.354 N 
ATOM     55  N   UNL A   1      41.191  30.067  34.020  1.00  0.00    -0.248 NA
ATOM     56  C   UNL A   1      42.451  29.984  35.982  1.00  0.00     0.031 C 
ATOM     57  C   UNL A   1      37.495  32.478  33.523  1.00  0.00     0.029 A 
ATOM     58  C   UNL A   1      38.651  31.740  33.707  1.00  0.00     0.049 A 
ATOM     59  H   UNL A   1      39.699  30.540  32.322  1.00  0.00     0.167 HD
ATOM     60  C   UNL A   1      40.577  30.852  34.991  1.00  0.00     0.074 A 
ATOM     61  C   UNL A   1      41.379  30.734  36.190  1.00  0.00     0.031 C 
ATOM     62  C   UNL A   1      39.450  31.602  34.900  1.00  0.00     0.037 A 
BRANCH  49  63
ATOM     63  C   UNL A   1      36.836  31.485  29.301  1.00  0.00     0.057 A 
ATOM     64  C   UNL A   1      35.758  30.665  28.944  1.00  0.00     0.134 A 
ATOM     65  C   UNL A   1      36.848  32.791  28.795  1.00  0.00     0.134 A 
ATOM     66  F   UNL A   1      35.695  29.396  29.377  1.00  0.00    -0.206 F 
ATOM     67  C   UNL A   1      34.745  31.118  28.095  1.00  0.00     0.040 A 
ATOM     68  C   UNL A   1      35.826  33.265  27.972  1.00  0.00     0.040 A 
ATOM     69  F   UNL A   1      37.851  33.630  29.097  1.00  0.00    -0.206 F 
ATOM     70  C   UNL A   1      34.774  32.426  27.615  1.00  0.00     0.006 A 
ENDBRANCH  49  63
BRANCH  50  71
ATOM     71  C   UNL A   1      44.398  28.114  34.873  1.00  0.00     0.057 A 
ATOM     72  C   UNL A   1      44.280  26.979  35.684  1.00  0.00     0.134 A 
ATOM     73  C   UNL A   1      45.608  28.817  34.924  1.00  0.00     0.134 A 
ATOM     74  F   UNL A   1      43.136  26.278  35.701  1.00  0.00    -0.206 F 
ATOM     75  C   UNL A   1      45.312  26.574  36.532  1.00  0.00     0.040 A 
ATOM     76  C   UNL A   1      46.659  28.407  35.746  1.00  0.00     0.040 A 
ATOM     77  F   UNL A   1      45.785  29.915  34.175  1.00  0.00    -0.206 F 
ATOM     78  C   UNL A   1      46.509  27.288  36.560  1.00  0.00     0.006 A 
ENDBRANCH  50  71
BRANCH  62  79
ATOM     79  C   UNL A   1      38.978  32.299  36.145  1.00  0.00     0.057 A 
ATOM     80  C   UNL A   1      38.153  31.673  37.088  1.00  0.00     0.134 A 
ATOM     81  C   UNL A   1      39.383  33.614  36.417  1.00  0.00     0.134 A 
ATOM     82  F   UNL A   1      37.721  30.418  36.888  1.00  0.00    -0.206 F 
ATOM     83  C   UNL A   1      37.719  32.340  38.236  1.00  0.00     0.040 A 
ATOM     84  C   UNL A   1      38.983  34.279  37.577  1.00  0.00     0.040 A 
ATOM     85  F   UNL A   1      40.185  34.271  35.566  1.00  0.00    -0.206 F 
ATOM     86  C   UNL A   1      38.139  33.644  38.486  1.00  0.00     0.006 A 
ENDBRANCH  62  79
ENDBRANCH  36  37
ENDBRANCH  29  31
ENDBRANCH  28  29
ENDBRANCH  27  28
ENDBRANCH  26  27
ENDBRANCH  25  26
ENDBRANCH  24  25
ENDBRANCH   1  24
TORSDOF 19
ENDMDL
