MODEL 1
REMARK VINA RESULT:     -10.5      0.000      0.000
REMARK SMILES Cc1ccccc1OCC(=O)NCCC(=O)OCCOCCOCCOC(=O)c1ccc(-c2c3nc(c(-c4c(F)cccc4F)c4ccc([nH]4)c(-c4c(F)cccc4F)c4nc(c(-c5c(F)cccc5F)c5ccc2[nH]5)C=C4)C=C3)cc1
REMARK SMILES IDX 20 1 19 2 18 3 17 4 15 5 16 6 14 7 13 8 12 9 10 10 11 11
REMARK SMILES IDX 9 13 8 14 7 15 1 16 2 17 3 18 4 19 6 20 5 21 21 22 22 23
REMARK SMILES IDX 23 24 24 25 25 26 26 27 27 28 28 29 29 30 30 31 82 32 31 33
REMARK SMILES IDX 81 34 32 35 33 36 34 37 75 38 35 39 80 40 74 41 76 42 36 43
REMARK SMILES IDX 79 44 73 45 72 46 37 48 63 49 46 50 62 51 47 52 50 53 61 54
REMARK SMILES IDX 77 55 48 56 49 57 60 59 78 60 51 61 38 62 39 63 44 64 40 65
REMARK SMILES IDX 41 66 43 67 45 68 42 69 64 70 65 71 70 72 66 73 67 74 69 75
REMARK SMILES IDX 71 76 68 77 52 78 53 79 58 80 54 81 55 82 57 83 59 84 56 85
REMARK H PARENT 12 12 76 47 50 58
REMARK Flexibility Score: inf
ROOT
ATOM      1  O   UNL A   1      33.452  22.374  26.173  1.00  0.00    -0.376 OA
ENDROOT
BRANCH   1   2
ATOM      2  C   UNL A   1      33.829  23.736  26.415  1.00  0.00     0.202 C 
BRANCH   2   3
ATOM      3  C   UNL A   1      34.364  24.906  25.310  1.00  0.00     0.261 C 
BRANCH   3   4
ATOM      4  O   UNL A   1      33.958  25.326  23.692  1.00  0.00    -0.463 OA
BRANCH   4   5
ATOM      5  C   UNL A   1      33.529  24.716  22.456  1.00  0.00     0.307 C 
ATOM      6  O   UNL A   1      33.655  23.577  22.003  1.00  0.00    -0.252 OA
BRANCH   5   7
ATOM      7  C   UNL A   1      32.991  25.589  21.416  1.00  0.00     0.144 C 
BRANCH   7   8
ATOM      8  C   UNL A   1      31.595  25.971  21.777  1.00  0.00     0.127 C 
BRANCH   8   9
ATOM      9  N   UNL A   1      31.157  24.946  22.678  1.00  0.00    -0.353 N 
ATOM     10  C   UNL A   1      30.578  25.253  23.885  1.00  0.00     0.257 C 
ATOM     11  O   UNL A   1      30.657  24.431  24.798  1.00  0.00    -0.271 OA
ATOM     12  H   UNL A   1      31.272  24.002  22.426  1.00  0.00     0.163 HD
BRANCH  10  13
ATOM     13  C   UNL A   1      29.794  26.587  24.020  1.00  0.00     0.329 C 
BRANCH  13  14
ATOM     14  O   UNL A   1      30.352  27.820  24.423  1.00  0.00    -0.484 OA
BRANCH  14  15
ATOM     15  C   UNL A   1      31.535  28.009  25.076  1.00  0.00     0.122 A 
ATOM     16  C   UNL A   1      33.068  28.910  23.205  1.00  0.00     0.048 C 
ATOM     17  C   UNL A   1      32.760  28.504  24.614  1.00  0.00    -0.009 A 
ATOM     18  C   UNL A   1      33.792  28.743  25.556  1.00  0.00     0.007 A 
ATOM     19  C   UNL A   1      33.630  28.482  26.917  1.00  0.00     0.001 A 
ATOM     20  C   UNL A   1      31.405  27.716  26.452  1.00  0.00     0.047 A 
ATOM     21  C   UNL A   1      32.431  27.958  27.367  1.00  0.00     0.004 A 
ENDBRANCH  14  15
ENDBRANCH  13  14
ENDBRANCH  10  13
ENDBRANCH   8   9
ENDBRANCH   7   8
ENDBRANCH   5   7
ENDBRANCH   4   5
ENDBRANCH   3   4
ENDBRANCH   2   3
ENDBRANCH   1   2
BRANCH   1  22
ATOM     22  C   UNL A   1      34.322  21.226  26.223  1.00  0.00     0.188 C 
BRANCH  22  23
ATOM     23  C   UNL A   1      35.153  20.737  25.043  1.00  0.00     0.188 C 
BRANCH  23  24
ATOM     24  O   UNL A   1      35.458  21.810  24.177  1.00  0.00    -0.376 OA
BRANCH  24  25
ATOM     25  C   UNL A   1      36.798  22.266  24.217  1.00  0.00     0.202 C 
BRANCH  25  26
ATOM     26  C   UNL A   1      37.747  21.319  24.980  1.00  0.00     0.261 C 
BRANCH  26  27
ATOM     27  O   UNL A   1      38.171  21.894  26.242  1.00  0.00    -0.460 OA
BRANCH  27  28
ATOM     28  C   UNL A   1      39.529  21.977  26.501  1.00  0.00     0.338 C 
ATOM     29  O   UNL A   1      40.215  21.082  26.904  1.00  0.00    -0.246 OA
BRANCH  28  30
ATOM     30  C   UNL A   1      39.947  23.431  26.468  1.00  0.00     0.060 A 
ATOM     31  C   UNL A   1      41.201  23.949  26.840  1.00  0.00     0.016 A 
ATOM     32  C   UNL A   1      38.922  24.303  26.510  1.00  0.00     0.016 A 
ATOM     33  C   UNL A   1      41.335  25.256  27.470  1.00  0.00     0.010 A 
ATOM     34  C   UNL A   1      39.070  25.323  27.432  1.00  0.00     0.010 A 
ATOM     35  C   UNL A   1      40.225  25.978  27.919  1.00  0.00    -0.014 A 
BRANCH  35  36
ATOM     36  C   UNL A   1      40.232  27.359  28.881  1.00  0.00     0.031 A 
ATOM     37  C   UNL A   1      39.257  28.775  28.925  1.00  0.00     0.074 A 
ATOM     38  C   UNL A   1      41.292  27.449  29.710  1.00  0.00     0.049 A 
ATOM     39  N   UNL A   1      39.719  29.994  29.138  1.00  0.00    -0.248 NA
ATOM     40  C   UNL A   1      37.775  28.989  28.639  1.00  0.00     0.031 C 
ATOM     41  C   UNL A   1      41.525  28.398  30.791  1.00  0.00     0.029 A 
ATOM     42  N   UNL A   1      42.473  26.697  29.662  1.00  0.00    -0.354 N 
ATOM     43  C   UNL A   1      38.609  30.862  29.166  1.00  0.00     0.074 A 
ATOM     44  C   UNL A   1      37.619  30.274  28.385  1.00  0.00     0.031 C 
ATOM     45  C   UNL A   1      42.838  28.393  31.081  1.00  0.00     0.029 A 
ATOM     46  C   UNL A   1      43.490  27.558  30.086  1.00  0.00     0.049 A 
ATOM     47  H   UNL A   1      42.567  25.757  29.385  1.00  0.00     0.167 HD
ATOM     48  C   UNL A   1      38.411  31.823  30.112  1.00  0.00     0.037 A 
ATOM     49  C   UNL A   1      44.474  27.931  29.221  1.00  0.00     0.037 A 
ATOM     50  C   UNL A   1      39.691  32.130  30.682  1.00  0.00     0.049 A 
ATOM     51  C   UNL A   1      44.526  29.434  29.066  1.00  0.00     0.074 A 
ATOM     52  C   UNL A   1      40.304  31.835  31.878  1.00  0.00     0.029 A 
ATOM     53  N   UNL A   1      40.682  32.507  29.791  1.00  0.00    -0.354 N 
ATOM     54  N   UNL A   1      43.546  30.232  29.400  1.00  0.00    -0.248 NA
ATOM     55  C   UNL A   1      45.690  30.168  28.585  1.00  0.00     0.031 C 
ATOM     56  C   UNL A   1      41.711  31.884  31.639  1.00  0.00     0.029 A 
ATOM     57  C   UNL A   1      41.925  32.281  30.328  1.00  0.00     0.049 A 
ATOM     58  H   UNL A   1      40.517  32.886  28.897  1.00  0.00     0.167 HD
ATOM     59  C   UNL A   1      43.918  31.534  29.220  1.00  0.00     0.074 A 
ATOM     60  C   UNL A   1      45.272  31.442  28.709  1.00  0.00     0.031 C 
ATOM     61  C   UNL A   1      43.086  32.579  29.503  1.00  0.00     0.037 A 
BRANCH  48  62
ATOM     62  C   UNL A   1      37.047  32.345  30.627  1.00  0.00     0.057 A 
ATOM     63  C   UNL A   1      36.397  33.378  29.924  1.00  0.00     0.134 A 
ATOM     64  C   UNL A   1      36.369  31.996  31.831  1.00  0.00     0.134 A 
ATOM     65  F   UNL A   1      36.900  33.853  28.776  1.00  0.00    -0.206 F 
ATOM     66  C   UNL A   1      35.210  33.999  30.367  1.00  0.00     0.040 A 
ATOM     67  C   UNL A   1      35.152  32.569  32.252  1.00  0.00     0.040 A 
ATOM     68  F   UNL A   1      36.854  31.136  32.732  1.00  0.00    -0.206 F 
ATOM     69  C   UNL A   1      34.574  33.589  31.528  1.00  0.00     0.006 A 
ENDBRANCH  48  62
BRANCH  49  70
ATOM     70  C   UNL A   1      44.842  26.866  28.231  1.00  0.00     0.057 A 
ATOM     71  C   UNL A   1      44.347  26.990  26.910  1.00  0.00     0.134 A 
ATOM     72  C   UNL A   1      45.879  25.947  28.408  1.00  0.00     0.134 A 
ATOM     73  F   UNL A   1      43.341  27.841  26.646  1.00  0.00    -0.206 F 
ATOM     74  C   UNL A   1      44.931  26.345  25.814  1.00  0.00     0.040 A 
ATOM     75  C   UNL A   1      46.455  25.265  27.317  1.00  0.00     0.040 A 
ATOM     76  F   UNL A   1      46.445  25.777  29.611  1.00  0.00    -0.206 F 
ATOM     77  C   UNL A   1      46.006  25.492  26.013  1.00  0.00     0.006 A 
ENDBRANCH  49  70
BRANCH  61  78
ATOM     78  C   UNL A   1      43.237  33.999  29.004  1.00  0.00     0.057 A 
ATOM     79  C   UNL A   1      43.335  34.350  27.652  1.00  0.00     0.134 A 
ATOM     80  C   UNL A   1      43.057  35.090  29.893  1.00  0.00     0.134 A 
ATOM     81  F   UNL A   1      43.403  33.426  26.685  1.00  0.00    -0.206 F 
ATOM     82  C   UNL A   1      43.295  35.681  27.218  1.00  0.00     0.040 A 
ATOM     83  C   UNL A   1      42.934  36.411  29.462  1.00  0.00     0.040 A 
ATOM     84  F   UNL A   1      42.945  34.915  31.218  1.00  0.00    -0.206 F 
ATOM     85  C   UNL A   1      43.069  36.715  28.119  1.00  0.00     0.006 A 
ENDBRANCH  61  78
ENDBRANCH  35  36
ENDBRANCH  28  30
ENDBRANCH  27  28
ENDBRANCH  26  27
ENDBRANCH  25  26
ENDBRANCH  24  25
ENDBRANCH  23  24
ENDBRANCH  22  23
ENDBRANCH   1  22
TORSDOF 22
ENDMDL
MODEL 2
REMARK VINA RESULT:     -10.4      2.306      3.825
REMARK SMILES Cc1ccccc1OCC(=O)NCCC(=O)OCCOCCOCCOC(=O)c1ccc(-c2c3nc(c(-c4c(F)cccc4F)c4ccc([nH]4)c(-c4c(F)cccc4F)c4nc(c(-c5c(F)cccc5F)c5ccc2[nH]5)C=C4)C=C3)cc1
REMARK SMILES IDX 20 1 19 2 18 3 17 4 15 5 16 6 14 7 13 8 12 9 10 10 11 11
REMARK SMILES IDX 9 13 8 14 7 15 1 16 2 17 3 18 4 19 6 20 5 21 21 22 22 23
REMARK SMILES IDX 23 24 24 25 25 26 26 27 27 28 28 29 29 30 30 31 82 32 31 33
REMARK SMILES IDX 81 34 32 35 33 36 34 37 75 38 35 39 80 40 74 41 76 42 36 43
REMARK SMILES IDX 79 44 73 45 72 46 37 48 63 49 46 50 62 51 47 52 50 53 61 54
REMARK SMILES IDX 77 55 48 56 49 57 60 59 78 60 51 61 38 62 39 63 44 64 40 65
REMARK SMILES IDX 41 66 43 67 45 68 42 69 64 70 65 71 70 72 66 73 67 74 69 75
REMARK SMILES IDX 71 76 68 77 52 78 53 79 58 80 54 81 55 82 57 83 59 84 56 85
REMARK H PARENT 12 12 76 47 50 58
REMARK Flexibility Score: inf
ROOT
ATOM      1  O   UNL A   1      40.403  21.306  26.112  1.00  0.00    -0.376 OA
ENDROOT
BRANCH   1   2
ATOM      2  C   UNL A   1      40.100  22.361  27.034  1.00  0.00     0.202 C 
BRANCH   2   3
ATOM      3  C   UNL A   1      39.110  23.719  26.812  1.00  0.00     0.261 C 
BRANCH   3   4
ATOM      4  O   UNL A   1      37.705  24.061  25.878  1.00  0.00    -0.463 OA
BRANCH   4   5
ATOM      5  C   UNL A   1      36.850  23.451  24.887  1.00  0.00     0.307 C 
ATOM      6  O   UNL A   1      37.035  23.134  23.711  1.00  0.00    -0.252 OA
BRANCH   5   7
ATOM      7  C   UNL A   1      35.431  23.314  25.204  1.00  0.00     0.144 C 
BRANCH   7   8
ATOM      8  C   UNL A   1      34.687  24.462  24.610  1.00  0.00     0.127 C 
BRANCH   8   9
ATOM      9  N   UNL A   1      34.440  24.074  23.252  1.00  0.00    -0.353 N 
ATOM     10  C   UNL A   1      33.677  24.848  22.413  1.00  0.00     0.257 C 
ATOM     11  O   UNL A   1      33.100  24.301  21.474  1.00  0.00    -0.271 OA
ATOM     12  H   UNL A   1      34.827  23.235  22.914  1.00  0.00     0.163 HD
BRANCH  10  13
ATOM     13  C   UNL A   1      33.633  26.384  22.647  1.00  0.00     0.329 C 
BRANCH  13  14
ATOM     14  O   UNL A   1      32.544  27.090  23.204  1.00  0.00    -0.484 OA
BRANCH  14  15
ATOM     15  C   UNL A   1      32.366  27.417  24.516  1.00  0.00     0.122 A 
ATOM     16  C   UNL A   1      30.071  26.362  25.048  1.00  0.00     0.048 C 
ATOM     17  C   UNL A   1      31.319  27.113  25.395  1.00  0.00    -0.009 A 
ATOM     18  C   UNL A   1      31.467  27.451  26.764  1.00  0.00     0.007 A 
ATOM     19  C   UNL A   1      32.606  28.090  27.253  1.00  0.00     0.001 A 
ATOM     20  C   UNL A   1      33.495  28.098  25.025  1.00  0.00     0.047 A 
ATOM     21  C   UNL A   1      33.624  28.422  26.377  1.00  0.00     0.004 A 
ENDBRANCH  14  15
ENDBRANCH  13  14
ENDBRANCH  10  13
ENDBRANCH   8   9
ENDBRANCH   7   8
ENDBRANCH   5   7
ENDBRANCH   4   5
ENDBRANCH   3   4
ENDBRANCH   2   3
ENDBRANCH   1   2
BRANCH   1  22
ATOM     22  C   UNL A   1      40.789  19.960  26.450  1.00  0.00     0.188 C 
BRANCH  22  23
ATOM     23  C   UNL A   1      41.918  19.616  27.414  1.00  0.00     0.188 C 
BRANCH  23  24
ATOM     24  O   UNL A   1      42.787  18.666  26.834  1.00  0.00    -0.376 OA
BRANCH  24  25
ATOM     25  C   UNL A   1      42.991  18.796  25.439  1.00  0.00     0.202 C 
BRANCH  25  26
ATOM     26  C   UNL A   1      44.418  19.250  25.066  1.00  0.00     0.261 C 
BRANCH  26  27
ATOM     27  O   UNL A   1      44.408  20.536  24.395  1.00  0.00    -0.460 OA
BRANCH  27  28
ATOM     28  C   UNL A   1      45.001  21.613  25.033  1.00  0.00     0.338 C 
ATOM     29  O   UNL A   1      46.146  21.670  25.379  1.00  0.00    -0.246 OA
BRANCH  28  30
ATOM     30  C   UNL A   1      43.922  22.576  25.476  1.00  0.00     0.060 A 
ATOM     31  C   UNL A   1      43.557  23.774  24.835  1.00  0.00     0.016 A 
ATOM     32  C   UNL A   1      43.614  22.499  26.785  1.00  0.00     0.016 A 
ATOM     33  C   UNL A   1      43.114  24.942  25.586  1.00  0.00     0.010 A 
ATOM     34  C   UNL A   1      43.566  23.717  27.438  1.00  0.00     0.010 A 
ATOM     35  C   UNL A   1      43.215  25.008  26.979  1.00  0.00    -0.014 A 
BRANCH  35  36
ATOM     36  C   UNL A   1      42.990  26.363  27.951  1.00  0.00     0.031 A 
ATOM     37  C   UNL A   1      41.692  27.473  28.150  1.00  0.00     0.074 A 
ATOM     38  C   UNL A   1      44.093  26.748  28.626  1.00  0.00     0.049 A 
ATOM     39  N   UNL A   1      41.841  28.775  28.316  1.00  0.00    -0.248 NA
ATOM     40  C   UNL A   1      40.181  27.283  28.076  1.00  0.00     0.031 C 
ATOM     41  C   UNL A   1      44.214  27.749  29.678  1.00  0.00     0.029 A 
ATOM     42  N   UNL A   1      45.412  26.332  28.403  1.00  0.00    -0.354 N 
ATOM     43  C   UNL A   1      40.556  29.321  28.510  1.00  0.00     0.074 A 
ATOM     44  C   UNL A   1      39.658  28.475  27.865  1.00  0.00     0.031 C 
ATOM     45  C   UNL A   1      45.509  28.096  29.783  1.00  0.00     0.029 A 
ATOM     46  C   UNL A   1      46.214  27.440  28.694  1.00  0.00     0.049 A 
ATOM     47  H   UNL A   1      45.712  25.444  28.102  1.00  0.00     0.167 HD
ATOM     48  C   UNL A   1      40.244  30.217  29.489  1.00  0.00     0.037 A 
ATOM     49  C   UNL A   1      46.936  28.039  27.707  1.00  0.00     0.037 A 
ATOM     50  C   UNL A   1      41.463  30.863  29.879  1.00  0.00     0.049 A 
ATOM     51  C   UNL A   1      46.568  29.499  27.568  1.00  0.00     0.074 A 
ATOM     52  C   UNL A   1      42.292  30.767  30.975  1.00  0.00     0.029 A 
ATOM     53  N   UNL A   1      42.187  31.467  28.865  1.00  0.00    -0.354 N 
ATOM     54  N   UNL A   1      45.468  30.018  28.047  1.00  0.00    -0.248 NA
ATOM     55  C   UNL A   1      47.419  30.502  26.941  1.00  0.00     0.031 C 
ATOM     56  C   UNL A   1      43.588  31.179  30.543  1.00  0.00     0.029 A 
ATOM     57  C   UNL A   1      43.508  31.589  29.221  1.00  0.00     0.049 A 
ATOM     58  H   UNL A   1      41.807  31.769  28.008  1.00  0.00     0.167 HD
ATOM     59  C   UNL A   1      45.455  31.368  27.836  1.00  0.00     0.074 A 
ATOM     60  C   UNL A   1      46.701  31.624  27.140  1.00  0.00     0.031 C 
ATOM     61  C   UNL A   1      44.423  32.163  28.247  1.00  0.00     0.037 A 
BRANCH  48  62
ATOM     62  C   UNL A   1      38.875  30.373  30.196  1.00  0.00     0.057 A 
ATOM     63  C   UNL A   1      38.514  29.455  31.203  1.00  0.00     0.134 A 
ATOM     64  C   UNL A   1      37.825  31.284  29.889  1.00  0.00     0.134 A 
ATOM     65  F   UNL A   1      39.370  28.508  31.611  1.00  0.00    -0.206 F 
ATOM     66  C   UNL A   1      37.251  29.442  31.832  1.00  0.00     0.040 A 
ATOM     67  C   UNL A   1      36.581  31.317  30.552  1.00  0.00     0.040 A 
ATOM     68  F   UNL A   1      37.878  32.165  28.884  1.00  0.00    -0.206 F 
ATOM     69  C   UNL A   1      36.281  30.381  31.518  1.00  0.00     0.006 A 
ENDBRANCH  48  62
BRANCH  49  70
ATOM     70  C   UNL A   1      47.432  27.087  26.660  1.00  0.00     0.057 A 
ATOM     71  C   UNL A   1      46.740  27.041  25.425  1.00  0.00     0.134 A 
ATOM     72  C   UNL A   1      48.691  26.483  26.674  1.00  0.00     0.134 A 
ATOM     73  F   UNL A   1      45.516  27.586  25.319  1.00  0.00    -0.206 F 
ATOM     74  C   UNL A   1      47.314  26.548  24.248  1.00  0.00     0.040 A 
ATOM     75  C   UNL A   1      49.268  25.952  25.502  1.00  0.00     0.040 A 
ATOM     76  F   UNL A   1      49.446  26.499  27.781  1.00  0.00    -0.206 F 
ATOM     77  C   UNL A   1      48.595  26.018  24.280  1.00  0.00     0.006 A 
ENDBRANCH  49  70
BRANCH  61  78
ATOM     78  C   UNL A   1      44.125  33.561  27.753  1.00  0.00     0.057 A 
ATOM     79  C   UNL A   1      43.784  33.871  26.431  1.00  0.00     0.134 A 
ATOM     80  C   UNL A   1      43.952  34.622  28.678  1.00  0.00     0.134 A 
ATOM     81  F   UNL A   1      43.794  32.945  25.463  1.00  0.00    -0.206 F 
ATOM     82  C   UNL A   1      43.342  35.143  26.049  1.00  0.00     0.040 A 
ATOM     83  C   UNL A   1      43.435  35.868  28.321  1.00  0.00     0.040 A 
ATOM     84  F   UNL A   1      44.234  34.481  29.982  1.00  0.00    -0.206 F 
ATOM     85  C   UNL A   1      43.142  36.139  26.996  1.00  0.00     0.006 A 
ENDBRANCH  61  78
ENDBRANCH  35  36
ENDBRANCH  28  30
ENDBRANCH  27  28
ENDBRANCH  26  27
ENDBRANCH  25  26
ENDBRANCH  24  25
ENDBRANCH  23  24
ENDBRANCH  22  23
ENDBRANCH   1  22
TORSDOF 22
ENDMDL
MODEL 3
REMARK VINA RESULT:     -10.1      2.085      3.589
REMARK SMILES Cc1ccccc1OCC(=O)NCCC(=O)OCCOCCOCCOC(=O)c1ccc(-c2c3nc(c(-c4c(F)cccc4F)c4ccc([nH]4)c(-c4c(F)cccc4F)c4nc(c(-c5c(F)cccc5F)c5ccc2[nH]5)C=C4)C=C3)cc1
REMARK SMILES IDX 20 1 19 2 18 3 17 4 15 5 16 6 14 7 13 8 12 9 10 10 11 11
REMARK SMILES IDX 9 13 8 14 7 15 1 16 2 17 3 18 4 19 6 20 5 21 21 22 22 23
REMARK SMILES IDX 23 24 24 25 25 26 26 27 27 28 28 29 29 30 30 31 82 32 31 33
REMARK SMILES IDX 81 34 32 35 33 36 34 37 75 38 35 39 80 40 74 41 76 42 36 43
REMARK SMILES IDX 79 44 73 45 72 46 37 48 63 49 46 50 62 51 47 52 50 53 61 54
REMARK SMILES IDX 77 55 48 56 49 57 60 59 78 60 51 61 38 62 39 63 44 64 40 65
REMARK SMILES IDX 41 66 43 67 45 68 42 69 64 70 65 71 70 72 66 73 67 74 69 75
REMARK SMILES IDX 71 76 68 77 52 78 53 79 58 80 54 81 55 82 57 83 59 84 56 85
REMARK H PARENT 12 12 76 47 50 58
REMARK Flexibility Score: inf
ROOT
ATOM      1  O   UNL A   1      38.864  21.820  25.947  1.00  0.00    -0.376 OA
ENDROOT
BRANCH   1   2
ATOM      2  C   UNL A   1      37.792  21.699  25.001  1.00  0.00     0.202 C 
BRANCH   2   3
ATOM      3  C   UNL A   1      36.154  21.365  25.283  1.00  0.00     0.261 C 
BRANCH   3   4
ATOM      4  O   UNL A   1      35.013  20.248  24.642  1.00  0.00    -0.463 OA
BRANCH   4   5
ATOM      5  C   UNL A   1      33.613  19.906  24.736  1.00  0.00     0.307 C 
ATOM      6  O   UNL A   1      33.028  18.898  25.134  1.00  0.00    -0.252 OA
BRANCH   5   7
ATOM      7  C   UNL A   1      32.650  20.800  24.098  1.00  0.00     0.144 C 
BRANCH   7   8
ATOM      8  C   UNL A   1      31.726  21.339  25.137  1.00  0.00     0.127 C 
BRANCH   8   9
ATOM      9  N   UNL A   1      32.515  21.403  26.331  1.00  0.00    -0.353 N 
ATOM     10  C   UNL A   1      32.793  22.600  26.944  1.00  0.00     0.257 C 
ATOM     11  O   UNL A   1      33.810  22.685  27.631  1.00  0.00    -0.271 OA
ATOM     12  H   UNL A   1      32.866  20.571  26.722  1.00  0.00     0.163 HD
BRANCH  10  13
ATOM     13  C   UNL A   1      31.777  23.767  26.797  1.00  0.00     0.329 C 
BRANCH  13  14
ATOM     14  O   UNL A   1      32.024  25.109  27.160  1.00  0.00    -0.484 OA
BRANCH  14  15
ATOM     15  C   UNL A   1      32.359  26.135  26.324  1.00  0.00     0.122 A 
ATOM     16  C   UNL A   1      31.523  28.206  27.619  1.00  0.00     0.048 C 
ATOM     17  C   UNL A   1      32.192  27.517  26.469  1.00  0.00    -0.009 A 
ATOM     18  C   UNL A   1      32.781  28.373  25.505  1.00  0.00     0.007 A 
ATOM     19  C   UNL A   1      33.498  27.882  24.414  1.00  0.00     0.001 A 
ATOM     20  C   UNL A   1      33.057  25.656  25.192  1.00  0.00     0.047 A 
ATOM     21  C   UNL A   1      33.631  26.515  24.253  1.00  0.00     0.004 A 
ENDBRANCH  14  15
ENDBRANCH  13  14
ENDBRANCH  10  13
ENDBRANCH   8   9
ENDBRANCH   7   8
ENDBRANCH   5   7
ENDBRANCH   4   5
ENDBRANCH   3   4
ENDBRANCH   2   3
ENDBRANCH   1   2
BRANCH   1  22
ATOM     22  C   UNL A   1      39.908  20.856  26.181  1.00  0.00     0.188 C 
BRANCH  22  23
ATOM     23  C   UNL A   1      39.825  19.393  25.764  1.00  0.00     0.188 C 
BRANCH  23  24
ATOM     24  O   UNL A   1      41.120  18.845  25.634  1.00  0.00    -0.376 OA
BRANCH  24  25
ATOM     25  C   UNL A   1      42.118  19.435  26.446  1.00  0.00     0.202 C 
BRANCH  25  26
ATOM     26  C   UNL A   1      43.467  19.627  25.721  1.00  0.00     0.261 C 
BRANCH  26  27
ATOM     27  O   UNL A   1      43.494  20.865  24.966  1.00  0.00    -0.460 OA
BRANCH  27  28
ATOM     28  C   UNL A   1      44.196  21.937  25.492  1.00  0.00     0.338 C 
ATOM     29  O   UNL A   1      45.346  21.917  25.827  1.00  0.00    -0.246 OA
BRANCH  28  30
ATOM     30  C   UNL A   1      43.220  23.041  25.837  1.00  0.00     0.060 A 
ATOM     31  C   UNL A   1      43.090  24.277  25.179  1.00  0.00     0.016 A 
ATOM     32  C   UNL A   1      42.773  23.006  27.106  1.00  0.00     0.016 A 
ATOM     33  C   UNL A   1      42.737  25.495  25.898  1.00  0.00     0.010 A 
ATOM     34  C   UNL A   1      42.826  24.219  27.769  1.00  0.00     0.010 A 
ATOM     35  C   UNL A   1      42.704  25.546  27.295  1.00  0.00    -0.014 A 
BRANCH  35  36
ATOM     36  C   UNL A   1      42.570  26.919  28.258  1.00  0.00     0.031 A 
ATOM     37  C   UNL A   1      41.309  28.057  28.526  1.00  0.00     0.074 A 
ATOM     38  C   UNL A   1      43.722  27.292  28.853  1.00  0.00     0.049 A 
ATOM     39  N   UNL A   1      41.493  29.359  28.660  1.00  0.00    -0.248 NA
ATOM     40  C   UNL A   1      39.793  27.897  28.554  1.00  0.00     0.031 C 
ATOM     41  C   UNL A   1      43.931  28.305  29.879  1.00  0.00     0.029 A 
ATOM     42  N   UNL A   1      45.015  26.847  28.550  1.00  0.00    -0.354 N 
ATOM     43  C   UNL A   1      40.234  29.933  28.931  1.00  0.00     0.074 A 
ATOM     44  C   UNL A   1      39.280  29.095  28.360  1.00  0.00     0.031 C 
ATOM     45  C   UNL A   1      45.236  28.628  29.893  1.00  0.00     0.029 A 
ATOM     46  C   UNL A   1      45.856  27.943  28.770  1.00  0.00     0.049 A 
ATOM     47  H   UNL A   1      45.278  25.949  28.244  1.00  0.00     0.167 HD
ATOM     48  C   UNL A   1      40.005  30.848  29.914  1.00  0.00     0.037 A 
ATOM     49  C   UNL A   1      46.521  28.514  27.728  1.00  0.00     0.037 A 
ATOM     50  C   UNL A   1      41.259  31.476  30.213  1.00  0.00     0.049 A 
ATOM     51  C   UNL A   1      46.173  29.978  27.591  1.00  0.00     0.074 A 
ATOM     52  C   UNL A   1      42.156  31.379  31.253  1.00  0.00     0.029 A 
ATOM     53  N   UNL A   1      41.925  32.051  29.144  1.00  0.00    -0.354 N 
ATOM     54  N   UNL A   1      45.117  30.525  28.133  1.00  0.00    -0.248 NA
ATOM     55  C   UNL A   1      46.999  30.955  26.894  1.00  0.00     0.031 C 
ATOM     56  C   UNL A   1      43.429  31.759  30.730  1.00  0.00     0.029 A 
ATOM     57  C   UNL A   1      43.269  32.151  29.410  1.00  0.00     0.049 A 
ATOM     58  H   UNL A   1      41.495  32.348  28.309  1.00  0.00     0.167 HD
ATOM     59  C   UNL A   1      45.115  31.872  27.903  1.00  0.00     0.074 A 
ATOM     60  C   UNL A   1      46.317  32.093  27.122  1.00  0.00     0.031 C 
ATOM     61  C   UNL A   1      44.128  32.693  28.369  1.00  0.00     0.037 A 
BRANCH  48  62
ATOM     62  C   UNL A   1      38.689  31.041  30.707  1.00  0.00     0.057 A 
ATOM     63  C   UNL A   1      38.476  30.285  31.877  1.00  0.00     0.134 A 
ATOM     64  C   UNL A   1      37.556  31.827  30.354  1.00  0.00     0.134 A 
ATOM     65  F   UNL A   1      39.426  29.469  32.353  1.00  0.00    -0.206 F 
ATOM     66  C   UNL A   1      37.271  30.305  32.612  1.00  0.00     0.040 A 
ATOM     67  C   UNL A   1      36.370  31.899  31.112  1.00  0.00     0.040 A 
ATOM     68  F   UNL A   1      37.465  32.530  29.220  1.00  0.00    -0.206 F 
ATOM     69  C   UNL A   1      36.215  31.121  32.240  1.00  0.00     0.006 A 
ENDBRANCH  48  62
BRANCH  49  70
ATOM     70  C   UNL A   1      46.929  27.536  26.666  1.00  0.00     0.057 A 
ATOM     71  C   UNL A   1      48.072  26.735  26.907  1.00  0.00     0.134 A 
ATOM     72  C   UNL A   1      46.108  27.124  25.614  1.00  0.00     0.134 A 
ATOM     73  F   UNL A   1      48.927  27.062  27.891  1.00  0.00    -0.206 F 
ATOM     74  C   UNL A   1      48.313  25.531  26.237  1.00  0.00     0.040 A 
ATOM     75  C   UNL A   1      46.358  25.928  24.908  1.00  0.00     0.040 A 
ATOM     76  F   UNL A   1      44.983  27.789  25.323  1.00  0.00    -0.206 F 
ATOM     77  C   UNL A   1      47.440  25.111  25.245  1.00  0.00     0.006 A 
ENDBRANCH  49  70
BRANCH  61  78
ATOM     78  C   UNL A   1      43.824  34.090  27.874  1.00  0.00     0.057 A 
ATOM     79  C   UNL A   1      43.474  34.396  26.553  1.00  0.00     0.134 A 
ATOM     80  C   UNL A   1      43.655  35.153  28.797  1.00  0.00     0.134 A 
ATOM     81  F   UNL A   1      43.479  33.468  25.587  1.00  0.00    -0.206 F 
ATOM     82  C   UNL A   1      43.027  35.667  26.171  1.00  0.00     0.040 A 
ATOM     83  C   UNL A   1      43.134  36.397  28.441  1.00  0.00     0.040 A 
ATOM     84  F   UNL A   1      43.946  35.015  30.100  1.00  0.00    -0.206 F 
ATOM     85  C   UNL A   1      42.831  36.665  27.118  1.00  0.00     0.006 A 
ENDBRANCH  61  78
ENDBRANCH  35  36
ENDBRANCH  28  30
ENDBRANCH  27  28
ENDBRANCH  26  27
ENDBRANCH  25  26
ENDBRANCH  24  25
ENDBRANCH  23  24
ENDBRANCH  22  23
ENDBRANCH   1  22
TORSDOF 22
ENDMDL
