MODEL 1
REMARK VINA RESULT:     -10.0      0.000      0.000
REMARK SMILES Cc1cc(C(=O)N2CCC[C@@H]2C)sc1/C=C/C(=O)OCCOCCOCCOC(=O)c1ccc(-c2c3nc(c(-c4c(F)cccc4F)c4ccc([nH]4)c(-c4c(F)cccc4F)c4nc(c(-c5c(F)cccc5F)c5ccc2[nH]5)C=C4)C=C3)cc1
REMARK SMILES IDX 23 1 22 2 21 3 20 4 19 5 17 6 18 7 16 8 15 9 14 10 1 11 2 12
REMARK SMILES IDX 3 13 4 14 13 15 5 16 6 17 7 18 8 19 11 20 9 21 10 22 12 23
REMARK SMILES IDX 24 24 25 25 26 26 27 27 28 28 29 29 30 30 31 31 32 32 84 33
REMARK SMILES IDX 33 34 83 35 34 36 35 37 36 38 77 39 37 40 82 41 76 42 78 43
REMARK SMILES IDX 38 44 81 45 75 46 74 47 39 49 65 50 48 51 64 52 49 53 52 54
REMARK SMILES IDX 63 55 79 56 50 57 51 58 62 60 80 61 53 62 40 63 41 64 46 65
REMARK SMILES IDX 42 66 43 67 45 68 47 69 44 70 66 71 67 72 72 73 68 74 69 75
REMARK SMILES IDX 71 76 73 77 70 78 54 79 55 80 60 81 56 82 57 83 59 84 61 85
REMARK SMILES IDX 58 86
REMARK H PARENT 78 48 52 59
REMARK Flexibility Score: inf
ROOT
ATOM      1  C   UNL A   1      33.228  37.269  31.666  1.00  0.00     0.188 C 
ENDROOT
BRANCH   1   2
ATOM      2  O   UNL A   1      32.895  37.464  30.295  1.00  0.00    -0.376 OA
BRANCH   2   3
ATOM      3  C   UNL A   1      33.652  36.806  29.286  1.00  0.00     0.202 C 
BRANCH   3   4
ATOM      4  C   UNL A   1      33.250  35.384  28.870  1.00  0.00     0.261 C 
BRANCH   4   5
ATOM      5  O   UNL A   1      34.031  34.337  29.473  1.00  0.00    -0.460 OA
BRANCH   5   6
ATOM      6  C   UNL A   1      35.138  33.969  28.785  1.00  0.00     0.330 C 
ATOM      7  O   UNL A   1      36.224  34.530  28.807  1.00  0.00    -0.247 OA
BRANCH   6   8
ATOM      8  C   UNL A   1      34.961  32.704  28.042  1.00  0.00     0.095 C 
ATOM      9  C   UNL A   1      34.034  31.763  28.287  1.00  0.00     0.027 C 
BRANCH   9  10
ATOM     10  C   UNL A   1      33.921  30.560  27.512  1.00  0.00     0.031 A 
ATOM     11  C   UNL A   1      36.313  29.617  27.746  1.00  0.00     0.046 C 
ATOM     12  C   UNL A   1      34.903  29.607  27.242  1.00  0.00    -0.032 A 
ATOM     13  C   UNL A   1      34.379  28.506  26.479  1.00  0.00     0.029 A 
ATOM     14  C   UNL A   1      33.033  28.614  26.195  1.00  0.00     0.093 A 
ATOM     15  S   UNL A   1      32.435  30.108  26.748  1.00  0.00    -0.130 S 
BRANCH  14  16
ATOM     16  C   UNL A   1      32.170  27.536  25.717  1.00  0.00     0.264 C 
ATOM     17  O   UNL A   1      31.186  27.185  26.375  1.00  0.00    -0.268 OA
BRANCH  16  18
ATOM     18  N   UNL A   1      32.381  26.966  24.472  1.00  0.00    -0.335 N 
ATOM     19  C   UNL A   1      31.262  26.722  23.590  1.00  0.00     0.120 C 
ATOM     20  C   UNL A   1      33.597  26.346  23.941  1.00  0.00     0.082 C 
ATOM     21  C   UNL A   1      31.913  26.717  22.221  1.00  0.00     0.024 C 
ATOM     22  C   UNL A   1      33.254  26.032  22.471  1.00  0.00     0.026 C 
ATOM     23  C   UNL A   1      33.925  25.057  24.696  1.00  0.00     0.031 C 
ENDBRANCH  16  18
ENDBRANCH  14  16
ENDBRANCH   9  10
ENDBRANCH   6   8
ENDBRANCH   5   6
ENDBRANCH   4   5
ENDBRANCH   3   4
ENDBRANCH   2   3
ENDBRANCH   1   2
BRANCH   1  24
ATOM     24  C   UNL A   1      32.687  36.036  32.421  1.00  0.00     0.188 C 
BRANCH  24  25
ATOM     25  O   UNL A   1      33.652  35.025  32.619  1.00  0.00    -0.376 OA
BRANCH  25  26
ATOM     26  C   UNL A   1      34.983  35.416  32.911  1.00  0.00     0.202 C 
BRANCH  26  27
ATOM     27  C   UNL A   1      36.172  34.663  32.291  1.00  0.00     0.261 C 
BRANCH  27  28
ATOM     28  O   UNL A   1      35.988  33.269  32.007  1.00  0.00    -0.460 OA
BRANCH  28  29
ATOM     29  C   UNL A   1      36.629  32.387  32.806  1.00  0.00     0.338 C 
ATOM     30  O   UNL A   1      36.333  32.063  33.938  1.00  0.00    -0.246 OA
BRANCH  29  31
ATOM     31  C   UNL A   1      37.693  31.748  32.001  1.00  0.00     0.060 A 
ATOM     32  C   UNL A   1      38.766  31.136  32.660  1.00  0.00     0.016 A 
ATOM     33  C   UNL A   1      37.633  31.762  30.605  1.00  0.00     0.016 A 
ATOM     34  C   UNL A   1      39.797  30.554  31.919  1.00  0.00     0.010 A 
ATOM     35  C   UNL A   1      38.676  31.195  29.866  1.00  0.00     0.010 A 
ATOM     36  C   UNL A   1      39.775  30.612  30.518  1.00  0.00    -0.014 A 
BRANCH  36  37
ATOM     37  C   UNL A   1      40.971  30.210  29.739  1.00  0.00     0.031 A 
ATOM     38  C   UNL A   1      41.043  28.808  29.201  1.00  0.00     0.074 A 
ATOM     39  C   UNL A   1      41.977  31.072  29.506  1.00  0.00     0.049 A 
ATOM     40  N   UNL A   1      42.004  28.218  28.538  1.00  0.00    -0.248 NA
ATOM     41  C   UNL A   1      39.869  27.955  29.447  1.00  0.00     0.031 C 
ATOM     42  C   UNL A   1      42.016  32.465  29.945  1.00  0.00     0.029 A 
ATOM     43  N   UNL A   1      43.169  30.890  28.850  1.00  0.00    -0.354 N 
ATOM     44  C   UNL A   1      41.554  26.929  28.290  1.00  0.00     0.074 A 
ATOM     45  C   UNL A   1      40.247  26.811  28.896  1.00  0.00     0.031 C 
ATOM     46  C   UNL A   1      43.183  33.009  29.560  1.00  0.00     0.029 A 
ATOM     47  C   UNL A   1      43.984  31.995  28.874  1.00  0.00     0.049 A 
ATOM     48  H   UNL A   1      43.416  30.048  28.405  1.00  0.00     0.167 HD
ATOM     49  C   UNL A   1      42.171  25.932  27.610  1.00  0.00     0.037 A 
ATOM     50  C   UNL A   1      45.241  32.160  28.416  1.00  0.00     0.037 A 
ATOM     51  C   UNL A   1      43.477  26.043  27.016  1.00  0.00     0.049 A 
ATOM     52  C   UNL A   1      45.937  31.012  27.730  1.00  0.00     0.074 A 
ATOM     53  C   UNL A   1      44.180  25.092  26.297  1.00  0.00     0.029 A 
ATOM     54  N   UNL A   1      44.281  27.170  27.085  1.00  0.00    -0.354 N 
ATOM     55  N   UNL A   1      45.491  29.807  27.472  1.00  0.00    -0.248 NA
ATOM     56  C   UNL A   1      47.314  31.252  27.271  1.00  0.00     0.031 C 
ATOM     57  C   UNL A   1      45.429  25.630  25.970  1.00  0.00     0.029 A 
ATOM     58  C   UNL A   1      45.483  26.932  26.440  1.00  0.00     0.049 A 
ATOM     59  H   UNL A   1      44.033  28.015  27.526  1.00  0.00     0.167 HD
ATOM     60  C   UNL A   1      46.518  29.155  26.798  1.00  0.00     0.074 A 
ATOM     61  C   UNL A   1      47.605  30.103  26.677  1.00  0.00     0.031 C 
ATOM     62  C   UNL A   1      46.555  27.888  26.319  1.00  0.00     0.037 A 
BRANCH  49  63
ATOM     63  C   UNL A   1      41.443  24.627  27.496  1.00  0.00     0.057 A 
ATOM     64  C   UNL A   1      41.760  23.532  28.312  1.00  0.00     0.134 A 
ATOM     65  C   UNL A   1      40.400  24.468  26.576  1.00  0.00     0.134 A 
ATOM     66  F   UNL A   1      42.760  23.613  29.201  1.00  0.00    -0.206 F 
ATOM     67  C   UNL A   1      41.078  22.318  28.199  1.00  0.00     0.040 A 
ATOM     68  C   UNL A   1      39.695  23.267  26.472  1.00  0.00     0.040 A 
ATOM     69  F   UNL A   1      40.045  25.478  25.768  1.00  0.00    -0.206 F 
ATOM     70  C   UNL A   1      40.038  22.187  27.281  1.00  0.00     0.006 A 
ENDBRANCH  49  63
BRANCH  50  71
ATOM     71  C   UNL A   1      45.937  33.458  28.601  1.00  0.00     0.057 A 
ATOM     72  C   UNL A   1      45.866  34.465  27.633  1.00  0.00     0.134 A 
ATOM     73  C   UNL A   1      46.715  33.710  29.738  1.00  0.00     0.134 A 
ATOM     74  F   UNL A   1      45.158  34.272  26.509  1.00  0.00    -0.206 F 
ATOM     75  C   UNL A   1      46.554  35.671  27.780  1.00  0.00     0.040 A 
ATOM     76  C   UNL A   1      47.389  34.919  29.910  1.00  0.00     0.040 A 
ATOM     77  F   UNL A   1      46.827  32.782  30.701  1.00  0.00    -0.206 F 
ATOM     78  C   UNL A   1      47.315  35.902  28.925  1.00  0.00     0.006 A 
ENDBRANCH  50  71
BRANCH  62  79
ATOM     79  C   UNL A   1      47.794  27.460  25.587  1.00  0.00     0.057 A 
ATOM     80  C   UNL A   1      48.920  26.970  26.258  1.00  0.00     0.134 A 
ATOM     81  C   UNL A   1      47.839  27.498  24.186  1.00  0.00     0.134 A 
ATOM     82  F   UNL A   1      48.944  26.920  27.599  1.00  0.00    -0.206 F 
ATOM     83  C   UNL A   1      50.057  26.551  25.564  1.00  0.00     0.040 A 
ATOM     84  C   UNL A   1      48.960  27.057  23.481  1.00  0.00     0.040 A 
ATOM     85  F   UNL A   1      46.789  27.947  23.481  1.00  0.00    -0.206 F 
ATOM     86  C   UNL A   1      50.076  26.588  24.170  1.00  0.00     0.006 A 
ENDBRANCH  62  79
ENDBRANCH  36  37
ENDBRANCH  29  31
ENDBRANCH  28  29
ENDBRANCH  27  28
ENDBRANCH  26  27
ENDBRANCH  25  26
ENDBRANCH  24  25
ENDBRANCH   1  24
TORSDOF 20
ENDMDL
MODEL 2
REMARK VINA RESULT:      -9.8      5.661     11.499
REMARK SMILES Cc1cc(C(=O)N2CCC[C@@H]2C)sc1/C=C/C(=O)OCCOCCOCCOC(=O)c1ccc(-c2c3nc(c(-c4c(F)cccc4F)c4ccc([nH]4)c(-c4c(F)cccc4F)c4nc(c(-c5c(F)cccc5F)c5ccc2[nH]5)C=C4)C=C3)cc1
REMARK SMILES IDX 23 1 22 2 21 3 20 4 19 5 17 6 18 7 16 8 15 9 14 10 1 11 2 12
REMARK SMILES IDX 3 13 4 14 13 15 5 16 6 17 7 18 8 19 11 20 9 21 10 22 12 23
REMARK SMILES IDX 24 24 25 25 26 26 27 27 28 28 29 29 30 30 31 31 32 32 84 33
REMARK SMILES IDX 33 34 83 35 34 36 35 37 36 38 77 39 37 40 82 41 76 42 78 43
REMARK SMILES IDX 38 44 81 45 75 46 74 47 39 49 65 50 48 51 64 52 49 53 52 54
REMARK SMILES IDX 63 55 79 56 50 57 51 58 62 60 80 61 53 62 40 63 41 64 46 65
REMARK SMILES IDX 42 66 43 67 45 68 47 69 44 70 66 71 67 72 72 73 68 74 69 75
REMARK SMILES IDX 71 76 73 77 70 78 54 79 55 80 60 81 56 82 57 83 59 84 61 85
REMARK SMILES IDX 58 86
REMARK H PARENT 78 48 52 59
REMARK Flexibility Score: inf
ROOT
ATOM      1  C   UNL A   1      44.426  19.315  24.986  1.00  0.00     0.188 C 
ENDROOT
BRANCH   1   2
ATOM      2  O   UNL A   1      43.776  18.078  25.263  1.00  0.00    -0.376 OA
BRANCH   2   3
ATOM      3  C   UNL A   1      42.607  18.061  26.073  1.00  0.00     0.202 C 
BRANCH   3   4
ATOM      4  C   UNL A   1      42.645  18.760  27.439  1.00  0.00     0.261 C 
BRANCH   4   5
ATOM      5  O   UNL A   1      41.537  19.642  27.695  1.00  0.00    -0.460 OA
BRANCH   5   6
ATOM      6  C   UNL A   1      41.458  20.726  26.885  1.00  0.00     0.330 C 
ATOM      7  O   UNL A   1      42.388  21.434  26.530  1.00  0.00    -0.247 OA
BRANCH   6   8
ATOM      8  C   UNL A   1      40.099  20.943  26.345  1.00  0.00     0.095 C 
ATOM      9  C   UNL A   1      39.413  22.097  26.366  1.00  0.00     0.027 C 
BRANCH   9  10
ATOM     10  C   UNL A   1      38.095  22.230  25.811  1.00  0.00     0.031 A 
ATOM     11  C   UNL A   1      37.758  19.872  24.814  1.00  0.00     0.046 C 
ATOM     12  C   UNL A   1      37.348  21.281  25.112  1.00  0.00    -0.032 A 
ATOM     13  C   UNL A   1      36.040  21.777  24.776  1.00  0.00     0.029 A 
ATOM     14  C   UNL A   1      35.797  23.060  25.224  1.00  0.00     0.093 A 
ATOM     15  S   UNL A   1      37.199  23.705  25.944  1.00  0.00    -0.130 S 
BRANCH  14  16
ATOM     16  C   UNL A   1      34.488  23.704  25.307  1.00  0.00     0.264 C 
ATOM     17  O   UNL A   1      33.972  23.933  26.405  1.00  0.00    -0.268 OA
BRANCH  16  18
ATOM     18  N   UNL A   1      33.858  24.163  24.162  1.00  0.00    -0.335 N 
ATOM     19  C   UNL A   1      33.662  25.582  23.964  1.00  0.00     0.120 C 
ATOM     20  C   UNL A   1      33.132  23.399  23.145  1.00  0.00     0.082 C 
ATOM     21  C   UNL A   1      33.559  25.696  22.456  1.00  0.00     0.024 C 
ATOM     22  C   UNL A   1      32.788  24.439  22.059  1.00  0.00     0.026 C 
ATOM     23  C   UNL A   1      31.852  22.797  23.727  1.00  0.00     0.031 C 
ENDBRANCH  16  18
ENDBRANCH  14  16
ENDBRANCH   9  10
ENDBRANCH   6   8
ENDBRANCH   5   6
ENDBRANCH   4   5
ENDBRANCH   3   4
ENDBRANCH   2   3
ENDBRANCH   1   2
BRANCH   1  24
ATOM     24  C   UNL A   1      45.968  19.386  24.964  1.00  0.00     0.188 C 
BRANCH  24  25
ATOM     25  O   UNL A   1      46.488  20.567  25.536  1.00  0.00    -0.376 OA
BRANCH  25  26
ATOM     26  C   UNL A   1      45.873  21.800  25.205  1.00  0.00     0.202 C 
BRANCH  26  27
ATOM     27  C   UNL A   1      45.475  22.795  26.309  1.00  0.00     0.261 C 
BRANCH  27  28
ATOM     28  O   UNL A   1      45.209  24.146  25.907  1.00  0.00    -0.460 OA
BRANCH  28  29
ATOM     29  C   UNL A   1      43.951  24.433  25.503  1.00  0.00     0.338 C 
ATOM     30  O   UNL A   1      43.358  23.974  24.548  1.00  0.00    -0.246 OA
BRANCH  29  31
ATOM     31  C   UNL A   1      43.342  25.307  26.528  1.00  0.00     0.060 A 
ATOM     32  C   UNL A   1      43.875  26.587  26.730  1.00  0.00     0.016 A 
ATOM     33  C   UNL A   1      42.258  24.863  27.289  1.00  0.00     0.016 A 
ATOM     34  C   UNL A   1      43.336  27.418  27.715  1.00  0.00     0.010 A 
ATOM     35  C   UNL A   1      41.731  25.689  28.286  1.00  0.00     0.010 A 
ATOM     36  C   UNL A   1      42.284  26.960  28.522  1.00  0.00    -0.014 A 
BRANCH  36  37
ATOM     37  C   UNL A   1      41.868  27.739  29.713  1.00  0.00     0.031 A 
ATOM     38  C   UNL A   1      40.674  28.646  29.601  1.00  0.00     0.074 A 
ATOM     39  C   UNL A   1      42.533  27.643  30.879  1.00  0.00     0.049 A 
ATOM     40  N   UNL A   1      40.158  29.457  30.488  1.00  0.00    -0.248 NA
ATOM     41  C   UNL A   1      39.969  28.638  28.309  1.00  0.00     0.031 C 
ATOM     42  C   UNL A   1      43.684  26.779  31.128  1.00  0.00     0.029 A 
ATOM     43  N   UNL A   1      42.335  28.296  32.070  1.00  0.00    -0.354 N 
ATOM     44  C   UNL A   1      39.071  30.054  29.864  1.00  0.00     0.074 A 
ATOM     45  C   UNL A   1      39.018  29.537  28.514  1.00  0.00     0.031 C 
ATOM     46  C   UNL A   1      44.104  26.968  32.391  1.00  0.00     0.029 A 
ATOM     47  C   UNL A   1      43.269  27.986  33.028  1.00  0.00     0.049 A 
ATOM     48  H   UNL A   1      41.596  28.927  32.223  1.00  0.00     0.167 HD
ATOM     49  C   UNL A   1      38.190  30.950  30.371  1.00  0.00     0.037 A 
ATOM     50  C   UNL A   1      43.442  28.485  34.268  1.00  0.00     0.037 A 
ATOM     51  C   UNL A   1      38.247  31.477  31.709  1.00  0.00     0.049 A 
ATOM     52  C   UNL A   1      42.495  29.538  34.784  1.00  0.00     0.074 A 
ATOM     53  C   UNL A   1      37.393  32.379  32.318  1.00  0.00     0.029 A 
ATOM     54  N   UNL A   1      39.224  31.157  32.640  1.00  0.00    -0.354 N 
ATOM     55  N   UNL A   1      41.452  30.073  34.198  1.00  0.00    -0.248 NA
ATOM     56  C   UNL A   1      42.751  30.053  36.137  1.00  0.00     0.031 C 
ATOM     57  C   UNL A   1      37.879  32.639  33.603  1.00  0.00     0.029 A 
ATOM     58  C   UNL A   1      39.006  31.861  33.812  1.00  0.00     0.049 A 
ATOM     59  H   UNL A   1      39.961  30.523  32.490  1.00  0.00     0.167 HD
ATOM     60  C   UNL A   1      40.912  30.965  35.118  1.00  0.00     0.074 A 
ATOM     61  C   UNL A   1      41.737  30.890  36.305  1.00  0.00     0.031 C 
ATOM     62  C   UNL A   1      39.830  31.771  34.991  1.00  0.00     0.037 A 
BRANCH  49  63
ATOM     63  C   UNL A   1      37.102  31.433  29.460  1.00  0.00     0.057 A 
ATOM     64  C   UNL A   1      37.157  32.692  28.847  1.00  0.00     0.134 A 
ATOM     65  C   UNL A   1      35.996  30.623  29.175  1.00  0.00     0.134 A 
ATOM     66  F   UNL A   1      38.181  33.523  29.092  1.00  0.00    -0.206 F 
ATOM     67  C   UNL A   1      36.139  33.136  28.000  1.00  0.00     0.040 A 
ATOM     68  C   UNL A   1      34.985  31.045  28.311  1.00  0.00     0.040 A 
ATOM     69  F   UNL A   1      35.884  29.405  29.726  1.00  0.00    -0.206 F 
ATOM     70  C   UNL A   1      35.052  32.308  27.726  1.00  0.00     0.006 A 
ENDBRANCH  49  63
BRANCH  50  71
ATOM     71  C   UNL A   1      44.569  28.010  35.111  1.00  0.00     0.057 A 
ATOM     72  C   UNL A   1      45.834  28.603  35.034  1.00  0.00     0.134 A 
ATOM     73  C   UNL A   1      44.414  26.932  35.991  1.00  0.00     0.134 A 
ATOM     74  F   UNL A   1      46.051  29.622  34.189  1.00  0.00    -0.206 F 
ATOM     75  C   UNL A   1      46.909  28.133  35.790  1.00  0.00     0.040 A 
ATOM     76  C   UNL A   1      45.474  26.467  36.771  1.00  0.00     0.040 A 
ATOM     77  F   UNL A   1      43.227  26.318  36.107  1.00  0.00    -0.206 F 
ATOM     78  C   UNL A   1      46.728  27.064  36.666  1.00  0.00     0.006 A 
ENDBRANCH  50  71
BRANCH  62  79
ATOM     79  C   UNL A   1      39.448  32.609  36.177  1.00  0.00     0.057 A 
ATOM     80  C   UNL A   1      39.983  33.885  36.386  1.00  0.00     0.134 A 
ATOM     81  C   UNL A   1      38.496  32.147  37.096  1.00  0.00     0.134 A 
ATOM     82  F   UNL A   1      40.907  34.381  35.548  1.00  0.00    -0.206 F 
ATOM     83  C   UNL A   1      39.600  34.666  37.478  1.00  0.00     0.040 A 
ATOM     84  C   UNL A   1      38.087  32.929  38.178  1.00  0.00     0.040 A 
ATOM     85  F   UNL A   1      37.937  30.936  36.949  1.00  0.00    -0.206 F 
ATOM     86  C   UNL A   1      38.644  34.190  38.374  1.00  0.00     0.006 A 
ENDBRANCH  62  79
ENDBRANCH  36  37
ENDBRANCH  29  31
ENDBRANCH  28  29
ENDBRANCH  27  28
ENDBRANCH  26  27
ENDBRANCH  25  26
ENDBRANCH  24  25
ENDBRANCH   1  24
TORSDOF 20
ENDMDL
MODEL 3
REMARK VINA RESULT:      -9.5      1.517      6.672
REMARK SMILES Cc1cc(C(=O)N2CCC[C@@H]2C)sc1/C=C/C(=O)OCCOCCOCCOC(=O)c1ccc(-c2c3nc(c(-c4c(F)cccc4F)c4ccc([nH]4)c(-c4c(F)cccc4F)c4nc(c(-c5c(F)cccc5F)c5ccc2[nH]5)C=C4)C=C3)cc1
REMARK SMILES IDX 23 1 22 2 21 3 20 4 19 5 17 6 18 7 16 8 15 9 14 10 1 11 2 12
REMARK SMILES IDX 3 13 4 14 13 15 5 16 6 17 7 18 8 19 11 20 9 21 10 22 12 23
REMARK SMILES IDX 24 24 25 25 26 26 27 27 28 28 29 29 30 30 31 31 32 32 84 33
REMARK SMILES IDX 33 34 83 35 34 36 35 37 36 38 77 39 37 40 82 41 76 42 78 43
REMARK SMILES IDX 38 44 81 45 75 46 74 47 39 49 65 50 48 51 64 52 49 53 52 54
REMARK SMILES IDX 63 55 79 56 50 57 51 58 62 60 80 61 53 62 40 63 41 64 46 65
REMARK SMILES IDX 42 66 43 67 45 68 47 69 44 70 66 71 67 72 72 73 68 74 69 75
REMARK SMILES IDX 71 76 73 77 70 78 54 79 55 80 60 81 56 82 57 83 59 84 61 85
REMARK SMILES IDX 58 86
REMARK H PARENT 78 48 52 59
REMARK Flexibility Score: inf
ROOT
ATOM      1  C   UNL A   1      34.017  34.798  29.705  1.00  0.00     0.188 C 
ENDROOT
BRANCH   1   2
ATOM      2  O   UNL A   1      33.797  33.409  29.477  1.00  0.00    -0.376 OA
BRANCH   2   3
ATOM      3  C   UNL A   1      34.533  32.736  28.463  1.00  0.00     0.202 C 
BRANCH   3   4
ATOM      4  C   UNL A   1      34.059  31.351  28.002  1.00  0.00     0.261 C 
BRANCH   4   5
ATOM      5  O   UNL A   1      33.522  31.312  26.668  1.00  0.00    -0.460 OA
BRANCH   5   6
ATOM      6  C   UNL A   1      32.181  31.138  26.586  1.00  0.00     0.330 C 
ATOM      7  O   UNL A   1      31.340  32.021  26.498  1.00  0.00    -0.247 OA
BRANCH   6   8
ATOM      8  C   UNL A   1      31.789  29.715  26.500  1.00  0.00     0.095 C 
ATOM      9  C   UNL A   1      31.476  29.045  25.378  1.00  0.00     0.027 C 
BRANCH   9  10
ATOM     10  C   UNL A   1      31.111  27.657  25.376  1.00  0.00     0.031 A 
ATOM     11  C   UNL A   1      29.626  27.557  23.267  1.00  0.00     0.046 C 
ATOM     12  C   UNL A   1      30.291  26.976  24.477  1.00  0.00    -0.032 A 
ATOM     13  C   UNL A   1      30.222  25.572  24.778  1.00  0.00     0.029 A 
ATOM     14  C   UNL A   1      30.984  25.196  25.866  1.00  0.00     0.093 A 
ATOM     15  S   UNL A   1      31.684  26.567  26.593  1.00  0.00    -0.130 S 
BRANCH  14  16
ATOM     16  C   UNL A   1      31.354  23.827  26.219  1.00  0.00     0.264 C 
ATOM     17  O   UNL A   1      30.822  23.264  27.180  1.00  0.00    -0.268 OA
BRANCH  16  18
ATOM     18  N   UNL A   1      32.227  23.107  25.420  1.00  0.00    -0.335 N 
ATOM     19  C   UNL A   1      32.255  21.663  25.500  1.00  0.00     0.120 C 
ATOM     20  C   UNL A   1      33.336  23.597  24.599  1.00  0.00     0.082 C 
ATOM     21  C   UNL A   1      32.796  21.266  24.140  1.00  0.00     0.024 C 
ATOM     22  C   UNL A   1      33.833  22.347  23.844  1.00  0.00     0.026 C 
ATOM     23  C   UNL A   1      34.453  24.165  25.476  1.00  0.00     0.031 C 
ENDBRANCH  16  18
ENDBRANCH  14  16
ENDBRANCH   9  10
ENDBRANCH   6   8
ENDBRANCH   5   6
ENDBRANCH   4   5
ENDBRANCH   3   4
ENDBRANCH   2   3
ENDBRANCH   1   2
BRANCH   1  24
ATOM     24  C   UNL A   1      33.337  35.498  30.901  1.00  0.00     0.188 C 
BRANCH  24  25
ATOM     25  O   UNL A   1      33.059  34.632  31.980  1.00  0.00    -0.376 OA
BRANCH  25  26
ATOM     26  C   UNL A   1      33.984  34.577  33.052  1.00  0.00     0.202 C 
BRANCH  26  27
ATOM     27  C   UNL A   1      34.596  33.234  33.487  1.00  0.00     0.261 C 
BRANCH  27  28
ATOM     28  O   UNL A   1      35.583  32.654  32.623  1.00  0.00    -0.460 OA
BRANCH  28  29
ATOM     29  C   UNL A   1      36.568  33.467  32.179  1.00  0.00     0.338 C 
ATOM     30  O   UNL A   1      36.683  34.661  32.367  1.00  0.00    -0.246 OA
BRANCH  29  31
ATOM     31  C   UNL A   1      37.591  32.616  31.535  1.00  0.00     0.060 A 
ATOM     32  C   UNL A   1      38.499  31.919  32.343  1.00  0.00     0.016 A 
ATOM     33  C   UNL A   1      37.659  32.514  30.143  1.00  0.00     0.016 A 
ATOM     34  C   UNL A   1      39.494  31.135  31.755  1.00  0.00     0.010 A 
ATOM     35  C   UNL A   1      38.666  31.743  29.557  1.00  0.00     0.010 A 
ATOM     36  C   UNL A   1      39.605  31.071  30.358  1.00  0.00    -0.014 A 
BRANCH  36  37
ATOM     37  C   UNL A   1      40.792  30.437  29.736  1.00  0.00     0.031 A 
ATOM     38  C   UNL A   1      42.015  31.278  29.495  1.00  0.00     0.074 A 
ATOM     39  C   UNL A   1      40.791  29.136  29.392  1.00  0.00     0.049 A 
ATOM     40  N   UNL A   1      43.147  30.957  28.923  1.00  0.00    -0.248 NA
ATOM     41  C   UNL A   1      41.950  32.671  29.963  1.00  0.00     0.031 C 
ATOM     42  C   UNL A   1      39.684  28.207  29.599  1.00  0.00     0.029 A 
ATOM     43  N   UNL A   1      41.759  28.379  28.780  1.00  0.00    -0.354 N 
ATOM     44  C   UNL A   1      43.926  32.105  28.961  1.00  0.00     0.074 A 
ATOM     45  C   UNL A   1      43.130  33.139  29.585  1.00  0.00     0.031 C 
ATOM     46  C   UNL A   1      40.028  27.004  29.107  1.00  0.00     0.029 A 
ATOM     47  C   UNL A   1      41.367  27.088  28.525  1.00  0.00     0.049 A 
ATOM     48  H   UNL A   1      42.650  28.727  28.547  1.00  0.00     0.167 HD
ATOM     49  C   UNL A   1      45.195  32.283  28.522  1.00  0.00     0.037 A 
ATOM     50  C   UNL A   1      42.008  26.097  27.874  1.00  0.00     0.037 A 
ATOM     51  C   UNL A   1      45.986  31.260  27.889  1.00  0.00     0.049 A 
ATOM     52  C   UNL A   1      43.390  26.340  27.325  1.00  0.00     0.074 A 
ATOM     53  C   UNL A   1      47.286  31.341  27.421  1.00  0.00     0.029 A 
ATOM     54  N   UNL A   1      45.543  29.973  27.625  1.00  0.00    -0.354 N 
ATOM     55  N   UNL A   1      44.130  27.420  27.393  1.00  0.00    -0.248 NA
ATOM     56  C   UNL A   1      44.025  25.223  26.609  1.00  0.00     0.031 C 
ATOM     57  C   UNL A   1      47.613  30.115  26.833  1.00  0.00     0.029 A 
ATOM     58  C   UNL A   1      46.537  29.256  26.980  1.00  0.00     0.049 A 
ATOM     59  H   UNL A   1      44.655  29.621  27.862  1.00  0.00     0.167 HD
ATOM     60  C   UNL A   1      45.326  27.105  26.757  1.00  0.00     0.074 A 
ATOM     61  C   UNL A   1      45.216  25.730  26.319  1.00  0.00     0.031 C 
ATOM     62  C   UNL A   1      46.417  27.884  26.557  1.00  0.00     0.037 A 
BRANCH  49  63
ATOM     63  C   UNL A   1      45.796  33.646  28.692  1.00  0.00     0.057 A 
ATOM     64  C   UNL A   1      45.634  34.649  27.726  1.00  0.00     0.134 A 
ATOM     65  C   UNL A   1      46.526  33.967  29.842  1.00  0.00     0.134 A 
ATOM     66  F   UNL A   1      44.961  34.400  26.593  1.00  0.00    -0.206 F 
ATOM     67  C   UNL A   1      46.198  35.916  27.890  1.00  0.00     0.040 A 
ATOM     68  C   UNL A   1      47.073  35.238  30.029  1.00  0.00     0.040 A 
ATOM     69  F   UNL A   1      46.715  33.054  30.806  1.00  0.00    -0.206 F 
ATOM     70  C   UNL A   1      46.914  36.214  29.048  1.00  0.00     0.006 A 
ENDBRANCH  49  63
BRANCH  50  71
ATOM     71  C   UNL A   1      41.346  24.780  27.686  1.00  0.00     0.057 A 
ATOM     72  C   UNL A   1      41.722  23.664  28.442  1.00  0.00     0.134 A 
ATOM     73  C   UNL A   1      40.344  24.601  26.725  1.00  0.00     0.134 A 
ATOM     74  F   UNL A   1      42.696  23.767  29.359  1.00  0.00    -0.206 F 
ATOM     75  C   UNL A   1      41.136  22.414  28.240  1.00  0.00     0.040 A 
ATOM     76  C   UNL A   1      39.733  23.362  26.529  1.00  0.00     0.040 A 
ATOM     77  F   UNL A   1      39.943  25.631  25.965  1.00  0.00    -0.206 F 
ATOM     78  C   UNL A   1      40.134  22.262  27.283  1.00  0.00     0.006 A 
ENDBRANCH  50  71
BRANCH  62  79
ATOM     79  C   UNL A   1      47.596  27.259  25.867  1.00  0.00     0.057 A 
ATOM     80  C   UNL A   1      47.758  27.316  24.478  1.00  0.00     0.134 A 
ATOM     81  C   UNL A   1      48.605  26.634  26.612  1.00  0.00     0.134 A 
ATOM     82  F   UNL A   1      46.821  27.890  23.707  1.00  0.00    -0.206 F 
ATOM     83  C   UNL A   1      48.871  26.755  23.850  1.00  0.00     0.040 A 
ATOM     84  C   UNL A   1      49.735  26.092  25.998  1.00  0.00     0.040 A 
ATOM     85  F   UNL A   1      48.517  26.554  27.948  1.00  0.00    -0.206 F 
ATOM     86  C   UNL A   1      49.868  26.146  24.612  1.00  0.00     0.006 A 
ENDBRANCH  62  79
ENDBRANCH  36  37
ENDBRANCH  29  31
ENDBRANCH  28  29
ENDBRANCH  27  28
ENDBRANCH  26  27
ENDBRANCH  25  26
ENDBRANCH  24  25
ENDBRANCH   1  24
TORSDOF 20
ENDMDL
