MODEL 1
REMARK VINA RESULT:     -10.6      0.000      0.000
REMARK SMILES CCCCCCNC(=O)Oc1cccc(-c2ccc([C@@H](C)C(=O)OCCOCCOCCOC(=O)c3ccc(-c4c5nc(c(-c6c(F)cccc6F)c6ccc([nH]6)c(-c6c(F)cccc6F)c6nc(c(-c7c(F)cccc7F)c7ccc4[nH]7)C=C6)C=C5)cc3)cc2N)c1
REMARK SMILES IDX 25 1 24 2 22 3 23 4 20 5 21 6 19 7 16 8 17 9 91 10 18 11
REMARK SMILES IDX 90 12 15 13 11 14 12 15 93 16 13 17 14 18 10 19 8 20 7 21
REMARK SMILES IDX 9 23 6 24 5 25 4 26 3 27 2 28 1 29 92 30 26 33 27 34 28 35
REMARK SMILES IDX 29 36 30 37 31 38 32 39 33 40 34 41 35 42 36 43 37 44 89 45
REMARK SMILES IDX 38 46 88 47 39 48 40 49 41 50 82 51 42 52 87 53 81 54 83 55
REMARK SMILES IDX 43 56 86 57 80 58 79 59 44 61 70 62 53 63 69 64 54 65 57 66
REMARK SMILES IDX 68 67 84 68 55 69 56 70 67 72 85 73 58 74 45 75 46 76 51 77
REMARK SMILES IDX 47 78 48 79 50 80 52 81 49 82 71 83 72 84 77 85 73 86 74 87
REMARK SMILES IDX 76 88 78 89 75 90 59 91 60 92 65 93 61 94 62 95 64 96 66 97
REMARK SMILES IDX 63 98
REMARK H PARENT 7 22 92 31 92 32 83 60 57 71
REMARK Flexibility Score: inf
ROOT
ATOM      1  C   UNL A   1      36.594  19.456  25.047  1.00  0.00     0.261 C 
ENDROOT
BRANCH   1   2
ATOM      2  O   UNL A   1      36.133  18.396  24.182  1.00  0.00    -0.463 OA
BRANCH   2   3
ATOM      3  C   UNL A   1      35.327  17.464  24.750  1.00  0.00     0.313 C 
ATOM      4  O   UNL A   1      35.748  16.536  25.438  1.00  0.00    -0.252 OA
BRANCH   3   5
ATOM      5  C   UNL A   1      33.831  17.611  24.478  1.00  0.00     0.126 C 
ATOM      6  C   UNL A   1      33.485  16.820  23.215  1.00  0.00     0.025 C 
BRANCH   5   7
ATOM      7  C   UNL A   1      33.157  18.981  24.449  1.00  0.00    -0.032 A 
ATOM      8  C   UNL A   1      31.989  21.591  24.219  1.00  0.00     0.005 A 
ATOM      9  C   UNL A   1      32.503  21.104  25.441  1.00  0.00     0.011 A 
ATOM     10  C   UNL A   1      32.075  20.746  23.090  1.00  0.00     0.040 A 
ATOM     11  C   UNL A   1      33.091  19.832  25.555  1.00  0.00     0.005 A 
ATOM     12  C   UNL A   1      32.633  19.458  23.230  1.00  0.00     0.030 A 
BRANCH   8  13
ATOM     13  C   UNL A   1      31.475  22.984  24.143  1.00  0.00    -0.013 A 
ATOM     14  C   UNL A   1      31.235  25.133  23.022  1.00  0.00     0.133 A 
ATOM     15  C   UNL A   1      30.633  25.690  24.148  1.00  0.00     0.047 A 
ATOM     16  C   UNL A   1      31.642  23.794  23.002  1.00  0.00     0.056 A 
ATOM     17  C   UNL A   1      30.424  24.896  25.269  1.00  0.00     0.004 A 
ATOM     18  C   UNL A   1      30.849  23.563  25.268  1.00  0.00     0.009 A 
BRANCH  14  19
ATOM     19  O   UNL A   1      31.569  26.029  21.989  1.00  0.00    -0.410 OA
BRANCH  19  20
ATOM     20  C   UNL A   1      32.820  25.938  21.396  1.00  0.00     0.412 C 
ATOM     21  N   UNL A   1      33.812  26.518  22.144  1.00  0.00    -0.321 N 
ATOM     22  H   UNL A   1      34.730  26.421  21.801  1.00  0.00     0.167 HD
ATOM     23  O   UNL A   1      33.063  25.429  20.311  1.00  0.00    -0.224 OA
BRANCH  21  24
ATOM     24  C   UNL A   1      33.660  27.257  23.384  1.00  0.00     0.119 C 
BRANCH  24  25
ATOM     25  C   UNL A   1      33.460  28.756  23.156  1.00  0.00     0.021 C 
BRANCH  25  26
ATOM     26  C   UNL A   1      32.006  29.241  23.236  1.00  0.00     0.002 C 
BRANCH  26  27
ATOM     27  C   UNL A   1      31.341  29.135  24.613  1.00  0.00    -0.000 C 
BRANCH  27  28
ATOM     28  C   UNL A   1      32.053  29.871  25.752  1.00  0.00    -0.003 C 
ATOM     29  C   UNL A   1      31.894  29.193  27.104  1.00  0.00     0.004 C 
ENDBRANCH  27  28
ENDBRANCH  26  27
ENDBRANCH  25  26
ENDBRANCH  24  25
ENDBRANCH  21  24
ENDBRANCH  19  20
ENDBRANCH  14  19
ENDBRANCH   8  13
BRANCH  10  30
ATOM     30  N   UNL A   1      31.551  21.100  21.847  1.00  0.00    -0.398 N 
ATOM     31  H   UNL A   1      30.790  21.722  21.793  1.00  0.00     0.156 HD
ATOM     32  H   UNL A   1      31.941  20.727  21.024  1.00  0.00     0.156 HD
ENDBRANCH  10  30
ENDBRANCH   5   7
ENDBRANCH   3   5
ENDBRANCH   2   3
ENDBRANCH   1   2
BRANCH   1  33
ATOM     33  C   UNL A   1      37.997  19.979  24.724  1.00  0.00     0.202 C 
BRANCH  33  34
ATOM     34  O   UNL A   1      39.090  19.307  25.334  1.00  0.00    -0.376 OA
BRANCH  34  35
ATOM     35  C   UNL A   1      40.046  20.053  26.078  1.00  0.00     0.188 C 
BRANCH  35  36
ATOM     36  C   UNL A   1      41.512  19.597  26.134  1.00  0.00     0.188 C 
BRANCH  36  37
ATOM     37  O   UNL A   1      42.373  20.316  25.271  1.00  0.00    -0.376 OA
BRANCH  37  38
ATOM     38  C   UNL A   1      43.756  20.177  25.555  1.00  0.00     0.202 C 
BRANCH  38  39
ATOM     39  C   UNL A   1      44.445  21.541  25.456  1.00  0.00     0.261 C 
BRANCH  39  40
ATOM     40  O   UNL A   1      43.533  22.634  25.234  1.00  0.00    -0.460 OA
BRANCH  40  41
ATOM     41  C   UNL A   1      44.100  23.856  25.119  1.00  0.00     0.338 C 
ATOM     42  O   UNL A   1      45.004  24.179  24.372  1.00  0.00    -0.246 OA
BRANCH  41  43
ATOM     43  C   UNL A   1      43.322  24.820  25.925  1.00  0.00     0.060 A 
ATOM     44  C   UNL A   1      43.772  26.145  25.995  1.00  0.00     0.016 A 
ATOM     45  C   UNL A   1      42.198  24.414  26.645  1.00  0.00     0.016 A 
ATOM     46  C   UNL A   1      43.132  27.055  26.838  1.00  0.00     0.010 A 
ATOM     47  C   UNL A   1      41.567  25.321  27.503  1.00  0.00     0.010 A 
ATOM     48  C   UNL A   1      42.062  26.631  27.638  1.00  0.00    -0.014 A 
BRANCH  48  49
ATOM     49  C   UNL A   1      41.622  27.480  28.776  1.00  0.00     0.031 A 
ATOM     50  C   UNL A   1      42.378  27.373  30.076  1.00  0.00     0.074 A 
ATOM     51  C   UNL A   1      40.604  28.350  28.660  1.00  0.00     0.049 A 
ATOM     52  N   UNL A   1      42.179  27.997  31.208  1.00  0.00    -0.248 NA
ATOM     53  C   UNL A   1      43.511  26.433  30.099  1.00  0.00     0.031 C 
ATOM     54  C   UNL A   1      39.808  28.574  27.455  1.00  0.00     0.029 A 
ATOM     55  N   UNL A   1      40.062  29.209  29.587  1.00  0.00    -0.354 N 
ATOM     56  C   UNL A   1      43.154  27.521  32.076  1.00  0.00     0.074 A 
ATOM     57  C   UNL A   1      43.927  26.536  31.352  1.00  0.00     0.031 C 
ATOM     58  C   UNL A   1      38.870  29.502  27.720  1.00  0.00     0.029 A 
ATOM     59  C   UNL A   1      38.984  29.919  29.117  1.00  0.00     0.049 A 
ATOM     60  H   UNL A   1      40.414  29.306  30.501  1.00  0.00     0.167 HD
ATOM     61  C   UNL A   1      43.395  27.879  33.359  1.00  0.00     0.037 A 
ATOM     62  C   UNL A   1      38.174  30.790  29.751  1.00  0.00     0.037 A 
ATOM     63  C   UNL A   1      42.637  28.862  34.084  1.00  0.00     0.049 A 
ATOM     64  C   UNL A   1      38.430  31.129  31.199  1.00  0.00     0.074 A 
ATOM     65  C   UNL A   1      42.827  29.312  35.379  1.00  0.00     0.029 A 
ATOM     66  N   UNL A   1      41.541  29.543  33.580  1.00  0.00    -0.354 N 
ATOM     67  N   UNL A   1      39.383  30.707  31.995  1.00  0.00    -0.248 NA
ATOM     68  C   UNL A   1      37.495  32.070  31.835  1.00  0.00     0.031 C 
ATOM     69  C   UNL A   1      41.816  30.232  35.675  1.00  0.00     0.029 A 
ATOM     70  C   UNL A   1      41.028  30.391  34.547  1.00  0.00     0.049 A 
ATOM     71  H   UNL A   1      41.180  29.439  32.670  1.00  0.00     0.167 HD
ATOM     72  C   UNL A   1      39.180  31.354  33.209  1.00  0.00     0.074 A 
ATOM     73  C   UNL A   1      38.026  32.209  33.041  1.00  0.00     0.031 C 
ATOM     74  C   UNL A   1      39.886  31.248  34.362  1.00  0.00     0.037 A 
BRANCH  61  75
ATOM     75  C   UNL A   1      44.518  27.188  34.073  1.00  0.00     0.057 A 
ATOM     76  C   UNL A   1      45.817  27.711  34.092  1.00  0.00     0.134 A 
ATOM     77  C   UNL A   1      44.285  26.008  34.792  1.00  0.00     0.134 A 
ATOM     78  F   UNL A   1      46.109  28.829  33.408  1.00  0.00    -0.206 F 
ATOM     79  C   UNL A   1      46.847  27.080  34.790  1.00  0.00     0.040 A 
ATOM     80  C   UNL A   1      45.300  25.381  35.514  1.00  0.00     0.040 A 
ATOM     81  F   UNL A   1      43.062  25.456  34.814  1.00  0.00    -0.206 F 
ATOM     82  C   UNL A   1      46.587  25.916  35.513  1.00  0.00     0.006 A 
ENDBRANCH  61  75
BRANCH  62  83
ATOM     83  C   UNL A   1      37.020  31.402  29.040  1.00  0.00     0.057 A 
ATOM     84  C   UNL A   1      37.055  32.733  28.604  1.00  0.00     0.134 A 
ATOM     85  C   UNL A   1      35.831  30.691  28.842  1.00  0.00     0.134 A 
ATOM     86  F   UNL A   1      38.156  33.475  28.791  1.00  0.00    -0.206 F 
ATOM     87  C   UNL A   1      35.941  33.343  28.025  1.00  0.00     0.040 A 
ATOM     88  C   UNL A   1      34.718  31.280  28.239  1.00  0.00     0.040 A 
ATOM     89  F   UNL A   1      35.730  29.415  29.241  1.00  0.00    -0.206 F 
ATOM     90  C   UNL A   1      34.768  32.614  27.840  1.00  0.00     0.006 A 
ENDBRANCH  62  83
BRANCH  74  91
ATOM     91  C   UNL A   1      39.456  32.105  35.519  1.00  0.00     0.057 A 
ATOM     92  C   UNL A   1      39.970  33.391  35.721  1.00  0.00     0.134 A 
ATOM     93  C   UNL A   1      38.487  31.647  36.423  1.00  0.00     0.134 A 
ATOM     94  F   UNL A   1      40.907  33.886  34.898  1.00  0.00    -0.206 F 
ATOM     95  C   UNL A   1      39.558  34.181  36.795  1.00  0.00     0.040 A 
ATOM     96  C   UNL A   1      38.047  32.438  37.484  1.00  0.00     0.040 A 
ATOM     97  F   UNL A   1      37.944  30.428  36.280  1.00  0.00    -0.206 F 
ATOM     98  C   UNL A   1      38.588  33.707  37.678  1.00  0.00     0.006 A 
ENDBRANCH  74  91
ENDBRANCH  48  49
ENDBRANCH  41  43
ENDBRANCH  40  41
ENDBRANCH  39  40
ENDBRANCH  38  39
ENDBRANCH  37  38
ENDBRANCH  36  37
ENDBRANCH  35  36
ENDBRANCH  34  35
ENDBRANCH  33  34
ENDBRANCH   1  33
TORSDOF 27
ENDMDL
MODEL 2
REMARK VINA RESULT:      -9.8      1.726      6.399
REMARK SMILES CCCCCCNC(=O)Oc1cccc(-c2ccc([C@@H](C)C(=O)OCCOCCOCCOC(=O)c3ccc(-c4c5nc(c(-c6c(F)cccc6F)c6ccc([nH]6)c(-c6c(F)cccc6F)c6nc(c(-c7c(F)cccc7F)c7ccc4[nH]7)C=C6)C=C5)cc3)cc2N)c1
REMARK SMILES IDX 25 1 24 2 22 3 23 4 20 5 21 6 19 7 16 8 17 9 91 10 18 11
REMARK SMILES IDX 90 12 15 13 11 14 12 15 93 16 13 17 14 18 10 19 8 20 7 21
REMARK SMILES IDX 9 23 6 24 5 25 4 26 3 27 2 28 1 29 92 30 26 33 27 34 28 35
REMARK SMILES IDX 29 36 30 37 31 38 32 39 33 40 34 41 35 42 36 43 37 44 89 45
REMARK SMILES IDX 38 46 88 47 39 48 40 49 41 50 82 51 42 52 87 53 81 54 83 55
REMARK SMILES IDX 43 56 86 57 80 58 79 59 44 61 70 62 53 63 69 64 54 65 57 66
REMARK SMILES IDX 68 67 84 68 55 69 56 70 67 72 85 73 58 74 45 75 46 76 51 77
REMARK SMILES IDX 47 78 48 79 50 80 52 81 49 82 71 83 72 84 77 85 73 86 74 87
REMARK SMILES IDX 76 88 78 89 75 90 59 91 60 92 65 93 61 94 62 95 64 96 66 97
REMARK SMILES IDX 63 98
REMARK H PARENT 7 22 92 31 92 32 83 60 57 71
REMARK Flexibility Score: inf
ROOT
ATOM      1  C   UNL A   1      35.660  19.782  24.976  1.00  0.00     0.261 C 
ENDROOT
BRANCH   1   2
ATOM      2  O   UNL A   1      34.528  18.973  24.594  1.00  0.00    -0.463 OA
BRANCH   2   3
ATOM      3  C   UNL A   1      33.317  19.383  25.046  1.00  0.00     0.313 C 
ATOM      4  O   UNL A   1      32.879  19.097  26.160  1.00  0.00    -0.252 OA
BRANCH   3   5
ATOM      5  C   UNL A   1      32.486  20.226  24.081  1.00  0.00     0.126 C 
ATOM      6  C   UNL A   1      32.321  19.450  22.773  1.00  0.00     0.025 C 
BRANCH   5   7
ATOM      7  C   UNL A   1      32.837  21.685  23.793  1.00  0.00    -0.032 A 
ATOM      8  C   UNL A   1      33.429  24.469  23.438  1.00  0.00     0.005 A 
ATOM      9  C   UNL A   1      32.811  23.699  22.428  1.00  0.00     0.011 A 
ATOM     10  C   UNL A   1      33.746  23.822  24.653  1.00  0.00     0.040 A 
ATOM     11  C   UNL A   1      32.505  22.338  22.603  1.00  0.00     0.005 A 
ATOM     12  C   UNL A   1      33.466  22.447  24.799  1.00  0.00     0.030 A 
BRANCH   8  13
ATOM     13  C   UNL A   1      33.631  25.928  23.227  1.00  0.00    -0.013 A 
ATOM     14  C   UNL A   1      33.919  28.202  24.048  1.00  0.00     0.133 A 
ATOM     15  C   UNL A   1      33.817  28.716  22.756  1.00  0.00     0.047 A 
ATOM     16  C   UNL A   1      33.843  26.826  24.292  1.00  0.00     0.056 A 
ATOM     17  C   UNL A   1      33.647  27.841  21.690  1.00  0.00     0.004 A 
ATOM     18  C   UNL A   1      33.546  26.466  21.926  1.00  0.00     0.009 A 
BRANCH  14  19
ATOM     19  O   UNL A   1      33.919  29.146  25.093  1.00  0.00    -0.410 OA
BRANCH  19  20
ATOM     20  C   UNL A   1      33.403  28.783  26.328  1.00  0.00     0.412 C 
ATOM     21  N   UNL A   1      32.033  28.818  26.369  1.00  0.00    -0.321 N 
ATOM     22  H   UNL A   1      31.613  28.504  27.201  1.00  0.00     0.167 HD
ATOM     23  O   UNL A   1      34.056  28.481  27.317  1.00  0.00    -0.224 OA
BRANCH  21  24
ATOM     24  C   UNL A   1      31.134  29.265  25.321  1.00  0.00     0.119 C 
BRANCH  24  25
ATOM     25  C   UNL A   1      30.539  28.107  24.520  1.00  0.00     0.021 C 
BRANCH  25  26
ATOM     26  C   UNL A   1      29.922  28.494  23.169  1.00  0.00     0.002 C 
BRANCH  26  27
ATOM     27  C   UNL A   1      29.515  29.964  23.018  1.00  0.00    -0.000 C 
BRANCH  27  28
ATOM     28  C   UNL A   1      28.008  30.240  23.037  1.00  0.00    -0.003 C 
ATOM     29  C   UNL A   1      27.659  31.667  23.432  1.00  0.00     0.004 C 
ENDBRANCH  27  28
ENDBRANCH  26  27
ENDBRANCH  25  26
ENDBRANCH  24  25
ENDBRANCH  21  24
ENDBRANCH  19  20
ENDBRANCH  14  19
ENDBRANCH   8  13
BRANCH  10  30
ATOM     30  N   UNL A   1      34.405  24.469  25.698  1.00  0.00    -0.398 N 
ATOM     31  H   UNL A   1      34.608  25.430  25.631  1.00  0.00     0.156 HD
ATOM     32  H   UNL A   1      34.669  23.966  26.501  1.00  0.00     0.156 HD
ENDBRANCH  10  30
ENDBRANCH   5   7
ENDBRANCH   3   5
ENDBRANCH   2   3
ENDBRANCH   1   2
BRANCH   1  33
ATOM     33  C   UNL A   1      37.025  19.160  24.662  1.00  0.00     0.202 C 
BRANCH  33  34
ATOM     34  O   UNL A   1      38.161  19.772  25.255  1.00  0.00    -0.376 OA
BRANCH  34  35
ATOM     35  C   UNL A   1      38.155  21.173  25.504  1.00  0.00     0.188 C 
BRANCH  35  36
ATOM     36  C   UNL A   1      39.376  21.854  26.140  1.00  0.00     0.188 C 
BRANCH  36  37
ATOM     37  O   UNL A   1      40.593  21.159  25.937  1.00  0.00    -0.376 OA
BRANCH  37  38
ATOM     38  C   UNL A   1      41.690  21.641  26.696  1.00  0.00     0.202 C 
BRANCH  38  39
ATOM     39  C   UNL A   1      42.772  22.180  25.758  1.00  0.00     0.261 C 
BRANCH  39  40
ATOM     40  O   UNL A   1      42.447  23.457  25.173  1.00  0.00    -0.460 OA
BRANCH  40  41
ATOM     41  C   UNL A   1      43.318  24.459  25.431  1.00  0.00     0.338 C 
ATOM     42  O   UNL A   1      44.401  24.642  24.909  1.00  0.00    -0.246 OA
BRANCH  41  43
ATOM     43  C   UNL A   1      42.672  25.431  26.337  1.00  0.00     0.060 A 
ATOM     44  C   UNL A   1      43.281  26.680  26.517  1.00  0.00     0.016 A 
ATOM     45  C   UNL A   1      41.513  25.100  27.039  1.00  0.00     0.016 A 
ATOM     46  C   UNL A   1      42.766  27.578  27.452  1.00  0.00     0.010 A 
ATOM     47  C   UNL A   1      41.005  25.994  27.988  1.00  0.00     0.010 A 
ATOM     48  C   UNL A   1      41.658  27.216  28.231  1.00  0.00    -0.014 A 
BRANCH  48  49
ATOM     49  C   UNL A   1      41.336  28.003  29.449  1.00  0.00     0.031 A 
ATOM     50  C   UNL A   1      40.180  28.968  29.386  1.00  0.00     0.074 A 
ATOM     51  C   UNL A   1      42.019  27.848  30.596  1.00  0.00     0.049 A 
ATOM     52  N   UNL A   1      39.713  29.770  30.308  1.00  0.00    -0.248 NA
ATOM     53  C   UNL A   1      39.453  29.037  28.107  1.00  0.00     0.031 C 
ATOM     54  C   UNL A   1      43.138  26.930  30.803  1.00  0.00     0.029 A 
ATOM     55  N   UNL A   1      41.868  28.474  31.811  1.00  0.00    -0.354 N 
ATOM     56  C   UNL A   1      38.648  30.442  29.720  1.00  0.00     0.074 A 
ATOM     57  C   UNL A   1      38.553  29.976  28.354  1.00  0.00     0.031 C 
ATOM     58  C   UNL A   1      43.581  27.063  32.067  1.00  0.00     0.029 A 
ATOM     59  C   UNL A   1      42.794  28.089  32.750  1.00  0.00     0.049 A 
ATOM     60  H   UNL A   1      41.163  29.137  31.990  1.00  0.00     0.167 HD
ATOM     61  C   UNL A   1      37.815  31.356  30.269  1.00  0.00     0.037 A 
ATOM     62  C   UNL A   1      42.991  28.530  34.008  1.00  0.00     0.037 A 
ATOM     63  C   UNL A   1      37.898  31.818  31.628  1.00  0.00     0.049 A 
ATOM     64  C   UNL A   1      42.083  29.592  34.577  1.00  0.00     0.074 A 
ATOM     65  C   UNL A   1      37.077  32.721  32.281  1.00  0.00     0.029 A 
ATOM     66  N   UNL A   1      38.862  31.419  32.540  1.00  0.00    -0.354 N 
ATOM     67  N   UNL A   1      41.051  30.185  34.027  1.00  0.00    -0.248 NA
ATOM     68  C   UNL A   1      42.367  30.044  35.948  1.00  0.00     0.031 C 
ATOM     69  C   UNL A   1      37.573  32.904  33.576  1.00  0.00     0.029 A 
ATOM     70  C   UNL A   1      38.672  32.078  33.743  1.00  0.00     0.049 A 
ATOM     71  H   UNL A   1      39.575  30.766  32.359  1.00  0.00     0.167 HD
ATOM     72  C   UNL A   1      40.548  31.051  34.992  1.00  0.00     0.074 A 
ATOM     73  C   UNL A   1      41.375  30.894  36.167  1.00  0.00     0.031 C 
ATOM     74  C   UNL A   1      39.495  31.902  34.911  1.00  0.00     0.037 A 
BRANCH  61  75
ATOM     75  C   UNL A   1      36.745  31.934  29.392  1.00  0.00     0.057 A 
ATOM     76  C   UNL A   1      35.540  31.262  29.152  1.00  0.00     0.134 A 
ATOM     77  C   UNL A   1      36.904  33.203  28.820  1.00  0.00     0.134 A 
ATOM     78  F   UNL A   1      35.334  30.036  29.657  1.00  0.00    -0.206 F 
ATOM     79  C   UNL A   1      34.535  31.825  28.365  1.00  0.00     0.040 A 
ATOM     80  C   UNL A   1      35.897  33.787  28.051  1.00  0.00     0.040 A 
ATOM     81  F   UNL A   1      38.035  33.899  29.012  1.00  0.00    -0.206 F 
ATOM     82  C   UNL A   1      34.709  33.097  27.820  1.00  0.00     0.006 A 
ENDBRANCH  61  75
BRANCH  62  83
ATOM     83  C   UNL A   1      44.109  27.994  34.829  1.00  0.00     0.057 A 
ATOM     84  C   UNL A   1      43.905  26.957  35.748  1.00  0.00     0.134 A 
ATOM     85  C   UNL A   1      45.390  28.553  34.763  1.00  0.00     0.134 A 
ATOM     86  F   UNL A   1      42.693  26.399  35.879  1.00  0.00    -0.206 F 
ATOM     87  C   UNL A   1      44.926  26.516  36.592  1.00  0.00     0.040 A 
ATOM     88  C   UNL A   1      46.428  28.104  35.582  1.00  0.00     0.040 A 
ATOM     89  F   UNL A   1      45.650  29.554  33.908  1.00  0.00    -0.206 F 
ATOM     90  C   UNL A   1      46.193  27.091  36.508  1.00  0.00     0.006 A 
ENDBRANCH  62  83
BRANCH  74  91
ATOM     91  C   UNL A   1      39.154  32.699  36.138  1.00  0.00     0.057 A 
ATOM     92  C   UNL A   1      38.289  32.210  37.124  1.00  0.00     0.134 A 
ATOM     93  C   UNL A   1      39.727  33.961  36.350  1.00  0.00     0.134 A 
ATOM     94  F   UNL A   1      37.698  31.014  36.978  1.00  0.00    -0.206 F 
ATOM     95  C   UNL A   1      37.984  32.957  38.263  1.00  0.00     0.040 A 
ATOM     96  C   UNL A   1      39.452  34.704  37.497  1.00  0.00     0.040 A 
ATOM     97  F   UNL A   1      40.574  34.484  35.451  1.00  0.00    -0.206 F 
ATOM     98  C   UNL A   1      38.572  34.206  38.456  1.00  0.00     0.006 A 
ENDBRANCH  74  91
ENDBRANCH  48  49
ENDBRANCH  41  43
ENDBRANCH  40  41
ENDBRANCH  39  40
ENDBRANCH  38  39
ENDBRANCH  37  38
ENDBRANCH  36  37
ENDBRANCH  35  36
ENDBRANCH  34  35
ENDBRANCH  33  34
ENDBRANCH   1  33
TORSDOF 27
ENDMDL
MODEL 3
REMARK VINA RESULT:      -9.4      1.922      2.760
REMARK SMILES CCCCCCNC(=O)Oc1cccc(-c2ccc([C@@H](C)C(=O)OCCOCCOCCOC(=O)c3ccc(-c4c5nc(c(-c6c(F)cccc6F)c6ccc([nH]6)c(-c6c(F)cccc6F)c6nc(c(-c7c(F)cccc7F)c7ccc4[nH]7)C=C6)C=C5)cc3)cc2N)c1
REMARK SMILES IDX 25 1 24 2 22 3 23 4 20 5 21 6 19 7 16 8 17 9 91 10 18 11
REMARK SMILES IDX 90 12 15 13 11 14 12 15 93 16 13 17 14 18 10 19 8 20 7 21
REMARK SMILES IDX 9 23 6 24 5 25 4 26 3 27 2 28 1 29 92 30 26 33 27 34 28 35
REMARK SMILES IDX 29 36 30 37 31 38 32 39 33 40 34 41 35 42 36 43 37 44 89 45
REMARK SMILES IDX 38 46 88 47 39 48 40 49 41 50 82 51 42 52 87 53 81 54 83 55
REMARK SMILES IDX 43 56 86 57 80 58 79 59 44 61 70 62 53 63 69 64 54 65 57 66
REMARK SMILES IDX 68 67 84 68 55 69 56 70 67 72 85 73 58 74 45 75 46 76 51 77
REMARK SMILES IDX 47 78 48 79 50 80 52 81 49 82 71 83 72 84 77 85 73 86 74 87
REMARK SMILES IDX 76 88 78 89 75 90 59 91 60 92 65 93 61 94 62 95 64 96 66 97
REMARK SMILES IDX 63 98
REMARK H PARENT 7 22 92 31 92 32 83 60 57 71
REMARK Flexibility Score: inf
ROOT
ATOM      1  C   UNL A   1      35.354  18.657  24.698  1.00  0.00     0.261 C 
ENDROOT
BRANCH   1   2
ATOM      2  O   UNL A   1      34.579  17.448  24.556  1.00  0.00    -0.463 OA
BRANCH   2   3
ATOM      3  C   UNL A   1      33.266  17.532  24.888  1.00  0.00     0.313 C 
ATOM      4  O   UNL A   1      32.764  16.906  25.820  1.00  0.00    -0.252 OA
BRANCH   3   5
ATOM      5  C   UNL A   1      32.409  18.453  24.022  1.00  0.00     0.126 C 
ATOM      6  C   UNL A   1      32.714  18.163  22.551  1.00  0.00     0.025 C 
BRANCH   5   7
ATOM      7  C   UNL A   1      32.359  19.959  24.268  1.00  0.00    -0.032 A 
ATOM      8  C   UNL A   1      32.131  22.754  24.877  1.00  0.00     0.005 A 
ATOM      9  C   UNL A   1      32.148  22.274  23.548  1.00  0.00     0.011 A 
ATOM     10  C   UNL A   1      32.222  21.802  25.917  1.00  0.00     0.040 A 
ATOM     11  C   UNL A   1      32.244  20.905  23.245  1.00  0.00     0.005 A 
ATOM     12  C   UNL A   1      32.356  20.435  25.596  1.00  0.00     0.030 A 
BRANCH   8  13
ATOM     13  C   UNL A   1      31.923  24.204  25.131  1.00  0.00    -0.013 A 
ATOM     14  C   UNL A   1      32.738  26.486  25.377  1.00  0.00     0.133 A 
ATOM     15  C   UNL A   1      31.488  26.920  25.814  1.00  0.00     0.047 A 
ATOM     16  C   UNL A   1      32.961  25.150  25.022  1.00  0.00     0.056 A 
ATOM     17  C   UNL A   1      30.441  26.008  25.890  1.00  0.00     0.004 A 
ATOM     18  C   UNL A   1      30.661  24.666  25.561  1.00  0.00     0.009 A 
BRANCH  14  19
ATOM     19  O   UNL A   1      33.790  27.415  25.484  1.00  0.00    -0.410 OA
BRANCH  19  20
ATOM     20  C   UNL A   1      33.490  28.751  25.703  1.00  0.00     0.412 C 
ATOM     21  N   UNL A   1      33.333  29.463  24.543  1.00  0.00    -0.321 N 
ATOM     22  H   UNL A   1      33.052  30.401  24.641  1.00  0.00     0.167 HD
ATOM     23  O   UNL A   1      33.392  29.293  26.795  1.00  0.00    -0.224 OA
BRANCH  21  24
ATOM     24  C   UNL A   1      33.534  28.988  23.186  1.00  0.00     0.119 C 
BRANCH  24  25
ATOM     25  C   UNL A   1      32.246  28.998  22.361  1.00  0.00     0.021 C 
BRANCH  25  26
ATOM     26  C   UNL A   1      30.960  29.249  23.159  1.00  0.00     0.002 C 
BRANCH  26  27
ATOM     27  C   UNL A   1      29.684  28.625  22.583  1.00  0.00    -0.000 C 
BRANCH  27  28
ATOM     28  C   UNL A   1      28.619  29.616  22.103  1.00  0.00    -0.003 C 
ATOM     29  C   UNL A   1      27.484  29.814  23.097  1.00  0.00     0.004 C 
ENDBRANCH  27  28
ENDBRANCH  26  27
ENDBRANCH  25  26
ENDBRANCH  24  25
ENDBRANCH  21  24
ENDBRANCH  19  20
ENDBRANCH  14  19
ENDBRANCH   8  13
BRANCH  10  30
ATOM     30  N   UNL A   1      32.269  22.164  27.263  1.00  0.00    -0.398 N 
ATOM     31  H   UNL A   1      33.050  21.920  27.811  1.00  0.00     0.156 HD
ATOM     32  H   UNL A   1      31.522  22.662  27.666  1.00  0.00     0.156 HD
ENDBRANCH  10  30
ENDBRANCH   5   7
ENDBRANCH   3   5
ENDBRANCH   2   3
ENDBRANCH   1   2
BRANCH   1  33
ATOM     33  C   UNL A   1      36.871  18.446  24.708  1.00  0.00     0.202 C 
BRANCH  33  34
ATOM     34  O   UNL A   1      37.660  19.479  25.281  1.00  0.00    -0.376 OA
BRANCH  34  35
ATOM     35  C   UNL A   1      37.276  20.837  25.100  1.00  0.00     0.188 C 
BRANCH  35  36
ATOM     36  C   UNL A   1      38.140  21.970  25.674  1.00  0.00     0.188 C 
BRANCH  36  37
ATOM     37  O   UNL A   1      39.504  21.628  25.836  1.00  0.00    -0.376 OA
BRANCH  37  38
ATOM     38  C   UNL A   1      40.180  22.337  26.863  1.00  0.00     0.202 C 
BRANCH  38  39
ATOM     39  C   UNL A   1      41.675  22.411  26.543  1.00  0.00     0.261 C 
BRANCH  39  40
ATOM     40  O   UNL A   1      42.088  23.679  25.997  1.00  0.00    -0.460 OA
BRANCH  40  41
ATOM     41  C   UNL A   1      43.052  24.329  26.686  1.00  0.00     0.338 C 
ATOM     42  O   UNL A   1      44.253  24.147  26.620  1.00  0.00    -0.246 OA
BRANCH  41  43
ATOM     43  C   UNL A   1      42.435  25.451  27.425  1.00  0.00     0.060 A 
ATOM     44  C   UNL A   1      43.072  26.698  27.394  1.00  0.00     0.016 A 
ATOM     45  C   UNL A   1      41.276  25.265  28.179  1.00  0.00     0.016 A 
ATOM     46  C   UNL A   1      42.585  27.749  28.173  1.00  0.00     0.010 A 
ATOM     47  C   UNL A   1      40.797  26.314  28.972  1.00  0.00     0.010 A 
ATOM     48  C   UNL A   1      41.478  27.544  29.008  1.00  0.00    -0.014 A 
BRANCH  48  49
ATOM     49  C   UNL A   1      41.184  28.527  30.083  1.00  0.00     0.031 A 
ATOM     50  C   UNL A   1      42.045  28.506  31.319  1.00  0.00     0.074 A 
ATOM     51  C   UNL A   1      40.205  29.440  29.961  1.00  0.00     0.049 A 
ATOM     52  N   UNL A   1      41.980  29.251  32.392  1.00  0.00    -0.248 NA
ATOM     53  C   UNL A   1      43.127  27.507  31.347  1.00  0.00     0.031 C 
ATOM     54  C   UNL A   1      39.318  29.589  28.809  1.00  0.00     0.029 A 
ATOM     55  N   UNL A   1      39.792  30.418  30.834  1.00  0.00    -0.354 N 
ATOM     56  C   UNL A   1      43.002  28.807  33.223  1.00  0.00     0.074 A 
ATOM     57  C   UNL A   1      43.656  27.710  32.544  1.00  0.00     0.031 C 
ATOM     58  C   UNL A   1      38.455  30.593  29.052  1.00  0.00     0.029 A 
ATOM     59  C   UNL A   1      38.713  31.141  30.383  1.00  0.00     0.049 A 
ATOM     60  H   UNL A   1      40.227  30.585  31.701  1.00  0.00     0.167 HD
ATOM     61  C   UNL A   1      43.373  29.276  34.437  1.00  0.00     0.037 A 
ATOM     62  C   UNL A   1      38.008  32.118  30.987  1.00  0.00     0.037 A 
ATOM     63  C   UNL A   1      42.733  30.371  35.115  1.00  0.00     0.049 A 
ATOM     64  C   UNL A   1      38.408  32.583  32.365  1.00  0.00     0.074 A 
ATOM     65  C   UNL A   1      43.059  30.935  36.335  1.00  0.00     0.029 A 
ATOM     66  N   UNL A   1      41.633  31.061  34.634  1.00  0.00    -0.354 N 
ATOM     67  N   UNL A   1      39.405  32.188  33.120  1.00  0.00    -0.248 NA
ATOM     68  C   UNL A   1      37.582  33.638  32.975  1.00  0.00     0.031 C 
ATOM     69  C   UNL A   1      42.126  31.938  36.616  1.00  0.00     0.029 A 
ATOM     70  C   UNL A   1      41.251  32.031  35.546  1.00  0.00     0.049 A 
ATOM     71  H   UNL A   1      41.188  30.889  33.773  1.00  0.00     0.167 HD
ATOM     72  C   UNL A   1      39.343  32.964  34.272  1.00  0.00     0.074 A 
ATOM     73  C   UNL A   1      38.224  33.865  34.111  1.00  0.00     0.031 C 
ATOM     74  C   UNL A   1      40.142  32.932  35.367  1.00  0.00     0.037 A 
BRANCH  61  75
ATOM     75  C   UNL A   1      44.518  28.594  35.123  1.00  0.00     0.057 A 
ATOM     76  C   UNL A   1      44.325  27.506  35.983  1.00  0.00     0.134 A 
ATOM     77  C   UNL A   1      45.836  29.001  34.880  1.00  0.00     0.134 A 
ATOM     78  F   UNL A   1      43.085  27.079  36.270  1.00  0.00    -0.206 F 
ATOM     79  C   UNL A   1      45.400  26.854  36.588  1.00  0.00     0.040 A 
ATOM     80  C   UNL A   1      46.921  28.342  35.459  1.00  0.00     0.040 A 
ATOM     81  F   UNL A   1      46.089  30.036  34.065  1.00  0.00    -0.206 F 
ATOM     82  C   UNL A   1      46.705  27.266  36.317  1.00  0.00     0.006 A 
ENDBRANCH  61  75
BRANCH  62  83
ATOM     83  C   UNL A   1      36.829  32.723  30.314  1.00  0.00     0.057 A 
ATOM     84  C   UNL A   1      35.526  32.300  30.605  1.00  0.00     0.134 A 
ATOM     85  C   UNL A   1      36.983  33.689  29.313  1.00  0.00     0.134 A 
ATOM     86  F   UNL A   1      35.315  31.356  31.534  1.00  0.00    -0.206 F 
ATOM     87  C   UNL A   1      34.423  32.793  29.907  1.00  0.00     0.040 A 
ATOM     88  C   UNL A   1      35.886  34.212  28.625  1.00  0.00     0.040 A 
ATOM     89  F   UNL A   1      38.204  34.133  28.981  1.00  0.00    -0.206 F 
ATOM     90  C   UNL A   1      34.603  33.754  28.914  1.00  0.00     0.006 A 
ENDBRANCH  62  83
BRANCH  74  91
ATOM     91  C   UNL A   1      39.859  33.924  36.460  1.00  0.00     0.057 A 
ATOM     92  C   UNL A   1      40.378  35.224  36.433  1.00  0.00     0.134 A 
ATOM     93  C   UNL A   1      39.028  33.582  37.535  1.00  0.00     0.134 A 
ATOM     94  F   UNL A   1      41.189  35.613  35.437  1.00  0.00    -0.206 F 
ATOM     95  C   UNL A   1      40.104  36.140  37.450  1.00  0.00     0.040 A 
ATOM     96  C   UNL A   1      38.724  34.497  38.543  1.00  0.00     0.040 A 
ATOM     97  F   UNL A   1      38.488  32.356  37.616  1.00  0.00    -0.206 F 
ATOM     98  C   UNL A   1      39.269  35.779  38.507  1.00  0.00     0.006 A 
ENDBRANCH  74  91
ENDBRANCH  48  49
ENDBRANCH  41  43
ENDBRANCH  40  41
ENDBRANCH  39  40
ENDBRANCH  38  39
ENDBRANCH  37  38
ENDBRANCH  36  37
ENDBRANCH  35  36
ENDBRANCH  34  35
ENDBRANCH  33  34
ENDBRANCH   1  33
TORSDOF 27
ENDMDL
