MODEL 1
REMARK VINA RESULT:     -10.3      0.000      0.000
REMARK SMILES C[C@@H]1CN(S(=O)(=O)[C@@H](C)C(=O)OCCOCCOCCOC(=O)c2ccc(-c3c4nc(c(-c5c(F)cccc5F)c5ccc([nH]5)c(-c5c(F)cccc5F)c5nc(c(-c6c(F)cccc6F)c6ccc3[nH]6)C=C5)C=C4)cc2)CC[C@@H]1[NH3+]
REMARK SMILES IDX 16 1 15 2 14 3 13 4 12 5 10 6 11 7 8 8 9 9 5 10 6 11 7 12
REMARK SMILES IDX 4 13 1 14 2 15 3 16 80 17 79 18 78 19 81 20 17 24 18 25
REMARK SMILES IDX 19 26 20 27 21 28 22 29 23 30 24 31 25 32 77 33 26 34 76 35
REMARK SMILES IDX 27 36 28 37 29 38 70 39 30 40 75 41 69 42 71 43 31 44 74 45
REMARK SMILES IDX 68 46 67 47 32 49 58 50 41 51 57 52 42 53 45 54 56 55 72 56
REMARK SMILES IDX 43 57 44 58 55 60 73 61 46 62 33 63 34 64 39 65 35 66 36 67
REMARK SMILES IDX 38 68 40 69 37 70 59 71 60 72 65 73 61 74 62 75 64 76 66 77
REMARK SMILES IDX 63 78 47 79 48 80 53 81 49 82 50 83 52 84 54 85 51 86
REMARK H PARENT 81 21 81 22 81 23 71 48 45 59
REMARK Flexibility Score: inf
ROOT
ATOM      1  C   UNL A   1      39.978  21.490  26.319  1.00  0.00     0.188 C 
ENDROOT
BRANCH   1   2
ATOM      2  O   UNL A   1      38.597  21.797  26.156  1.00  0.00    -0.376 OA
BRANCH   2   3
ATOM      3  C   UNL A   1      37.898  21.058  25.146  1.00  0.00     0.202 C 
BRANCH   3   4
ATOM      4  C   UNL A   1      36.424  21.432  24.930  1.00  0.00     0.261 C 
BRANCH   4   5
ATOM      5  O   UNL A   1      35.739  21.870  26.141  1.00  0.00    -0.462 OA
BRANCH   5   6
ATOM      6  C   UNL A   1      35.192  23.101  26.136  1.00  0.00     0.325 C 
ATOM      7  O   UNL A   1      35.727  24.048  25.552  1.00  0.00    -0.251 OA
BRANCH   6   8
ATOM      8  C   UNL A   1      33.974  23.353  26.972  1.00  0.00     0.230 C 
ATOM      9  C   UNL A   1      33.713  22.192  27.918  1.00  0.00     0.039 C 
BRANCH   8  10
ATOM     10  S   UNL A   1      32.490  24.063  26.300  1.00  0.00     0.227 S 
ATOM     11  O   UNL A   1      31.353  23.680  27.107  1.00  0.00    -0.211 OA
ATOM     12  O   UNL A   1      32.489  23.674  24.899  1.00  0.00    -0.211 OA
BRANCH  10  13
ATOM     13  N   UNL A   1      32.572  25.782  26.286  1.00  0.00    -0.200 NA
ATOM     14  C   UNL A   1      31.726  28.465  27.511  1.00  0.00     0.015 C 
ATOM     15  C   UNL A   1      31.371  27.984  26.099  1.00  0.00     0.059 C 
ATOM     16  C   UNL A   1      31.266  26.460  26.065  1.00  0.00     0.111 C 
ATOM     17  C   UNL A   1      32.340  28.438  25.002  1.00  0.00     0.186 C 
ATOM     18  C   UNL A   1      33.702  27.772  25.182  1.00  0.00     0.082 C 
ATOM     19  C   UNL A   1      33.575  26.248  25.246  1.00  0.00     0.108 C 
BRANCH  17  20
ATOM     20  N   UNL A   1      32.462  29.897  24.967  1.00  0.00    -0.355 N 
ATOM     21  H   UNL A   1      31.856  30.271  24.237  1.00  0.00     0.344 HD
ATOM     22  H   UNL A   1      33.429  30.153  24.771  1.00  0.00     0.344 HD
ATOM     23  H   UNL A   1      32.184  30.283  25.870  1.00  0.00     0.344 HD
ENDBRANCH  17  20
ENDBRANCH  10  13
ENDBRANCH   8  10
ENDBRANCH   6   8
ENDBRANCH   5   6
ENDBRANCH   4   5
ENDBRANCH   3   4
ENDBRANCH   2   3
ENDBRANCH   1   2
BRANCH   1  24
ATOM     24  C   UNL A   1      40.341  20.009  26.166  1.00  0.00     0.188 C 
BRANCH  24  25
ATOM     25  O   UNL A   1      41.617  19.835  25.579  1.00  0.00    -0.376 OA
BRANCH  25  26
ATOM     26  C   UNL A   1      42.781  20.380  26.184  1.00  0.00     0.202 C 
BRANCH  26  27
ATOM     27  C   UNL A   1      43.612  21.414  25.411  1.00  0.00     0.261 C 
BRANCH  27  28
ATOM     28  O   UNL A   1      42.974  22.678  25.179  1.00  0.00    -0.460 OA
BRANCH  28  29
ATOM     29  C   UNL A   1      43.748  23.786  25.109  1.00  0.00     0.338 C 
ATOM     30  O   UNL A   1      44.617  24.025  24.289  1.00  0.00    -0.246 OA
BRANCH  29  31
ATOM     31  C   UNL A   1      43.179  24.759  26.077  1.00  0.00     0.060 A 
ATOM     32  C   UNL A   1      43.627  26.086  26.050  1.00  0.00     0.016 A 
ATOM     33  C   UNL A   1      42.126  24.390  26.922  1.00  0.00     0.016 A 
ATOM     34  C   UNL A   1      43.044  27.036  26.897  1.00  0.00     0.010 A 
ATOM     35  C   UNL A   1      41.540  25.338  27.757  1.00  0.00     0.010 A 
ATOM     36  C   UNL A   1      42.019  26.658  27.776  1.00  0.00    -0.014 A 
BRANCH  36  37
ATOM     37  C   UNL A   1      41.586  27.554  28.875  1.00  0.00     0.031 A 
ATOM     38  C   UNL A   1      42.343  27.482  30.173  1.00  0.00     0.074 A 
ATOM     39  C   UNL A   1      40.530  28.377  28.754  1.00  0.00     0.049 A 
ATOM     40  N   UNL A   1      42.117  28.091  31.307  1.00  0.00    -0.248 NA
ATOM     41  C   UNL A   1      43.508  26.582  30.193  1.00  0.00     0.031 C 
ATOM     42  C   UNL A   1      39.724  28.556  27.548  1.00  0.00     0.029 A 
ATOM     43  N   UNL A   1      39.948  29.211  29.676  1.00  0.00    -0.354 N 
ATOM     44  C   UNL A   1      43.101  27.640  32.176  1.00  0.00     0.074 A 
ATOM     45  C   UNL A   1      43.902  26.678  31.452  1.00  0.00     0.031 C 
ATOM     46  C   UNL A   1      38.750  29.448  27.805  1.00  0.00     0.029 A 
ATOM     47  C   UNL A   1      38.844  29.876  29.200  1.00  0.00     0.049 A 
ATOM     48  H   UNL A   1      40.290  29.323  30.592  1.00  0.00     0.167 HD
ATOM     49  C   UNL A   1      43.325  27.998  33.462  1.00  0.00     0.037 A 
ATOM     50  C   UNL A   1      38.003  30.721  29.829  1.00  0.00     0.037 A 
ATOM     51  C   UNL A   1      42.531  28.954  34.183  1.00  0.00     0.049 A 
ATOM     52  C   UNL A   1      38.229  31.052  31.283  1.00  0.00     0.074 A 
ATOM     53  C   UNL A   1      42.701  29.417  35.475  1.00  0.00     0.029 A 
ATOM     54  N   UNL A   1      41.404  29.583  33.676  1.00  0.00    -0.354 N 
ATOM     55  N   UNL A   1      39.191  30.659  32.084  1.00  0.00    -0.248 NA
ATOM     56  C   UNL A   1      37.249  31.943  31.921  1.00  0.00     0.031 C 
ATOM     57  C   UNL A   1      41.644  30.284  35.769  1.00  0.00     0.029 A 
ATOM     58  C   UNL A   1      40.848  30.405  34.641  1.00  0.00     0.049 A 
ATOM     59  H   UNL A   1      41.052  29.462  32.764  1.00  0.00     0.167 HD
ATOM     60  C   UNL A   1      38.952  31.282  33.304  1.00  0.00     0.074 A 
ATOM     61  C   UNL A   1      37.758  32.082  33.137  1.00  0.00     0.031 C 
ATOM     62  C   UNL A   1      39.663  31.204  34.458  1.00  0.00     0.037 A 
BRANCH  49  63
ATOM     63  C   UNL A   1      44.459  27.319  34.172  1.00  0.00     0.057 A 
ATOM     64  C   UNL A   1      44.294  26.097  34.838  1.00  0.00     0.134 A 
ATOM     65  C   UNL A   1      45.733  27.900  34.192  1.00  0.00     0.134 A 
ATOM     66  F   UNL A   1      43.094  25.499  34.874  1.00  0.00    -0.206 F 
ATOM     67  C   UNL A   1      45.347  25.496  35.529  1.00  0.00     0.040 A 
ATOM     68  C   UNL A   1      46.801  27.293  34.854  1.00  0.00     0.040 A 
ATOM     69  F   UNL A   1      45.960  29.069  33.573  1.00  0.00    -0.206 F 
ATOM     70  C   UNL A   1      46.607  26.093  35.533  1.00  0.00     0.006 A 
ENDBRANCH  49  63
BRANCH  50  71
ATOM     71  C   UNL A   1      36.865  31.332  29.093  1.00  0.00     0.057 A 
ATOM     72  C   UNL A   1      35.728  30.579  28.774  1.00  0.00     0.134 A 
ATOM     73  C   UNL A   1      36.897  32.663  28.663  1.00  0.00     0.134 A 
ATOM     74  F   UNL A   1      35.652  29.289  29.134  1.00  0.00    -0.206 F 
ATOM     75  C   UNL A   1      34.670  31.123  28.043  1.00  0.00     0.040 A 
ATOM     76  C   UNL A   1      35.836  33.226  27.951  1.00  0.00     0.040 A 
ATOM     77  F   UNL A   1      37.960  33.436  28.929  1.00  0.00    -0.206 F 
ATOM     78  C   UNL A   1      34.721  32.453  27.634  1.00  0.00     0.006 A 
ENDBRANCH  50  71
BRANCH  62  79
ATOM     79  C   UNL A   1      39.197  32.037  35.617  1.00  0.00     0.057 A 
ATOM     80  C   UNL A   1      38.393  31.510  36.635  1.00  0.00     0.134 A 
ATOM     81  C   UNL A   1      39.605  33.371  35.741  1.00  0.00     0.134 A 
ATOM     82  F   UNL A   1      37.958  30.243  36.572  1.00  0.00    -0.206 F 
ATOM     83  C   UNL A   1      37.993  32.287  37.725  1.00  0.00     0.040 A 
ATOM     84  C   UNL A   1      39.236  34.150  36.839  1.00  0.00     0.040 A 
ATOM     85  F   UNL A   1      40.386  33.936  34.807  1.00  0.00    -0.206 F 
ATOM     86  C   UNL A   1      38.422  33.610  37.832  1.00  0.00     0.006 A 
ENDBRANCH  62  79
ENDBRANCH  36  37
ENDBRANCH  29  31
ENDBRANCH  28  29
ENDBRANCH  27  28
ENDBRANCH  26  27
ENDBRANCH  25  26
ENDBRANCH  24  25
ENDBRANCH   1  24
TORSDOF 20
ENDMDL
MODEL 2
REMARK VINA RESULT:     -10.1      1.086      2.126
REMARK SMILES C[C@@H]1CN(S(=O)(=O)[C@@H](C)C(=O)OCCOCCOCCOC(=O)c2ccc(-c3c4nc(c(-c5c(F)cccc5F)c5ccc([nH]5)c(-c5c(F)cccc5F)c5nc(c(-c6c(F)cccc6F)c6ccc3[nH]6)C=C5)C=C4)cc2)CC[C@@H]1[NH3+]
REMARK SMILES IDX 16 1 15 2 14 3 13 4 12 5 10 6 11 7 8 8 9 9 5 10 6 11 7 12
REMARK SMILES IDX 4 13 1 14 2 15 3 16 80 17 79 18 78 19 81 20 17 24 18 25
REMARK SMILES IDX 19 26 20 27 21 28 22 29 23 30 24 31 25 32 77 33 26 34 76 35
REMARK SMILES IDX 27 36 28 37 29 38 70 39 30 40 75 41 69 42 71 43 31 44 74 45
REMARK SMILES IDX 68 46 67 47 32 49 58 50 41 51 57 52 42 53 45 54 56 55 72 56
REMARK SMILES IDX 43 57 44 58 55 60 73 61 46 62 33 63 34 64 39 65 35 66 36 67
REMARK SMILES IDX 38 68 40 69 37 70 59 71 60 72 65 73 61 74 62 75 64 76 66 77
REMARK SMILES IDX 63 78 47 79 48 80 53 81 49 82 50 83 52 84 54 85 51 86
REMARK H PARENT 81 21 81 22 81 23 71 48 45 59
REMARK Flexibility Score: inf
ROOT
ATOM      1  C   UNL A   1      40.054  20.907  26.353  1.00  0.00     0.188 C 
ENDROOT
BRANCH   1   2
ATOM      2  O   UNL A   1      38.958  21.294  25.530  1.00  0.00    -0.376 OA
BRANCH   2   3
ATOM      3  C   UNL A   1      38.295  22.512  25.889  1.00  0.00     0.202 C 
BRANCH   3   4
ATOM      4  C   UNL A   1      37.066  22.888  25.047  1.00  0.00     0.261 C 
BRANCH   4   5
ATOM      5  O   UNL A   1      35.905  22.036  25.277  1.00  0.00    -0.462 OA
BRANCH   5   6
ATOM      6  C   UNL A   1      34.741  22.641  25.586  1.00  0.00     0.325 C 
ATOM      7  O   UNL A   1      34.508  23.060  26.723  1.00  0.00    -0.251 OA
BRANCH   6   8
ATOM      8  C   UNL A   1      33.655  22.686  24.554  1.00  0.00     0.230 C 
ATOM      9  C   UNL A   1      33.084  21.299  24.304  1.00  0.00     0.039 C 
BRANCH   8  10
ATOM     10  S   UNL A   1      33.783  23.672  23.081  1.00  0.00     0.227 S 
ATOM     11  O   UNL A   1      32.942  23.119  22.044  1.00  0.00    -0.211 OA
ATOM     12  O   UNL A   1      35.211  23.768  22.817  1.00  0.00    -0.211 OA
BRANCH  10  13
ATOM     13  N   UNL A   1      33.272  25.290  23.369  1.00  0.00    -0.200 NA
ATOM     14  C   UNL A   1      31.389  27.614  22.682  1.00  0.00     0.015 C 
ATOM     15  C   UNL A   1      32.909  27.614  22.476  1.00  0.00     0.059 C 
ATOM     16  C   UNL A   1      33.409  26.197  22.196  1.00  0.00     0.111 C 
ATOM     17  C   UNL A   1      33.717  28.204  23.637  1.00  0.00     0.186 C 
ATOM     18  C   UNL A   1      33.609  27.311  24.871  1.00  0.00     0.082 C 
ATOM     19  C   UNL A   1      34.019  25.870  24.556  1.00  0.00     0.108 C 
BRANCH  17  20
ATOM     20  N   UNL A   1      33.299  29.575  23.936  1.00  0.00    -0.355 N 
ATOM     21  H   UNL A   1      33.992  30.017  24.540  1.00  0.00     0.344 HD
ATOM     22  H   UNL A   1      32.395  29.560  24.408  1.00  0.00     0.344 HD
ATOM     23  H   UNL A   1      33.220  30.103  23.066  1.00  0.00     0.344 HD
ENDBRANCH  17  20
ENDBRANCH  10  13
ENDBRANCH   8  10
ENDBRANCH   6   8
ENDBRANCH   5   6
ENDBRANCH   4   5
ENDBRANCH   3   4
ENDBRANCH   2   3
ENDBRANCH   1   2
BRANCH   1  24
ATOM     24  C   UNL A   1      40.627  19.515  26.069  1.00  0.00     0.188 C 
BRANCH  24  25
ATOM     25  O   UNL A   1      41.906  19.581  25.466  1.00  0.00    -0.376 OA
BRANCH  25  26
ATOM     26  C   UNL A   1      42.989  20.228  26.120  1.00  0.00     0.202 C 
BRANCH  26  27
ATOM     27  C   UNL A   1      43.742  21.349  25.389  1.00  0.00     0.261 C 
BRANCH  27  28
ATOM     28  O   UNL A   1      43.049  22.602  25.289  1.00  0.00    -0.460 OA
BRANCH  28  29
ATOM     29  C   UNL A   1      43.781  23.732  25.152  1.00  0.00     0.338 C 
ATOM     30  O   UNL A   1      44.607  23.974  24.290  1.00  0.00    -0.246 OA
BRANCH  29  31
ATOM     31  C   UNL A   1      43.217  24.716  26.112  1.00  0.00     0.060 A 
ATOM     32  C   UNL A   1      43.680  26.038  26.081  1.00  0.00     0.016 A 
ATOM     33  C   UNL A   1      42.155  24.363  26.953  1.00  0.00     0.016 A 
ATOM     34  C   UNL A   1      43.103  26.999  26.920  1.00  0.00     0.010 A 
ATOM     35  C   UNL A   1      41.575  25.322  27.781  1.00  0.00     0.010 A 
ATOM     36  C   UNL A   1      42.069  26.637  27.795  1.00  0.00    -0.014 A 
BRANCH  36  37
ATOM     37  C   UNL A   1      41.640  27.544  28.887  1.00  0.00     0.031 A 
ATOM     38  C   UNL A   1      42.397  27.478  30.185  1.00  0.00     0.074 A 
ATOM     39  C   UNL A   1      40.587  28.370  28.760  1.00  0.00     0.049 A 
ATOM     40  N   UNL A   1      42.173  28.098  31.315  1.00  0.00    -0.248 NA
ATOM     41  C   UNL A   1      43.558  26.573  30.212  1.00  0.00     0.031 C 
ATOM     42  C   UNL A   1      39.781  28.542  27.553  1.00  0.00     0.029 A 
ATOM     43  N   UNL A   1      40.009  29.214  29.676  1.00  0.00    -0.354 N 
ATOM     44  C   UNL A   1      43.156  27.649  32.187  1.00  0.00     0.074 A 
ATOM     45  C   UNL A   1      43.953  26.678  31.470  1.00  0.00     0.031 C 
ATOM     46  C   UNL A   1      38.811  29.441  27.803  1.00  0.00     0.029 A 
ATOM     47  C   UNL A   1      38.907  29.879  29.195  1.00  0.00     0.049 A 
ATOM     48  H   UNL A   1      40.351  29.331  30.591  1.00  0.00     0.167 HD
ATOM     49  C   UNL A   1      43.382  28.017  33.470  1.00  0.00     0.037 A 
ATOM     50  C   UNL A   1      38.070  30.733  29.817  1.00  0.00     0.037 A 
ATOM     51  C   UNL A   1      42.592  28.981  34.183  1.00  0.00     0.049 A 
ATOM     52  C   UNL A   1      38.298  31.073  31.268  1.00  0.00     0.074 A 
ATOM     53  C   UNL A   1      42.765  29.454  35.472  1.00  0.00     0.029 A 
ATOM     54  N   UNL A   1      41.467  29.610  33.672  1.00  0.00    -0.354 N 
ATOM     55  N   UNL A   1      39.258  30.684  32.072  1.00  0.00    -0.248 NA
ATOM     56  C   UNL A   1      37.321  31.974  31.900  1.00  0.00     0.031 C 
ATOM     57  C   UNL A   1      41.711  30.328  35.760  1.00  0.00     0.029 A 
ATOM     58  C   UNL A   1      40.915  30.442  34.631  1.00  0.00     0.049 A 
ATOM     59  H   UNL A   1      41.114  29.484  32.761  1.00  0.00     0.167 HD
ATOM     60  C   UNL A   1      39.023  31.317  33.287  1.00  0.00     0.074 A 
ATOM     61  C   UNL A   1      37.832  32.121  33.115  1.00  0.00     0.031 C 
ATOM     62  C   UNL A   1      39.733  31.245  34.441  1.00  0.00     0.037 A 
BRANCH  49  63
ATOM     63  C   UNL A   1      44.514  27.338  34.185  1.00  0.00     0.057 A 
ATOM     64  C   UNL A   1      45.810  27.871  34.199  1.00  0.00     0.134 A 
ATOM     65  C   UNL A   1      44.303  26.132  34.863  1.00  0.00     0.134 A 
ATOM     66  F   UNL A   1      46.083  29.014  33.550  1.00  0.00    -0.206 F 
ATOM     67  C   UNL A   1      46.863  27.210  34.833  1.00  0.00     0.040 A 
ATOM     68  C   UNL A   1      45.342  25.478  35.526  1.00  0.00     0.040 A 
ATOM     69  F   UNL A   1      43.086  25.568  34.890  1.00  0.00    -0.206 F 
ATOM     70  C   UNL A   1      46.628  26.011  35.504  1.00  0.00     0.006 A 
ENDBRANCH  49  63
BRANCH  50  71
ATOM     71  C   UNL A   1      36.934  31.342  29.077  1.00  0.00     0.057 A 
ATOM     72  C   UNL A   1      36.987  32.674  28.650  1.00  0.00     0.134 A 
ATOM     73  C   UNL A   1      35.763  30.626  28.807  1.00  0.00     0.134 A 
ATOM     74  F   UNL A   1      38.071  33.421  28.905  1.00  0.00    -0.206 F 
ATOM     75  C   UNL A   1      35.912  33.277  27.993  1.00  0.00     0.040 A 
ATOM     76  C   UNL A   1      34.690  31.209  28.131  1.00  0.00     0.040 A 
ATOM     77  F   UNL A   1      35.646  29.348  29.195  1.00  0.00    -0.206 F 
ATOM     78  C   UNL A   1      34.760  32.541  27.727  1.00  0.00     0.006 A 
ENDBRANCH  50  71
BRANCH  62  79
ATOM     79  C   UNL A   1      39.271  32.089  35.595  1.00  0.00     0.057 A 
ATOM     80  C   UNL A   1      39.658  33.427  35.738  1.00  0.00     0.134 A 
ATOM     81  C   UNL A   1      38.383  31.567  36.545  1.00  0.00     0.134 A 
ATOM     82  F   UNL A   1      40.514  33.985  34.869  1.00  0.00    -0.206 F 
ATOM     83  C   UNL A   1      39.195  34.210  36.797  1.00  0.00     0.040 A 
ATOM     84  C   UNL A   1      37.892  32.348  37.592  1.00  0.00     0.040 A 
ATOM     85  F   UNL A   1      37.963  30.295  36.460  1.00  0.00    -0.206 F 
ATOM     86  C   UNL A   1      38.302  33.672  37.724  1.00  0.00     0.006 A 
ENDBRANCH  62  79
ENDBRANCH  36  37
ENDBRANCH  29  31
ENDBRANCH  28  29
ENDBRANCH  27  28
ENDBRANCH  26  27
ENDBRANCH  25  26
ENDBRANCH  24  25
ENDBRANCH   1  24
TORSDOF 20
ENDMDL
MODEL 3
REMARK VINA RESULT:     -10.0      4.670      9.945
REMARK SMILES C[C@@H]1CN(S(=O)(=O)[C@@H](C)C(=O)OCCOCCOCCOC(=O)c2ccc(-c3c4nc(c(-c5c(F)cccc5F)c5ccc([nH]5)c(-c5c(F)cccc5F)c5nc(c(-c6c(F)cccc6F)c6ccc3[nH]6)C=C5)C=C4)cc2)CC[C@@H]1[NH3+]
REMARK SMILES IDX 16 1 15 2 14 3 13 4 12 5 10 6 11 7 8 8 9 9 5 10 6 11 7 12
REMARK SMILES IDX 4 13 1 14 2 15 3 16 80 17 79 18 78 19 81 20 17 24 18 25
REMARK SMILES IDX 19 26 20 27 21 28 22 29 23 30 24 31 25 32 77 33 26 34 76 35
REMARK SMILES IDX 27 36 28 37 29 38 70 39 30 40 75 41 69 42 71 43 31 44 74 45
REMARK SMILES IDX 68 46 67 47 32 49 58 50 41 51 57 52 42 53 45 54 56 55 72 56
REMARK SMILES IDX 43 57 44 58 55 60 73 61 46 62 33 63 34 64 39 65 35 66 36 67
REMARK SMILES IDX 38 68 40 69 37 70 59 71 60 72 65 73 61 74 62 75 64 76 66 77
REMARK SMILES IDX 63 78 47 79 48 80 53 81 49 82 50 83 52 84 54 85 51 86
REMARK H PARENT 81 21 81 22 81 23 71 48 45 59
REMARK Flexibility Score: inf
ROOT
ATOM      1  C   UNL A   1      33.863  31.152  27.632  1.00  0.00     0.188 C 
ENDROOT
BRANCH   1   2
ATOM      2  O   UNL A   1      32.566  31.331  27.073  1.00  0.00    -0.376 OA
BRANCH   2   3
ATOM      3  C   UNL A   1      31.790  30.142  26.877  1.00  0.00     0.202 C 
BRANCH   3   4
ATOM      4  C   UNL A   1      31.700  29.623  25.434  1.00  0.00     0.261 C 
BRANCH   4   5
ATOM      5  O   UNL A   1      32.984  29.552  24.747  1.00  0.00    -0.462 OA
BRANCH   5   6
ATOM      6  C   UNL A   1      33.688  28.409  24.860  1.00  0.00     0.325 C 
ATOM      7  O   UNL A   1      34.140  28.028  25.944  1.00  0.00    -0.251 OA
BRANCH   6   8
ATOM      8  C   UNL A   1      34.042  27.652  23.615  1.00  0.00     0.230 C 
ATOM      9  C   UNL A   1      34.036  28.568  22.402  1.00  0.00     0.039 C 
BRANCH   8  10
ATOM     10  S   UNL A   1      33.405  26.028  23.277  1.00  0.00     0.227 S 
ATOM     11  O   UNL A   1      33.436  25.774  21.854  1.00  0.00    -0.211 OA
ATOM     12  O   UNL A   1      32.113  25.985  23.944  1.00  0.00    -0.211 OA
BRANCH  10  13
ATOM     13  N   UNL A   1      34.349  24.815  24.050  1.00  0.00    -0.200 NA
ATOM     14  C   UNL A   1      36.832  23.012  24.042  1.00  0.00     0.015 C 
ATOM     15  C   UNL A   1      35.381  22.523  23.964  1.00  0.00     0.059 C 
ATOM     16  C   UNL A   1      34.504  23.561  23.264  1.00  0.00     0.111 C 
ATOM     17  C   UNL A   1      34.747  22.168  25.314  1.00  0.00     0.186 C 
ATOM     18  C   UNL A   1      34.566  23.423  26.164  1.00  0.00     0.082 C 
ATOM     19  C   UNL A   1      33.770  24.496  25.417  1.00  0.00     0.108 C 
BRANCH  17  20
ATOM     20  N   UNL A   1      35.531  21.154  26.022  1.00  0.00    -0.355 N 
ATOM     21  H   UNL A   1      34.913  20.404  26.332  1.00  0.00     0.344 HD
ATOM     22  H   UNL A   1      35.984  21.579  26.831  1.00  0.00     0.344 HD
ATOM     23  H   UNL A   1      36.240  20.774  25.395  1.00  0.00     0.344 HD
ENDBRANCH  17  20
ENDBRANCH  10  13
ENDBRANCH   8  10
ENDBRANCH   6   8
ENDBRANCH   5   6
ENDBRANCH   4   5
ENDBRANCH   3   4
ENDBRANCH   2   3
ENDBRANCH   1   2
BRANCH   1  24
ATOM     24  C   UNL A   1      34.529  32.425  28.162  1.00  0.00     0.188 C 
BRANCH  24  25
ATOM     25  O   UNL A   1      34.058  32.773  29.450  1.00  0.00    -0.376 OA
BRANCH  25  26
ATOM     26  C   UNL A   1      34.275  34.073  29.982  1.00  0.00     0.202 C 
BRANCH  26  27
ATOM     27  C   UNL A   1      34.637  34.223  31.467  1.00  0.00     0.261 C 
BRANCH  27  28
ATOM     28  O   UNL A   1      35.990  33.893  31.814  1.00  0.00    -0.460 OA
BRANCH  28  29
ATOM     29  C   UNL A   1      36.211  32.779  32.551  1.00  0.00     0.338 C 
ATOM     30  O   UNL A   1      35.532  32.359  33.472  1.00  0.00    -0.246 OA
BRANCH  29  31
ATOM     31  C   UNL A   1      37.306  32.038  31.875  1.00  0.00     0.060 A 
ATOM     32  C   UNL A   1      38.197  31.284  32.649  1.00  0.00     0.016 A 
ATOM     33  C   UNL A   1      37.377  31.992  30.477  1.00  0.00     0.016 A 
ATOM     34  C   UNL A   1      39.184  30.512  32.025  1.00  0.00     0.010 A 
ATOM     35  C   UNL A   1      38.354  31.216  29.856  1.00  0.00     0.010 A 
ATOM     36  C   UNL A   1      39.286  30.501  30.626  1.00  0.00    -0.014 A 
BRANCH  36  37
ATOM     37  C   UNL A   1      40.480  29.937  29.952  1.00  0.00     0.031 A 
ATOM     38  C   UNL A   1      41.645  30.858  29.714  1.00  0.00     0.074 A 
ATOM     39  C   UNL A   1      40.524  28.665  29.519  1.00  0.00     0.049 A 
ATOM     40  N   UNL A   1      42.766  30.640  29.076  1.00  0.00    -0.248 NA
ATOM     41  C   UNL A   1      41.517  32.219  30.261  1.00  0.00     0.031 C 
ATOM     42  C   UNL A   1      39.473  27.667  29.701  1.00  0.00     0.029 A 
ATOM     43  N   UNL A   1      41.503  28.003  28.819  1.00  0.00    -0.354 N 
ATOM     44  C   UNL A   1      43.467  31.837  29.135  1.00  0.00     0.074 A 
ATOM     45  C   UNL A   1      42.632  32.787  29.836  1.00  0.00     0.031 C 
ATOM     46  C   UNL A   1      39.866  26.514  29.128  1.00  0.00     0.029 A 
ATOM     47  C   UNL A   1      41.178  26.704  28.510  1.00  0.00     0.049 A 
ATOM     48  H   UNL A   1      42.358  28.419  28.564  1.00  0.00     0.167 HD
ATOM     49  C   UNL A   1      44.700  32.121  28.655  1.00  0.00     0.037 A 
ATOM     50  C   UNL A   1      41.860  25.785  27.798  1.00  0.00     0.037 A 
ATOM     51  C   UNL A   1      45.531  31.178  27.959  1.00  0.00     0.049 A 
ATOM     52  C   UNL A   1      43.201  26.145  27.211  1.00  0.00     0.074 A 
ATOM     53  C   UNL A   1      46.813  31.354  27.470  1.00  0.00     0.029 A 
ATOM     54  N   UNL A   1      45.153  29.882  27.639  1.00  0.00    -0.354 N 
ATOM     55  N   UNL A   1      43.880  27.263  27.313  1.00  0.00    -0.248 NA
ATOM     56  C   UNL A   1      43.871  25.112  26.406  1.00  0.00     0.031 C 
ATOM     57  C   UNL A   1      47.190  30.182  26.805  1.00  0.00     0.029 A 
ATOM     58  C   UNL A   1      46.165  29.258  26.929  1.00  0.00     0.049 A 
ATOM     59  H   UNL A   1      44.293  29.469  27.881  1.00  0.00     0.167 HD
ATOM     60  C   UNL A   1      45.067  27.056  26.619  1.00  0.00     0.074 A 
ATOM     61  C   UNL A   1      45.019  25.704  26.105  1.00  0.00     0.031 C 
ATOM     62  C   UNL A   1      46.107  27.907  26.431  1.00  0.00     0.037 A 
BRANCH  49  63
ATOM     63  C   UNL A   1      45.200  33.523  28.843  1.00  0.00     0.057 A 
ATOM     64  C   UNL A   1      44.968  34.529  27.895  1.00  0.00     0.134 A 
ATOM     65  C   UNL A   1      45.929  33.869  29.988  1.00  0.00     0.134 A 
ATOM     66  F   UNL A   1      44.295  34.257  26.766  1.00  0.00    -0.206 F 
ATOM     67  C   UNL A   1      45.473  35.819  28.062  1.00  0.00     0.040 A 
ATOM     68  C   UNL A   1      46.412  35.163  30.180  1.00  0.00     0.040 A 
ATOM     69  F   UNL A   1      46.185  32.954  30.935  1.00  0.00    -0.206 F 
ATOM     70  C   UNL A   1      46.194  36.140  29.212  1.00  0.00     0.006 A 
ENDBRANCH  49  63
BRANCH  50  71
ATOM     71  C   UNL A   1      41.299  24.423  27.600  1.00  0.00     0.057 A 
ATOM     72  C   UNL A   1      40.255  24.200  26.695  1.00  0.00     0.134 A 
ATOM     73  C   UNL A   1      41.765  23.323  28.329  1.00  0.00     0.134 A 
ATOM     74  F   UNL A   1      39.745  25.221  25.989  1.00  0.00    -0.206 F 
ATOM     75  C   UNL A   1      39.684  22.937  26.530  1.00  0.00     0.040 A 
ATOM     76  C   UNL A   1      41.220  22.049  28.157  1.00  0.00     0.040 A 
ATOM     77  F   UNL A   1      42.759  23.470  29.217  1.00  0.00    -0.206 F 
ATOM     78  C   UNL A   1      40.172  21.855  27.259  1.00  0.00     0.006 A 
ENDBRANCH  50  71
BRANCH  62  79
ATOM     79  C   UNL A   1      47.298  27.391  25.676  1.00  0.00     0.057 A 
ATOM     80  C   UNL A   1      48.314  26.658  26.301  1.00  0.00     0.134 A 
ATOM     81  C   UNL A   1      47.400  27.586  24.292  1.00  0.00     0.134 A 
ATOM     82  F   UNL A   1      48.283  26.445  27.625  1.00  0.00    -0.206 F 
ATOM     83  C   UNL A   1      49.400  26.156  25.581  1.00  0.00     0.040 A 
ATOM     84  C   UNL A   1      48.466  27.065  23.557  1.00  0.00     0.040 A 
ATOM     85  F   UNL A   1      46.454  28.269  23.628  1.00  0.00    -0.206 F 
ATOM     86  C   UNL A   1      49.473  26.352  24.202  1.00  0.00     0.006 A 
ENDBRANCH  62  79
ENDBRANCH  36  37
ENDBRANCH  29  31
ENDBRANCH  28  29
ENDBRANCH  27  28
ENDBRANCH  26  27
ENDBRANCH  25  26
ENDBRANCH  24  25
ENDBRANCH   1  24
TORSDOF 20
ENDMDL
