MODEL 1
REMARK VINA RESULT:     -10.5      0.000      0.000
REMARK SMILES CCOc1cccc(OCC)c1-c1ccc([C@@H](C)C(=O)OCCOCCOCCOC(=O)c2ccc(-c3c4nc(c(-c5c(F)cccc5F)c5ccc([nH]5)c(-c5c(F)cccc5F)c5nc(c(-c6c(F)cccc6F)c6ccc3[nH]6)C=C5)C=C4)cc2)cc1F
REMARK SMILES IDX 25 1 24 2 23 3 22 4 21 5 19 6 20 7 17 8 18 9 16 10 13 11
REMARK SMILES IDX 14 12 88 13 15 14 87 15 89 16 12 17 4 18 5 19 6 20 8 21 7 22
REMARK SMILES IDX 3 23 2 24 1 25 9 26 10 27 11 28 26 29 27 30 28 31 29 32
REMARK SMILES IDX 30 33 31 34 32 35 33 36 34 37 86 38 35 39 85 40 36 41 37 42
REMARK SMILES IDX 38 43 79 44 39 45 84 46 78 47 80 48 40 49 83 50 77 51 76 52
REMARK SMILES IDX 41 54 67 55 50 56 66 57 51 58 54 59 65 60 81 61 52 62 53 63
REMARK SMILES IDX 64 65 82 66 55 67 42 68 43 69 48 70 44 71 45 72 47 73 49 74
REMARK SMILES IDX 46 75 68 76 69 77 74 78 70 79 71 80 73 81 75 82 72 83 56 84
REMARK SMILES IDX 57 85 62 86 58 87 59 88 61 89 63 90 60 91
REMARK H PARENT 80 53 54 64
REMARK Flexibility Score: inf
ROOT
ATOM      1  C   UNL A   1      34.070  32.487  27.821  1.00  0.00     0.188 C 
ENDROOT
BRANCH   1   2
ATOM      2  O   UNL A   1      33.593  31.151  27.910  1.00  0.00    -0.376 OA
BRANCH   2   3
ATOM      3  C   UNL A   1      32.927  30.576  26.795  1.00  0.00     0.202 C 
BRANCH   3   4
ATOM      4  C   UNL A   1      32.446  29.127  26.936  1.00  0.00     0.261 C 
BRANCH   4   5
ATOM      5  O   UNL A   1      31.605  28.662  25.853  1.00  0.00    -0.463 OA
BRANCH   5   6
ATOM      6  C   UNL A   1      32.116  28.785  24.603  1.00  0.00     0.313 C 
ATOM      7  O   UNL A   1      31.528  29.364  23.690  1.00  0.00    -0.252 OA
BRANCH   6   8
ATOM      8  C   UNL A   1      33.452  28.096  24.339  1.00  0.00     0.126 C 
ATOM      9  C   UNL A   1      33.962  28.561  22.974  1.00  0.00     0.025 C 
BRANCH   8  10
ATOM     10  C   UNL A   1      33.674  26.591  24.494  1.00  0.00    -0.031 A 
ATOM     11  C   UNL A   1      33.737  23.713  24.689  1.00  0.00     0.025 A 
ATOM     12  C   UNL A   1      34.111  24.548  25.762  1.00  0.00     0.012 A 
ATOM     13  C   UNL A   1      33.408  24.355  23.493  1.00  0.00     0.131 A 
ATOM     14  C   UNL A   1      34.029  25.954  25.686  1.00  0.00     0.005 A 
ATOM     15  C   UNL A   1      33.386  25.756  23.391  1.00  0.00     0.044 A 
ATOM     16  F   UNL A   1      33.060  23.642  22.412  1.00  0.00    -0.206 F 
BRANCH  11  17
ATOM     17  C   UNL A   1      33.686  22.237  24.858  1.00  0.00     0.069 A 
ATOM     18  C   UNL A   1      32.425  21.578  24.870  1.00  0.00     0.130 A 
ATOM     19  C   UNL A   1      32.286  20.184  24.861  1.00  0.00     0.047 A 
ATOM     20  C   UNL A   1      33.413  19.386  24.849  1.00  0.00     0.008 A 
ATOM     21  C   UNL A   1      34.821  21.397  24.941  1.00  0.00     0.130 A 
ATOM     22  C   UNL A   1      34.660  19.993  24.917  1.00  0.00     0.047 A 
BRANCH  18  23
ATOM     23  O   UNL A   1      31.272  22.307  25.014  1.00  0.00    -0.493 OA
BRANCH  23  24
ATOM     24  C   UNL A   1      31.048  22.712  26.363  1.00  0.00     0.226 C 
ATOM     25  C   UNL A   1      30.310  24.018  26.280  1.00  0.00     0.049 C 
ENDBRANCH  23  24
ENDBRANCH  18  23
BRANCH  21  26
ATOM     26  O   UNL A   1      36.151  21.683  25.077  1.00  0.00    -0.493 OA
BRANCH  26  27
ATOM     27  C   UNL A   1      37.088  21.691  24.017  1.00  0.00     0.226 C 
ATOM     28  C   UNL A   1      36.794  22.886  23.128  1.00  0.00     0.049 C 
ENDBRANCH  26  27
ENDBRANCH  21  26
ENDBRANCH  11  17
ENDBRANCH   8  10
ENDBRANCH   6   8
ENDBRANCH   5   6
ENDBRANCH   4   5
ENDBRANCH   3   4
ENDBRANCH   2   3
ENDBRANCH   1   2
BRANCH   1  29
ATOM     29  C   UNL A   1      33.058  33.642  27.790  1.00  0.00     0.188 C 
BRANCH  29  30
ATOM     30  O   UNL A   1      32.997  34.430  28.968  1.00  0.00    -0.376 OA
BRANCH  30  31
ATOM     31  C   UNL A   1      34.234  34.634  29.636  1.00  0.00     0.202 C 
BRANCH  31  32
ATOM     32  C   UNL A   1      34.270  34.023  31.037  1.00  0.00     0.261 C 
BRANCH  32  33
ATOM     33  O   UNL A   1      34.793  32.680  31.003  1.00  0.00    -0.460 OA
BRANCH  33  34
ATOM     34  C   UNL A   1      35.534  32.262  32.043  1.00  0.00     0.338 C 
ATOM     35  O   UNL A   1      35.328  32.457  33.232  1.00  0.00    -0.246 OA
BRANCH  34  36
ATOM     36  C   UNL A   1      36.667  31.478  31.518  1.00  0.00     0.060 A 
ATOM     37  C   UNL A   1      37.412  30.634  32.354  1.00  0.00     0.016 A 
ATOM     38  C   UNL A   1      37.035  31.641  30.186  1.00  0.00     0.016 A 
ATOM     39  C   UNL A   1      38.544  29.979  31.879  1.00  0.00     0.010 A 
ATOM     40  C   UNL A   1      38.156  30.966  29.700  1.00  0.00     0.010 A 
ATOM     41  C   UNL A   1      38.931  30.154  30.550  1.00  0.00    -0.014 A 
BRANCH  41  42
ATOM     42  C   UNL A   1      40.214  29.611  30.058  1.00  0.00     0.031 A 
ATOM     43  C   UNL A   1      41.386  30.538  29.946  1.00  0.00     0.074 A 
ATOM     44  C   UNL A   1      40.319  28.327  29.678  1.00  0.00     0.049 A 
ATOM     45  N   UNL A   1      42.515  30.375  29.309  1.00  0.00    -0.248 NA
ATOM     46  C   UNL A   1      41.257  31.830  30.638  1.00  0.00     0.031 C 
ATOM     47  C   UNL A   1      39.277  27.311  29.814  1.00  0.00     0.029 A 
ATOM     48  N   UNL A   1      41.353  27.670  29.060  1.00  0.00    -0.354 N 
ATOM     49  C   UNL A   1      43.217  31.559  29.489  1.00  0.00     0.074 A 
ATOM     50  C   UNL A   1      42.387  32.431  30.291  1.00  0.00     0.031 C 
ATOM     51  C   UNL A   1      39.709  26.168  29.257  1.00  0.00     0.029 A 
ATOM     52  C   UNL A   1      41.031  26.391  28.678  1.00  0.00     0.049 A 
ATOM     53  H   UNL A   1      42.238  28.076  28.909  1.00  0.00     0.167 HD
ATOM     54  C   UNL A   1      44.442  31.888  29.016  1.00  0.00     0.037 A 
ATOM     55  C   UNL A   1      41.704  25.526  27.897  1.00  0.00     0.037 A 
ATOM     56  C   UNL A   1      45.261  31.007  28.227  1.00  0.00     0.049 A 
ATOM     57  C   UNL A   1      43.030  25.937  27.317  1.00  0.00     0.074 A 
ATOM     58  C   UNL A   1      46.516  31.238  27.694  1.00  0.00     0.029 A 
ATOM     59  N   UNL A   1      44.899  29.720  27.858  1.00  0.00    -0.354 N 
ATOM     60  N   UNL A   1      43.679  27.069  27.454  1.00  0.00    -0.248 NA
ATOM     61  C   UNL A   1      43.714  24.954  26.466  1.00  0.00     0.031 C 
ATOM     62  C   UNL A   1      46.899  30.103  26.972  1.00  0.00     0.029 A 
ATOM     63  C   UNL A   1      45.900  29.148  27.091  1.00  0.00     0.049 A 
ATOM     64  H   UNL A   1      44.055  29.277  28.105  1.00  0.00     0.167 HD
ATOM     65  C   UNL A   1      44.854  26.927  26.727  1.00  0.00     0.074 A 
ATOM     66  C   UNL A   1      44.833  25.594  26.159  1.00  0.00     0.031 C 
ATOM     67  C   UNL A   1      45.860  27.817  26.544  1.00  0.00     0.037 A 
BRANCH  54  68
ATOM     68  C   UNL A   1      44.941  33.270  29.307  1.00  0.00     0.057 A 
ATOM     69  C   UNL A   1      45.716  33.559  30.438  1.00  0.00     0.134 A 
ATOM     70  C   UNL A   1      44.641  34.330  28.442  1.00  0.00     0.134 A 
ATOM     71  F   UNL A   1      46.019  32.592  31.319  1.00  0.00    -0.206 F 
ATOM     72  C   UNL A   1      46.155  34.855  30.709  1.00  0.00     0.040 A 
ATOM     73  C   UNL A   1      45.095  35.625  28.689  1.00  0.00     0.040 A 
ATOM     74  F   UNL A   1      43.901  34.122  27.343  1.00  0.00    -0.206 F 
ATOM     75  C   UNL A   1      45.849  35.892  29.829  1.00  0.00     0.006 A 
ENDBRANCH  54  68
BRANCH  55  76
ATOM     76  C   UNL A   1      41.111  24.206  27.574  1.00  0.00     0.057 A 
ATOM     77  C   UNL A   1      41.556  23.040  28.206  1.00  0.00     0.134 A 
ATOM     78  C   UNL A   1      40.093  24.076  26.622  1.00  0.00     0.134 A 
ATOM     79  F   UNL A   1      42.546  23.097  29.107  1.00  0.00    -0.206 F 
ATOM     80  C   UNL A   1      41.018  21.789  27.894  1.00  0.00     0.040 A 
ATOM     81  C   UNL A   1      39.529  22.836  26.319  1.00  0.00     0.040 A 
ATOM     82  F   UNL A   1      39.623  25.157  25.982  1.00  0.00    -0.206 F 
ATOM     83  C   UNL A   1      39.996  21.687  26.952  1.00  0.00     0.006 A 
ENDBRANCH  55  76
BRANCH  67  84
ATOM     84  C   UNL A   1      47.037  27.362  25.732  1.00  0.00     0.057 A 
ATOM     85  C   UNL A   1      47.117  27.592  24.354  1.00  0.00     0.134 A 
ATOM     86  C   UNL A   1      48.119  26.719  26.347  1.00  0.00     0.134 A 
ATOM     87  F   UNL A   1      46.107  28.189  23.703  1.00  0.00    -0.206 F 
ATOM     88  C   UNL A   1      48.225  27.181  23.611  1.00  0.00     0.040 A 
ATOM     89  C   UNL A   1      49.242  26.327  25.620  1.00  0.00     0.040 A 
ATOM     90  F   UNL A   1      48.106  26.477  27.667  1.00  0.00    -0.206 F 
ATOM     91  C   UNL A   1      49.295  26.552  24.246  1.00  0.00     0.006 A 
ENDBRANCH  67  84
ENDBRANCH  41  42
ENDBRANCH  34  36
ENDBRANCH  33  34
ENDBRANCH  32  33
ENDBRANCH  31  32
ENDBRANCH  30  31
ENDBRANCH  29  30
ENDBRANCH   1  29
TORSDOF 23
ENDMDL
MODEL 2
REMARK VINA RESULT:     -10.2      4.008      7.934
REMARK SMILES CCOc1cccc(OCC)c1-c1ccc([C@@H](C)C(=O)OCCOCCOCCOC(=O)c2ccc(-c3c4nc(c(-c5c(F)cccc5F)c5ccc([nH]5)c(-c5c(F)cccc5F)c5nc(c(-c6c(F)cccc6F)c6ccc3[nH]6)C=C5)C=C4)cc2)cc1F
REMARK SMILES IDX 25 1 24 2 23 3 22 4 21 5 19 6 20 7 17 8 18 9 16 10 13 11
REMARK SMILES IDX 14 12 88 13 15 14 87 15 89 16 12 17 4 18 5 19 6 20 8 21 7 22
REMARK SMILES IDX 3 23 2 24 1 25 9 26 10 27 11 28 26 29 27 30 28 31 29 32
REMARK SMILES IDX 30 33 31 34 32 35 33 36 34 37 86 38 35 39 85 40 36 41 37 42
REMARK SMILES IDX 38 43 79 44 39 45 84 46 78 47 80 48 40 49 83 50 77 51 76 52
REMARK SMILES IDX 41 54 67 55 50 56 66 57 51 58 54 59 65 60 81 61 52 62 53 63
REMARK SMILES IDX 64 65 82 66 55 67 42 68 43 69 48 70 44 71 45 72 47 73 49 74
REMARK SMILES IDX 46 75 68 76 69 77 74 78 70 79 71 80 73 81 75 82 72 83 56 84
REMARK SMILES IDX 57 85 62 86 58 87 59 88 61 89 63 90 60 91
REMARK H PARENT 80 53 54 64
REMARK Flexibility Score: inf
ROOT
ATOM      1  C   UNL A   1      31.850  27.825  27.621  1.00  0.00     0.188 C 
ENDROOT
BRANCH   1   2
ATOM      2  O   UNL A   1      30.757  27.003  27.233  1.00  0.00    -0.376 OA
BRANCH   2   3
ATOM      3  C   UNL A   1      30.835  26.275  26.015  1.00  0.00     0.202 C 
BRANCH   3   4
ATOM      4  C   UNL A   1      30.080  26.844  24.809  1.00  0.00     0.261 C 
BRANCH   4   5
ATOM      5  O   UNL A   1      30.693  28.011  24.209  1.00  0.00    -0.463 OA
BRANCH   5   6
ATOM      6  C   UNL A   1      31.459  27.787  23.111  1.00  0.00     0.313 C 
ATOM      7  O   UNL A   1      30.991  27.649  21.982  1.00  0.00    -0.252 OA
BRANCH   6   8
ATOM      8  C   UNL A   1      32.959  27.633  23.344  1.00  0.00     0.126 C 
ATOM      9  C   UNL A   1      33.688  28.301  22.177  1.00  0.00     0.025 C 
BRANCH   8  10
ATOM     10  C   UNL A   1      33.632  26.303  23.686  1.00  0.00    -0.031 A 
ATOM     11  C   UNL A   1      34.582  23.634  24.230  1.00  0.00     0.025 A 
ATOM     12  C   UNL A   1      34.603  24.653  25.205  1.00  0.00     0.012 A 
ATOM     13  C   UNL A   1      34.149  24.007  22.956  1.00  0.00     0.131 A 
ATOM     14  C   UNL A   1      34.089  25.942  24.956  1.00  0.00     0.005 A 
ATOM     15  C   UNL A   1      33.694  25.308  22.685  1.00  0.00     0.044 A 
ATOM     16  F   UNL A   1      34.114  23.110  21.960  1.00  0.00    -0.206 F 
BRANCH  11  17
ATOM     17  C   UNL A   1      34.986  22.246  24.575  1.00  0.00     0.069 A 
ATOM     18  C   UNL A   1      33.992  21.231  24.666  1.00  0.00     0.130 A 
ATOM     19  C   UNL A   1      34.294  19.872  24.826  1.00  0.00     0.047 A 
ATOM     20  C   UNL A   1      35.612  19.470  24.908  1.00  0.00     0.008 A 
ATOM     21  C   UNL A   1      36.321  21.818  24.758  1.00  0.00     0.130 A 
ATOM     22  C   UNL A   1      36.605  20.441  24.903  1.00  0.00     0.047 A 
BRANCH  18  23
ATOM     23  O   UNL A   1      32.666  21.574  24.723  1.00  0.00    -0.493 OA
BRANCH  23  24
ATOM     24  C   UNL A   1      32.227  21.840  26.054  1.00  0.00     0.226 C 
ATOM     25  C   UNL A   1      30.917  22.564  25.914  1.00  0.00     0.049 C 
ENDBRANCH  23  24
ENDBRANCH  18  23
BRANCH  21  26
ATOM     26  O   UNL A   1      37.491  22.519  24.859  1.00  0.00    -0.493 OA
BRANCH  26  27
ATOM     27  C   UNL A   1      38.001  23.071  26.058  1.00  0.00     0.226 C 
ATOM     28  C   UNL A   1      39.325  22.396  26.369  1.00  0.00     0.049 C 
ENDBRANCH  26  27
ENDBRANCH  21  26
ENDBRANCH  11  17
ENDBRANCH   8  10
ENDBRANCH   6   8
ENDBRANCH   5   6
ENDBRANCH   4   5
ENDBRANCH   3   4
ENDBRANCH   2   3
ENDBRANCH   1   2
BRANCH   1  29
ATOM     29  C   UNL A   1      32.201  29.054  26.769  1.00  0.00     0.188 C 
BRANCH  29  30
ATOM     30  O   UNL A   1      31.388  30.196  26.983  1.00  0.00    -0.376 OA
BRANCH  30  31
ATOM     31  C   UNL A   1      31.684  31.323  26.170  1.00  0.00     0.202 C 
BRANCH  31  32
ATOM     32  C   UNL A   1      31.711  32.637  26.948  1.00  0.00     0.261 C 
BRANCH  32  33
ATOM     33  O   UNL A   1      33.031  32.913  27.455  1.00  0.00    -0.460 OA
BRANCH  33  34
ATOM     34  C   UNL A   1      33.185  33.954  28.291  1.00  0.00     0.338 C 
ATOM     35  O   UNL A   1      32.453  34.925  28.417  1.00  0.00    -0.246 OA
BRANCH  34  36
ATOM     36  C   UNL A   1      34.407  33.732  29.085  1.00  0.00     0.060 A 
ATOM     37  C   UNL A   1      35.633  34.292  28.697  1.00  0.00     0.016 A 
ATOM     38  C   UNL A   1      34.344  32.896  30.195  1.00  0.00     0.016 A 
ATOM     39  C   UNL A   1      36.804  33.994  29.388  1.00  0.00     0.010 A 
ATOM     40  C   UNL A   1      35.512  32.615  30.905  1.00  0.00     0.010 A 
ATOM     41  C   UNL A   1      36.751  33.139  30.489  1.00  0.00    -0.014 A 
BRANCH  41  42
ATOM     42  C   UNL A   1      37.990  32.670  31.143  1.00  0.00     0.031 A 
ATOM     43  C   UNL A   1      38.702  31.488  30.558  1.00  0.00     0.074 A 
ATOM     44  C   UNL A   1      38.446  33.258  32.261  1.00  0.00     0.049 A 
ATOM     45  N   UNL A   1      39.635  30.738  31.082  1.00  0.00    -0.248 NA
ATOM     46  C   UNL A   1      38.294  31.093  29.200  1.00  0.00     0.031 C 
ATOM     47  C   UNL A   1      37.889  34.460  32.878  1.00  0.00     0.029 A 
ATOM     48  N   UNL A   1      39.471  32.892  33.097  1.00  0.00    -0.354 N 
ATOM     49  C   UNL A   1      39.899  29.758  30.135  1.00  0.00     0.074 A 
ATOM     50  C   UNL A   1      39.028  30.006  29.008  1.00  0.00     0.031 C 
ATOM     51  C   UNL A   1      38.551  34.709  34.019  1.00  0.00     0.029 A 
ATOM     52  C   UNL A   1      39.537  33.654  34.237  1.00  0.00     0.049 A 
ATOM     53  H   UNL A   1      40.096  32.157  32.898  1.00  0.00     0.167 HD
ATOM     54  C   UNL A   1      40.785  28.737  30.209  1.00  0.00     0.037 A 
ATOM     55  C   UNL A   1      40.269  33.479  35.353  1.00  0.00     0.037 A 
ATOM     56  C   UNL A   1      41.652  28.506  31.334  1.00  0.00     0.049 A 
ATOM     57  C   UNL A   1      41.192  32.295  35.449  1.00  0.00     0.074 A 
ATOM     58  C   UNL A   1      42.585  27.502  31.515  1.00  0.00     0.029 A 
ATOM     59  N   UNL A   1      41.688  29.299  32.472  1.00  0.00    -0.354 N 
ATOM     60  N   UNL A   1      41.416  31.346  34.572  1.00  0.00    -0.248 NA
ATOM     61  C   UNL A   1      41.959  32.153  36.695  1.00  0.00     0.031 C 
ATOM     62  C   UNL A   1      43.161  27.666  32.779  1.00  0.00     0.029 A 
ATOM     63  C   UNL A   1      42.618  28.799  33.367  1.00  0.00     0.049 A 
ATOM     64  H   UNL A   1      41.136  30.100  32.621  1.00  0.00     0.167 HD
ATOM     65  C   UNL A   1      42.362  30.508  35.149  1.00  0.00     0.074 A 
ATOM     66  C   UNL A   1      42.678  31.068  36.447  1.00  0.00     0.031 C 
ATOM     67  C   UNL A   1      42.920  29.377  34.651  1.00  0.00     0.037 A 
BRANCH  54  68
ATOM     68  C   UNL A   1      40.820  27.776  29.061  1.00  0.00     0.057 A 
ATOM     69  C   UNL A   1      41.747  27.898  28.017  1.00  0.00     0.134 A 
ATOM     70  C   UNL A   1      39.913  26.710  28.999  1.00  0.00     0.134 A 
ATOM     71  F   UNL A   1      42.628  28.910  28.006  1.00  0.00    -0.206 F 
ATOM     72  C   UNL A   1      41.754  27.008  26.942  1.00  0.00     0.040 A 
ATOM     73  C   UNL A   1      39.928  25.800  27.941  1.00  0.00     0.040 A 
ATOM     74  F   UNL A   1      38.999  26.537  29.965  1.00  0.00    -0.206 F 
ATOM     75  C   UNL A   1      40.846  25.952  26.905  1.00  0.00     0.006 A 
ENDBRANCH  54  68
BRANCH  55  76
ATOM     76  C   UNL A   1      40.118  34.419  36.491  1.00  0.00     0.057 A 
ATOM     77  C   UNL A   1      39.203  34.169  37.518  1.00  0.00     0.134 A 
ATOM     78  C   UNL A   1      40.877  35.593  36.573  1.00  0.00     0.134 A 
ATOM     79  F   UNL A   1      38.430  33.075  37.482  1.00  0.00    -0.206 F 
ATOM     80  C   UNL A   1      39.038  35.058  38.582  1.00  0.00     0.040 A 
ATOM     81  C   UNL A   1      40.740  36.479  37.643  1.00  0.00     0.040 A 
ATOM     82  F   UNL A   1      41.771  35.889  35.618  1.00  0.00    -0.206 F 
ATOM     83  C   UNL A   1      39.815  36.214  38.649  1.00  0.00     0.006 A 
ENDBRANCH  55  76
BRANCH  67  84
ATOM     84  C   UNL A   1      43.958  28.698  35.494  1.00  0.00     0.057 A 
ATOM     85  C   UNL A   1      45.313  29.038  35.416  1.00  0.00     0.134 A 
ATOM     86  C   UNL A   1      43.587  27.718  36.424  1.00  0.00     0.134 A 
ATOM     87  F   UNL A   1      45.734  29.959  34.536  1.00  0.00    -0.206 F 
ATOM     88  C   UNL A   1      46.268  28.413  36.220  1.00  0.00     0.040 A 
ATOM     89  C   UNL A   1      44.529  27.104  37.250  1.00  0.00     0.040 A 
ATOM     90  F   UNL A   1      42.302  27.353  36.554  1.00  0.00    -0.206 F 
ATOM     91  C   UNL A   1      45.875  27.447  37.145  1.00  0.00     0.006 A 
ENDBRANCH  67  84
ENDBRANCH  41  42
ENDBRANCH  34  36
ENDBRANCH  33  34
ENDBRANCH  32  33
ENDBRANCH  31  32
ENDBRANCH  30  31
ENDBRANCH  29  30
ENDBRANCH   1  29
TORSDOF 23
ENDMDL
MODEL 3
REMARK VINA RESULT:      -9.5      3.509      5.882
REMARK SMILES CCOc1cccc(OCC)c1-c1ccc([C@@H](C)C(=O)OCCOCCOCCOC(=O)c2ccc(-c3c4nc(c(-c5c(F)cccc5F)c5ccc([nH]5)c(-c5c(F)cccc5F)c5nc(c(-c6c(F)cccc6F)c6ccc3[nH]6)C=C5)C=C4)cc2)cc1F
REMARK SMILES IDX 25 1 24 2 23 3 22 4 21 5 19 6 20 7 17 8 18 9 16 10 13 11
REMARK SMILES IDX 14 12 88 13 15 14 87 15 89 16 12 17 4 18 5 19 6 20 8 21 7 22
REMARK SMILES IDX 3 23 2 24 1 25 9 26 10 27 11 28 26 29 27 30 28 31 29 32
REMARK SMILES IDX 30 33 31 34 32 35 33 36 34 37 86 38 35 39 85 40 36 41 37 42
REMARK SMILES IDX 38 43 79 44 39 45 84 46 78 47 80 48 40 49 83 50 77 51 76 52
REMARK SMILES IDX 41 54 67 55 50 56 66 57 51 58 54 59 65 60 81 61 52 62 53 63
REMARK SMILES IDX 64 65 82 66 55 67 42 68 43 69 48 70 44 71 45 72 47 73 49 74
REMARK SMILES IDX 46 75 68 76 69 77 74 78 70 79 71 80 73 81 75 82 72 83 56 84
REMARK SMILES IDX 57 85 62 86 58 87 59 88 61 89 63 90 60 91
REMARK H PARENT 80 53 54 64
REMARK Flexibility Score: inf
ROOT
ATOM      1  C   UNL A   1      31.670  26.555  27.019  1.00  0.00     0.188 C 
ENDROOT
BRANCH   1   2
ATOM      2  O   UNL A   1      30.317  26.350  26.633  1.00  0.00    -0.376 OA
BRANCH   2   3
ATOM      3  C   UNL A   1      30.039  25.719  25.390  1.00  0.00     0.202 C 
BRANCH   3   4
ATOM      4  C   UNL A   1      29.604  26.620  24.229  1.00  0.00     0.261 C 
BRANCH   4   5
ATOM      5  O   UNL A   1      30.592  27.595  23.819  1.00  0.00    -0.463 OA
BRANCH   5   6
ATOM      6  C   UNL A   1      31.408  27.228  22.799  1.00  0.00     0.313 C 
ATOM      7  O   UNL A   1      31.017  27.091  21.641  1.00  0.00    -0.252 OA
BRANCH   6   8
ATOM      8  C   UNL A   1      32.856  26.910  23.162  1.00  0.00     0.126 C 
ATOM      9  C   UNL A   1      33.760  27.564  22.115  1.00  0.00     0.025 C 
BRANCH   8  10
ATOM     10  C   UNL A   1      33.360  25.501  23.479  1.00  0.00    -0.031 A 
ATOM     11  C   UNL A   1      34.588  23.010  24.258  1.00  0.00     0.025 A 
ATOM     12  C   UNL A   1      34.312  23.323  22.912  1.00  0.00     0.012 A 
ATOM     13  C   UNL A   1      34.161  23.940  25.208  1.00  0.00     0.131 A 
ATOM     14  C   UNL A   1      33.762  24.563  22.525  1.00  0.00     0.005 A 
ATOM     15  C   UNL A   1      33.554  25.150  24.834  1.00  0.00     0.044 A 
ATOM     16  F   UNL A   1      34.362  23.717  26.516  1.00  0.00    -0.206 F 
BRANCH  11  17
ATOM     17  C   UNL A   1      35.312  21.761  24.613  1.00  0.00     0.069 A 
ATOM     18  C   UNL A   1      34.607  20.525  24.628  1.00  0.00     0.130 A 
ATOM     19  C   UNL A   1      35.236  19.283  24.792  1.00  0.00     0.047 A 
ATOM     20  C   UNL A   1      36.605  19.228  24.955  1.00  0.00     0.008 A 
ATOM     21  C   UNL A   1      36.699  21.682  24.877  1.00  0.00     0.130 A 
ATOM     22  C   UNL A   1      37.317  20.419  25.025  1.00  0.00     0.047 A 
BRANCH  18  23
ATOM     23  O   UNL A   1      33.236  20.518  24.603  1.00  0.00    -0.493 OA
BRANCH  23  24
ATOM     24  C   UNL A   1      32.700  19.207  24.435  1.00  0.00     0.226 C 
ATOM     25  C   UNL A   1      32.156  19.164  23.035  1.00  0.00     0.049 C 
ENDBRANCH  23  24
ENDBRANCH  18  23
BRANCH  21  26
ATOM     26  O   UNL A   1      37.643  22.654  25.061  1.00  0.00    -0.493 OA
BRANCH  26  27
ATOM     27  C   UNL A   1      38.564  22.693  26.134  1.00  0.00     0.226 C 
ATOM     28  C   UNL A   1      38.796  24.145  26.513  1.00  0.00     0.049 C 
ENDBRANCH  26  27
ENDBRANCH  21  26
ENDBRANCH  11  17
ENDBRANCH   8  10
ENDBRANCH   6   8
ENDBRANCH   5   6
ENDBRANCH   4   5
ENDBRANCH   3   4
ENDBRANCH   2   3
ENDBRANCH   1   2
BRANCH   1  29
ATOM     29  C   UNL A   1      32.295  27.947  26.844  1.00  0.00     0.188 C 
BRANCH  29  30
ATOM     30  O   UNL A   1      31.380  28.996  26.568  1.00  0.00    -0.376 OA
BRANCH  30  31
ATOM     31  C   UNL A   1      31.906  30.093  25.835  1.00  0.00     0.202 C 
BRANCH  31  32
ATOM     32  C   UNL A   1      31.855  31.412  26.605  1.00  0.00     0.261 C 
BRANCH  32  33
ATOM     33  O   UNL A   1      33.109  32.117  26.507  1.00  0.00    -0.460 OA
BRANCH  33  34
ATOM     34  C   UNL A   1      33.559  32.766  27.595  1.00  0.00     0.338 C 
ATOM     35  O   UNL A   1      33.094  33.773  28.109  1.00  0.00    -0.246 OA
BRANCH  34  36
ATOM     36  C   UNL A   1      34.730  32.037  28.116  1.00  0.00     0.060 A 
ATOM     37  C   UNL A   1      34.689  30.650  28.315  1.00  0.00     0.016 A 
ATOM     38  C   UNL A   1      35.864  32.759  28.476  1.00  0.00     0.016 A 
ATOM     39  C   UNL A   1      35.758  29.981  28.905  1.00  0.00     0.010 A 
ATOM     40  C   UNL A   1      36.947  32.089  29.045  1.00  0.00     0.010 A 
ATOM     41  C   UNL A   1      36.889  30.703  29.288  1.00  0.00    -0.014 A 
BRANCH  41  42
ATOM     42  C   UNL A   1      37.969  30.059  30.064  1.00  0.00     0.031 A 
ATOM     43  C   UNL A   1      38.191  30.500  31.480  1.00  0.00     0.074 A 
ATOM     44  C   UNL A   1      38.763  29.132  29.504  1.00  0.00     0.049 A 
ATOM     45  N   UNL A   1      39.213  30.287  32.264  1.00  0.00    -0.248 NA
ATOM     46  C   UNL A   1      37.115  31.300  32.085  1.00  0.00     0.031 C 
ATOM     47  C   UNL A   1      38.597  28.565  28.167  1.00  0.00     0.029 A 
ATOM     48  N   UNL A   1      39.898  28.532  29.989  1.00  0.00    -0.354 N 
ATOM     49  C   UNL A   1      38.924  30.960  33.443  1.00  0.00     0.074 A 
ATOM     50  C   UNL A   1      37.633  31.589  33.270  1.00  0.00     0.031 C 
ATOM     51  C   UNL A   1      39.619  27.729  27.921  1.00  0.00     0.029 A 
ATOM     52  C   UNL A   1      40.535  27.748  29.058  1.00  0.00     0.049 A 
ATOM     53  H   UNL A   1      40.221  28.650  30.912  1.00  0.00     0.167 HD
ATOM     54  C   UNL A   1      39.677  31.051  34.564  1.00  0.00     0.037 A 
ATOM     55  C   UNL A   1      41.748  27.167  29.102  1.00  0.00     0.037 A 
ATOM     56  C   UNL A   1      40.955  30.413  34.726  1.00  0.00     0.049 A 
ATOM     57  C   UNL A   1      42.603  27.341  30.327  1.00  0.00     0.074 A 
ATOM     58  C   UNL A   1      41.804  30.439  35.818  1.00  0.00     0.029 A 
ATOM     59  N   UNL A   1      41.569  29.629  33.760  1.00  0.00    -0.354 N 
ATOM     60  N   UNL A   1      42.349  28.008  31.427  1.00  0.00    -0.248 NA
ATOM     61  C   UNL A   1      43.921  26.689  30.312  1.00  0.00     0.031 C 
ATOM     62  C   UNL A   1      42.948  29.701  35.498  1.00  0.00     0.029 A 
ATOM     63  C   UNL A   1      42.793  29.178  34.223  1.00  0.00     0.049 A 
ATOM     64  H   UNL A   1      41.191  29.423  32.875  1.00  0.00     0.167 HD
ATOM     65  C   UNL A   1      43.460  27.839  32.243  1.00  0.00     0.074 A 
ATOM     66  C   UNL A   1      44.387  26.997  31.514  1.00  0.00     0.031 C 
ATOM     67  C   UNL A   1      43.695  28.334  33.483  1.00  0.00     0.037 A 
BRANCH  54  68
ATOM     68  C   UNL A   1      39.149  31.905  35.676  1.00  0.00     0.057 A 
ATOM     69  C   UNL A   1      39.495  33.256  35.804  1.00  0.00     0.134 A 
ATOM     70  C   UNL A   1      38.281  31.366  36.634  1.00  0.00     0.134 A 
ATOM     71  F   UNL A   1      40.341  33.827  34.932  1.00  0.00    -0.206 F 
ATOM     72  C   UNL A   1      39.014  34.035  36.858  1.00  0.00     0.040 A 
ATOM     73  C   UNL A   1      37.774  32.141  37.678  1.00  0.00     0.040 A 
ATOM     74  F   UNL A   1      37.912  30.078  36.571  1.00  0.00    -0.206 F 
ATOM     75  C   UNL A   1      38.146  33.478  37.796  1.00  0.00     0.006 A 
ENDBRANCH  54  68
BRANCH  55  76
ATOM     76  C   UNL A   1      42.247  26.409  27.928  1.00  0.00     0.057 A 
ATOM     77  C   UNL A   1      42.943  27.049  26.898  1.00  0.00     0.134 A 
ATOM     78  C   UNL A   1      42.032  25.031  27.803  1.00  0.00     0.134 A 
ATOM     79  F   UNL A   1      43.157  28.372  26.948  1.00  0.00    -0.206 F 
ATOM     80  C   UNL A   1      43.398  26.349  25.779  1.00  0.00     0.040 A 
ATOM     81  C   UNL A   1      42.502  24.314  26.702  1.00  0.00     0.040 A 
ATOM     82  F   UNL A   1      41.370  24.360  28.758  1.00  0.00    -0.206 F 
ATOM     83  C   UNL A   1      43.183  24.975  25.683  1.00  0.00     0.006 A 
ENDBRANCH  55  76
BRANCH  67  84
ATOM     84  C   UNL A   1      44.984  27.943  34.143  1.00  0.00     0.057 A 
ATOM     85  C   UNL A   1      46.140  28.723  34.026  1.00  0.00     0.134 A 
ATOM     86  C   UNL A   1      45.055  26.792  34.937  1.00  0.00     0.134 A 
ATOM     87  F   UNL A   1      46.141  29.831  33.269  1.00  0.00    -0.206 F 
ATOM     88  C   UNL A   1      47.330  28.361  34.660  1.00  0.00     0.040 A 
ATOM     89  C   UNL A   1      46.231  26.432  35.595  1.00  0.00     0.040 A 
ATOM     90  F   UNL A   1      43.979  26.006  35.096  1.00  0.00    -0.206 F 
ATOM     91  C   UNL A   1      47.375  27.215  35.453  1.00  0.00     0.006 A 
ENDBRANCH  67  84
ENDBRANCH  41  42
ENDBRANCH  34  36
ENDBRANCH  33  34
ENDBRANCH  32  33
ENDBRANCH  31  32
ENDBRANCH  30  31
ENDBRANCH  29  30
ENDBRANCH   1  29
TORSDOF 23
ENDMDL
