MODEL 1
REMARK VINA RESULT:     -10.5      0.000      0.000
REMARK SMILES Cn1cc(NC(=O)N2Cc3nc[nH]c3C[C@@H]2C(=O)OCCOCCOCCOC(=O)c2ccc(-c3c4nc(c(-c5c(F)cccc5F)c5ccc([nH]5)c(-c5c(F)cccc5F)c5nc(c(-c6c(F)cccc6F)c6ccc3[nH]6)C=C5)C=C4)cc2)cn1
REMARK SMILES IDX 23 1 22 2 21 3 20 4 19 5 17 6 18 7 16 8 8 9 9 10 10 11 15 12
REMARK SMILES IDX 11 13 14 14 12 15 13 16 6 18 5 19 7 21 4 22 1 23 2 24 3 25
REMARK SMILES IDX 86 26 85 27 24 28 25 29 26 30 27 31 28 32 29 33 30 34 31 35
REMARK SMILES IDX 32 36 84 37 33 38 83 39 34 40 35 41 36 42 77 43 37 44 82 45
REMARK SMILES IDX 76 46 78 47 38 48 81 49 75 50 74 51 39 53 65 54 48 55 64 56
REMARK SMILES IDX 49 57 52 58 63 59 79 60 50 61 51 62 62 64 80 65 53 66 40 67
REMARK SMILES IDX 41 68 46 69 42 70 43 71 45 72 47 73 44 74 66 75 67 76 72 77
REMARK SMILES IDX 68 78 69 79 71 80 73 81 70 82 54 83 55 84 60 85 56 86 57 87
REMARK SMILES IDX 59 88 61 89 58 90
REMARK H PARENT 13 17 5 20 78 52 52 63
REMARK Flexibility Score: inf
ROOT
ATOM      1  C   UNL A   1      33.072  29.715  26.059  1.00  0.00     0.188 C 
ENDROOT
BRANCH   1   2
ATOM      2  O   UNL A   1      31.954  28.855  26.253  1.00  0.00    -0.376 OA
BRANCH   2   3
ATOM      3  C   UNL A   1      32.240  27.673  27.010  1.00  0.00     0.202 C 
BRANCH   3   4
ATOM      4  C   UNL A   1      31.820  26.357  26.334  1.00  0.00     0.261 C 
BRANCH   4   5
ATOM      5  O   UNL A   1      32.726  25.979  25.284  1.00  0.00    -0.462 OA
BRANCH   5   6
ATOM      6  C   UNL A   1      32.321  25.073  24.351  1.00  0.00     0.329 C 
ATOM      7  O   UNL A   1      31.376  25.230  23.595  1.00  0.00    -0.250 OA
BRANCH   6   8
ATOM      8  C   UNL A   1      33.283  23.872  24.396  1.00  0.00     0.203 C 
ATOM      9  N   UNL A   1      33.235  23.128  25.700  1.00  0.00    -0.304 N 
ATOM     10  C   UNL A   1      34.385  23.149  26.617  1.00  0.00     0.180 C 
ATOM     11  C   UNL A   1      35.613  22.993  25.792  1.00  0.00     0.081 A 
ATOM     12  C   UNL A   1      34.680  24.361  23.908  1.00  0.00     0.093 C 
ATOM     13  N   UNL A   1      36.709  22.226  26.077  1.00  0.00    -0.240 NA
ATOM     14  C   UNL A   1      35.732  23.550  24.543  1.00  0.00     0.042 A 
ATOM     15  C   UNL A   1      37.485  22.332  25.016  1.00  0.00     0.197 A 
ATOM     16  N   UNL A   1      36.933  23.139  24.053  1.00  0.00    -0.348 N 
ATOM     17  H   UNL A   1      37.327  23.374  23.183  1.00  0.00     0.167 HD
BRANCH   9  18
ATOM     18  C   UNL A   1      32.086  22.543  26.167  1.00  0.00     0.323 C 
ATOM     19  N   UNL A   1      31.581  21.449  25.525  1.00  0.00    -0.305 N 
ATOM     20  H   UNL A   1      30.612  21.438  25.359  1.00  0.00     0.171 HD
ATOM     21  O   UNL A   1      31.489  22.975  27.153  1.00  0.00    -0.248 OA
BRANCH  19  22
ATOM     22  C   UNL A   1      32.306  20.352  25.086  1.00  0.00     0.081 A 
ATOM     23  C   UNL A   1      33.063  17.695  22.769  1.00  0.00     0.173 C 
ATOM     24  N   UNL A   1      32.958  18.683  23.816  1.00  0.00    -0.274 N 
ATOM     25  C   UNL A   1      32.164  19.795  23.833  1.00  0.00     0.134 A 
ATOM     26  N   UNL A   1      33.668  18.520  24.945  1.00  0.00    -0.180 NA
ATOM     27  C   UNL A   1      33.225  19.500  25.740  1.00  0.00     0.161 A 
ENDBRANCH  19  22
ENDBRANCH   9  18
ENDBRANCH   6   8
ENDBRANCH   5   6
ENDBRANCH   4   5
ENDBRANCH   3   4
ENDBRANCH   2   3
ENDBRANCH   1   2
BRANCH   1  28
ATOM     28  C   UNL A   1      33.710  30.250  27.358  1.00  0.00     0.188 C 
BRANCH  28  29
ATOM     29  O   UNL A   1      34.510  31.425  27.312  1.00  0.00    -0.376 OA
BRANCH  29  30
ATOM     30  C   UNL A   1      34.262  32.468  28.258  1.00  0.00     0.202 C 
BRANCH  30  31
ATOM     31  C   UNL A   1      35.010  32.448  29.592  1.00  0.00     0.261 C 
BRANCH  31  32
ATOM     32  O   UNL A   1      36.285  31.798  29.499  1.00  0.00    -0.460 OA
BRANCH  32  33
ATOM     33  C   UNL A   1      36.428  30.770  30.362  1.00  0.00     0.338 C 
ATOM     34  O   UNL A   1      36.020  30.711  31.511  1.00  0.00    -0.246 OA
BRANCH  33  35
ATOM     35  C   UNL A   1      37.065  29.609  29.724  1.00  0.00     0.060 A 
ATOM     36  C   UNL A   1      37.536  28.619  30.595  1.00  0.00     0.016 A 
ATOM     37  C   UNL A   1      37.444  29.641  28.382  1.00  0.00     0.016 A 
ATOM     38  C   UNL A   1      38.595  27.826  30.201  1.00  0.00     0.010 A 
ATOM     39  C   UNL A   1      38.495  28.825  27.980  1.00  0.00     0.010 A 
ATOM     40  C   UNL A   1      39.156  28.045  28.943  1.00  0.00    -0.014 A 
BRANCH  40  41
ATOM     41  C   UNL A   1      40.576  27.696  28.804  1.00  0.00     0.031 A 
ATOM     42  C   UNL A   1      40.949  26.387  28.207  1.00  0.00     0.074 A 
ATOM     43  C   UNL A   1      41.529  28.565  29.209  1.00  0.00     0.049 A 
ATOM     44  N   UNL A   1      41.813  25.521  28.640  1.00  0.00    -0.248 NA
ATOM     45  C   UNL A   1      40.268  25.993  26.966  1.00  0.00     0.031 C 
ATOM     46  C   UNL A   1      41.338  29.955  29.646  1.00  0.00     0.029 A 
ATOM     47  N   UNL A   1      42.890  28.433  29.190  1.00  0.00    -0.354 N 
ATOM     48  C   UNL A   1      41.923  24.563  27.638  1.00  0.00     0.074 A 
ATOM     49  C   UNL A   1      40.899  24.858  26.666  1.00  0.00     0.031 C 
ATOM     50  C   UNL A   1      42.518  30.602  29.588  1.00  0.00     0.029 A 
ATOM     51  C   UNL A   1      43.554  29.649  29.238  1.00  0.00     0.049 A 
ATOM     52  H   UNL A   1      43.351  27.564  29.148  1.00  0.00     0.167 HD
ATOM     53  C   UNL A   1      42.957  23.683  27.555  1.00  0.00     0.037 A 
ATOM     54  C   UNL A   1      44.842  29.897  28.917  1.00  0.00     0.037 A 
ATOM     55  C   UNL A   1      43.633  23.465  28.798  1.00  0.00     0.049 A 
ATOM     56  C   UNL A   1      45.602  28.631  28.967  1.00  0.00     0.074 A 
ATOM     57  C   UNL A   1      43.272  22.971  30.036  1.00  0.00     0.029 A 
ATOM     58  N   UNL A   1      44.899  23.965  28.961  1.00  0.00    -0.354 N 
ATOM     59  N   UNL A   1      45.924  27.998  30.060  1.00  0.00    -0.248 NA
ATOM     60  C   UNL A   1      45.753  27.869  27.737  1.00  0.00     0.031 C 
ATOM     61  C   UNL A   1      44.152  23.587  30.971  1.00  0.00     0.029 A 
ATOM     62  C   UNL A   1      44.977  24.444  30.243  1.00  0.00     0.049 A 
ATOM     63  H   UNL A   1      45.616  23.977  28.286  1.00  0.00     0.167 HD
ATOM     64  C   UNL A   1      45.934  26.660  29.701  1.00  0.00     0.074 A 
ATOM     65  C   UNL A   1      45.967  26.655  28.246  1.00  0.00     0.031 C 
ATOM     66  C   UNL A   1      45.622  25.685  30.603  1.00  0.00     0.037 A 
BRANCH  53  67
ATOM     67  C   UNL A   1      43.507  23.219  26.237  1.00  0.00     0.057 A 
ATOM     68  C   UNL A   1      43.511  21.859  25.895  1.00  0.00     0.134 A 
ATOM     69  C   UNL A   1      44.257  24.065  25.396  1.00  0.00     0.134 A 
ATOM     70  F   UNL A   1      42.885  20.955  26.664  1.00  0.00    -0.206 F 
ATOM     71  C   UNL A   1      44.211  21.375  24.783  1.00  0.00     0.040 A 
ATOM     72  C   UNL A   1      44.921  23.601  24.258  1.00  0.00     0.040 A 
ATOM     73  F   UNL A   1      44.441  25.359  25.688  1.00  0.00    -0.206 F 
ATOM     74  C   UNL A   1      44.911  22.248  23.955  1.00  0.00     0.006 A 
ENDBRANCH  53  67
BRANCH  54  75
ATOM     75  C   UNL A   1      45.383  31.137  28.323  1.00  0.00     0.057 A 
ATOM     76  C   UNL A   1      46.462  31.816  28.898  1.00  0.00     0.134 A 
ATOM     77  C   UNL A   1      44.986  31.573  27.043  1.00  0.00     0.134 A 
ATOM     78  F   UNL A   1      46.950  31.434  30.086  1.00  0.00    -0.206 F 
ATOM     79  C   UNL A   1      47.101  32.877  28.245  1.00  0.00     0.040 A 
ATOM     80  C   UNL A   1      45.602  32.641  26.389  1.00  0.00     0.040 A 
ATOM     81  F   UNL A   1      44.037  30.925  26.351  1.00  0.00    -0.206 F 
ATOM     82  C   UNL A   1      46.671  33.295  26.988  1.00  0.00     0.006 A 
ENDBRANCH  54  75
BRANCH  66  83
ATOM     83  C   UNL A   1      45.614  26.061  32.056  1.00  0.00     0.057 A 
ATOM     84  C   UNL A   1      46.745  25.962  32.878  1.00  0.00     0.134 A 
ATOM     85  C   UNL A   1      44.478  26.668  32.602  1.00  0.00     0.134 A 
ATOM     86  F   UNL A   1      47.904  25.486  32.400  1.00  0.00    -0.206 F 
ATOM     87  C   UNL A   1      46.730  26.403  34.203  1.00  0.00     0.040 A 
ATOM     88  C   UNL A   1      44.460  27.139  33.917  1.00  0.00     0.040 A 
ATOM     89  F   UNL A   1      43.381  26.855  31.851  1.00  0.00    -0.206 F 
ATOM     90  C   UNL A   1      45.585  26.997  34.726  1.00  0.00     0.006 A 
ENDBRANCH  66  83
ENDBRANCH  40  41
ENDBRANCH  33  35
ENDBRANCH  32  33
ENDBRANCH  31  32
ENDBRANCH  30  31
ENDBRANCH  29  30
ENDBRANCH  28  29
ENDBRANCH   1  28
TORSDOF 19
ENDMDL
MODEL 2
REMARK VINA RESULT:     -10.4      2.584      6.555
REMARK SMILES Cn1cc(NC(=O)N2Cc3nc[nH]c3C[C@@H]2C(=O)OCCOCCOCCOC(=O)c2ccc(-c3c4nc(c(-c5c(F)cccc5F)c5ccc([nH]5)c(-c5c(F)cccc5F)c5nc(c(-c6c(F)cccc6F)c6ccc3[nH]6)C=C5)C=C4)cc2)cn1
REMARK SMILES IDX 23 1 22 2 21 3 20 4 19 5 17 6 18 7 16 8 8 9 9 10 10 11 15 12
REMARK SMILES IDX 11 13 14 14 12 15 13 16 6 18 5 19 7 21 4 22 1 23 2 24 3 25
REMARK SMILES IDX 86 26 85 27 24 28 25 29 26 30 27 31 28 32 29 33 30 34 31 35
REMARK SMILES IDX 32 36 84 37 33 38 83 39 34 40 35 41 36 42 77 43 37 44 82 45
REMARK SMILES IDX 76 46 78 47 38 48 81 49 75 50 74 51 39 53 65 54 48 55 64 56
REMARK SMILES IDX 49 57 52 58 63 59 79 60 50 61 51 62 62 64 80 65 53 66 40 67
REMARK SMILES IDX 41 68 46 69 42 70 43 71 45 72 47 73 44 74 66 75 67 76 72 77
REMARK SMILES IDX 68 78 69 79 71 80 73 81 70 82 54 83 55 84 60 85 56 86 57 87
REMARK SMILES IDX 59 88 61 89 58 90
REMARK H PARENT 13 17 5 20 78 52 52 63
REMARK Flexibility Score: inf
ROOT
ATOM      1  C   UNL A   1      35.735  31.657  27.985  1.00  0.00     0.188 C 
ENDROOT
BRANCH   1   2
ATOM      2  O   UNL A   1      35.033  30.446  28.247  1.00  0.00    -0.376 OA
BRANCH   2   3
ATOM      3  C   UNL A   1      35.286  29.399  27.302  1.00  0.00     0.202 C 
BRANCH   3   4
ATOM      4  C   UNL A   1      34.031  28.821  26.628  1.00  0.00     0.261 C 
BRANCH   4   5
ATOM      5  O   UNL A   1      34.247  27.483  26.147  1.00  0.00    -0.462 OA
BRANCH   5   6
ATOM      6  C   UNL A   1      33.686  27.103  24.966  1.00  0.00     0.329 C 
ATOM      7  O   UNL A   1      34.074  26.172  24.279  1.00  0.00    -0.250 OA
BRANCH   6   8
ATOM      8  C   UNL A   1      32.473  28.014  24.694  1.00  0.00     0.203 C 
ATOM      9  N   UNL A   1      31.159  27.345  24.982  1.00  0.00    -0.304 N 
ATOM     10  C   UNL A   1      30.231  27.017  23.889  1.00  0.00     0.180 C 
ATOM     11  C   UNL A   1      30.213  28.179  22.959  1.00  0.00     0.081 A 
ATOM     12  C   UNL A   1      32.656  28.643  23.280  1.00  0.00     0.093 C 
ATOM     13  N   UNL A   1      29.122  28.728  22.344  1.00  0.00    -0.240 NA
ATOM     14  C   UNL A   1      31.335  28.923  22.695  1.00  0.00     0.042 A 
ATOM     15  C   UNL A   1      29.586  29.784  21.705  1.00  0.00     0.197 A 
ATOM     16  N   UNL A   1      30.938  29.940  21.883  1.00  0.00    -0.348 N 
ATOM     17  H   UNL A   1      31.506  30.646  21.499  1.00  0.00     0.167 HD
BRANCH   9  18
ATOM     18  C   UNL A   1      30.837  26.867  26.226  1.00  0.00     0.323 C 
ATOM     19  N   UNL A   1      30.528  25.546  26.379  1.00  0.00    -0.305 N 
ATOM     20  H   UNL A   1      29.743  25.333  26.931  1.00  0.00     0.171 HD
ATOM     21  O   UNL A   1      30.814  27.596  27.218  1.00  0.00    -0.248 OA
BRANCH  19  22
ATOM     22  C   UNL A   1      31.218  24.477  25.828  1.00  0.00     0.081 A 
ATOM     23  C   UNL A   1      34.034  22.242  25.556  1.00  0.00     0.173 C 
ATOM     24  N   UNL A   1      32.804  22.995  25.495  1.00  0.00    -0.274 N 
ATOM     25  C   UNL A   1      32.372  23.952  26.370  1.00  0.00     0.134 A 
ATOM     26  N   UNL A   1      31.970  22.807  24.459  1.00  0.00    -0.180 NA
ATOM     27  C   UNL A   1      31.038  23.749  24.630  1.00  0.00     0.161 A 
ENDBRANCH  19  22
ENDBRANCH   9  18
ENDBRANCH   6   8
ENDBRANCH   5   6
ENDBRANCH   4   5
ENDBRANCH   3   4
ENDBRANCH   2   3
ENDBRANCH   1   2
BRANCH   1  28
ATOM     28  C   UNL A   1      34.858  32.927  27.991  1.00  0.00     0.188 C 
BRANCH  28  29
ATOM     29  O   UNL A   1      35.064  33.914  28.994  1.00  0.00    -0.376 OA
BRANCH  29  30
ATOM     30  C   UNL A   1      34.362  33.798  30.234  1.00  0.00     0.202 C 
BRANCH  30  31
ATOM     31  C   UNL A   1      35.130  33.349  31.479  1.00  0.00     0.261 C 
BRANCH  31  32
ATOM     32  O   UNL A   1      35.174  31.921  31.615  1.00  0.00    -0.460 OA
BRANCH  32  33
ATOM     33  C   UNL A   1      36.339  31.465  32.120  1.00  0.00     0.338 C 
ATOM     34  O   UNL A   1      36.677  31.449  33.292  1.00  0.00    -0.246 OA
BRANCH  33  35
ATOM     35  C   UNL A   1      37.177  30.848  31.081  1.00  0.00     0.060 A 
ATOM     36  C   UNL A   1      36.934  29.492  30.830  1.00  0.00     0.016 A 
ATOM     37  C   UNL A   1      38.325  31.484  30.609  1.00  0.00     0.016 A 
ATOM     38  C   UNL A   1      37.959  28.705  30.347  1.00  0.00     0.010 A 
ATOM     39  C   UNL A   1      39.349  30.693  30.102  1.00  0.00     0.010 A 
ATOM     40  C   UNL A   1      39.204  29.295  30.128  1.00  0.00    -0.014 A 
BRANCH  40  41
ATOM     41  C   UNL A   1      40.366  28.407  30.248  1.00  0.00     0.031 A 
ATOM     42  C   UNL A   1      41.063  28.293  31.556  1.00  0.00     0.074 A 
ATOM     43  C   UNL A   1      40.787  27.694  29.178  1.00  0.00     0.049 A 
ATOM     44  N   UNL A   1      42.338  28.341  31.796  1.00  0.00    -0.248 NA
ATOM     45  C   UNL A   1      40.230  28.103  32.751  1.00  0.00     0.031 C 
ATOM     46  C   UNL A   1      40.112  27.554  27.882  1.00  0.00     0.029 A 
ATOM     47  N   UNL A   1      41.847  26.836  29.068  1.00  0.00    -0.354 N 
ATOM     48  C   UNL A   1      42.483  28.004  33.138  1.00  0.00     0.074 A 
ATOM     49  C   UNL A   1      41.155  27.941  33.697  1.00  0.00     0.031 C 
ATOM     50  C   UNL A   1      40.614  26.484  27.236  1.00  0.00     0.029 A 
ATOM     51  C   UNL A   1      41.719  25.951  28.010  1.00  0.00     0.049 A 
ATOM     52  H   UNL A   1      42.620  26.847  29.677  1.00  0.00     0.167 HD
ATOM     53  C   UNL A   1      43.665  27.614  33.687  1.00  0.00     0.037 A 
ATOM     54  C   UNL A   1      42.395  24.797  27.815  1.00  0.00     0.037 A 
ATOM     55  C   UNL A   1      44.816  28.049  32.955  1.00  0.00     0.049 A 
ATOM     56  C   UNL A   1      43.635  24.826  28.617  1.00  0.00     0.074 A 
ATOM     57  C   UNL A   1      45.348  29.274  32.603  1.00  0.00     0.029 A 
ATOM     58  N   UNL A   1      45.554  27.122  32.267  1.00  0.00    -0.354 N 
ATOM     59  N   UNL A   1      44.677  25.562  28.352  1.00  0.00    -0.248 NA
ATOM     60  C   UNL A   1      43.608  24.239  29.948  1.00  0.00     0.031 C 
ATOM     61  C   UNL A   1      46.077  29.049  31.401  1.00  0.00     0.029 A 
ATOM     62  C   UNL A   1      45.918  27.702  31.079  1.00  0.00     0.049 A 
ATOM     63  H   UNL A   1      45.780  26.212  32.568  1.00  0.00     0.167 HD
ATOM     64  C   UNL A   1      45.227  25.852  29.590  1.00  0.00     0.074 A 
ATOM     65  C   UNL A   1      44.620  24.901  30.510  1.00  0.00     0.031 C 
ATOM     66  C   UNL A   1      45.900  27.019  29.807  1.00  0.00     0.037 A 
BRANCH  53  67
ATOM     67  C   UNL A   1      43.737  26.590  34.783  1.00  0.00     0.057 A 
ATOM     68  C   UNL A   1      44.094  26.954  36.089  1.00  0.00     0.134 A 
ATOM     69  C   UNL A   1      43.698  25.206  34.522  1.00  0.00     0.134 A 
ATOM     70  F   UNL A   1      44.226  28.245  36.430  1.00  0.00    -0.206 F 
ATOM     71  C   UNL A   1      44.384  26.001  37.073  1.00  0.00     0.040 A 
ATOM     72  C   UNL A   1      43.941  24.245  35.506  1.00  0.00     0.040 A 
ATOM     73  F   UNL A   1      43.501  24.731  33.284  1.00  0.00    -0.206 F 
ATOM     74  C   UNL A   1      44.299  24.642  36.785  1.00  0.00     0.006 A 
ENDBRANCH  53  67
BRANCH  54  75
ATOM     75  C   UNL A   1      41.884  23.572  27.165  1.00  0.00     0.057 A 
ATOM     76  C   UNL A   1      42.713  22.754  26.390  1.00  0.00     0.134 A 
ATOM     77  C   UNL A   1      40.610  23.055  27.469  1.00  0.00     0.134 A 
ATOM     78  F   UNL A   1      43.966  23.134  26.101  1.00  0.00    -0.206 F 
ATOM     79  C   UNL A   1      42.293  21.500  25.930  1.00  0.00     0.040 A 
ATOM     80  C   UNL A   1      40.172  21.815  27.001  1.00  0.00     0.040 A 
ATOM     81  F   UNL A   1      39.774  23.704  28.294  1.00  0.00    -0.206 F 
ATOM     82  C   UNL A   1      41.019  21.028  26.233  1.00  0.00     0.006 A 
ENDBRANCH  54  75
BRANCH  66  83
ATOM     83  C   UNL A   1      46.330  27.806  28.604  1.00  0.00     0.057 A 
ATOM     84  C   UNL A   1      45.480  28.691  27.925  1.00  0.00     0.134 A 
ATOM     85  C   UNL A   1      47.670  27.775  28.206  1.00  0.00     0.134 A 
ATOM     86  F   UNL A   1      44.206  28.855  28.310  1.00  0.00    -0.206 F 
ATOM     87  C   UNL A   1      45.935  29.475  26.863  1.00  0.00     0.040 A 
ATOM     88  C   UNL A   1      48.144  28.576  27.163  1.00  0.00     0.040 A 
ATOM     89  F   UNL A   1      48.552  26.999  28.855  1.00  0.00    -0.206 F 
ATOM     90  C   UNL A   1      47.272  29.421  26.481  1.00  0.00     0.006 A 
ENDBRANCH  66  83
ENDBRANCH  40  41
ENDBRANCH  33  35
ENDBRANCH  32  33
ENDBRANCH  31  32
ENDBRANCH  30  31
ENDBRANCH  29  30
ENDBRANCH  28  29
ENDBRANCH   1  28
TORSDOF 19
ENDMDL
MODEL 3
REMARK VINA RESULT:     -10.4      1.461      3.012
REMARK SMILES Cn1cc(NC(=O)N2Cc3nc[nH]c3C[C@@H]2C(=O)OCCOCCOCCOC(=O)c2ccc(-c3c4nc(c(-c5c(F)cccc5F)c5ccc([nH]5)c(-c5c(F)cccc5F)c5nc(c(-c6c(F)cccc6F)c6ccc3[nH]6)C=C5)C=C4)cc2)cn1
REMARK SMILES IDX 23 1 22 2 21 3 20 4 19 5 17 6 18 7 16 8 8 9 9 10 10 11 15 12
REMARK SMILES IDX 11 13 14 14 12 15 13 16 6 18 5 19 7 21 4 22 1 23 2 24 3 25
REMARK SMILES IDX 86 26 85 27 24 28 25 29 26 30 27 31 28 32 29 33 30 34 31 35
REMARK SMILES IDX 32 36 84 37 33 38 83 39 34 40 35 41 36 42 77 43 37 44 82 45
REMARK SMILES IDX 76 46 78 47 38 48 81 49 75 50 74 51 39 53 65 54 48 55 64 56
REMARK SMILES IDX 49 57 52 58 63 59 79 60 50 61 51 62 62 64 80 65 53 66 40 67
REMARK SMILES IDX 41 68 46 69 42 70 43 71 45 72 47 73 44 74 66 75 67 76 72 77
REMARK SMILES IDX 68 78 69 79 71 80 73 81 70 82 54 83 55 84 60 85 56 86 57 87
REMARK SMILES IDX 59 88 61 89 58 90
REMARK H PARENT 13 17 5 20 78 52 52 63
REMARK Flexibility Score: inf
ROOT
ATOM      1  C   UNL A   1      32.579  30.541  26.817  1.00  0.00     0.188 C 
ENDROOT
BRANCH   1   2
ATOM      2  O   UNL A   1      31.747  29.454  27.213  1.00  0.00    -0.376 OA
BRANCH   2   3
ATOM      3  C   UNL A   1      32.316  28.160  26.983  1.00  0.00     0.202 C 
BRANCH   3   4
ATOM      4  C   UNL A   1      33.380  28.110  25.874  1.00  0.00     0.261 C 
BRANCH   4   5
ATOM      5  O   UNL A   1      33.742  26.760  25.538  1.00  0.00    -0.462 OA
BRANCH   5   6
ATOM      6  C   UNL A   1      34.008  26.447  24.239  1.00  0.00     0.329 C 
ATOM      7  O   UNL A   1      34.013  27.248  23.318  1.00  0.00    -0.250 OA
BRANCH   6   8
ATOM      8  C   UNL A   1      34.342  24.945  24.164  1.00  0.00     0.203 C 
ATOM      9  N   UNL A   1      33.218  24.120  23.605  1.00  0.00    -0.304 N 
ATOM     10  C   UNL A   1      32.491  23.168  24.460  1.00  0.00     0.180 C 
ATOM     11  C   UNL A   1      33.500  22.464  25.297  1.00  0.00     0.081 A 
ATOM     12  C   UNL A   1      34.920  24.516  25.547  1.00  0.00     0.093 C 
ATOM     13  N   UNL A   1      33.534  21.132  25.603  1.00  0.00    -0.240 NA
ATOM     14  C   UNL A   1      34.617  23.095  25.784  1.00  0.00     0.042 A 
ATOM     15  C   UNL A   1      34.654  20.966  26.280  1.00  0.00     0.197 A 
ATOM     16  N   UNL A   1      35.348  22.142  26.424  1.00  0.00    -0.348 N 
ATOM     17  H   UNL A   1      36.201  22.269  26.895  1.00  0.00     0.167 HD
BRANCH   9  18
ATOM     18  C   UNL A   1      32.715  24.325  22.346  1.00  0.00     0.323 C 
ATOM     19  N   UNL A   1      31.444  24.801  22.201  1.00  0.00    -0.305 N 
ATOM     20  H   UNL A   1      30.878  24.361  21.528  1.00  0.00     0.171 HD
ATOM     21  O   UNL A   1      33.375  24.090  21.334  1.00  0.00    -0.248 OA
BRANCH  19  22
ATOM     22  C   UNL A   1      30.876  25.846  22.913  1.00  0.00     0.081 A 
ATOM     23  C   UNL A   1      30.223  29.330  23.571  1.00  0.00     0.173 C 
ATOM     24  N   UNL A   1      30.331  27.893  23.492  1.00  0.00    -0.274 N 
ATOM     25  C   UNL A   1      30.882  27.155  22.482  1.00  0.00     0.134 A 
ATOM     26  N   UNL A   1      29.895  27.145  24.519  1.00  0.00    -0.180 NA
ATOM     27  C   UNL A   1      30.282  25.907  24.194  1.00  0.00     0.161 A 
ENDBRANCH  19  22
ENDBRANCH   9  18
ENDBRANCH   6   8
ENDBRANCH   5   6
ENDBRANCH   4   5
ENDBRANCH   3   4
ENDBRANCH   2   3
ENDBRANCH   1   2
BRANCH   1  28
ATOM     28  C   UNL A   1      33.818  30.765  27.709  1.00  0.00     0.188 C 
BRANCH  28  29
ATOM     29  O   UNL A   1      34.533  31.991  27.617  1.00  0.00    -0.376 OA
BRANCH  29  30
ATOM     30  C   UNL A   1      34.403  32.948  28.670  1.00  0.00     0.202 C 
BRANCH  30  31
ATOM     31  C   UNL A   1      35.099  32.677  30.005  1.00  0.00     0.261 C 
BRANCH  31  32
ATOM     32  O   UNL A   1      36.312  31.926  29.851  1.00  0.00    -0.460 OA
BRANCH  32  33
ATOM     33  C   UNL A   1      36.394  30.863  30.678  1.00  0.00     0.338 C 
ATOM     34  O   UNL A   1      35.947  30.774  31.810  1.00  0.00    -0.246 OA
BRANCH  33  35
ATOM     35  C   UNL A   1      37.016  29.706  30.017  1.00  0.00     0.060 A 
ATOM     36  C   UNL A   1      37.538  28.727  30.871  1.00  0.00     0.016 A 
ATOM     37  C   UNL A   1      37.333  29.736  28.660  1.00  0.00     0.016 A 
ATOM     38  C   UNL A   1      38.588  27.945  30.432  1.00  0.00     0.010 A 
ATOM     39  C   UNL A   1      38.375  28.931  28.214  1.00  0.00     0.010 A 
ATOM     40  C   UNL A   1      39.089  28.164  29.149  1.00  0.00    -0.014 A 
BRANCH  40  41
ATOM     41  C   UNL A   1      40.505  27.832  28.948  1.00  0.00     0.031 A 
ATOM     42  C   UNL A   1      40.868  26.505  28.384  1.00  0.00     0.074 A 
ATOM     43  C   UNL A   1      41.463  28.732  29.264  1.00  0.00     0.049 A 
ATOM     44  N   UNL A   1      41.770  25.671  28.805  1.00  0.00    -0.248 NA
ATOM     45  C   UNL A   1      40.129  26.049  27.199  1.00  0.00     0.031 C 
ATOM     46  C   UNL A   1      41.271  30.135  29.654  1.00  0.00     0.029 A 
ATOM     47  N   UNL A   1      42.823  28.620  29.177  1.00  0.00    -0.354 N 
ATOM     48  C   UNL A   1      41.842  24.674  27.838  1.00  0.00     0.074 A 
ATOM     49  C   UNL A   1      40.762  24.912  26.912  1.00  0.00     0.031 C 
ATOM     50  C   UNL A   1      42.434  30.798  29.506  1.00  0.00     0.029 A 
ATOM     51  C   UNL A   1      43.467  29.847  29.139  1.00  0.00     0.049 A 
ATOM     52  H   UNL A   1      43.296  27.757  29.145  1.00  0.00     0.167 HD
ATOM     53  C   UNL A   1      42.886  23.808  27.735  1.00  0.00     0.037 A 
ATOM     54  C   UNL A   1      44.731  30.101  28.738  1.00  0.00     0.037 A 
ATOM     55  C   UNL A   1      43.632  23.652  28.947  1.00  0.00     0.049 A 
ATOM     56  C   UNL A   1      45.515  28.851  28.799  1.00  0.00     0.074 A 
ATOM     57  C   UNL A   1      43.347  23.204  30.222  1.00  0.00     0.029 A 
ATOM     58  N   UNL A   1      44.895  24.178  29.020  1.00  0.00    -0.354 N 
ATOM     59  N   UNL A   1      45.906  28.268  29.897  1.00  0.00    -0.248 NA
ATOM     60  C   UNL A   1      45.613  28.040  27.594  1.00  0.00     0.031 C 
ATOM     61  C   UNL A   1      44.264  23.873  31.081  1.00  0.00     0.029 A 
ATOM     62  C   UNL A   1      45.033  24.711  30.276  1.00  0.00     0.049 A 
ATOM     63  H   UNL A   1      45.575  24.173  28.307  1.00  0.00     0.167 HD
ATOM     64  C   UNL A   1      45.920  26.917  29.592  1.00  0.00     0.074 A 
ATOM     65  C   UNL A   1      45.875  26.852  28.139  1.00  0.00     0.031 C 
ATOM     66  C   UNL A   1      45.675  25.976  30.549  1.00  0.00     0.037 A 
BRANCH  53  67
ATOM     67  C   UNL A   1      43.372  23.298  26.409  1.00  0.00     0.057 A 
ATOM     68  C   UNL A   1      43.394  21.924  26.127  1.00  0.00     0.134 A 
ATOM     69  C   UNL A   1      44.050  24.122  25.489  1.00  0.00     0.134 A 
ATOM     70  F   UNL A   1      42.836  21.041  26.970  1.00  0.00    -0.206 F 
ATOM     71  C   UNL A   1      44.042  21.407  24.999  1.00  0.00     0.040 A 
ATOM     72  C   UNL A   1      44.661  23.623  24.336  1.00  0.00     0.040 A 
ATOM     73  F   UNL A   1      44.217  25.433  25.713  1.00  0.00    -0.206 F 
ATOM     74  C   UNL A   1      44.670  22.258  24.094  1.00  0.00     0.006 A 
ENDBRANCH  53  67
BRANCH  54  75
ATOM     75  C   UNL A   1      45.217  31.324  28.065  1.00  0.00     0.057 A 
ATOM     76  C   UNL A   1      44.603  31.817  26.910  1.00  0.00     0.134 A 
ATOM     77  C   UNL A   1      46.171  32.166  28.669  1.00  0.00     0.134 A 
ATOM     78  F   UNL A   1      43.638  31.115  26.299  1.00  0.00    -0.206 F 
ATOM     79  C   UNL A   1      44.930  33.070  26.375  1.00  0.00     0.040 A 
ATOM     80  C   UNL A   1      46.520  33.408  28.136  1.00  0.00     0.040 A 
ATOM     81  F   UNL A   1      46.742  31.843  29.839  1.00  0.00    -0.206 F 
ATOM     82  C   UNL A   1      45.892  33.869  26.987  1.00  0.00     0.006 A 
ENDBRANCH  54  75
BRANCH  66  83
ATOM     83  C   UNL A   1      45.738  26.412  31.984  1.00  0.00     0.057 A 
ATOM     84  C   UNL A   1      44.646  26.972  32.662  1.00  0.00     0.134 A 
ATOM     85  C   UNL A   1      46.884  26.134  32.736  1.00  0.00     0.134 A 
ATOM     86  F   UNL A   1      43.478  27.175  32.037  1.00  0.00    -0.206 F 
ATOM     87  C   UNL A   1      44.711  27.286  34.022  1.00  0.00     0.040 A 
ATOM     88  C   UNL A   1      46.950  26.417  34.103  1.00  0.00     0.040 A 
ATOM     89  F   UNL A   1      47.943  25.538  32.164  1.00  0.00    -0.206 F 
ATOM     90  C   UNL A   1      45.865  27.006  34.747  1.00  0.00     0.006 A 
ENDBRANCH  66  83
ENDBRANCH  40  41
ENDBRANCH  33  35
ENDBRANCH  32  33
ENDBRANCH  31  32
ENDBRANCH  30  31
ENDBRANCH  29  30
ENDBRANCH  28  29
ENDBRANCH   1  28
TORSDOF 19
ENDMDL
