MODEL 1
REMARK VINA RESULT:     -11.8      0.000      0.000
REMARK SMILES CC1(C)Oc2ccc(NC(=O)[C@H]3CC=CC[C@@H]3C(=O)OCCOCCOCCOC(=O)c3ccc(-c4c5nc(c(-c6c(F)cccc6F)c6ccc([nH]6)c(-c6c(F)cccc6F)c6nc(c(-c7c(F)cccc7F)c7ccc4[nH]7)C=C6)C=C5)cc3)cc2NC1=O
REMARK SMILES IDX 24 1 23 2 22 3 21 4 20 5 18 6 19 7 17 8 12 9 13 10 14 11
REMARK SMILES IDX 16 12 15 13 10 14 9 15 11 17 8 18 1 19 2 20 3 21 4 22 89 23
REMARK SMILES IDX 5 24 88 25 90 26 6 27 87 28 7 30 86 31 25 32 26 33 27 34
REMARK SMILES IDX 28 35 29 36 30 37 31 38 32 39 33 40 85 41 34 42 84 43 35 44
REMARK SMILES IDX 36 45 37 46 78 47 38 48 83 49 77 50 79 51 39 52 82 53 76 54
REMARK SMILES IDX 75 55 40 57 66 58 49 59 65 60 50 61 53 62 64 63 80 64 51 65
REMARK SMILES IDX 52 66 63 68 81 69 54 70 41 71 42 72 47 73 43 74 44 75 46 76
REMARK SMILES IDX 48 77 45 78 67 79 68 80 73 81 69 82 70 83 72 84 74 85 71 86
REMARK SMILES IDX 55 87 56 88 61 89 57 90 58 91 60 92 62 93 59 94
REMARK H PARENT 9 16 88 29 79 56 53 67
REMARK Flexibility Score: inf
ROOT
ATOM      1  C   UNL A   1      41.114  20.562  27.409  1.00  0.00     0.188 C 
ENDROOT
BRANCH   1   2
ATOM      2  O   UNL A   1      40.124  21.569  27.372  1.00  0.00    -0.376 OA
BRANCH   2   3
ATOM      3  C   UNL A   1      39.370  21.697  26.174  1.00  0.00     0.202 C 
BRANCH   3   4
ATOM      4  C   UNL A   1      38.114  22.592  26.130  1.00  0.00     0.261 C 
BRANCH   4   5
ATOM      5  O   UNL A   1      37.207  22.407  25.033  1.00  0.00    -0.463 OA
BRANCH   5   6
ATOM      6  C   UNL A   1      36.176  23.285  24.928  1.00  0.00     0.310 C 
ATOM      7  O   UNL A   1      36.235  24.448  25.304  1.00  0.00    -0.252 OA
BRANCH   6   8
ATOM      8  C   UNL A   1      34.999  22.652  24.183  1.00  0.00     0.116 C 
ATOM      9  C   UNL A   1      33.736  23.534  24.371  1.00  0.00     0.097 C 
ATOM     10  C   UNL A   1      33.159  23.399  25.795  1.00  0.00     0.041 C 
ATOM     11  C   UNL A   1      33.398  22.081  26.470  1.00  0.00    -0.030 C 
ATOM     12  C   UNL A   1      34.810  21.202  24.621  1.00  0.00     0.043 C 
ATOM     13  C   UNL A   1      34.115  21.085  25.937  1.00  0.00    -0.030 C 
BRANCH   9  14
ATOM     14  C   UNL A   1      32.674  23.270  23.306  1.00  0.00     0.228 C 
ATOM     15  N   UNL A   1      31.704  24.173  22.977  1.00  0.00    -0.326 N 
ATOM     16  H   UNL A   1      31.035  23.792  22.363  1.00  0.00     0.169 HD
ATOM     17  O   UNL A   1      32.653  22.202  22.682  1.00  0.00    -0.274 OA
BRANCH  15  18
ATOM     18  C   UNL A   1      31.423  25.515  23.298  1.00  0.00     0.043 A 
ATOM     19  C   UNL A   1      28.773  31.313  23.676  1.00  0.00     0.067 C 
ATOM     20  C   UNL A   1      29.229  29.951  23.165  1.00  0.00     0.182 C 
ATOM     21  C   UNL A   1      29.631  30.121  21.688  1.00  0.00     0.067 C 
ATOM     22  O   UNL A   1      30.373  29.524  23.934  1.00  0.00    -0.476 OA
ATOM     23  C   UNL A   1      28.039  28.975  23.267  1.00  0.00     0.268 C 
ATOM     24  C   UNL A   1      30.668  28.194  23.764  1.00  0.00     0.144 A 
ATOM     25  N   UNL A   1      28.395  27.651  23.201  1.00  0.00    -0.319 N 
ATOM     26  O   UNL A   1      26.857  29.304  23.315  1.00  0.00    -0.270 OA
ATOM     27  C   UNL A   1      31.960  27.767  24.035  1.00  0.00     0.051 A 
ATOM     28  C   UNL A   1      29.724  27.259  23.344  1.00  0.00     0.086 A 
ATOM     29  H   UNL A   1      27.701  26.970  23.048  1.00  0.00     0.170 HD
ATOM     30  C   UNL A   1      32.347  26.450  23.761  1.00  0.00     0.030 A 
ATOM     31  C   UNL A   1      30.094  25.933  23.113  1.00  0.00     0.056 A 
ENDBRANCH  15  18
ENDBRANCH   9  14
ENDBRANCH   6   8
ENDBRANCH   5   6
ENDBRANCH   4   5
ENDBRANCH   3   4
ENDBRANCH   2   3
ENDBRANCH   1   2
BRANCH   1  32
ATOM     32  C   UNL A   1      41.171  19.710  26.124  1.00  0.00     0.188 C 
BRANCH  32  33
ATOM     33  O   UNL A   1      42.341  19.714  25.321  1.00  0.00    -0.376 OA
BRANCH  33  34
ATOM     34  C   UNL A   1      43.479  20.447  25.760  1.00  0.00     0.202 C 
BRANCH  34  35
ATOM     35  C   UNL A   1      43.968  21.694  24.995  1.00  0.00     0.261 C 
BRANCH  35  36
ATOM     36  O   UNL A   1      43.157  22.874  25.097  1.00  0.00    -0.460 OA
BRANCH  36  37
ATOM     37  C   UNL A   1      43.827  24.058  25.130  1.00  0.00     0.338 C 
ATOM     38  O   UNL A   1      44.682  24.447  24.362  1.00  0.00    -0.246 OA
BRANCH  37  39
ATOM     39  C   UNL A   1      43.213  24.910  26.172  1.00  0.00     0.060 A 
ATOM     40  C   UNL A   1      42.260  24.375  27.036  1.00  0.00     0.016 A 
ATOM     41  C   UNL A   1      43.610  26.252  26.292  1.00  0.00     0.016 A 
ATOM     42  C   UNL A   1      41.719  25.179  28.041  1.00  0.00     0.010 A 
ATOM     43  C   UNL A   1      43.051  27.062  27.287  1.00  0.00     0.010 A 
ATOM     44  C   UNL A   1      42.118  26.519  28.183  1.00  0.00    -0.014 A 
BRANCH  44  45
ATOM     45  C   UNL A   1      41.666  27.280  29.377  1.00  0.00     0.031 A 
ATOM     46  C   UNL A   1      42.489  27.334  30.631  1.00  0.00     0.074 A 
ATOM     47  C   UNL A   1      40.524  27.981  29.260  1.00  0.00     0.049 A 
ATOM     48  N   UNL A   1      42.348  28.064  31.711  1.00  0.00    -0.248 NA
ATOM     49  C   UNL A   1      43.640  26.432  30.663  1.00  0.00     0.031 C 
ATOM     50  C   UNL A   1      39.699  28.038  28.050  1.00  0.00     0.029 A 
ATOM     51  N   UNL A   1      39.898  28.827  30.132  1.00  0.00    -0.354 N 
ATOM     52  C   UNL A   1      43.362  27.668  32.588  1.00  0.00     0.074 A 
ATOM     53  C   UNL A   1      44.128  26.672  31.872  1.00  0.00     0.031 C 
ATOM     54  C   UNL A   1      38.738  28.958  28.219  1.00  0.00     0.029 A 
ATOM     55  C   UNL A   1      38.846  29.506  29.564  1.00  0.00     0.049 A 
ATOM     56  H   UNL A   1      40.172  28.939  31.071  1.00  0.00     0.167 HD
ATOM     57  C   UNL A   1      43.578  28.061  33.878  1.00  0.00     0.037 A 
ATOM     58  C   UNL A   1      38.080  30.485  30.077  1.00  0.00     0.037 A 
ATOM     59  C   UNL A   1      42.738  29.057  34.525  1.00  0.00     0.049 A 
ATOM     60  C   UNL A   1      38.326  30.904  31.498  1.00  0.00     0.074 A 
ATOM     61  C   UNL A   1      42.852  29.603  35.792  1.00  0.00     0.029 A 
ATOM     62  N   UNL A   1      41.586  29.611  33.968  1.00  0.00    -0.354 N 
ATOM     63  N   UNL A   1      39.270  30.522  32.326  1.00  0.00    -0.248 NA
ATOM     64  C   UNL A   1      37.386  31.880  32.057  1.00  0.00     0.031 C 
ATOM     65  C   UNL A   1      41.683  30.323  36.065  1.00  0.00     0.029 A 
ATOM     66  C   UNL A   1      40.935  30.406  34.903  1.00  0.00     0.049 A 
ATOM     67  H   UNL A   1      41.277  29.460  33.046  1.00  0.00     0.167 HD
ATOM     68  C   UNL A   1      39.050  31.229  33.500  1.00  0.00     0.074 A 
ATOM     69  C   UNL A   1      37.899  32.078  33.262  1.00  0.00     0.031 C 
ATOM     70  C   UNL A   1      39.745  31.191  34.666  1.00  0.00     0.037 A 
BRANCH  57  71
ATOM     71  C   UNL A   1      44.620  27.300  34.714  1.00  0.00     0.057 A 
ATOM     72  C   UNL A   1      45.931  27.790  34.883  1.00  0.00     0.134 A 
ATOM     73  C   UNL A   1      44.342  26.121  35.421  1.00  0.00     0.134 A 
ATOM     74  F   UNL A   1      46.407  28.787  34.130  1.00  0.00    -0.206 F 
ATOM     75  C   UNL A   1      46.834  27.258  35.809  1.00  0.00     0.040 A 
ATOM     76  C   UNL A   1      45.225  25.590  36.374  1.00  0.00     0.040 A 
ATOM     77  F   UNL A   1      43.172  25.485  35.252  1.00  0.00    -0.206 F 
ATOM     78  C   UNL A   1      46.466  26.179  36.592  1.00  0.00     0.006 A 
ENDBRANCH  57  71
BRANCH  58  79
ATOM     79  C   UNL A   1      37.055  31.169  29.250  1.00  0.00     0.057 A 
ATOM     80  C   UNL A   1      35.847  30.556  28.901  1.00  0.00     0.134 A 
ATOM     81  C   UNL A   1      37.257  32.486  28.816  1.00  0.00     0.134 A 
ATOM     82  F   UNL A   1      35.594  29.293  29.276  1.00  0.00    -0.206 F 
ATOM     83  C   UNL A   1      34.875  31.227  28.156  1.00  0.00     0.040 A 
ATOM     84  C   UNL A   1      36.282  33.179  28.096  1.00  0.00     0.040 A 
ATOM     85  F   UNL A   1      38.388  33.134  29.129  1.00  0.00    -0.206 F 
ATOM     86  C   UNL A   1      35.087  32.547  27.763  1.00  0.00     0.006 A 
ENDBRANCH  58  79
BRANCH  70  87
ATOM     87  C   UNL A   1      39.276  32.120  35.757  1.00  0.00     0.057 A 
ATOM     88  C   UNL A   1      38.378  31.660  36.731  1.00  0.00     0.134 A 
ATOM     89  C   UNL A   1      39.709  33.449  35.863  1.00  0.00     0.134 A 
ATOM     90  F   UNL A   1      37.915  30.401  36.692  1.00  0.00    -0.206 F 
ATOM     91  C   UNL A   1      37.935  32.482  37.767  1.00  0.00     0.040 A 
ATOM     92  C   UNL A   1      39.308  34.268  36.923  1.00  0.00     0.040 A 
ATOM     93  F   UNL A   1      40.581  33.956  34.978  1.00  0.00    -0.206 F 
ATOM     94  C   UNL A   1      38.412  33.785  37.875  1.00  0.00     0.006 A 
ENDBRANCH  70  87
ENDBRANCH  44  45
ENDBRANCH  37  39
ENDBRANCH  36  37
ENDBRANCH  35  36
ENDBRANCH  34  35
ENDBRANCH  33  34
ENDBRANCH  32  33
ENDBRANCH   1  32
TORSDOF 19
ENDMDL
MODEL 2
REMARK VINA RESULT:     -11.8      2.988      7.543
REMARK SMILES CC1(C)Oc2ccc(NC(=O)[C@H]3CC=CC[C@@H]3C(=O)OCCOCCOCCOC(=O)c3ccc(-c4c5nc(c(-c6c(F)cccc6F)c6ccc([nH]6)c(-c6c(F)cccc6F)c6nc(c(-c7c(F)cccc7F)c7ccc4[nH]7)C=C6)C=C5)cc3)cc2NC1=O
REMARK SMILES IDX 24 1 23 2 22 3 21 4 20 5 18 6 19 7 17 8 12 9 13 10 14 11
REMARK SMILES IDX 16 12 15 13 10 14 9 15 11 17 8 18 1 19 2 20 3 21 4 22 89 23
REMARK SMILES IDX 5 24 88 25 90 26 6 27 87 28 7 30 86 31 25 32 26 33 27 34
REMARK SMILES IDX 28 35 29 36 30 37 31 38 32 39 33 40 85 41 34 42 84 43 35 44
REMARK SMILES IDX 36 45 37 46 78 47 38 48 83 49 77 50 79 51 39 52 82 53 76 54
REMARK SMILES IDX 75 55 40 57 66 58 49 59 65 60 50 61 53 62 64 63 80 64 51 65
REMARK SMILES IDX 52 66 63 68 81 69 54 70 41 71 42 72 47 73 43 74 44 75 46 76
REMARK SMILES IDX 48 77 45 78 67 79 68 80 73 81 69 82 70 83 72 84 74 85 71 86
REMARK SMILES IDX 55 87 56 88 61 89 57 90 58 91 60 92 62 93 59 94
REMARK H PARENT 9 16 88 29 79 56 53 67
REMARK Flexibility Score: inf
ROOT
ATOM      1  C   UNL A   1      34.024  28.216  26.155  1.00  0.00     0.188 C 
ENDROOT
BRANCH   1   2
ATOM      2  O   UNL A   1      32.775  27.641  25.830  1.00  0.00    -0.376 OA
BRANCH   2   3
ATOM      3  C   UNL A   1      31.931  27.265  26.910  1.00  0.00     0.202 C 
BRANCH   3   4
ATOM      4  C   UNL A   1      30.694  26.375  26.664  1.00  0.00     0.261 C 
BRANCH   4   5
ATOM      5  O   UNL A   1      30.867  25.219  25.829  1.00  0.00    -0.463 OA
BRANCH   5   6
ATOM      6  C   UNL A   1      31.977  24.465  26.041  1.00  0.00     0.310 C 
ATOM      7  O   UNL A   1      32.102  23.694  26.982  1.00  0.00    -0.252 OA
BRANCH   6   8
ATOM      8  C   UNL A   1      32.973  24.631  24.892  1.00  0.00     0.116 C 
ATOM      9  C   UNL A   1      32.387  23.994  23.604  1.00  0.00     0.097 C 
ATOM     10  C   UNL A   1      32.420  22.453  23.668  1.00  0.00     0.041 C 
ATOM     11  C   UNL A   1      33.523  21.863  24.496  1.00  0.00    -0.030 C 
ATOM     12  C   UNL A   1      34.339  24.075  25.288  1.00  0.00     0.043 C 
ATOM     13  C   UNL A   1      34.400  22.586  25.203  1.00  0.00    -0.030 C 
BRANCH   9  14
ATOM     14  C   UNL A   1      33.055  24.519  22.335  1.00  0.00     0.228 C 
ATOM     15  N   UNL A   1      32.823  25.767  21.830  1.00  0.00    -0.326 N 
ATOM     16  H   UNL A   1      33.239  25.892  20.946  1.00  0.00     0.169 HD
ATOM     17  O   UNL A   1      33.854  23.819  21.702  1.00  0.00    -0.274 OA
BRANCH  15  18
ATOM     18  C   UNL A   1      32.137  26.919  22.260  1.00  0.00     0.043 A 
ATOM     19  C   UNL A   1      27.648  31.290  23.494  1.00  0.00     0.067 C 
ATOM     20  C   UNL A   1      28.451  30.174  22.837  1.00  0.00     0.182 C 
ATOM     21  C   UNL A   1      28.386  30.391  21.314  1.00  0.00     0.067 C 
ATOM     22  O   UNL A   1      29.822  30.262  23.282  1.00  0.00    -0.476 OA
ATOM     23  C   UNL A   1      27.789  28.828  23.195  1.00  0.00     0.268 C 
ATOM     24  C   UNL A   1      30.552  29.135  22.995  1.00  0.00     0.144 A 
ATOM     25  N   UNL A   1      28.597  27.737  22.995  1.00  0.00    -0.319 N 
ATOM     26  O   UNL A   1      26.622  28.686  23.547  1.00  0.00    -0.270 OA
ATOM     27  C   UNL A   1      31.932  29.248  22.922  1.00  0.00     0.051 A 
ATOM     28  C   UNL A   1      29.967  27.888  22.790  1.00  0.00     0.086 A 
ATOM     29  H   UNL A   1      28.202  26.835  22.995  1.00  0.00     0.170 HD
ATOM     30  C   UNL A   1      32.716  28.162  22.513  1.00  0.00     0.030 A 
ATOM     31  C   UNL A   1      30.748  26.789  22.426  1.00  0.00     0.056 A 
ENDBRANCH  15  18
ENDBRANCH   9  14
ENDBRANCH   6   8
ENDBRANCH   5   6
ENDBRANCH   4   5
ENDBRANCH   3   4
ENDBRANCH   2   3
ENDBRANCH   1   2
BRANCH   1  32
ATOM     32  C   UNL A   1      33.941  29.265  27.284  1.00  0.00     0.188 C 
BRANCH  32  33
ATOM     33  O   UNL A   1      33.675  30.624  26.972  1.00  0.00    -0.376 OA
BRANCH  33  34
ATOM     34  C   UNL A   1      32.328  31.079  26.955  1.00  0.00     0.202 C 
BRANCH  34  35
ATOM     35  C   UNL A   1      31.981  32.557  27.228  1.00  0.00     0.261 C 
BRANCH  35  36
ATOM     36  O   UNL A   1      33.076  33.485  27.247  1.00  0.00    -0.460 OA
BRANCH  36  37
ATOM     37  C   UNL A   1      33.225  34.208  28.389  1.00  0.00     0.338 C 
ATOM     38  O   UNL A   1      32.461  35.027  28.854  1.00  0.00    -0.246 OA
BRANCH  37  39
ATOM     39  C   UNL A   1      34.419  33.705  29.105  1.00  0.00     0.060 A 
ATOM     40  C   UNL A   1      34.291  32.670  30.030  1.00  0.00     0.016 A 
ATOM     41  C   UNL A   1      35.678  34.266  28.834  1.00  0.00     0.016 A 
ATOM     42  C   UNL A   1      35.430  32.177  30.668  1.00  0.00     0.010 A 
ATOM     43  C   UNL A   1      36.815  33.785  29.491  1.00  0.00     0.010 A 
ATOM     44  C   UNL A   1      36.698  32.719  30.395  1.00  0.00    -0.014 A 
BRANCH  44  45
ATOM     45  C   UNL A   1      37.901  32.042  30.946  1.00  0.00     0.031 A 
ATOM     46  C   UNL A   1      38.341  32.257  32.365  1.00  0.00     0.074 A 
ATOM     47  C   UNL A   1      38.534  31.168  30.143  1.00  0.00     0.049 A 
ATOM     48  N   UNL A   1      39.256  31.643  33.075  1.00  0.00    -0.248 NA
ATOM     49  C   UNL A   1      37.638  33.318  33.084  1.00  0.00     0.031 C 
ATOM     50  C   UNL A   1      38.129  30.849  28.772  1.00  0.00     0.029 A 
ATOM     51  N   UNL A   1      39.599  30.344  30.379  1.00  0.00    -0.354 N 
ATOM     52  C   UNL A   1      39.287  32.285  34.316  1.00  0.00     0.074 A 
ATOM     53  C   UNL A   1      38.255  33.295  34.257  1.00  0.00     0.031 C 
ATOM     54  C   UNL A   1      38.866  29.820  28.326  1.00  0.00     0.029 A 
ATOM     55  C   UNL A   1      39.829  29.453  29.356  1.00  0.00     0.049 A 
ATOM     56  H   UNL A   1      40.147  30.383  31.196  1.00  0.00     0.167 HD
ATOM     57  C   UNL A   1      40.140  32.080  35.364  1.00  0.00     0.037 A 
ATOM     58  C   UNL A   1      40.705  28.436  29.284  1.00  0.00     0.037 A 
ATOM     59  C   UNL A   1      41.166  31.051  35.324  1.00  0.00     0.049 A 
ATOM     60  C   UNL A   1      41.639  28.226  30.442  1.00  0.00     0.074 A 
ATOM     61  C   UNL A   1      42.065  30.677  36.308  1.00  0.00     0.029 A 
ATOM     62  N   UNL A   1      41.469  30.269  34.209  1.00  0.00    -0.354 N 
ATOM     63  N   UNL A   1      41.676  28.838  31.602  1.00  0.00    -0.248 NA
ATOM     64  C   UNL A   1      42.662  27.190  30.268  1.00  0.00     0.031 C 
ATOM     65  C   UNL A   1      43.016  29.826  35.734  1.00  0.00     0.029 A 
ATOM     66  C   UNL A   1      42.598  29.499  34.455  1.00  0.00     0.049 A 
ATOM     67  H   UNL A   1      40.958  30.265  33.368  1.00  0.00     0.167 HD
ATOM     68  C   UNL A   1      42.715  28.246  32.307  1.00  0.00     0.074 A 
ATOM     69  C   UNL A   1      43.261  27.212  31.449  1.00  0.00     0.031 C 
ATOM     70  C   UNL A   1      43.169  28.521  33.556  1.00  0.00     0.037 A 
BRANCH  57  71
ATOM     71  C   UNL A   1      40.124  33.080  36.531  1.00  0.00     0.057 A 
ATOM     72  C   UNL A   1      41.032  34.156  36.594  1.00  0.00     0.134 A 
ATOM     73  C   UNL A   1      39.182  33.051  37.570  1.00  0.00     0.134 A 
ATOM     74  F   UNL A   1      42.102  34.214  35.794  1.00  0.00    -0.206 F 
ATOM     75  C   UNL A   1      40.910  35.210  37.504  1.00  0.00     0.040 A 
ATOM     76  C   UNL A   1      39.027  34.114  38.475  1.00  0.00     0.040 A 
ATOM     77  F   UNL A   1      38.338  32.014  37.697  1.00  0.00    -0.206 F 
ATOM     78  C   UNL A   1      39.876  35.214  38.423  1.00  0.00     0.006 A 
ENDBRANCH  57  71
BRANCH  58  79
ATOM     79  C   UNL A   1      40.717  27.516  28.120  1.00  0.00     0.057 A 
ATOM     80  C   UNL A   1      41.468  27.778  26.970  1.00  0.00     0.134 A 
ATOM     81  C   UNL A   1      39.992  26.317  28.156  1.00  0.00     0.134 A 
ATOM     82  F   UNL A   1      42.178  28.911  26.867  1.00  0.00    -0.206 F 
ATOM     83  C   UNL A   1      41.501  26.882  25.899  1.00  0.00     0.040 A 
ATOM     84  C   UNL A   1      40.039  25.400  27.106  1.00  0.00     0.040 A 
ATOM     85  F   UNL A   1      39.263  26.002  29.236  1.00  0.00    -0.206 F 
ATOM     86  C   UNL A   1      40.796  25.683  25.971  1.00  0.00     0.006 A 
ENDBRANCH  58  79
BRANCH  70  87
ATOM     87  C   UNL A   1      44.302  27.665  34.063  1.00  0.00     0.057 A 
ATOM     88  C   UNL A   1      44.029  26.440  34.687  1.00  0.00     0.134 A 
ATOM     89  C   UNL A   1      45.650  28.028  33.928  1.00  0.00     0.134 A 
ATOM     90  F   UNL A   1      42.763  26.027  34.857  1.00  0.00    -0.206 F 
ATOM     91  C   UNL A   1      45.049  25.610  35.153  1.00  0.00     0.040 A 
ATOM     92  C   UNL A   1      46.681  27.184  34.349  1.00  0.00     0.040 A 
ATOM     93  F   UNL A   1      45.990  29.177  33.326  1.00  0.00    -0.206 F 
ATOM     94  C   UNL A   1      46.380  25.973  34.970  1.00  0.00     0.006 A 
ENDBRANCH  70  87
ENDBRANCH  44  45
ENDBRANCH  37  39
ENDBRANCH  36  37
ENDBRANCH  35  36
ENDBRANCH  34  35
ENDBRANCH  33  34
ENDBRANCH  32  33
ENDBRANCH   1  32
TORSDOF 19
ENDMDL
MODEL 3
REMARK VINA RESULT:     -11.6      1.036      6.032
REMARK SMILES CC1(C)Oc2ccc(NC(=O)[C@H]3CC=CC[C@@H]3C(=O)OCCOCCOCCOC(=O)c3ccc(-c4c5nc(c(-c6c(F)cccc6F)c6ccc([nH]6)c(-c6c(F)cccc6F)c6nc(c(-c7c(F)cccc7F)c7ccc4[nH]7)C=C6)C=C5)cc3)cc2NC1=O
REMARK SMILES IDX 24 1 23 2 22 3 21 4 20 5 18 6 19 7 17 8 12 9 13 10 14 11
REMARK SMILES IDX 16 12 15 13 10 14 9 15 11 17 8 18 1 19 2 20 3 21 4 22 89 23
REMARK SMILES IDX 5 24 88 25 90 26 6 27 87 28 7 30 86 31 25 32 26 33 27 34
REMARK SMILES IDX 28 35 29 36 30 37 31 38 32 39 33 40 85 41 34 42 84 43 35 44
REMARK SMILES IDX 36 45 37 46 78 47 38 48 83 49 77 50 79 51 39 52 82 53 76 54
REMARK SMILES IDX 75 55 40 57 66 58 49 59 65 60 50 61 53 62 64 63 80 64 51 65
REMARK SMILES IDX 52 66 63 68 81 69 54 70 41 71 42 72 47 73 43 74 44 75 46 76
REMARK SMILES IDX 48 77 45 78 67 79 68 80 73 81 69 82 70 83 72 84 74 85 71 86
REMARK SMILES IDX 55 87 56 88 61 89 57 90 58 91 60 92 62 93 59 94
REMARK H PARENT 9 16 88 29 79 56 53 67
REMARK Flexibility Score: inf
ROOT
ATOM      1  C   UNL A   1      41.363  20.734  27.503  1.00  0.00     0.188 C 
ENDROOT
BRANCH   1   2
ATOM      2  O   UNL A   1      40.015  20.997  27.170  1.00  0.00    -0.376 OA
BRANCH   2   3
ATOM      3  C   UNL A   1      39.773  21.944  26.138  1.00  0.00     0.202 C 
BRANCH   3   4
ATOM      4  C   UNL A   1      38.347  22.478  25.885  1.00  0.00     0.261 C 
BRANCH   4   5
ATOM      5  O   UNL A   1      37.411  21.591  25.253  1.00  0.00    -0.463 OA
BRANCH   5   6
ATOM      6  C   UNL A   1      36.558  22.137  24.348  1.00  0.00     0.310 C 
ATOM      7  O   UNL A   1      36.911  22.896  23.455  1.00  0.00    -0.252 OA
BRANCH   6   8
ATOM      8  C   UNL A   1      35.143  21.584  24.535  1.00  0.00     0.116 C 
ATOM      9  C   UNL A   1      34.110  22.643  24.068  1.00  0.00     0.097 C 
ATOM     10  C   UNL A   1      33.997  23.807  25.074  1.00  0.00     0.041 C 
ATOM     11  C   UNL A   1      34.288  23.458  26.503  1.00  0.00    -0.030 C 
ATOM     12  C   UNL A   1      34.941  21.117  25.974  1.00  0.00     0.043 C 
ATOM     13  C   UNL A   1      34.686  22.248  26.915  1.00  0.00    -0.030 C 
BRANCH   9  14
ATOM     14  C   UNL A   1      32.745  22.032  23.759  1.00  0.00     0.228 C 
ATOM     15  N   UNL A   1      31.568  22.703  23.934  1.00  0.00    -0.326 N 
ATOM     16  H   UNL A   1      30.786  22.119  23.804  1.00  0.00     0.169 HD
ATOM     17  O   UNL A   1      32.650  20.878  23.324  1.00  0.00    -0.274 OA
BRANCH  15  18
ATOM     18  C   UNL A   1      31.196  24.023  24.256  1.00  0.00     0.043 A 
ATOM     19  C   UNL A   1      30.336  30.350  24.186  1.00  0.00     0.067 C 
ATOM     20  C   UNL A   1      30.926  28.959  23.985  1.00  0.00     0.182 C 
ATOM     21  C   UNL A   1      32.449  29.067  24.185  1.00  0.00     0.067 C 
ATOM     22  O   UNL A   1      30.368  28.069  24.976  1.00  0.00    -0.476 OA
ATOM     23  C   UNL A   1      30.625  28.511  22.540  1.00  0.00     0.268 C 
ATOM     24  C   UNL A   1      30.594  26.744  24.695  1.00  0.00     0.144 A 
ATOM     25  N   UNL A   1      30.758  27.162  22.333  1.00  0.00    -0.319 N 
ATOM     26  O   UNL A   1      30.372  29.266  21.606  1.00  0.00    -0.270 OA
ATOM     27  C   UNL A   1      30.552  25.834  25.741  1.00  0.00     0.051 A 
ATOM     28  C   UNL A   1      30.849  26.278  23.407  1.00  0.00     0.086 A 
ATOM     29  H   UNL A   1      30.792  26.814  21.413  1.00  0.00     0.170 HD
ATOM     30  C   UNL A   1      30.895  24.493  25.533  1.00  0.00     0.030 A 
ATOM     31  C   UNL A   1      31.147  24.932  23.186  1.00  0.00     0.056 A 
ENDBRANCH  15  18
ENDBRANCH   9  14
ENDBRANCH   6   8
ENDBRANCH   5   6
ENDBRANCH   4   5
ENDBRANCH   3   4
ENDBRANCH   2   3
ENDBRANCH   1   2
BRANCH   1  32
ATOM     32  C   UNL A   1      41.988  19.592  26.674  1.00  0.00     0.188 C 
BRANCH  32  33
ATOM     33  O   UNL A   1      42.605  19.875  25.428  1.00  0.00    -0.376 OA
BRANCH  33  34
ATOM     34  C   UNL A   1      43.795  20.652  25.405  1.00  0.00     0.202 C 
BRANCH  34  35
ATOM     35  C   UNL A   1      43.822  22.054  24.762  1.00  0.00     0.261 C 
BRANCH  35  36
ATOM     36  O   UNL A   1      43.245  23.125  25.524  1.00  0.00    -0.460 OA
BRANCH  36  37
ATOM     37  C   UNL A   1      43.898  24.317  25.466  1.00  0.00     0.338 C 
ATOM     38  O   UNL A   1      44.760  24.653  24.682  1.00  0.00    -0.246 OA
BRANCH  37  39
ATOM     39  C   UNL A   1      43.254  25.246  26.422  1.00  0.00     0.060 A 
ATOM     40  C   UNL A   1      42.361  24.756  27.374  1.00  0.00     0.016 A 
ATOM     41  C   UNL A   1      43.562  26.615  26.373  1.00  0.00     0.016 A 
ATOM     42  C   UNL A   1      41.793  25.636  28.296  1.00  0.00     0.010 A 
ATOM     43  C   UNL A   1      42.975  27.499  27.284  1.00  0.00     0.010 A 
ATOM     44  C   UNL A   1      42.105  27.007  28.268  1.00  0.00    -0.014 A 
BRANCH  44  45
ATOM     45  C   UNL A   1      41.632  27.872  29.379  1.00  0.00     0.031 A 
ATOM     46  C   UNL A   1      40.336  28.625  29.292  1.00  0.00     0.074 A 
ATOM     47  C   UNL A   1      42.377  27.893  30.499  1.00  0.00     0.049 A 
ATOM     48  N   UNL A   1      39.678  29.296  30.206  1.00  0.00    -0.248 NA
ATOM     49  C   UNL A   1      39.691  28.609  27.980  1.00  0.00     0.031 C 
ATOM     50  C   UNL A   1      43.616  27.135  30.691  1.00  0.00     0.029 A 
ATOM     51  N   UNL A   1      42.173  28.512  31.700  1.00  0.00    -0.354 N 
ATOM     52  C   UNL A   1      38.561  29.842  29.565  1.00  0.00     0.074 A 
ATOM     53  C   UNL A   1      38.626  29.366  28.201  1.00  0.00     0.031 C 
ATOM     54  C   UNL A   1      44.003  27.246  31.971  1.00  0.00     0.029 A 
ATOM     55  C   UNL A   1      43.074  28.128  32.665  1.00  0.00     0.049 A 
ATOM     56  H   UNL A   1      41.455  29.167  31.860  1.00  0.00     0.167 HD
ATOM     57  C   UNL A   1      37.624  30.701  30.064  1.00  0.00     0.037 A 
ATOM     58  C   UNL A   1      43.116  28.439  33.973  1.00  0.00     0.037 A 
ATOM     59  C   UNL A   1      37.654  31.144  31.448  1.00  0.00     0.049 A 
ATOM     60  C   UNL A   1      42.082  29.389  34.507  1.00  0.00     0.074 A 
ATOM     61  C   UNL A   1      36.760  31.959  32.122  1.00  0.00     0.029 A 
ATOM     62  N   UNL A   1      38.672  30.855  32.357  1.00  0.00    -0.354 N 
ATOM     63  N   UNL A   1      41.042  29.912  33.901  1.00  0.00    -0.248 NA
ATOM     64  C   UNL A   1      42.242  29.801  35.905  1.00  0.00     0.031 C 
ATOM     65  C   UNL A   1      37.329  32.312  33.352  1.00  0.00     0.029 A 
ATOM     66  C   UNL A   1      38.474  31.557  33.539  1.00  0.00     0.049 A 
ATOM     67  H   UNL A   1      39.423  30.243  32.185  1.00  0.00     0.167 HD
ATOM     68  C   UNL A   1      40.409  30.700  34.852  1.00  0.00     0.074 A 
ATOM     69  C   UNL A   1      41.172  30.562  36.077  1.00  0.00     0.031 C 
ATOM     70  C   UNL A   1      39.290  31.459  34.729  1.00  0.00     0.037 A 
BRANCH  57  71
ATOM     71  C   UNL A   1      36.627  31.348  29.090  1.00  0.00     0.057 A 
ATOM     72  C   UNL A   1      35.501  30.647  28.613  1.00  0.00     0.134 A 
ATOM     73  C   UNL A   1      36.710  32.680  28.658  1.00  0.00     0.134 A 
ATOM     74  F   UNL A   1      35.380  29.326  28.774  1.00  0.00    -0.206 F 
ATOM     75  C   UNL A   1      34.456  31.261  27.915  1.00  0.00     0.040 A 
ATOM     76  C   UNL A   1      35.659  33.319  27.982  1.00  0.00     0.040 A 
ATOM     77  F   UNL A   1      37.794  33.421  28.940  1.00  0.00    -0.206 F 
ATOM     78  C   UNL A   1      34.512  32.614  27.634  1.00  0.00     0.006 A 
ENDBRANCH  57  71
BRANCH  58  79
ATOM     79  C   UNL A   1      44.121  27.825  34.875  1.00  0.00     0.057 A 
ATOM     80  C   UNL A   1      43.916  26.583  35.485  1.00  0.00     0.134 A 
ATOM     81  C   UNL A   1      45.343  28.467  35.117  1.00  0.00     0.134 A 
ATOM     82  F   UNL A   1      42.766  25.920  35.302  1.00  0.00    -0.206 F 
ATOM     83  C   UNL A   1      44.889  26.000  36.300  1.00  0.00     0.040 A 
ATOM     84  C   UNL A   1      46.336  27.882  35.906  1.00  0.00     0.040 A 
ATOM     85  F   UNL A   1      45.606  29.654  34.551  1.00  0.00    -0.206 F 
ATOM     86  C   UNL A   1      46.108  26.644  36.501  1.00  0.00     0.006 A 
ENDBRANCH  58  79
BRANCH  70  87
ATOM     87  C   UNL A   1      38.825  32.175  35.971  1.00  0.00     0.057 A 
ATOM     88  C   UNL A   1      38.082  31.487  36.941  1.00  0.00     0.134 A 
ATOM     89  C   UNL A   1      39.112  33.524  36.224  1.00  0.00     0.134 A 
ATOM     90  F   UNL A   1      37.763  30.195  36.767  1.00  0.00    -0.206 F 
ATOM     91  C   UNL A   1      37.650  32.109  38.112  1.00  0.00     0.040 A 
ATOM     92  C   UNL A   1      38.724  34.145  37.415  1.00  0.00     0.040 A 
ATOM     93  F   UNL A   1      39.832  34.244  35.351  1.00  0.00    -0.206 F 
ATOM     94  C   UNL A   1      37.984  33.437  38.360  1.00  0.00     0.006 A 
ENDBRANCH  70  87
ENDBRANCH  44  45
ENDBRANCH  37  39
ENDBRANCH  36  37
ENDBRANCH  35  36
ENDBRANCH  34  35
ENDBRANCH  33  34
ENDBRANCH  32  33
ENDBRANCH   1  32
TORSDOF 19
ENDMDL
