MODEL 1
REMARK VINA RESULT:      -9.2      0.000      0.000
REMARK SMILES O=C(CCCN1C(=O)/C(=C/c2ccccc2Cl)SC1=S)Nc1cccc(C(=O)OCCOCCOCCOC(=O)c2ccc(-c3c4nc(c(-c5c(F)cccc5F)c5ccc([nH]5)c(-c5c(F)cccc5F)c5nc(c(-c6c(F)cccc6F)c6ccc3[nH]6)C=C5)C=C4)cc2)c1
REMARK SMILES IDX 31 1 30 2 29 3 27 4 28 5 26 6 22 7 23 8 95 9 24 10 25 11
REMARK SMILES IDX 21 12 1 13 2 14 3 16 4 17 5 18 6 19 7 20 19 21 8 22 9 23
REMARK SMILES IDX 18 24 20 25 10 26 11 27 12 28 16 29 13 30 15 31 17 32 14 33
REMARK SMILES IDX 32 34 33 35 34 36 35 37 36 38 37 39 38 40 39 41 40 42 41 43
REMARK SMILES IDX 42 44 94 45 43 46 93 47 44 48 45 49 46 50 87 51 47 52 92 53
REMARK SMILES IDX 86 54 88 55 48 56 91 57 85 58 84 59 49 61 75 62 58 63 74 64
REMARK SMILES IDX 59 65 62 66 73 67 89 68 60 69 61 70 72 72 90 73 63 74 50 75
REMARK SMILES IDX 51 76 56 77 52 78 53 79 55 80 57 81 54 82 76 83 77 84 82 85
REMARK SMILES IDX 78 86 79 87 81 88 83 89 80 90 64 91 65 92 70 93 66 94 67 95
REMARK SMILES IDX 69 96 71 97 68 98
REMARK H PARENT 21 15 88 60 62 71
REMARK Flexibility Score: inf
ROOT
ATOM      1  C   UNL A   1      37.413  32.694  34.840  1.00  0.00     0.202 C 
ENDROOT
BRANCH   1   2
ATOM      2  C   UNL A   1      37.780  31.272  34.378  1.00  0.00     0.261 C 
BRANCH   2   3
ATOM      3  O   UNL A   1      39.174  30.962  34.320  1.00  0.00    -0.460 OA
BRANCH   3   4
ATOM      4  C   UNL A   1      39.506  29.810  33.683  1.00  0.00     0.338 C 
ATOM      5  O   UNL A   1      39.055  29.391  32.629  1.00  0.00    -0.246 OA
BRANCH   4   6
ATOM      6  C   UNL A   1      40.702  29.244  34.345  1.00  0.00     0.062 A 
ATOM      7  C   UNL A   1      42.085  27.346  34.915  1.00  0.00     0.042 A 
ATOM      8  C   UNL A   1      42.770  28.135  35.846  1.00  0.00     0.026 A 
ATOM      9  C   UNL A   1      41.028  27.897  34.188  1.00  0.00     0.041 A 
ATOM     10  C   UNL A   1      42.460  29.491  35.983  1.00  0.00     0.003 A 
ATOM     11  C   UNL A   1      41.437  30.052  35.219  1.00  0.00     0.016 A 
BRANCH   7  12
ATOM     12  N   UNL A   1      42.490  26.007  34.756  1.00  0.00    -0.326 N 
ATOM     13  O   UNL A   1      41.299  25.049  36.510  1.00  0.00    -0.275 OA
ATOM     14  C   UNL A   1      42.105  24.972  35.587  1.00  0.00     0.224 C 
ATOM     15  H   UNL A   1      43.088  25.795  34.004  1.00  0.00     0.169 HD
BRANCH  14  16
ATOM     16  C   UNL A   1      42.766  23.652  35.274  1.00  0.00     0.102 C 
BRANCH  16  17
ATOM     17  C   UNL A   1      43.966  23.769  34.335  1.00  0.00     0.032 C 
BRANCH  17  18
ATOM     18  C   UNL A   1      45.333  24.021  34.990  1.00  0.00     0.128 C 
BRANCH  18  19
ATOM     19  N   UNL A   1      45.734  23.116  36.073  1.00  0.00    -0.293 N 
ATOM     20  C   UNL A   1      46.122  21.822  35.742  1.00  0.00     0.266 C 
ATOM     21  C   UNL A   1      45.626  23.368  37.427  1.00  0.00     0.148 C 
ATOM     22  O   UNL A   1      46.250  21.375  34.610  1.00  0.00    -0.268 OA
ATOM     23  C   UNL A   1      46.360  21.026  36.976  1.00  0.00     0.081 C 
ATOM     24  S   UNL A   1      46.451  22.097  38.316  1.00  0.00    -0.054 SA
ATOM     25  S   UNL A   1      44.865  24.625  38.212  1.00  0.00    -0.052 S 
ATOM     26  C   UNL A   1      46.409  19.686  36.993  1.00  0.00     0.031 C 
BRANCH  26  27
ATOM     27  C   UNL A   1      46.624  18.869  38.203  1.00  0.00    -0.006 A 
ATOM     28  C   UNL A   1      47.804  19.104  38.926  1.00  0.00     0.010 A 
ATOM     29  C   UNL A   1      45.720  17.906  38.689  1.00  0.00     0.048 A 
ATOM     30  C   UNL A   1      48.044  18.445  40.134  1.00  0.00     0.001 A 
ATOM     31  C   UNL A   1      45.948  17.275  39.916  1.00  0.00     0.021 A 
ATOM     32  Cl  UNL A   1      44.316  17.417  37.798  1.00  0.00    -0.084 Cl
ATOM     33  C   UNL A   1      47.106  17.551  40.641  1.00  0.00     0.002 A 
ENDBRANCH  26  27
ENDBRANCH  18  19
ENDBRANCH  17  18
ENDBRANCH  16  17
ENDBRANCH  14  16
ENDBRANCH   7  12
ENDBRANCH   4   6
ENDBRANCH   3   4
ENDBRANCH   2   3
ENDBRANCH   1   2
BRANCH   1  34
ATOM     34  O   UNL A   1      36.115  33.254  34.723  1.00  0.00    -0.376 OA
BRANCH  34  35
ATOM     35  C   UNL A   1      35.928  34.524  34.132  1.00  0.00     0.188 C 
BRANCH  35  36
ATOM     36  C   UNL A   1      34.574  34.895  33.494  1.00  0.00     0.188 C 
BRANCH  36  37
ATOM     37  O   UNL A   1      34.531  35.987  32.610  1.00  0.00    -0.376 OA
BRANCH  37  38
ATOM     38  C   UNL A   1      33.365  36.263  31.854  1.00  0.00     0.202 C 
BRANCH  38  39
ATOM     39  C   UNL A   1      33.186  36.038  30.338  1.00  0.00     0.261 C 
BRANCH  39  40
ATOM     40  O   UNL A   1      32.633  34.799  29.891  1.00  0.00    -0.460 OA
BRANCH  40  41
ATOM     41  C   UNL A   1      33.328  34.167  28.914  1.00  0.00     0.338 C 
ATOM     42  O   UNL A   1      33.017  34.042  27.742  1.00  0.00    -0.246 OA
BRANCH  41  43
ATOM     43  C   UNL A   1      34.650  33.782  29.440  1.00  0.00     0.060 A 
ATOM     44  C   UNL A   1      35.794  34.203  28.750  1.00  0.00     0.016 A 
ATOM     45  C   UNL A   1      34.758  32.965  30.566  1.00  0.00     0.016 A 
ATOM     46  C   UNL A   1      37.056  33.777  29.164  1.00  0.00     0.010 A 
ATOM     47  C   UNL A   1      36.022  32.522  30.968  1.00  0.00     0.010 A 
ATOM     48  C   UNL A   1      37.171  32.894  30.245  1.00  0.00    -0.014 A 
BRANCH  48  49
ATOM     49  C   UNL A   1      38.457  32.194  30.482  1.00  0.00     0.031 A 
ATOM     50  C   UNL A   1      39.460  32.836  31.403  1.00  0.00     0.074 A 
ATOM     51  C   UNL A   1      38.726  31.004  29.921  1.00  0.00     0.049 A 
ATOM     52  N   UNL A   1      40.664  32.442  31.732  1.00  0.00    -0.248 NA
ATOM     53  C   UNL A   1      39.046  34.098  32.037  1.00  0.00     0.031 C 
ATOM     54  C   UNL A   1      37.823  30.254  29.050  1.00  0.00     0.029 A 
ATOM     55  N   UNL A   1      39.849  30.219  30.000  1.00  0.00    -0.354 N 
ATOM     56  C   UNL A   1      41.152  33.410  32.601  1.00  0.00     0.074 A 
ATOM     57  C   UNL A   1      40.131  34.428  32.719  1.00  0.00     0.031 C 
ATOM     58  C   UNL A   1      38.433  29.119  28.666  1.00  0.00     0.029 A 
ATOM     59  C   UNL A   1      39.779  29.079  29.237  1.00  0.00     0.049 A 
ATOM     60  H   UNL A   1      40.632  30.450  30.551  1.00  0.00     0.167 HD
ATOM     61  C   UNL A   1      42.339  33.444  33.252  1.00  0.00     0.037 A 
ATOM     62  C   UNL A   1      40.705  28.127  29.011  1.00  0.00     0.037 A 
ATOM     63  C   UNL A   1      43.358  32.436  33.126  1.00  0.00     0.049 A 
ATOM     64  C   UNL A   1      42.054  28.230  29.677  1.00  0.00     0.074 A 
ATOM     65  C   UNL A   1      44.593  32.376  33.747  1.00  0.00     0.029 A 
ATOM     66  N   UNL A   1      43.263  31.316  32.314  1.00  0.00    -0.354 N 
ATOM     67  N   UNL A   1      42.501  29.136  30.513  1.00  0.00    -0.248 NA
ATOM     68  C   UNL A   1      43.026  27.171  29.369  1.00  0.00     0.031 C 
ATOM     69  C   UNL A   1      45.270  31.250  33.267  1.00  0.00     0.029 A 
ATOM     70  C   UNL A   1      44.429  30.572  32.399  1.00  0.00     0.049 A 
ATOM     71  H   UNL A   1      42.484  31.084  31.760  1.00  0.00     0.167 HD
ATOM     72  C   UNL A   1      43.786  28.736  30.861  1.00  0.00     0.074 A 
ATOM     73  C   UNL A   1      44.045  27.501  30.152  1.00  0.00     0.031 C 
ATOM     74  C   UNL A   1      44.671  29.334  31.699  1.00  0.00     0.037 A 
BRANCH  61  75
ATOM     75  C   UNL A   1      42.606  34.632  34.132  1.00  0.00     0.057 A 
ATOM     76  C   UNL A   1      43.127  35.831  33.627  1.00  0.00     0.134 A 
ATOM     77  C   UNL A   1      42.328  34.579  35.504  1.00  0.00     0.134 A 
ATOM     78  F   UNL A   1      43.431  35.945  32.325  1.00  0.00    -0.206 F 
ATOM     79  C   UNL A   1      43.395  36.919  34.459  1.00  0.00     0.040 A 
ATOM     80  C   UNL A   1      42.561  35.671  36.341  1.00  0.00     0.040 A 
ATOM     81  F   UNL A   1      41.823  33.464  36.054  1.00  0.00    -0.206 F 
ATOM     82  C   UNL A   1      43.105  36.843  35.820  1.00  0.00     0.006 A 
ENDBRANCH  61  75
BRANCH  62  83
ATOM     83  C   UNL A   1      40.397  26.986  28.110  1.00  0.00     0.057 A 
ATOM     84  C   UNL A   1      40.889  26.944  26.799  1.00  0.00     0.134 A 
ATOM     85  C   UNL A   1      39.582  25.926  28.525  1.00  0.00     0.134 A 
ATOM     86  F   UNL A   1      41.653  27.943  26.333  1.00  0.00    -0.206 F 
ATOM     87  C   UNL A   1      40.566  25.901  25.929  1.00  0.00     0.040 A 
ATOM     88  C   UNL A   1      39.274  24.862  27.675  1.00  0.00     0.040 A 
ATOM     89  F   UNL A   1      39.077  25.906  29.768  1.00  0.00    -0.206 F 
ATOM     90  C   UNL A   1      39.761  24.853  26.369  1.00  0.00     0.006 A 
ENDBRANCH  62  83
BRANCH  74  91
ATOM     91  C   UNL A   1      45.979  28.634  31.944  1.00  0.00     0.057 A 
ATOM     92  C   UNL A   1      46.130  27.656  32.934  1.00  0.00     0.134 A 
ATOM     93  C   UNL A   1      47.094  28.919  31.143  1.00  0.00     0.134 A 
ATOM     94  F   UNL A   1      45.107  27.340  33.742  1.00  0.00    -0.206 F 
ATOM     95  C   UNL A   1      47.351  27.007  33.139  1.00  0.00     0.040 A 
ATOM     96  C   UNL A   1      48.309  28.254  31.317  1.00  0.00     0.040 A 
ATOM     97  F   UNL A   1      47.017  29.836  30.168  1.00  0.00    -0.206 F 
ATOM     98  C   UNL A   1      48.442  27.301  32.324  1.00  0.00     0.006 A 
ENDBRANCH  74  91
ENDBRANCH  48  49
ENDBRANCH  41  43
ENDBRANCH  40  41
ENDBRANCH  39  40
ENDBRANCH  38  39
ENDBRANCH  37  38
ENDBRANCH  36  37
ENDBRANCH  35  36
ENDBRANCH  34  35
ENDBRANCH   1  34
TORSDOF 23
ENDMDL
MODEL 2
REMARK VINA RESULT:      -9.1      1.715      2.233
REMARK SMILES O=C(CCCN1C(=O)/C(=C/c2ccccc2Cl)SC1=S)Nc1cccc(C(=O)OCCOCCOCCOC(=O)c2ccc(-c3c4nc(c(-c5c(F)cccc5F)c5ccc([nH]5)c(-c5c(F)cccc5F)c5nc(c(-c6c(F)cccc6F)c6ccc3[nH]6)C=C5)C=C4)cc2)c1
REMARK SMILES IDX 31 1 30 2 29 3 27 4 28 5 26 6 22 7 23 8 95 9 24 10 25 11
REMARK SMILES IDX 21 12 1 13 2 14 3 16 4 17 5 18 6 19 7 20 19 21 8 22 9 23
REMARK SMILES IDX 18 24 20 25 10 26 11 27 12 28 16 29 13 30 15 31 17 32 14 33
REMARK SMILES IDX 32 34 33 35 34 36 35 37 36 38 37 39 38 40 39 41 40 42 41 43
REMARK SMILES IDX 42 44 94 45 43 46 93 47 44 48 45 49 46 50 87 51 47 52 92 53
REMARK SMILES IDX 86 54 88 55 48 56 91 57 85 58 84 59 49 61 75 62 58 63 74 64
REMARK SMILES IDX 59 65 62 66 73 67 89 68 60 69 61 70 72 72 90 73 63 74 50 75
REMARK SMILES IDX 51 76 56 77 52 78 53 79 55 80 57 81 54 82 76 83 77 84 82 85
REMARK SMILES IDX 78 86 79 87 81 88 83 89 80 90 64 91 65 92 70 93 66 94 67 95
REMARK SMILES IDX 69 96 71 97 68 98
REMARK H PARENT 21 15 88 60 62 71
REMARK Flexibility Score: inf
ROOT
ATOM      1  C   UNL A   1      37.064  33.038  34.726  1.00  0.00     0.202 C 
ENDROOT
BRANCH   1   2
ATOM      2  C   UNL A   1      37.426  31.604  34.299  1.00  0.00     0.261 C 
BRANCH   2   3
ATOM      3  O   UNL A   1      38.820  31.296  34.225  1.00  0.00    -0.460 OA
BRANCH   3   4
ATOM      4  C   UNL A   1      39.139  30.079  33.714  1.00  0.00     0.338 C 
ATOM      5  O   UNL A   1      38.611  29.512  32.770  1.00  0.00    -0.246 OA
BRANCH   4   6
ATOM      6  C   UNL A   1      40.411  29.638  34.328  1.00  0.00     0.062 A 
ATOM      7  C   UNL A   1      41.987  27.886  34.862  1.00  0.00     0.042 A 
ATOM      8  C   UNL A   1      42.637  28.753  35.749  1.00  0.00     0.026 A 
ATOM      9  C   UNL A   1      40.852  28.323  34.177  1.00  0.00     0.041 A 
ATOM     10  C   UNL A   1      42.209  30.077  35.880  1.00  0.00     0.003 A 
ATOM     11  C   UNL A   1      41.106  30.527  35.155  1.00  0.00     0.016 A 
BRANCH   7  12
ATOM     12  N   UNL A   1      42.508  26.588  34.706  1.00  0.00    -0.326 N 
ATOM     13  O   UNL A   1      40.922  25.403  35.927  1.00  0.00    -0.275 OA
ATOM     14  C   UNL A   1      41.965  25.455  35.282  1.00  0.00     0.224 C 
ATOM     15  H   UNL A   1      43.312  26.480  34.148  1.00  0.00     0.169 HD
BRANCH  14  16
ATOM     16  C   UNL A   1      42.773  24.201  35.057  1.00  0.00     0.102 C 
BRANCH  16  17
ATOM     17  C   UNL A   1      44.243  24.333  35.452  1.00  0.00     0.032 C 
BRANCH  17  18
ATOM     18  C   UNL A   1      44.874  23.133  36.174  1.00  0.00     0.128 C 
BRANCH  18  19
ATOM     19  N   UNL A   1      46.291  22.860  35.906  1.00  0.00    -0.293 N 
ATOM     20  C   UNL A   1      46.618  21.718  35.183  1.00  0.00     0.266 C 
ATOM     21  C   UNL A   1      47.367  23.550  36.431  1.00  0.00     0.148 C 
ATOM     22  O   UNL A   1      45.827  20.945  34.660  1.00  0.00    -0.268 OA
ATOM     23  C   UNL A   1      48.095  21.548  35.132  1.00  0.00     0.081 C 
ATOM     24  S   UNL A   1      48.838  23.013  35.636  1.00  0.00    -0.054 SA
ATOM     25  S   UNL A   1      47.398  24.715  37.622  1.00  0.00    -0.052 S 
ATOM     26  C   UNL A   1      48.696  20.392  34.813  1.00  0.00     0.031 C 
BRANCH  26  27
ATOM     27  C   UNL A   1      50.156  20.188  34.774  1.00  0.00    -0.006 A 
ATOM     28  C   UNL A   1      50.797  20.423  33.546  1.00  0.00     0.010 A 
ATOM     29  C   UNL A   1      50.941  19.808  35.878  1.00  0.00     0.048 A 
ATOM     30  C   UNL A   1      52.188  20.346  33.441  1.00  0.00     0.001 A 
ATOM     31  C   UNL A   1      52.335  19.767  35.776  1.00  0.00     0.021 A 
ATOM     32  Cl  UNL A   1      50.245  19.334  37.393  1.00  0.00    -0.084 Cl
ATOM     33  C   UNL A   1      52.958  20.044  34.561  1.00  0.00     0.002 A 
ENDBRANCH  26  27
ENDBRANCH  18  19
ENDBRANCH  17  18
ENDBRANCH  16  17
ENDBRANCH  14  16
ENDBRANCH   7  12
ENDBRANCH   4   6
ENDBRANCH   3   4
ENDBRANCH   2   3
ENDBRANCH   1   2
BRANCH   1  34
ATOM     34  O   UNL A   1      35.791  33.628  34.518  1.00  0.00    -0.376 OA
BRANCH  34  35
ATOM     35  C   UNL A   1      35.677  34.916  33.949  1.00  0.00     0.188 C 
BRANCH  35  36
ATOM     36  C   UNL A   1      34.328  35.401  33.379  1.00  0.00     0.188 C 
BRANCH  36  37
ATOM     37  O   UNL A   1      34.345  36.356  32.348  1.00  0.00    -0.376 OA
BRANCH  37  38
ATOM     38  C   UNL A   1      33.186  36.608  31.574  1.00  0.00     0.202 C 
BRANCH  38  39
ATOM     39  C   UNL A   1      32.951  36.169  30.113  1.00  0.00     0.261 C 
BRANCH  39  40
ATOM     40  O   UNL A   1      32.581  34.814  29.856  1.00  0.00    -0.460 OA
BRANCH  40  41
ATOM     41  C   UNL A   1      33.285  34.191  28.879  1.00  0.00     0.338 C 
ATOM     42  O   UNL A   1      32.972  34.057  27.709  1.00  0.00    -0.246 OA
BRANCH  41  43
ATOM     43  C   UNL A   1      34.615  33.831  29.401  1.00  0.00     0.060 A 
ATOM     44  C   UNL A   1      35.747  34.194  28.660  1.00  0.00     0.016 A 
ATOM     45  C   UNL A   1      34.742  33.091  30.578  1.00  0.00     0.016 A 
ATOM     46  C   UNL A   1      37.014  33.786  29.075  1.00  0.00     0.010 A 
ATOM     47  C   UNL A   1      36.011  32.665  30.982  1.00  0.00     0.010 A 
ATOM     48  C   UNL A   1      37.146  32.977  30.211  1.00  0.00    -0.014 A 
BRANCH  48  49
ATOM     49  C   UNL A   1      38.432  32.284  30.468  1.00  0.00     0.031 A 
ATOM     50  C   UNL A   1      39.430  32.944  31.382  1.00  0.00     0.074 A 
ATOM     51  C   UNL A   1      38.705  31.083  29.930  1.00  0.00     0.049 A 
ATOM     52  N   UNL A   1      40.632  32.558  31.724  1.00  0.00    -0.248 NA
ATOM     53  C   UNL A   1      39.010  34.217  31.990  1.00  0.00     0.031 C 
ATOM     54  C   UNL A   1      37.808  30.316  29.068  1.00  0.00     0.029 A 
ATOM     55  N   UNL A   1      39.829  30.301  30.029  1.00  0.00    -0.354 N 
ATOM     56  C   UNL A   1      41.114  33.543  32.577  1.00  0.00     0.074 A 
ATOM     57  C   UNL A   1      40.091  34.561  32.671  1.00  0.00     0.031 C 
ATOM     58  C   UNL A   1      38.421  29.175  28.709  1.00  0.00     0.029 A 
ATOM     59  C   UNL A   1      39.764  29.147  29.287  1.00  0.00     0.049 A 
ATOM     60  H   UNL A   1      40.608  30.544  30.580  1.00  0.00     0.167 HD
ATOM     61  C   UNL A   1      42.298  33.590  33.233  1.00  0.00     0.037 A 
ATOM     62  C   UNL A   1      40.692  28.192  29.084  1.00  0.00     0.037 A 
ATOM     63  C   UNL A   1      43.319  32.581  33.131  1.00  0.00     0.049 A 
ATOM     64  C   UNL A   1      42.037  28.310  29.755  1.00  0.00     0.074 A 
ATOM     65  C   UNL A   1      44.551  32.534  33.759  1.00  0.00     0.029 A 
ATOM     66  N   UNL A   1      43.230  31.446  32.340  1.00  0.00    -0.354 N 
ATOM     67  N   UNL A   1      42.479  29.232  30.576  1.00  0.00    -0.248 NA
ATOM     68  C   UNL A   1      43.013  27.247  29.471  1.00  0.00     0.031 C 
ATOM     69  C   UNL A   1      45.232  31.400  33.304  1.00  0.00     0.029 A 
ATOM     70  C   UNL A   1      44.396  30.705  32.445  1.00  0.00     0.049 A 
ATOM     71  H   UNL A   1      42.454  31.202  31.786  1.00  0.00     0.167 HD
ATOM     72  C   UNL A   1      43.763  28.840  30.938  1.00  0.00     0.074 A 
ATOM     73  C   UNL A   1      44.027  27.593  30.253  1.00  0.00     0.031 C 
ATOM     74  C   UNL A   1      44.643  29.455  31.768  1.00  0.00     0.037 A 
BRANCH  61  75
ATOM     75  C   UNL A   1      42.559  34.794  34.092  1.00  0.00     0.057 A 
ATOM     76  C   UNL A   1      42.307  34.795  35.471  1.00  0.00     0.134 A 
ATOM     77  C   UNL A   1      43.078  35.970  33.533  1.00  0.00     0.134 A 
ATOM     78  F   UNL A   1      41.795  33.708  36.068  1.00  0.00    -0.206 F 
ATOM     79  C   UNL A   1      42.530  35.928  36.254  1.00  0.00     0.040 A 
ATOM     80  C   UNL A   1      43.335  37.099  34.311  1.00  0.00     0.040 A 
ATOM     81  F   UNL A   1      43.347  36.039  32.220  1.00  0.00    -0.206 F 
ATOM     82  C   UNL A   1      43.052  37.083  35.675  1.00  0.00     0.006 A 
ENDBRANCH  61  75
BRANCH  62  83
ATOM     83  C   UNL A   1      40.391  27.035  28.203  1.00  0.00     0.057 A 
ATOM     84  C   UNL A   1      40.913  26.955  26.906  1.00  0.00     0.134 A 
ATOM     85  C   UNL A   1      39.551  25.996  28.623  1.00  0.00     0.134 A 
ATOM     86  F   UNL A   1      41.702  27.932  26.435  1.00  0.00    -0.206 F 
ATOM     87  C   UNL A   1      40.597  25.896  26.053  1.00  0.00     0.040 A 
ATOM     88  C   UNL A   1      39.249  24.916  27.791  1.00  0.00     0.040 A 
ATOM     89  F   UNL A   1      39.016  26.012  29.853  1.00  0.00    -0.206 F 
ATOM     90  C   UNL A   1      39.767  24.869  26.498  1.00  0.00     0.006 A 
ENDBRANCH  62  83
BRANCH  74  91
ATOM     91  C   UNL A   1      45.950  28.761  32.033  1.00  0.00     0.057 A 
ATOM     92  C   UNL A   1      46.146  27.931  33.144  1.00  0.00     0.134 A 
ATOM     93  C   UNL A   1      47.017  28.897  31.134  1.00  0.00     0.134 A 
ATOM     94  F   UNL A   1      45.171  27.764  34.049  1.00  0.00    -0.206 F 
ATOM     95  C   UNL A   1      47.365  27.286  33.367  1.00  0.00     0.040 A 
ATOM     96  C   UNL A   1      48.229  28.230  31.329  1.00  0.00     0.040 A 
ATOM     97  F   UNL A   1      46.896  29.666  30.042  1.00  0.00    -0.206 F 
ATOM     98  C   UNL A   1      48.407  27.428  32.454  1.00  0.00     0.006 A 
ENDBRANCH  74  91
ENDBRANCH  48  49
ENDBRANCH  41  43
ENDBRANCH  40  41
ENDBRANCH  39  40
ENDBRANCH  38  39
ENDBRANCH  37  38
ENDBRANCH  36  37
ENDBRANCH  35  36
ENDBRANCH  34  35
ENDBRANCH   1  34
TORSDOF 23
ENDMDL
MODEL 3
REMARK VINA RESULT:      -8.6      0.815      5.824
REMARK SMILES O=C(CCCN1C(=O)/C(=C/c2ccccc2Cl)SC1=S)Nc1cccc(C(=O)OCCOCCOCCOC(=O)c2ccc(-c3c4nc(c(-c5c(F)cccc5F)c5ccc([nH]5)c(-c5c(F)cccc5F)c5nc(c(-c6c(F)cccc6F)c6ccc3[nH]6)C=C5)C=C4)cc2)c1
REMARK SMILES IDX 31 1 30 2 29 3 27 4 28 5 26 6 22 7 23 8 95 9 24 10 25 11
REMARK SMILES IDX 21 12 1 13 2 14 3 16 4 17 5 18 6 19 7 20 19 21 8 22 9 23
REMARK SMILES IDX 18 24 20 25 10 26 11 27 12 28 16 29 13 30 15 31 17 32 14 33
REMARK SMILES IDX 32 34 33 35 34 36 35 37 36 38 37 39 38 40 39 41 40 42 41 43
REMARK SMILES IDX 42 44 94 45 43 46 93 47 44 48 45 49 46 50 87 51 47 52 92 53
REMARK SMILES IDX 86 54 88 55 48 56 91 57 85 58 84 59 49 61 75 62 58 63 74 64
REMARK SMILES IDX 59 65 62 66 73 67 89 68 60 69 61 70 72 72 90 73 63 74 50 75
REMARK SMILES IDX 51 76 56 77 52 78 53 79 55 80 57 81 54 82 76 83 77 84 82 85
REMARK SMILES IDX 78 86 79 87 81 88 83 89 80 90 64 91 65 92 70 93 66 94 67 95
REMARK SMILES IDX 69 96 71 97 68 98
REMARK H PARENT 21 15 88 60 62 71
REMARK Flexibility Score: inf
ROOT
ATOM      1  C   UNL A   1      37.692  32.519  34.856  1.00  0.00     0.202 C 
ENDROOT
BRANCH   1   2
ATOM      2  C   UNL A   1      37.941  31.093  34.332  1.00  0.00     0.261 C 
BRANCH   2   3
ATOM      3  O   UNL A   1      39.302  30.739  34.076  1.00  0.00    -0.460 OA
BRANCH   3   4
ATOM      4  C   UNL A   1      39.520  29.470  33.642  1.00  0.00     0.338 C 
ATOM      5  O   UNL A   1      38.959  28.898  32.720  1.00  0.00    -0.246 OA
BRANCH   4   6
ATOM      6  C   UNL A   1      40.737  28.956  34.307  1.00  0.00     0.062 A 
ATOM      7  C   UNL A   1      42.225  27.128  34.839  1.00  0.00     0.042 A 
ATOM      8  C   UNL A   1      42.843  27.924  35.810  1.00  0.00     0.026 A 
ATOM      9  C   UNL A   1      41.148  27.638  34.110  1.00  0.00     0.041 A 
ATOM     10  C   UNL A   1      42.447  29.253  35.987  1.00  0.00     0.003 A 
ATOM     11  C   UNL A   1      41.405  29.777  35.222  1.00  0.00     0.016 A 
BRANCH   7  12
ATOM     12  N   UNL A   1      42.716  25.823  34.643  1.00  0.00    -0.326 N 
ATOM     13  O   UNL A   1      41.490  24.716  36.281  1.00  0.00    -0.275 OA
ATOM     14  C   UNL A   1      42.348  24.729  35.402  1.00  0.00     0.224 C 
ATOM     15  H   UNL A   1      43.364  25.681  33.916  1.00  0.00     0.169 HD
BRANCH  14  16
ATOM     16  C   UNL A   1      43.100  23.465  35.068  1.00  0.00     0.102 C 
BRANCH  16  17
ATOM     17  C   UNL A   1      44.362  23.698  34.239  1.00  0.00     0.032 C 
BRANCH  17  18
ATOM     18  C   UNL A   1      45.662  23.955  35.018  1.00  0.00     0.128 C 
BRANCH  18  19
ATOM     19  N   UNL A   1      45.957  23.059  36.143  1.00  0.00    -0.293 N 
ATOM     20  C   UNL A   1      46.382  21.765  35.861  1.00  0.00     0.266 C 
ATOM     21  C   UNL A   1      45.714  23.319  37.478  1.00  0.00     0.148 C 
ATOM     22  O   UNL A   1      46.624  21.312  34.751  1.00  0.00    -0.268 OA
ATOM     23  C   UNL A   1      46.500  20.979  37.118  1.00  0.00     0.081 C 
ATOM     24  S   UNL A   1      46.452  22.059  38.453  1.00  0.00    -0.054 SA
ATOM     25  S   UNL A   1      44.872  24.578  38.174  1.00  0.00    -0.052 S 
ATOM     26  C   UNL A   1      46.553  19.639  37.150  1.00  0.00     0.031 C 
BRANCH  26  27
ATOM     27  C   UNL A   1      46.649  18.831  38.381  1.00  0.00    -0.006 A 
ATOM     28  C   UNL A   1      45.522  18.070  38.731  1.00  0.00     0.010 A 
ATOM     29  C   UNL A   1      47.792  18.752  39.197  1.00  0.00     0.048 A 
ATOM     30  C   UNL A   1      45.558  17.204  39.826  1.00  0.00     0.001 A 
ATOM     31  C   UNL A   1      47.835  17.858  40.272  1.00  0.00     0.021 A 
ATOM     32  Cl  UNL A   1      49.176  19.767  38.959  1.00  0.00    -0.084 Cl
ATOM     33  C   UNL A   1      46.721  17.079  40.580  1.00  0.00     0.002 A 
ENDBRANCH  26  27
ENDBRANCH  18  19
ENDBRANCH  17  18
ENDBRANCH  16  17
ENDBRANCH  14  16
ENDBRANCH   7  12
ENDBRANCH   4   6
ENDBRANCH   3   4
ENDBRANCH   2   3
ENDBRANCH   1   2
BRANCH   1  34
ATOM     34  O   UNL A   1      36.404  33.062  35.093  1.00  0.00    -0.376 OA
BRANCH  34  35
ATOM     35  C   UNL A   1      36.010  34.276  34.488  1.00  0.00     0.188 C 
BRANCH  35  36
ATOM     36  C   UNL A   1      34.746  34.334  33.605  1.00  0.00     0.188 C 
BRANCH  36  37
ATOM     37  O   UNL A   1      34.495  35.509  32.876  1.00  0.00    -0.376 OA
BRANCH  37  38
ATOM     38  C   UNL A   1      33.389  35.594  31.996  1.00  0.00     0.202 C 
BRANCH  38  39
ATOM     39  C   UNL A   1      33.440  35.520  30.455  1.00  0.00     0.261 C 
BRANCH  39  40
ATOM     40  O   UNL A   1      33.036  34.309  29.815  1.00  0.00    -0.460 OA
BRANCH  40  41
ATOM     41  C   UNL A   1      33.877  33.845  28.859  1.00  0.00     0.338 C 
ATOM     42  O   UNL A   1      33.685  33.805  27.656  1.00  0.00    -0.246 OA
BRANCH  41  43
ATOM     43  C   UNL A   1      35.181  33.538  29.475  1.00  0.00     0.060 A 
ATOM     44  C   UNL A   1      36.338  34.075  28.896  1.00  0.00     0.016 A 
ATOM     45  C   UNL A   1      35.265  32.685  30.576  1.00  0.00     0.016 A 
ATOM     46  C   UNL A   1      37.593  33.727  29.395  1.00  0.00     0.010 A 
ATOM     47  C   UNL A   1      36.525  32.321  31.062  1.00  0.00     0.010 A 
ATOM     48  C   UNL A   1      37.694  32.810  30.449  1.00  0.00    -0.014 A 
BRANCH  48  49
ATOM     49  C   UNL A   1      39.009  32.200  30.763  1.00  0.00     0.031 A 
ATOM     50  C   UNL A   1      39.367  30.895  30.104  1.00  0.00     0.074 A 
ATOM     51  C   UNL A   1      39.883  32.798  31.589  1.00  0.00     0.049 A 
ATOM     52  N   UNL A   1      40.433  30.150  30.250  1.00  0.00    -0.248 NA
ATOM     53  C   UNL A   1      38.382  30.357  29.150  1.00  0.00     0.031 C 
ATOM     54  C   UNL A   1      39.679  34.084  32.253  1.00  0.00     0.029 A 
ATOM     55  N   UNL A   1      41.123  32.390  32.014  1.00  0.00    -0.354 N 
ATOM     56  C   UNL A   1      40.243  29.055  29.416  1.00  0.00     0.074 A 
ATOM     57  C   UNL A   1      38.945  29.212  28.797  1.00  0.00     0.031 C 
ATOM     58  C   UNL A   1      40.756  34.356  33.011  1.00  0.00     0.029 A 
ATOM     59  C   UNL A   1      41.707  33.250  32.912  1.00  0.00     0.049 A 
ATOM     60  H   UNL A   1      41.554  31.560  31.705  1.00  0.00     0.167 HD
ATOM     61  C   UNL A   1      41.078  28.016  29.179  1.00  0.00     0.037 A 
ATOM     62  C   UNL A   1      42.867  33.142  33.590  1.00  0.00     0.037 A 
ATOM     63  C   UNL A   1      42.365  27.855  29.803  1.00  0.00     0.049 A 
ATOM     64  C   UNL A   1      43.741  31.933  33.376  1.00  0.00     0.074 A 
ATOM     65  C   UNL A   1      43.289  26.840  29.626  1.00  0.00     0.029 A 
ATOM     66  N   UNL A   1      42.904  28.729  30.735  1.00  0.00    -0.354 N 
ATOM     67  N   UNL A   1      43.566  30.911  32.572  1.00  0.00    -0.248 NA
ATOM     68  C   UNL A   1      44.981  31.865  34.164  1.00  0.00     0.031 C 
ATOM     69  C   UNL A   1      44.362  27.069  30.494  1.00  0.00     0.029 A 
ATOM     70  C   UNL A   1      44.138  28.262  31.161  1.00  0.00     0.049 A 
ATOM     71  H   UNL A   1      42.475  29.557  31.048  1.00  0.00     0.167 HD
ATOM     72  C   UNL A   1      44.687  30.104  32.727  1.00  0.00     0.074 A 
ATOM     73  C   UNL A   1      45.541  30.758  33.697  1.00  0.00     0.031 C 
ATOM     74  C   UNL A   1      44.987  28.930  32.117  1.00  0.00     0.037 A 
BRANCH  61  75
ATOM     75  C   UNL A   1      40.603  26.957  28.226  1.00  0.00     0.057 A 
ATOM     76  C   UNL A   1      39.630  26.013  28.584  1.00  0.00     0.134 A 
ATOM     77  C   UNL A   1      41.119  26.885  26.925  1.00  0.00     0.134 A 
ATOM     78  F   UNL A   1      39.105  26.015  29.819  1.00  0.00    -0.206 F 
ATOM     79  C   UNL A   1      39.215  25.019  27.698  1.00  0.00     0.040 A 
ATOM     80  C   UNL A   1      40.689  25.915  26.019  1.00  0.00     0.040 A 
ATOM     81  F   UNL A   1      42.050  27.759  26.513  1.00  0.00    -0.206 F 
ATOM     82  C   UNL A   1      39.741  24.971  26.408  1.00  0.00     0.006 A 
ENDBRANCH  61  75
BRANCH  62  83
ATOM     83  C   UNL A   1      43.276  34.207  34.541  1.00  0.00     0.057 A 
ATOM     84  C   UNL A   1      44.073  35.282  34.127  1.00  0.00     0.134 A 
ATOM     85  C   UNL A   1      42.908  34.163  35.891  1.00  0.00     0.134 A 
ATOM     86  F   UNL A   1      44.481  35.367  32.852  1.00  0.00    -0.206 F 
ATOM     87  C   UNL A   1      44.504  36.262  35.023  1.00  0.00     0.040 A 
ATOM     88  C   UNL A   1      43.307  35.151  36.793  1.00  0.00     0.040 A 
ATOM     89  F   UNL A   1      42.147  33.159  36.353  1.00  0.00    -0.206 F 
ATOM     90  C   UNL A   1      44.115  36.201  36.360  1.00  0.00     0.006 A 
ENDBRANCH  62  83
BRANCH  74  91
ATOM     91  C   UNL A   1      46.317  28.303  32.430  1.00  0.00     0.057 A 
ATOM     92  C   UNL A   1      47.469  28.579  31.684  1.00  0.00     0.134 A 
ATOM     93  C   UNL A   1      46.451  27.438  33.526  1.00  0.00     0.134 A 
ATOM     94  F   UNL A   1      47.411  29.391  30.617  1.00  0.00    -0.206 F 
ATOM     95  C   UNL A   1      48.700  27.996  31.998  1.00  0.00     0.040 A 
ATOM     96  C   UNL A   1      47.681  26.875  33.868  1.00  0.00     0.040 A 
ATOM     97  F   UNL A   1      45.391  27.138  34.291  1.00  0.00    -0.206 F 
ATOM     98  C   UNL A   1      48.809  27.147  33.097  1.00  0.00     0.006 A 
ENDBRANCH  74  91
ENDBRANCH  48  49
ENDBRANCH  41  43
ENDBRANCH  40  41
ENDBRANCH  39  40
ENDBRANCH  38  39
ENDBRANCH  37  38
ENDBRANCH  36  37
ENDBRANCH  35  36
ENDBRANCH  34  35
ENDBRANCH   1  34
TORSDOF 23
ENDMDL
