MODEL 1
REMARK VINA RESULT:     -12.2      0.000      0.000
REMARK SMILES C[C@@H](C(=O)OCCOCCOCCOC(=O)c1ccc(-c2c3nc(c(-c4c(F)cccc4F)c4ccc([nH]4)c(-c4c(F)cccc4F)c4nc(c(-c5c(F)cccc5F)c5ccc2[nH]5)C=C4)C=C3)cc1)c1ccc2c3cc(Cl)ccc3n(C(=O)c3ccc(Cl)cc3)c2c1
REMARK SMILES IDX 9 1 8 2 7 3 6 4 5 5 3 6 4 7 2 8 1 9 71 10 72 11 93 12 73 13
REMARK SMILES IDX 92 14 74 15 82 16 75 17 81 18 76 19 80 20 77 21 79 22 78 23
REMARK SMILES IDX 83 24 84 25 85 26 86 27 91 28 87 29 90 30 88 31 89 32 10 33
REMARK SMILES IDX 11 34 12 35 13 36 14 37 15 38 16 39 17 40 18 41 70 42 19 43
REMARK SMILES IDX 69 44 20 45 21 46 22 47 63 48 23 49 68 50 62 51 64 52 24 53
REMARK SMILES IDX 67 54 61 55 60 56 25 58 51 59 34 60 50 61 35 62 38 63 49 64
REMARK SMILES IDX 65 65 36 66 37 67 48 69 66 70 39 71 26 72 27 73 32 74 28 75
REMARK SMILES IDX 29 76 31 77 33 78 30 79 52 80 53 81 58 82 54 83 55 84 57 85
REMARK SMILES IDX 59 86 56 87 40 88 41 89 46 90 42 91 43 92 45 93 47 94 44 95
REMARK H PARENT 64 57 38 68
REMARK Flexibility Score: inf
ROOT
ATOM      1  C   UNL A   1      43.938  18.071  25.785  1.00  0.00     0.188 C 
ENDROOT
BRANCH   1   2
ATOM      2  O   UNL A   1      43.205  18.874  26.683  1.00  0.00    -0.376 OA
BRANCH   2   3
ATOM      3  C   UNL A   1      42.105  19.549  26.106  1.00  0.00     0.202 C 
BRANCH   3   4
ATOM      4  C   UNL A   1      41.965  21.078  26.281  1.00  0.00     0.261 C 
BRANCH   4   5
ATOM      5  O   UNL A   1      40.719  21.721  25.943  1.00  0.00    -0.463 OA
BRANCH   5   6
ATOM      6  C   UNL A   1      40.160  22.566  26.847  1.00  0.00     0.313 C 
ATOM      7  O   UNL A   1      40.501  22.601  28.025  1.00  0.00    -0.252 OA
BRANCH   6   8
ATOM      8  C   UNL A   1      39.035  23.471  26.264  1.00  0.00     0.126 C 
ATOM      9  C   UNL A   1      38.441  24.607  27.110  1.00  0.00     0.025 C 
BRANCH   8  10
ATOM     10  C   UNL A   1      37.930  22.590  25.698  1.00  0.00    -0.032 A 
ATOM     11  C   UNL A   1      38.207  21.273  25.342  1.00  0.00     0.005 A 
ATOM     12  C   UNL A   1      36.607  23.059  25.657  1.00  0.00     0.032 A 
ATOM     13  C   UNL A   1      37.171  20.398  25.034  1.00  0.00     0.011 A 
ATOM     14  C   UNL A   1      35.565  22.177  25.386  1.00  0.00     0.057 A 
ATOM     15  C   UNL A   1      35.839  20.855  25.086  1.00  0.00     0.008 A 
ATOM     16  N   UNL A   1      34.167  22.386  25.437  1.00  0.00    -0.276 N 
ATOM     17  C   UNL A   1      34.611  20.243  24.797  1.00  0.00     0.009 A 
ATOM     18  C   UNL A   1      33.660  21.283  24.655  1.00  0.00     0.057 A 
ATOM     19  C   UNL A   1      34.320  18.899  24.466  1.00  0.00     0.031 A 
ATOM     20  C   UNL A   1      32.540  20.963  23.852  1.00  0.00     0.029 A 
ATOM     21  C   UNL A   1      33.136  18.595  23.825  1.00  0.00     0.041 A 
ATOM     22  C   UNL A   1      32.287  19.622  23.461  1.00  0.00     0.023 A 
ATOM     23  Cl  UNL A   1      32.794  16.963  23.409  1.00  0.00    -0.084 Cl
BRANCH  16  24
ATOM     24  C   UNL A   1      33.628  23.451  26.377  1.00  0.00     0.262 C 
ATOM     25  O   UNL A   1      33.603  23.078  27.555  1.00  0.00    -0.268 OA
BRANCH  24  26
ATOM     26  C   UNL A   1      32.925  24.924  26.250  1.00  0.00     0.040 A 
ATOM     27  C   UNL A   1      33.503  26.855  25.975  1.00  0.00     0.015 A 
ATOM     28  C   UNL A   1      31.258  24.510  25.653  1.00  0.00     0.015 A 
ATOM     29  C   UNL A   1      32.441  27.980  25.071  1.00  0.00     0.021 A 
ATOM     30  C   UNL A   1      30.345  25.721  24.724  1.00  0.00     0.021 A 
ATOM     31  C   UNL A   1      30.936  27.368  24.446  1.00  0.00     0.041 A 
ATOM     32  Cl  UNL A   1      29.952  28.462  23.548  1.00  0.00    -0.084 Cl
ENDBRANCH  24  26
ENDBRANCH  16  24
ENDBRANCH   8  10
ENDBRANCH   6   8
ENDBRANCH   5   6
ENDBRANCH   4   5
ENDBRANCH   3   4
ENDBRANCH   2   3
ENDBRANCH   1   2
BRANCH   1  33
ATOM     33  C   UNL A   1      45.108  18.846  25.174  1.00  0.00     0.188 C 
BRANCH  33  34
ATOM     34  O   UNL A   1      45.007  20.186  24.731  1.00  0.00    -0.376 OA
BRANCH  34  35
ATOM     35  C   UNL A   1      46.106  21.059  24.884  1.00  0.00     0.202 C 
BRANCH  35  36
ATOM     36  C   UNL A   1      45.906  22.360  25.667  1.00  0.00     0.261 C 
BRANCH  36  37
ATOM     37  O   UNL A   1      45.475  23.492  24.905  1.00  0.00    -0.460 OA
BRANCH  37  38
ATOM     38  C   UNL A   1      44.154  23.796  24.889  1.00  0.00     0.338 C 
ATOM     39  O   UNL A   1      43.284  23.362  24.162  1.00  0.00    -0.246 OA
BRANCH  38  40
ATOM     40  C   UNL A   1      43.931  24.738  26.012  1.00  0.00     0.060 A 
ATOM     41  C   UNL A   1      43.324  24.194  27.587  1.00  0.00     0.016 A 
ATOM     42  C   UNL A   1      43.958  26.378  25.506  1.00  0.00     0.016 A 
ATOM     43  C   UNL A   1      42.651  25.315  28.806  1.00  0.00     0.010 A 
ATOM     44  C   UNL A   1      43.316  27.603  26.589  1.00  0.00     0.010 A 
ATOM     45  C   UNL A   1      42.620  27.115  28.432  1.00  0.00    -0.014 A 
BRANCH  45  46
ATOM     46  C   UNL A   1      42.139  27.801  29.758  1.00  0.00     0.031 A 
ATOM     47  C   UNL A   1      40.782  28.442  29.717  1.00  0.00     0.074 A 
ATOM     48  C   UNL A   1      42.789  27.734  30.951  1.00  0.00     0.049 A 
ATOM     49  N   UNL A   1      40.283  29.360  30.493  1.00  0.00    -0.248 NA
ATOM     50  C   UNL A   1      39.884  28.041  28.622  1.00  0.00     0.031 C 
ATOM     51  C   UNL A   1      43.938  26.885  31.272  1.00  0.00     0.029 A 
ATOM     52  N   UNL A   1      42.555  28.340  32.162  1.00  0.00    -0.354 N 
ATOM     53  C   UNL A   1      39.108  29.761  29.872  1.00  0.00     0.074 A 
ATOM     54  C   UNL A   1      38.964  28.984  28.669  1.00  0.00     0.031 C 
ATOM     55  C   UNL A   1      44.346  27.048  32.527  1.00  0.00     0.029 A 
ATOM     56  C   UNL A   1      43.489  28.029  33.135  1.00  0.00     0.049 A 
ATOM     57  H   UNL A   1      41.792  28.941  32.324  1.00  0.00     0.167 HD
ATOM     58  C   UNL A   1      38.238  30.705  30.287  1.00  0.00     0.037 A 
ATOM     59  C   UNL A   1      43.653  28.461  34.397  1.00  0.00     0.037 A 
ATOM     60  C   UNL A   1      38.356  31.329  31.574  1.00  0.00     0.049 A 
ATOM     61  C   UNL A   1      42.640  29.441  34.873  1.00  0.00     0.074 A 
ATOM     62  C   UNL A   1      37.555  32.292  32.151  1.00  0.00     0.029 A 
ATOM     63  N   UNL A   1      39.329  30.993  32.512  1.00  0.00    -0.354 N 
ATOM     64  N   UNL A   1      41.614  29.929  34.215  1.00  0.00    -0.248 NA
ATOM     65  C   UNL A   1      42.789  29.936  36.238  1.00  0.00     0.031 C 
ATOM     66  C   UNL A   1      38.052  32.548  33.433  1.00  0.00     0.029 A 
ATOM     67  C   UNL A   1      39.137  31.714  33.673  1.00  0.00     0.049 A 
ATOM     68  H   UNL A   1      40.049  30.336  32.368  1.00  0.00     0.167 HD
ATOM     69  C   UNL A   1      40.986  30.791  35.090  1.00  0.00     0.074 A 
ATOM     70  C   UNL A   1      41.726  30.718  36.339  1.00  0.00     0.031 C 
ATOM     71  C   UNL A   1      39.912  31.589  34.881  1.00  0.00     0.037 A 
BRANCH  58  72
ATOM     72  C   UNL A   1      37.171  31.127  29.317  1.00  0.00     0.057 A 
ATOM     73  C   UNL A   1      37.179  32.365  28.657  1.00  0.00     0.134 A 
ATOM     74  C   UNL A   1      36.054  30.304  29.115  1.00  0.00     0.134 A 
ATOM     75  F   UNL A   1      38.198  33.220  28.831  1.00  0.00    -0.206 F 
ATOM     76  C   UNL A   1      36.095  32.793  27.887  1.00  0.00     0.040 A 
ATOM     77  C   UNL A   1      34.983  30.703  28.313  1.00  0.00     0.040 A 
ATOM     78  F   UNL A   1      35.970  29.108  29.716  1.00  0.00    -0.206 F 
ATOM     79  C   UNL A   1      34.995  31.959  27.710  1.00  0.00     0.006 A 
ENDBRANCH  58  72
BRANCH  59  80
ATOM     80  C   UNL A   1      44.777  27.955  35.240  1.00  0.00     0.057 A 
ATOM     81  C   UNL A   1      44.673  26.768  35.973  1.00  0.00     0.134 A 
ATOM     82  C   UNL A   1      46.019  28.613  35.285  1.00  0.00     0.134 A 
ATOM     83  F   UNL A   1      43.514  26.096  36.006  1.00  0.00    -0.206 F 
ATOM     84  C   UNL A   1      45.746  26.253  36.708  1.00  0.00     0.040 A 
ATOM     85  C   UNL A   1      47.109  28.096  35.991  1.00  0.00     0.040 A 
ATOM     86  F   UNL A   1      46.208  29.753  34.603  1.00  0.00    -0.206 F 
ATOM     87  C   UNL A   1      46.972  26.914  36.710  1.00  0.00     0.006 A 
ENDBRANCH  59  80
BRANCH  71  88
ATOM     88  C   UNL A   1      39.490  32.413  36.050  1.00  0.00     0.057 A 
ATOM     89  C   UNL A   1      38.539  31.948  36.965  1.00  0.00     0.134 A 
ATOM     90  C   UNL A   1      40.054  33.674  36.262  1.00  0.00     0.134 A 
ATOM     91  F   UNL A   1      37.951  30.754  36.789  1.00  0.00    -0.206 F 
ATOM     92  C   UNL A   1      38.141  32.729  38.045  1.00  0.00     0.040 A 
ATOM     93  C   UNL A   1      39.689  34.449  37.357  1.00  0.00     0.040 A 
ATOM     94  F   UNL A   1      40.971  34.163  35.413  1.00  0.00    -0.206 F 
ATOM     95  C   UNL A   1      38.724  33.979  38.248  1.00  0.00     0.006 A 
ENDBRANCH  71  88
ENDBRANCH  45  46
ENDBRANCH  38  40
ENDBRANCH  37  38
ENDBRANCH  36  37
ENDBRANCH  35  36
ENDBRANCH  34  35
ENDBRANCH  33  34
ENDBRANCH   1  33
TORSDOF 20
ENDMDL
MODEL 2
REMARK VINA RESULT:     -11.5      1.950      7.751
REMARK SMILES C[C@@H](C(=O)OCCOCCOCCOC(=O)c1ccc(-c2c3nc(c(-c4c(F)cccc4F)c4ccc([nH]4)c(-c4c(F)cccc4F)c4nc(c(-c5c(F)cccc5F)c5ccc2[nH]5)C=C4)C=C3)cc1)c1ccc2c3cc(Cl)ccc3n(C(=O)c3ccc(Cl)cc3)c2c1
REMARK SMILES IDX 9 1 8 2 7 3 6 4 5 5 3 6 4 7 2 8 1 9 71 10 72 11 93 12 73 13
REMARK SMILES IDX 92 14 74 15 82 16 75 17 81 18 76 19 80 20 77 21 79 22 78 23
REMARK SMILES IDX 83 24 84 25 85 26 86 27 91 28 87 29 90 30 88 31 89 32 10 33
REMARK SMILES IDX 11 34 12 35 13 36 14 37 15 38 16 39 17 40 18 41 70 42 19 43
REMARK SMILES IDX 69 44 20 45 21 46 22 47 63 48 23 49 68 50 62 51 64 52 24 53
REMARK SMILES IDX 67 54 61 55 60 56 25 58 51 59 34 60 50 61 35 62 38 63 49 64
REMARK SMILES IDX 65 65 36 66 37 67 48 69 66 70 39 71 26 72 27 73 32 74 28 75
REMARK SMILES IDX 29 76 31 77 33 78 30 79 52 80 53 81 58 82 54 83 55 84 57 85
REMARK SMILES IDX 59 86 56 87 40 88 41 89 46 90 42 91 43 92 45 93 47 94 44 95
REMARK H PARENT 64 57 38 68
REMARK Flexibility Score: inf
ROOT
ATOM      1  C   UNL A   1      37.541  23.088  25.989  1.00  0.00     0.188 C 
ENDROOT
BRANCH   1   2
ATOM      2  O   UNL A   1      36.957  22.604  24.801  1.00  0.00    -0.376 OA
BRANCH   2   3
ATOM      3  C   UNL A   1      36.005  23.469  24.217  1.00  0.00     0.202 C 
BRANCH   3   4
ATOM      4  C   UNL A   1      35.071  22.942  23.103  1.00  0.00     0.261 C 
BRANCH   4   5
ATOM      5  O   UNL A   1      34.482  23.872  22.172  1.00  0.00    -0.463 OA
BRANCH   5   6
ATOM      6  C   UNL A   1      33.279  23.564  21.622  1.00  0.00     0.313 C 
ATOM      7  O   UNL A   1      32.848  22.416  21.565  1.00  0.00    -0.252 OA
BRANCH   6   8
ATOM      8  C   UNL A   1      32.503  24.789  21.053  1.00  0.00     0.126 C 
ATOM      9  C   UNL A   1      32.880  25.374  19.684  1.00  0.00     0.025 C 
BRANCH   8  10
ATOM     10  C   UNL A   1      32.457  25.883  22.110  1.00  0.00    -0.032 A 
ATOM     11  C   UNL A   1      32.404  27.220  21.723  1.00  0.00     0.005 A 
ATOM     12  C   UNL A   1      32.335  25.547  23.468  1.00  0.00     0.032 A 
ATOM     13  C   UNL A   1      32.141  28.212  22.662  1.00  0.00     0.011 A 
ATOM     14  C   UNL A   1      32.034  26.531  24.404  1.00  0.00     0.057 A 
ATOM     15  C   UNL A   1      31.927  27.852  24.008  1.00  0.00     0.008 A 
ATOM     16  N   UNL A   1      31.722  26.407  25.779  1.00  0.00    -0.276 N 
ATOM     17  C   UNL A   1      31.690  28.604  25.168  1.00  0.00     0.009 A 
ATOM     18  C   UNL A   1      31.941  27.749  26.268  1.00  0.00     0.057 A 
ATOM     19  C   UNL A   1      31.469  29.992  25.321  1.00  0.00     0.031 A 
ATOM     20  C   UNL A   1      32.295  28.407  27.468  1.00  0.00     0.029 A 
ATOM     21  C   UNL A   1      31.665  30.582  26.553  1.00  0.00     0.041 A 
ATOM     22  C   UNL A   1      32.138  29.812  27.599  1.00  0.00     0.023 A 
ATOM     23  Cl  UNL A   1      31.412  32.272  26.733  1.00  0.00    -0.084 Cl
BRANCH  16  24
ATOM     24  C   UNL A   1      31.096  25.111  26.264  1.00  0.00     0.262 C 
ATOM     25  O   UNL A   1      30.161  25.300  27.051  1.00  0.00    -0.268 OA
BRANCH  24  26
ATOM     26  C   UNL A   1      31.407  23.508  26.152  1.00  0.00     0.040 A 
ATOM     27  C   UNL A   1      30.994  21.974  24.882  1.00  0.00     0.015 A 
ATOM     28  C   UNL A   1      32.943  23.342  27.113  1.00  0.00     0.015 A 
ATOM     29  C   UNL A   1      32.183  20.649  24.673  1.00  0.00     0.021 A 
ATOM     30  C   UNL A   1      34.048  21.995  26.753  1.00  0.00     0.021 A 
ATOM     31  C   UNL A   1      33.671  20.728  25.573  1.00  0.00     0.041 A 
ATOM     32  Cl  UNL A   1      34.811  19.459  25.324  1.00  0.00    -0.084 Cl
ENDBRANCH  24  26
ENDBRANCH  16  24
ENDBRANCH   8  10
ENDBRANCH   6   8
ENDBRANCH   5   6
ENDBRANCH   4   5
ENDBRANCH   3   4
ENDBRANCH   2   3
ENDBRANCH   1   2
BRANCH   1  33
ATOM     33  C   UNL A   1      38.988  22.609  26.133  1.00  0.00     0.188 C 
BRANCH  33  34
ATOM     34  O   UNL A   1      39.391  21.271  25.912  1.00  0.00    -0.376 OA
BRANCH  34  35
ATOM     35  C   UNL A   1      40.423  20.712  26.697  1.00  0.00     0.202 C 
BRANCH  35  36
ATOM     36  C   UNL A   1      41.822  20.587  26.087  1.00  0.00     0.261 C 
BRANCH  36  37
ATOM     37  O   UNL A   1      42.334  21.758  25.444  1.00  0.00    -0.460 OA
BRANCH  37  38
ATOM     38  C   UNL A   1      43.584  22.176  25.762  1.00  0.00     0.338 C 
ATOM     39  O   UNL A   1      44.651  21.728  25.394  1.00  0.00    -0.246 OA
BRANCH  38  40
ATOM     40  C   UNL A   1      43.417  23.375  26.618  1.00  0.00     0.060 A 
ATOM     41  C   UNL A   1      42.570  23.305  28.175  1.00  0.00     0.016 A 
ATOM     42  C   UNL A   1      43.780  24.830  25.785  1.00  0.00     0.016 A 
ATOM     43  C   UNL A   1      41.983  24.765  29.025  1.00  0.00     0.010 A 
ATOM     44  C   UNL A   1      43.256  26.354  26.486  1.00  0.00     0.010 A 
ATOM     45  C   UNL A   1      42.304  26.413  28.277  1.00  0.00    -0.014 A 
BRANCH  45  46
ATOM     46  C   UNL A   1      41.819  27.450  29.349  1.00  0.00     0.031 A 
ATOM     47  C   UNL A   1      42.678  27.590  30.572  1.00  0.00     0.074 A 
ATOM     48  C   UNL A   1      40.778  28.312  29.185  1.00  0.00     0.049 A 
ATOM     49  N   UNL A   1      42.368  28.065  31.744  1.00  0.00    -0.248 NA
ATOM     50  C   UNL A   1      44.052  27.072  30.489  1.00  0.00     0.031 C 
ATOM     51  C   UNL A   1      40.038  28.560  27.947  1.00  0.00     0.029 A 
ATOM     52  N   UNL A   1      40.178  29.203  30.042  1.00  0.00    -0.354 N 
ATOM     53  C   UNL A   1      43.439  27.736  32.564  1.00  0.00     0.074 A 
ATOM     54  C   UNL A   1      44.404  27.034  31.759  1.00  0.00     0.031 C 
ATOM     55  C   UNL A   1      39.074  29.461  28.112  1.00  0.00     0.029 A 
ATOM     56  C   UNL A   1      39.104  29.878  29.487  1.00  0.00     0.049 A 
ATOM     57  H   UNL A   1      40.484  29.349  30.966  1.00  0.00     0.167 HD
ATOM     58  C   UNL A   1      43.582  28.003  33.879  1.00  0.00     0.037 A 
ATOM     59  C   UNL A   1      38.229  30.757  30.004  1.00  0.00     0.037 A 
ATOM     60  C   UNL A   1      42.658  28.845  34.585  1.00  0.00     0.049 A 
ATOM     61  C   UNL A   1      38.445  31.108  31.434  1.00  0.00     0.074 A 
ATOM     62  C   UNL A   1      42.665  29.224  35.910  1.00  0.00     0.029 A 
ATOM     63  N   UNL A   1      41.580  29.487  33.982  1.00  0.00    -0.354 N 
ATOM     64  N   UNL A   1      39.380  30.667  32.243  1.00  0.00    -0.248 NA
ATOM     65  C   UNL A   1      37.510  32.057  32.030  1.00  0.00     0.031 C 
ATOM     66  C   UNL A   1      41.581  30.085  36.113  1.00  0.00     0.029 A 
ATOM     67  C   UNL A   1      40.924  30.277  34.904  1.00  0.00     0.049 A 
ATOM     68  H   UNL A   1      41.322  29.391  33.036  1.00  0.00     0.167 HD
ATOM     69  C   UNL A   1      39.150  31.290  33.452  1.00  0.00     0.074 A 
ATOM     70  C   UNL A   1      38.014  32.174  33.248  1.00  0.00     0.031 C 
ATOM     71  C   UNL A   1      39.798  31.135  34.631  1.00  0.00     0.037 A 
BRANCH  58  72
ATOM     72  C   UNL A   1      44.718  27.329  34.595  1.00  0.00     0.057 A 
ATOM     73  C   UNL A   1      44.577  26.118  35.288  1.00  0.00     0.134 A 
ATOM     74  C   UNL A   1      45.965  27.966  34.669  1.00  0.00     0.134 A 
ATOM     75  F   UNL A   1      43.402  25.470  35.292  1.00  0.00    -0.206 F 
ATOM     76  C   UNL A   1      45.608  25.599  36.075  1.00  0.00     0.040 A 
ATOM     77  C   UNL A   1      47.017  27.435  35.419  1.00  0.00     0.040 A 
ATOM     78  F   UNL A   1      46.175  29.130  34.037  1.00  0.00    -0.206 F 
ATOM     79  C   UNL A   1      46.834  26.257  36.139  1.00  0.00     0.006 A 
ENDBRANCH  58  72
BRANCH  59  80
ATOM     80  C   UNL A   1      37.138  31.335  29.164  1.00  0.00     0.057 A 
ATOM     81  C   UNL A   1      35.986  30.606  28.848  1.00  0.00     0.134 A 
ATOM     82  C   UNL A   1      37.185  32.663  28.707  1.00  0.00     0.134 A 
ATOM     83  F   UNL A   1      35.877  29.323  29.221  1.00  0.00    -0.206 F 
ATOM     84  C   UNL A   1      34.930  31.166  28.121  1.00  0.00     0.040 A 
ATOM     85  C   UNL A   1      36.125  33.246  28.005  1.00  0.00     0.040 A 
ATOM     86  F   UNL A   1      38.248  33.436  28.976  1.00  0.00    -0.206 F 
ATOM     87  C   UNL A   1      34.994  32.494  27.706  1.00  0.00     0.006 A 
ENDBRANCH  59  80
BRANCH  71  88
ATOM     88  C   UNL A   1      39.284  31.964  35.758  1.00  0.00     0.057 A 
ATOM     89  C   UNL A   1      39.773  33.253  35.998  1.00  0.00     0.134 A 
ATOM     90  C   UNL A   1      38.283  31.467  36.598  1.00  0.00     0.134 A 
ATOM     91  F   UNL A   1      40.751  33.764  35.234  1.00  0.00    -0.206 F 
ATOM     92  C   UNL A   1      39.296  34.015  37.059  1.00  0.00     0.040 A 
ATOM     93  C   UNL A   1      37.776  32.233  37.642  1.00  0.00     0.040 A 
ATOM     94  F   UNL A   1      37.782  30.237  36.408  1.00  0.00    -0.206 F 
ATOM     95  C   UNL A   1      38.289  33.508  37.879  1.00  0.00     0.006 A 
ENDBRANCH  71  88
ENDBRANCH  45  46
ENDBRANCH  38  40
ENDBRANCH  37  38
ENDBRANCH  36  37
ENDBRANCH  35  36
ENDBRANCH  34  35
ENDBRANCH  33  34
ENDBRANCH   1  33
TORSDOF 20
ENDMDL
MODEL 3
REMARK VINA RESULT:     -11.2      6.378     11.848
REMARK SMILES C[C@@H](C(=O)OCCOCCOCCOC(=O)c1ccc(-c2c3nc(c(-c4c(F)cccc4F)c4ccc([nH]4)c(-c4c(F)cccc4F)c4nc(c(-c5c(F)cccc5F)c5ccc2[nH]5)C=C4)C=C3)cc1)c1ccc2c3cc(Cl)ccc3n(C(=O)c3ccc(Cl)cc3)c2c1
REMARK SMILES IDX 9 1 8 2 7 3 6 4 5 5 3 6 4 7 2 8 1 9 71 10 72 11 93 12 73 13
REMARK SMILES IDX 92 14 74 15 82 16 75 17 81 18 76 19 80 20 77 21 79 22 78 23
REMARK SMILES IDX 83 24 84 25 85 26 86 27 91 28 87 29 90 30 88 31 89 32 10 33
REMARK SMILES IDX 11 34 12 35 13 36 14 37 15 38 16 39 17 40 18 41 70 42 19 43
REMARK SMILES IDX 69 44 20 45 21 46 22 47 63 48 23 49 68 50 62 51 64 52 24 53
REMARK SMILES IDX 67 54 61 55 60 56 25 58 51 59 34 60 50 61 35 62 38 63 49 64
REMARK SMILES IDX 65 65 36 66 37 67 48 69 66 70 39 71 26 72 27 73 32 74 28 75
REMARK SMILES IDX 29 76 31 77 33 78 30 79 52 80 53 81 58 82 54 83 55 84 57 85
REMARK SMILES IDX 59 86 56 87 40 88 41 89 46 90 42 91 43 92 45 93 47 94 44 95
REMARK H PARENT 64 57 38 68
REMARK Flexibility Score: inf
ROOT
ATOM      1  C   UNL A   1      35.066  22.542  26.251  1.00  0.00     0.188 C 
ENDROOT
BRANCH   1   2
ATOM      2  O   UNL A   1      34.105  23.377  26.858  1.00  0.00    -0.376 OA
BRANCH   2   3
ATOM      3  C   UNL A   1      32.806  23.271  26.315  1.00  0.00     0.202 C 
BRANCH   3   4
ATOM      4  C   UNL A   1      31.675  24.183  26.845  1.00  0.00     0.261 C 
BRANCH   4   5
ATOM      5  O   UNL A   1      31.301  25.358  26.098  1.00  0.00    -0.463 OA
BRANCH   5   6
ATOM      6  C   UNL A   1      31.758  26.565  26.520  1.00  0.00     0.313 C 
ATOM      7  O   UNL A   1      31.408  27.077  27.579  1.00  0.00    -0.252 OA
BRANCH   6   8
ATOM      8  C   UNL A   1      32.748  27.254  25.533  1.00  0.00     0.126 C 
ATOM      9  C   UNL A   1      34.063  26.561  25.149  1.00  0.00     0.025 C 
BRANCH   8  10
ATOM     10  C   UNL A   1      33.008  28.678  26.003  1.00  0.00    -0.032 A 
ATOM     11  C   UNL A   1      31.983  29.619  25.966  1.00  0.00     0.005 A 
ATOM     12  C   UNL A   1      34.238  29.010  26.595  1.00  0.00     0.032 A 
ATOM     13  C   UNL A   1      32.141  30.852  26.591  1.00  0.00     0.011 A 
ATOM     14  C   UNL A   1      34.386  30.227  27.253  1.00  0.00     0.057 A 
ATOM     15  C   UNL A   1      33.347  31.139  27.262  1.00  0.00     0.008 A 
ATOM     16  N   UNL A   1      35.462  30.707  28.037  1.00  0.00    -0.276 N 
ATOM     17  C   UNL A   1      33.813  32.279  27.933  1.00  0.00     0.009 A 
ATOM     18  C   UNL A   1      35.216  32.130  28.064  1.00  0.00     0.057 A 
ATOM     19  C   UNL A   1      33.146  33.485  28.250  1.00  0.00     0.031 A 
ATOM     20  C   UNL A   1      35.936  33.340  28.195  1.00  0.00     0.029 A 
ATOM     21  C   UNL A   1      33.882  34.616  28.537  1.00  0.00     0.041 A 
ATOM     22  C   UNL A   1      35.259  34.563  28.444  1.00  0.00     0.023 A 
ATOM     23  Cl  UNL A   1      33.068  36.084  28.905  1.00  0.00    -0.084 Cl
BRANCH  16  24
ATOM     24  C   UNL A   1      36.349  29.696  28.744  1.00  0.00     0.262 C 
ATOM     25  O   UNL A   1      35.980  29.467  29.902  1.00  0.00    -0.268 OA
BRANCH  24  26
ATOM     26  C   UNL A   1      37.761  28.922  28.452  1.00  0.00     0.040 A 
ATOM     27  C   UNL A   1      39.247  28.961  27.063  1.00  0.00     0.015 A 
ATOM     28  C   UNL A   1      38.253  28.370  30.114  1.00  0.00     0.015 A 
ATOM     29  C   UNL A   1      40.931  28.597  27.553  1.00  0.00     0.021 A 
ATOM     30  C   UNL A   1      39.977  28.096  30.460  1.00  0.00     0.021 A 
ATOM     31  C   UNL A   1      41.240  28.226  29.225  1.00  0.00     0.041 A 
ATOM     32  Cl  UNL A   1      42.876  27.916  29.675  1.00  0.00    -0.084 Cl
ENDBRANCH  24  26
ENDBRANCH  16  24
ENDBRANCH   8  10
ENDBRANCH   6   8
ENDBRANCH   5   6
ENDBRANCH   4   5
ENDBRANCH   3   4
ENDBRANCH   2   3
ENDBRANCH   1   2
BRANCH   1  33
ATOM     33  C   UNL A   1      35.933  23.321  25.259  1.00  0.00     0.188 C 
BRANCH  33  34
ATOM     34  O   UNL A   1      37.275  22.983  24.966  1.00  0.00    -0.376 OA
BRANCH  34  35
ATOM     35  C   UNL A   1      38.178  22.721  26.019  1.00  0.00     0.202 C 
BRANCH  35  36
ATOM     36  C   UNL A   1      39.138  23.832  26.455  1.00  0.00     0.261 C 
BRANCH  36  37
ATOM     37  O   UNL A   1      40.274  23.417  27.220  1.00  0.00    -0.460 OA
BRANCH  37  38
ATOM     38  C   UNL A   1      41.427  23.135  26.566  1.00  0.00     0.338 C 
ATOM     39  O   UNL A   1      41.703  22.156  25.903  1.00  0.00    -0.246 OA
BRANCH  38  40
ATOM     40  C   UNL A   1      42.307  24.314  26.746  1.00  0.00     0.060 A 
ATOM     41  C   UNL A   1      42.477  25.557  25.493  1.00  0.00     0.016 A 
ATOM     42  C   UNL A   1      43.374  24.136  28.078  1.00  0.00     0.016 A 
ATOM     43  C   UNL A   1      43.814  26.746  25.484  1.00  0.00     0.010 A 
ATOM     44  C   UNL A   1      44.750  25.223  28.203  1.00  0.00     0.010 A 
ATOM     45  C   UNL A   1      45.042  26.707  26.851  1.00  0.00    -0.014 A 
BRANCH  45  46
ATOM     46  C   UNL A   1      45.947  27.968  26.624  1.00  0.00     0.031 A 
ATOM     47  C   UNL A   1      47.346  27.702  26.148  1.00  0.00     0.074 A 
ATOM     48  C   UNL A   1      45.519  29.258  26.691  1.00  0.00     0.049 A 
ATOM     49  N   UNL A   1      48.397  28.466  26.219  1.00  0.00    -0.248 NA
ATOM     50  C   UNL A   1      47.615  26.377  25.568  1.00  0.00     0.031 C 
ATOM     51  C   UNL A   1      44.132  29.712  26.806  1.00  0.00     0.029 A 
ATOM     52  N   UNL A   1      46.189  30.455  26.609  1.00  0.00    -0.354 N 
ATOM     53  C   UNL A   1      49.463  27.650  25.865  1.00  0.00     0.074 A 
ATOM     54  C   UNL A   1      48.934  26.344  25.571  1.00  0.00     0.031 C 
ATOM     55  C   UNL A   1      44.041  31.038  26.848  1.00  0.00     0.029 A 
ATOM     56  C   UNL A   1      45.376  31.565  26.764  1.00  0.00     0.049 A 
ATOM     57  H   UNL A   1      47.159  30.519  26.454  1.00  0.00     0.167 HD
ATOM     58  C   UNL A   1      50.770  27.983  25.800  1.00  0.00     0.037 A 
ATOM     59  C   UNL A   1      45.648  32.879  26.821  1.00  0.00     0.037 A 
ATOM     60  C   UNL A   1      51.212  29.341  25.949  1.00  0.00     0.049 A 
ATOM     61  C   UNL A   1      47.082  33.242  26.667  1.00  0.00     0.074 A 
ATOM     62  C   UNL A   1      52.493  29.847  25.900  1.00  0.00     0.029 A 
ATOM     63  N   UNL A   1      50.352  30.421  26.123  1.00  0.00    -0.354 N 
ATOM     64  N   UNL A   1      48.105  32.440  26.482  1.00  0.00    -0.248 NA
ATOM     65  C   UNL A   1      47.415  34.662  26.727  1.00  0.00     0.031 C 
ATOM     66  C   UNL A   1      52.409  31.235  26.057  1.00  0.00     0.029 A 
ATOM     67  C   UNL A   1      51.072  31.598  26.162  1.00  0.00     0.049 A 
ATOM     68  H   UNL A   1      49.373  30.356  26.205  1.00  0.00     0.167 HD
ATOM     69  C   UNL A   1      49.211  33.259  26.400  1.00  0.00     0.074 A 
ATOM     70  C   UNL A   1      48.720  34.624  26.508  1.00  0.00     0.031 C 
ATOM     71  C   UNL A   1      50.516  32.923  26.270  1.00  0.00     0.037 A 
BRANCH  58  72
ATOM     72  C   UNL A   1      51.754  26.861  25.630  1.00  0.00     0.057 A 
ATOM     73  C   UNL A   1      52.317  26.163  26.709  1.00  0.00     0.134 A 
ATOM     74  C   UNL A   1      52.223  26.540  24.348  1.00  0.00     0.134 A 
ATOM     75  F   UNL A   1      51.944  26.442  27.967  1.00  0.00    -0.206 F 
ATOM     76  C   UNL A   1      53.346  25.237  26.526  1.00  0.00     0.040 A 
ATOM     77  C   UNL A   1      53.222  25.585  24.150  1.00  0.00     0.040 A 
ATOM     78  F   UNL A   1      51.737  27.168  23.267  1.00  0.00    -0.206 F 
ATOM     79  C   UNL A   1      53.799  24.942  25.242  1.00  0.00     0.006 A 
ENDBRANCH  58  72
BRANCH  59  80
ATOM     80  C   UNL A   1      44.555  33.880  27.008  1.00  0.00     0.057 A 
ATOM     81  C   UNL A   1      44.246  34.407  28.268  1.00  0.00     0.134 A 
ATOM     82  C   UNL A   1      43.829  34.392  25.919  1.00  0.00     0.134 A 
ATOM     83  F   UNL A   1      44.871  33.950  29.361  1.00  0.00    -0.206 F 
ATOM     84  C   UNL A   1      43.271  35.395  28.439  1.00  0.00     0.040 A 
ATOM     85  C   UNL A   1      42.873  35.401  26.070  1.00  0.00     0.040 A 
ATOM     86  F   UNL A   1      44.070  33.950  24.675  1.00  0.00    -0.206 F 
ATOM     87  C   UNL A   1      42.588  35.902  27.336  1.00  0.00     0.006 A 
ENDBRANCH  59  80
BRANCH  71  88
ATOM     88  C   UNL A   1      51.471  34.068  26.220  1.00  0.00     0.057 A 
ATOM     89  C   UNL A   1      51.893  34.613  25.003  1.00  0.00     0.134 A 
ATOM     90  C   UNL A   1      51.955  34.632  27.404  1.00  0.00     0.134 A 
ATOM     91  F   UNL A   1      51.475  34.090  23.840  1.00  0.00    -0.206 F 
ATOM     92  C   UNL A   1      52.793  35.673  24.965  1.00  0.00     0.040 A 
ATOM     93  C   UNL A   1      52.829  35.713  27.379  1.00  0.00     0.040 A 
ATOM     94  F   UNL A   1      51.578  34.145  28.596  1.00  0.00    -0.206 F 
ATOM     95  C   UNL A   1      53.257  36.231  26.156  1.00  0.00     0.006 A 
ENDBRANCH  71  88
ENDBRANCH  45  46
ENDBRANCH  38  40
ENDBRANCH  37  38
ENDBRANCH  36  37
ENDBRANCH  35  36
ENDBRANCH  34  35
ENDBRANCH  33  34
ENDBRANCH   1  33
TORSDOF 20
ENDMDL
