MODEL 1
REMARK VINA RESULT:     -10.3      0.000      0.000
REMARK SMILES Cc1c(CC(=O)OCCOCCOCCOC(=O)c2ccc(-c3c4nc(c(-c5c(F)cccc5F)c5ccc([nH]5)c(-c5c(F)cccc5F)c5nc(c(-c6c(F)cccc6F)c6ccc3[nH]6)C=C5)C=C4)cc2)cc(-c2ccc(S(C)(=O)=O)cc2)n1-c1cccc(F)c1
REMARK SMILES IDX 11 1 10 2 9 3 8 4 7 5 5 6 6 7 4 8 3 9 1 10 2 11 85 12 73 13
REMARK SMILES IDX 74 14 86 15 87 16 92 17 88 18 90 19 89 20 91 21 75 22 76 23
REMARK SMILES IDX 84 24 77 25 83 26 78 27 79 28 80 29 81 30 82 31 12 32 13 33
REMARK SMILES IDX 14 34 15 35 16 36 17 37 18 38 19 39 20 40 72 41 21 42 71 43
REMARK SMILES IDX 22 44 23 45 24 46 65 47 25 48 70 49 64 50 66 51 26 52 69 53
REMARK SMILES IDX 63 54 62 55 27 57 53 58 36 59 52 60 37 61 40 62 51 63 67 64
REMARK SMILES IDX 38 65 39 66 50 68 68 69 41 70 28 71 29 72 34 73 30 74 31 75
REMARK SMILES IDX 33 76 35 77 32 78 54 79 55 80 60 81 56 82 57 83 59 84 61 85
REMARK SMILES IDX 58 86 42 87 43 88 48 89 44 90 45 91 47 92 49 93 46 94
REMARK H PARENT 66 56 40 67
REMARK Flexibility Score: inf
ROOT
ATOM      1  C   UNL A   1      30.426  32.925  25.222  1.00  0.00     0.188 C 
ENDROOT
BRANCH   1   2
ATOM      2  O   UNL A   1      29.469  32.259  24.418  1.00  0.00    -0.376 OA
BRANCH   2   3
ATOM      3  C   UNL A   1      28.912  32.925  23.294  1.00  0.00     0.202 C 
BRANCH   3   4
ATOM      4  C   UNL A   1      27.911  32.171  22.409  1.00  0.00     0.261 C 
BRANCH   4   5
ATOM      5  O   UNL A   1      27.456  30.922  22.972  1.00  0.00    -0.463 OA
BRANCH   5   6
ATOM      6  C   UNL A   1      27.652  29.825  22.196  1.00  0.00     0.310 C 
ATOM      7  O   UNL A   1      27.963  29.877  21.006  1.00  0.00    -0.252 OA
BRANCH   6   8
ATOM      8  C   UNL A   1      27.517  28.482  22.884  1.00  0.00     0.160 C 
BRANCH   8   9
ATOM      9  C   UNL A   1      28.715  27.822  23.510  1.00  0.00    -0.015 A 
ATOM     10  C   UNL A   1      30.598  29.626  23.208  1.00  0.00     0.065 C 
ATOM     11  C   UNL A   1      30.003  28.334  23.665  1.00  0.00     0.024 A 
ATOM     12  N   UNL A   1      30.771  27.372  24.305  1.00  0.00    -0.313 N 
ATOM     13  C   UNL A   1      28.810  26.438  23.846  1.00  0.00     0.033 A 
ATOM     14  C   UNL A   1      30.115  26.155  24.216  1.00  0.00     0.053 A 
BRANCH  12  15
ATOM     15  C   UNL A   1      32.009  27.594  24.951  1.00  0.00     0.049 A 
ATOM     16  C   UNL A   1      33.189  27.058  24.425  1.00  0.00     0.027 A 
ATOM     17  C   UNL A   1      32.004  28.259  26.181  1.00  0.00     0.065 A 
ATOM     18  C   UNL A   1      34.381  27.202  25.138  1.00  0.00     0.005 A 
ATOM     19  C   UNL A   1      33.195  28.372  26.885  1.00  0.00     0.125 A 
ATOM     20  C   UNL A   1      34.382  27.852  26.375  1.00  0.00     0.039 A 
ATOM     21  F   UNL A   1      33.199  28.962  28.088  1.00  0.00    -0.207 F 
ENDBRANCH  12  15
BRANCH  14  22
ATOM     22  C   UNL A   1      30.741  24.860  24.471  1.00  0.00    -0.001 A 
ATOM     23  C   UNL A   1      30.982  24.405  25.772  1.00  0.00     0.011 A 
ATOM     24  C   UNL A   1      31.147  24.079  23.380  1.00  0.00     0.011 A 
ATOM     25  C   UNL A   1      31.629  23.184  25.983  1.00  0.00     0.021 A 
ATOM     26  C   UNL A   1      31.798  22.862  23.581  1.00  0.00     0.021 A 
ATOM     27  C   UNL A   1      32.040  22.422  24.883  1.00  0.00     0.067 A 
BRANCH  27  28
ATOM     28  S   UNL A   1      32.816  20.849  25.164  1.00  0.00     0.175 S 
ATOM     29  C   UNL A   1      33.436  20.952  26.822  1.00  0.00     0.163 C 
ATOM     30  O   UNL A   1      31.786  19.849  25.116  1.00  0.00    -0.224 OA
ATOM     31  O   UNL A   1      33.980  20.774  24.277  1.00  0.00    -0.224 OA
ENDBRANCH  27  28
ENDBRANCH  14  22
ENDBRANCH   8   9
ENDBRANCH   6   8
ENDBRANCH   5   6
ENDBRANCH   4   5
ENDBRANCH   3   4
ENDBRANCH   2   3
ENDBRANCH   1   2
BRANCH   1  32
ATOM     32  C   UNL A   1      31.194  32.174  26.316  1.00  0.00     0.188 C 
BRANCH  32  33
ATOM     33  O   UNL A   1      31.675  32.846  27.454  1.00  0.00    -0.376 OA
BRANCH  33  34
ATOM     34  C   UNL A   1      32.940  33.493  27.389  1.00  0.00     0.202 C 
BRANCH  34  35
ATOM     35  C   UNL A   1      33.459  34.268  28.633  1.00  0.00     0.261 C 
BRANCH  35  36
ATOM     36  O   UNL A   1      33.597  33.575  29.930  1.00  0.00    -0.460 OA
BRANCH  36  37
ATOM     37  C   UNL A   1      34.855  33.589  30.496  1.00  0.00     0.338 C 
ATOM     38  O   UNL A   1      35.118  34.252  31.494  1.00  0.00    -0.246 OA
BRANCH  37  39
ATOM     39  C   UNL A   1      35.954  32.707  29.860  1.00  0.00     0.060 A 
ATOM     40  C   UNL A   1      35.876  31.335  30.031  1.00  0.00     0.016 A 
ATOM     41  C   UNL A   1      37.198  33.135  29.338  1.00  0.00     0.016 A 
ATOM     42  C   UNL A   1      36.960  30.456  29.645  1.00  0.00     0.010 A 
ATOM     43  C   UNL A   1      38.341  32.220  29.013  1.00  0.00     0.010 A 
ATOM     44  C   UNL A   1      38.283  30.820  29.159  1.00  0.00    -0.014 A 
BRANCH  44  45
ATOM     45  C   UNL A   1      39.491  29.622  29.151  1.00  0.00     0.031 A 
ATOM     46  C   UNL A   1      40.067  29.776  30.518  1.00  0.00     0.074 A 
ATOM     47  C   UNL A   1      40.258  28.697  28.386  1.00  0.00     0.049 A 
ATOM     48  N   UNL A   1      40.547  30.942  30.849  1.00  0.00    -0.248 NA
ATOM     49  C   UNL A   1      39.786  28.895  31.654  1.00  0.00     0.031 C 
ATOM     50  C   UNL A   1      40.232  28.472  26.926  1.00  0.00     0.029 A 
ATOM     51  N   UNL A   1      41.300  27.720  28.720  1.00  0.00    -0.354 N 
ATOM     52  C   UNL A   1      40.931  30.853  32.157  1.00  0.00     0.074 A 
ATOM     53  C   UNL A   1      40.244  29.665  32.650  1.00  0.00     0.031 C 
ATOM     54  C   UNL A   1      41.018  27.419  26.531  1.00  0.00     0.029 A 
ATOM     55  C   UNL A   1      41.742  26.811  27.654  1.00  0.00     0.049 A 
ATOM     56  H   UNL A   1      41.689  27.676  29.623  1.00  0.00     0.167 HD
ATOM     57  C   UNL A   1      42.202  31.287  32.398  1.00  0.00     0.037 A 
ATOM     58  C   UNL A   1      42.671  25.742  27.613  1.00  0.00     0.037 A 
ATOM     59  C   UNL A   1      43.119  30.189  32.508  1.00  0.00     0.049 A 
ATOM     60  C   UNL A   1      43.668  26.035  28.644  1.00  0.00     0.074 A 
ATOM     61  C   UNL A   1      43.027  28.943  33.099  1.00  0.00     0.029 A 
ATOM     62  N   UNL A   1      44.110  30.105  31.557  1.00  0.00    -0.354 N 
ATOM     63  N   UNL A   1      44.611  26.898  28.422  1.00  0.00    -0.248 NA
ATOM     64  C   UNL A   1      43.788  25.278  29.883  1.00  0.00     0.031 C 
ATOM     65  C   UNL A   1      43.549  28.059  32.135  1.00  0.00     0.029 A 
ATOM     66  C   UNL A   1      44.300  28.785  31.223  1.00  0.00     0.049 A 
ATOM     67  H   UNL A   1      44.605  30.867  31.177  1.00  0.00     0.167 HD
ATOM     68  C   UNL A   1      45.069  27.171  29.665  1.00  0.00     0.074 A 
ATOM     69  C   UNL A   1      44.757  25.995  30.458  1.00  0.00     0.031 C 
ATOM     70  C   UNL A   1      44.994  28.479  30.003  1.00  0.00     0.037 A 
BRANCH  57  71
ATOM     71  C   UNL A   1      42.506  32.593  31.703  1.00  0.00     0.057 A 
ATOM     72  C   UNL A   1      42.476  33.778  32.439  1.00  0.00     0.134 A 
ATOM     73  C   UNL A   1      42.627  32.716  30.303  1.00  0.00     0.134 A 
ATOM     74  F   UNL A   1      42.426  33.743  33.778  1.00  0.00    -0.206 F 
ATOM     75  C   UNL A   1      42.476  35.027  31.808  1.00  0.00     0.040 A 
ATOM     76  C   UNL A   1      42.554  33.951  29.660  1.00  0.00     0.040 A 
ATOM     77  F   UNL A   1      42.787  31.632  29.526  1.00  0.00    -0.206 F 
ATOM     78  C   UNL A   1      42.466  35.113  30.415  1.00  0.00     0.006 A 
ENDBRANCH  57  71
BRANCH  58  79
ATOM     79  C   UNL A   1      43.261  24.500  26.797  1.00  0.00     0.057 A 
ATOM     80  C   UNL A   1      42.851  23.136  27.063  1.00  0.00     0.134 A 
ATOM     81  C   UNL A   1      43.827  24.623  25.521  1.00  0.00     0.134 A 
ATOM     82  F   UNL A   1      42.331  22.769  28.243  1.00  0.00    -0.206 F 
ATOM     83  C   UNL A   1      42.883  22.069  26.132  1.00  0.00     0.040 A 
ATOM     84  C   UNL A   1      43.903  23.539  24.586  1.00  0.00     0.040 A 
ATOM     85  F   UNL A   1      44.257  25.816  25.091  1.00  0.00    -0.206 F 
ATOM     86  C   UNL A   1      43.395  22.272  24.871  1.00  0.00     0.006 A 
ENDBRANCH  58  79
BRANCH  70  87
ATOM     87  C   UNL A   1      45.467  29.482  28.966  1.00  0.00     0.057 A 
ATOM     88  C   UNL A   1      44.759  29.948  27.834  1.00  0.00     0.134 A 
ATOM     89  C   UNL A   1      46.782  29.943  29.088  1.00  0.00     0.134 A 
ATOM     90  F   UNL A   1      43.460  29.685  27.634  1.00  0.00    -0.206 F 
ATOM     91  C   UNL A   1      45.365  30.742  26.850  1.00  0.00     0.040 A 
ATOM     92  C   UNL A   1      47.379  30.779  28.141  1.00  0.00     0.040 A 
ATOM     93  F   UNL A   1      47.518  29.592  30.153  1.00  0.00    -0.206 F 
ATOM     94  C   UNL A   1      46.680  31.159  27.001  1.00  0.00     0.006 A 
ENDBRANCH  70  87
ENDBRANCH  44  45
ENDBRANCH  37  39
ENDBRANCH  36  37
ENDBRANCH  35  36
ENDBRANCH  34  35
ENDBRANCH  33  34
ENDBRANCH  32  33
ENDBRANCH   1  32
TORSDOF 21
ENDMDL
MODEL 2
REMARK VINA RESULT:     -10.2      7.144     14.119
REMARK SMILES Cc1c(CC(=O)OCCOCCOCCOC(=O)c2ccc(-c3c4nc(c(-c5c(F)cccc5F)c5ccc([nH]5)c(-c5c(F)cccc5F)c5nc(c(-c6c(F)cccc6F)c6ccc3[nH]6)C=C5)C=C4)cc2)cc(-c2ccc(S(C)(=O)=O)cc2)n1-c1cccc(F)c1
REMARK SMILES IDX 11 1 10 2 9 3 8 4 7 5 5 6 6 7 4 8 3 9 1 10 2 11 85 12 73 13
REMARK SMILES IDX 74 14 86 15 87 16 92 17 88 18 90 19 89 20 91 21 75 22 76 23
REMARK SMILES IDX 84 24 77 25 83 26 78 27 79 28 80 29 81 30 82 31 12 32 13 33
REMARK SMILES IDX 14 34 15 35 16 36 17 37 18 38 19 39 20 40 72 41 21 42 71 43
REMARK SMILES IDX 22 44 23 45 24 46 65 47 25 48 70 49 64 50 66 51 26 52 69 53
REMARK SMILES IDX 63 54 62 55 27 57 53 58 36 59 52 60 37 61 40 62 51 63 67 64
REMARK SMILES IDX 38 65 39 66 50 68 68 69 41 70 28 71 29 72 34 73 30 74 31 75
REMARK SMILES IDX 33 76 35 77 32 78 54 79 55 80 60 81 56 82 57 83 59 84 61 85
REMARK SMILES IDX 58 86 42 87 43 88 48 89 44 90 45 91 47 92 49 93 46 94
REMARK H PARENT 66 56 40 67
REMARK Flexibility Score: inf
ROOT
ATOM      1  C   UNL A   1      48.001  32.877  26.858  1.00  0.00     0.188 C 
ENDROOT
BRANCH   1   2
ATOM      2  O   UNL A   1      47.137  31.995  26.163  1.00  0.00    -0.376 OA
BRANCH   2   3
ATOM      3  C   UNL A   1      45.740  32.251  26.146  1.00  0.00     0.202 C 
BRANCH   3   4
ATOM      4  C   UNL A   1      45.200  33.458  26.923  1.00  0.00     0.261 C 
BRANCH   4   5
ATOM      5  O   UNL A   1      43.892  33.895  26.493  1.00  0.00    -0.463 OA
BRANCH   5   6
ATOM      6  C   UNL A   1      43.713  35.240  26.442  1.00  0.00     0.310 C 
ATOM      7  O   UNL A   1      42.653  35.775  26.118  1.00  0.00    -0.252 OA
BRANCH   6   8
ATOM      8  C   UNL A   1      44.893  36.092  26.863  1.00  0.00     0.160 C 
BRANCH   8   9
ATOM      9  C   UNL A   1      44.694  37.529  27.258  1.00  0.00    -0.015 A 
ATOM     10  C   UNL A   1      46.433  38.794  25.752  1.00  0.00     0.065 C 
ATOM     11  C   UNL A   1      45.334  38.662  26.755  1.00  0.00     0.024 A 
ATOM     12  N   UNL A   1      44.821  39.769  27.414  1.00  0.00    -0.313 N 
ATOM     13  C   UNL A   1      43.976  37.974  28.408  1.00  0.00     0.033 A 
ATOM     14  C   UNL A   1      44.168  39.338  28.556  1.00  0.00     0.053 A 
BRANCH  12  15
ATOM     15  C   UNL A   1      44.935  41.114  26.989  1.00  0.00     0.049 A 
ATOM     16  C   UNL A   1      45.748  42.011  27.687  1.00  0.00     0.027 A 
ATOM     17  C   UNL A   1      44.126  41.543  25.932  1.00  0.00     0.065 A 
ATOM     18  C   UNL A   1      45.760  43.356  27.310  1.00  0.00     0.005 A 
ATOM     19  C   UNL A   1      44.135  42.888  25.588  1.00  0.00     0.125 A 
ATOM     20  C   UNL A   1      44.944  43.797  26.265  1.00  0.00     0.039 A 
ATOM     21  F   UNL A   1      43.330  43.326  24.610  1.00  0.00    -0.207 F 
ENDBRANCH  12  15
BRANCH  14  22
ATOM     22  C   UNL A   1      43.788  40.207  29.667  1.00  0.00    -0.001 A 
ATOM     23  C   UNL A   1      42.531  40.821  29.724  1.00  0.00     0.011 A 
ATOM     24  C   UNL A   1      44.727  40.463  30.677  1.00  0.00     0.011 A 
ATOM     25  C   UNL A   1      42.217  41.688  30.774  1.00  0.00     0.021 A 
ATOM     26  C   UNL A   1      44.423  41.330  31.726  1.00  0.00     0.021 A 
ATOM     27  C   UNL A   1      43.170  41.942  31.767  1.00  0.00     0.067 A 
BRANCH  27  28
ATOM     28  S   UNL A   1      42.740  43.007  33.124  1.00  0.00     0.175 S 
ATOM     29  C   UNL A   1      44.278  43.307  33.954  1.00  0.00     0.163 C 
ATOM     30  O   UNL A   1      42.268  44.243  32.564  1.00  0.00    -0.224 OA
ATOM     31  O   UNL A   1      41.906  42.227  34.041  1.00  0.00    -0.224 OA
ENDBRANCH  27  28
ENDBRANCH  14  22
ENDBRANCH   8   9
ENDBRANCH   6   8
ENDBRANCH   5   6
ENDBRANCH   4   5
ENDBRANCH   3   4
ENDBRANCH   2   3
ENDBRANCH   1   2
BRANCH   1  32
ATOM     32  C   UNL A   1      49.015  33.742  26.102  1.00  0.00     0.188 C 
BRANCH  32  33
ATOM     33  O   UNL A   1      49.559  34.900  26.689  1.00  0.00    -0.376 OA
BRANCH  33  34
ATOM     34  C   UNL A   1      48.813  36.110  26.645  1.00  0.00     0.202 C 
BRANCH  34  35
ATOM     35  C   UNL A   1      48.450  36.824  27.978  1.00  0.00     0.261 C 
BRANCH  35  36
ATOM     36  O   UNL A   1      47.940  36.039  29.120  1.00  0.00    -0.460 OA
BRANCH  36  37
ATOM     37  C   UNL A   1      47.269  36.749  30.094  1.00  0.00     0.338 C 
ATOM     38  O   UNL A   1      47.599  37.884  30.423  1.00  0.00    -0.246 OA
BRANCH  37  39
ATOM     39  C   UNL A   1      46.038  36.093  30.762  1.00  0.00     0.060 A 
ATOM     40  C   UNL A   1      45.464  34.994  30.144  1.00  0.00     0.016 A 
ATOM     41  C   UNL A   1      45.241  36.630  31.801  1.00  0.00     0.016 A 
ATOM     42  C   UNL A   1      44.200  34.445  30.588  1.00  0.00     0.010 A 
ATOM     43  C   UNL A   1      43.898  36.096  32.201  1.00  0.00     0.010 A 
ATOM     44  C   UNL A   1      43.298  34.971  31.603  1.00  0.00    -0.014 A 
BRANCH  44  45
ATOM     45  C   UNL A   1      41.711  34.361  31.657  1.00  0.00     0.031 A 
ATOM     46  C   UNL A   1      41.785  33.453  32.838  1.00  0.00     0.074 A 
ATOM     47  C   UNL A   1      40.455  34.224  30.999  1.00  0.00     0.049 A 
ATOM     48  N   UNL A   1      42.670  32.495  32.815  1.00  0.00    -0.248 NA
ATOM     49  C   UNL A   1      41.266  33.762  34.172  1.00  0.00     0.031 C 
ATOM     50  C   UNL A   1      40.071  34.693  29.651  1.00  0.00     0.029 A 
ATOM     51  N   UNL A   1      39.182  33.592  31.359  1.00  0.00    -0.354 N 
ATOM     52  C   UNL A   1      42.600  31.866  34.026  1.00  0.00     0.074 A 
ATOM     53  C   UNL A   1      41.893  32.813  34.880  1.00  0.00     0.031 C 
ATOM     54  C   UNL A   1      38.742  34.498  29.373  1.00  0.00     0.029 A 
ATOM     55  C   UNL A   1      38.039  33.812  30.463  1.00  0.00     0.049 A 
ATOM     56  H   UNL A   1      39.096  33.041  32.170  1.00  0.00     0.167 HD
ATOM     57  C   UNL A   1      42.481  30.509  33.944  1.00  0.00     0.037 A 
ATOM     58  C   UNL A   1      36.682  33.408  30.504  1.00  0.00     0.037 A 
ATOM     59  C   UNL A   1      41.122  30.089  34.139  1.00  0.00     0.049 A 
ATOM     60  C   UNL A   1      36.657  32.155  31.260  1.00  0.00     0.074 A 
ATOM     61  C   UNL A   1      40.124  30.506  34.999  1.00  0.00     0.029 A 
ATOM     62  N   UNL A   1      40.499  29.475  33.076  1.00  0.00    -0.354 N 
ATOM     63  N   UNL A   1      36.999  31.038  30.695  1.00  0.00    -0.248 NA
ATOM     64  C   UNL A   1      36.092  32.034  32.598  1.00  0.00     0.031 C 
ATOM     65  C   UNL A   1      38.983  30.620  34.182  1.00  0.00     0.029 A 
ATOM     66  C   UNL A   1      39.192  29.897  33.017  1.00  0.00     0.049 A 
ATOM     67  H   UNL A   1      40.922  28.835  32.459  1.00  0.00     0.167 HD
ATOM     68  C   UNL A   1      37.214  30.219  31.751  1.00  0.00     0.074 A 
ATOM     69  C   UNL A   1      36.399  30.754  32.827  1.00  0.00     0.031 C 
ATOM     70  C   UNL A   1      38.462  29.699  31.797  1.00  0.00     0.037 A 
BRANCH  57  71
ATOM     71  C   UNL A   1      43.429  29.906  32.935  1.00  0.00     0.057 A 
ATOM     72  C   UNL A   1      44.607  29.307  33.382  1.00  0.00     0.134 A 
ATOM     73  C   UNL A   1      43.294  30.085  31.543  1.00  0.00     0.134 A 
ATOM     74  F   UNL A   1      44.781  29.045  34.686  1.00  0.00    -0.206 F 
ATOM     75  C   UNL A   1      45.640  28.982  32.496  1.00  0.00     0.040 A 
ATOM     76  C   UNL A   1      44.343  29.834  30.659  1.00  0.00     0.040 A 
ATOM     77  F   UNL A   1      42.147  30.540  31.012  1.00  0.00    -0.206 F 
ATOM     78  C   UNL A   1      45.528  29.291  31.140  1.00  0.00     0.006 A 
ENDBRANCH  57  71
BRANCH  58  79
ATOM     79  C   UNL A   1      35.211  33.563  29.898  1.00  0.00     0.057 A 
ATOM     80  C   UNL A   1      34.234  34.472  30.463  1.00  0.00     0.134 A 
ATOM     81  C   UNL A   1      34.890  33.226  28.576  1.00  0.00     0.134 A 
ATOM     82  F   UNL A   1      34.306  34.890  31.735  1.00  0.00    -0.206 F 
ATOM     83  C   UNL A   1      33.155  35.064  29.760  1.00  0.00     0.040 A 
ATOM     84  C   UNL A   1      33.776  33.788  27.869  1.00  0.00     0.040 A 
ATOM     85  F   UNL A   1      35.685  32.402  27.882  1.00  0.00    -0.206 F 
ATOM     86  C   UNL A   1      32.932  34.738  28.442  1.00  0.00     0.006 A 
ENDBRANCH  58  79
BRANCH  70  87
ATOM     87  C   UNL A   1      39.022  29.147  30.498  1.00  0.00     0.057 A 
ATOM     88  C   UNL A   1      39.518  29.879  29.394  1.00  0.00     0.134 A 
ATOM     89  C   UNL A   1      38.971  27.759  30.328  1.00  0.00     0.134 A 
ATOM     90  F   UNL A   1      39.730  31.202  29.440  1.00  0.00    -0.206 F 
ATOM     91  C   UNL A   1      39.846  29.265  28.178  1.00  0.00     0.040 A 
ATOM     92  C   UNL A   1      39.348  27.130  29.138  1.00  0.00     0.040 A 
ATOM     93  F   UNL A   1      38.558  26.976  31.336  1.00  0.00    -0.206 F 
ATOM     94  C   UNL A   1      39.761  27.886  28.047  1.00  0.00     0.006 A 
ENDBRANCH  70  87
ENDBRANCH  44  45
ENDBRANCH  37  39
ENDBRANCH  36  37
ENDBRANCH  35  36
ENDBRANCH  34  35
ENDBRANCH  33  34
ENDBRANCH  32  33
ENDBRANCH   1  32
TORSDOF 21
ENDMDL
MODEL 3
REMARK VINA RESULT:     -10.0      5.290      9.152
REMARK SMILES Cc1c(CC(=O)OCCOCCOCCOC(=O)c2ccc(-c3c4nc(c(-c5c(F)cccc5F)c5ccc([nH]5)c(-c5c(F)cccc5F)c5nc(c(-c6c(F)cccc6F)c6ccc3[nH]6)C=C5)C=C4)cc2)cc(-c2ccc(S(C)(=O)=O)cc2)n1-c1cccc(F)c1
REMARK SMILES IDX 11 1 10 2 9 3 8 4 7 5 5 6 6 7 4 8 3 9 1 10 2 11 85 12 73 13
REMARK SMILES IDX 74 14 86 15 87 16 92 17 88 18 90 19 89 20 91 21 75 22 76 23
REMARK SMILES IDX 84 24 77 25 83 26 78 27 79 28 80 29 81 30 82 31 12 32 13 33
REMARK SMILES IDX 14 34 15 35 16 36 17 37 18 38 19 39 20 40 72 41 21 42 71 43
REMARK SMILES IDX 22 44 23 45 24 46 65 47 25 48 70 49 64 50 66 51 26 52 69 53
REMARK SMILES IDX 63 54 62 55 27 57 53 58 36 59 52 60 37 61 40 62 51 63 67 64
REMARK SMILES IDX 38 65 39 66 50 68 68 69 41 70 28 71 29 72 34 73 30 74 31 75
REMARK SMILES IDX 33 76 35 77 32 78 54 79 55 80 60 81 56 82 57 83 59 84 61 85
REMARK SMILES IDX 58 86 42 87 43 88 48 89 44 90 45 91 47 92 49 93 46 94
REMARK H PARENT 66 56 40 67
REMARK Flexibility Score: inf
ROOT
ATOM      1  C   UNL A   1      34.344  31.517  28.033  1.00  0.00     0.188 C 
ENDROOT
BRANCH   1   2
ATOM      2  O   UNL A   1      33.777  30.786  26.960  1.00  0.00    -0.376 OA
BRANCH   2   3
ATOM      3  C   UNL A   1      33.373  29.441  27.164  1.00  0.00     0.202 C 
BRANCH   3   4
ATOM      4  C   UNL A   1      31.909  29.061  26.907  1.00  0.00     0.261 C 
BRANCH   4   5
ATOM      5  O   UNL A   1      31.497  29.217  25.532  1.00  0.00    -0.463 OA
BRANCH   5   6
ATOM      6  C   UNL A   1      30.928  28.122  24.965  1.00  0.00     0.310 C 
ATOM      7  O   UNL A   1      30.510  28.092  23.807  1.00  0.00    -0.252 OA
BRANCH   6   8
ATOM      8  C   UNL A   1      30.870  26.875  25.823  1.00  0.00     0.160 C 
BRANCH   8   9
ATOM      9  C   UNL A   1      31.803  25.725  25.563  1.00  0.00    -0.015 A 
ATOM     10  C   UNL A   1      33.809  26.874  24.317  1.00  0.00     0.065 C 
ATOM     11  C   UNL A   1      33.057  25.749  24.951  1.00  0.00     0.024 A 
ATOM     12  N   UNL A   1      33.551  24.453  24.939  1.00  0.00    -0.313 N 
ATOM     13  C   UNL A   1      31.462  24.344  25.682  1.00  0.00     0.033 A 
ATOM     14  C   UNL A   1      32.501  23.580  25.178  1.00  0.00     0.053 A 
BRANCH  12  15
ATOM     15  C   UNL A   1      34.899  24.080  24.730  1.00  0.00     0.049 A 
ATOM     16  C   UNL A   1      35.298  23.518  23.514  1.00  0.00     0.027 A 
ATOM     17  C   UNL A   1      35.787  24.182  25.805  1.00  0.00     0.065 A 
ATOM     18  C   UNL A   1      36.611  23.063  23.371  1.00  0.00     0.005 A 
ATOM     19  C   UNL A   1      37.081  23.702  25.651  1.00  0.00     0.125 A 
ATOM     20  C   UNL A   1      37.501  23.146  24.445  1.00  0.00     0.039 A 
ATOM     21  F   UNL A   1      37.931  23.746  26.686  1.00  0.00    -0.207 F 
ENDBRANCH  12  15
BRANCH  14  22
ATOM     22  C   UNL A   1      32.550  22.143  24.921  1.00  0.00    -0.001 A 
ATOM     23  C   UNL A   1      32.940  21.232  25.910  1.00  0.00     0.011 A 
ATOM     24  C   UNL A   1      32.237  21.675  23.637  1.00  0.00     0.011 A 
ATOM     25  C   UNL A   1      33.025  19.868  25.618  1.00  0.00     0.021 A 
ATOM     26  C   UNL A   1      32.324  20.317  23.335  1.00  0.00     0.021 A 
ATOM     27  C   UNL A   1      32.722  19.420  24.327  1.00  0.00     0.067 A 
BRANCH  27  28
ATOM     28  S   UNL A   1      32.785  17.677  23.982  1.00  0.00     0.175 S 
ATOM     29  C   UNL A   1      34.464  17.220  24.321  1.00  0.00     0.163 C 
ATOM     30  O   UNL A   1      31.927  17.023  24.930  1.00  0.00    -0.224 OA
ATOM     31  O   UNL A   1      32.580  17.512  22.541  1.00  0.00    -0.224 OA
ENDBRANCH  27  28
ENDBRANCH  14  22
ENDBRANCH   8   9
ENDBRANCH   6   8
ENDBRANCH   5   6
ENDBRANCH   4   5
ENDBRANCH   3   4
ENDBRANCH   2   3
ENDBRANCH   1   2
BRANCH   1  32
ATOM     32  C   UNL A   1      35.849  31.456  28.318  1.00  0.00     0.188 C 
BRANCH  32  33
ATOM     33  O   UNL A   1      36.341  30.866  29.496  1.00  0.00    -0.376 OA
BRANCH  33  34
ATOM     34  C   UNL A   1      37.396  31.507  30.200  1.00  0.00     0.202 C 
BRANCH  34  35
ATOM     35  C   UNL A   1      37.228  31.798  31.719  1.00  0.00     0.261 C 
BRANCH  35  36
ATOM     36  O   UNL A   1      38.371  32.307  32.503  1.00  0.00    -0.460 OA
BRANCH  36  37
ATOM     37  C   UNL A   1      38.673  33.643  32.339  1.00  0.00     0.338 C 
ATOM     38  O   UNL A   1      38.239  34.511  33.090  1.00  0.00    -0.246 OA
BRANCH  37  39
ATOM     39  C   UNL A   1      39.620  34.044  31.184  1.00  0.00     0.060 A 
ATOM     40  C   UNL A   1      40.935  34.354  31.491  1.00  0.00     0.016 A 
ATOM     41  C   UNL A   1      39.256  34.398  29.864  1.00  0.00     0.016 A 
ATOM     42  C   UNL A   1      41.831  34.928  30.510  1.00  0.00     0.010 A 
ATOM     43  C   UNL A   1      40.174  35.062  28.880  1.00  0.00     0.010 A 
ATOM     44  C   UNL A   1      41.519  35.372  29.158  1.00  0.00    -0.014 A 
BRANCH  44  45
ATOM     45  C   UNL A   1      42.650  36.360  28.359  1.00  0.00     0.031 A 
ATOM     46  C   UNL A   1      43.467  35.345  27.634  1.00  0.00     0.074 A 
ATOM     47  C   UNL A   1      43.225  37.657  28.223  1.00  0.00     0.049 A 
ATOM     48  N   UNL A   1      44.051  34.417  28.339  1.00  0.00    -0.248 NA
ATOM     49  C   UNL A   1      43.353  35.038  26.207  1.00  0.00     0.031 C 
ATOM     50  C   UNL A   1      42.930  38.877  29.001  1.00  0.00     0.029 A 
ATOM     51  N   UNL A   1      44.265  38.221  27.355  1.00  0.00    -0.354 N 
ATOM     52  C   UNL A   1      44.658  33.573  27.452  1.00  0.00     0.074 A 
ATOM     53  C   UNL A   1      44.016  33.873  26.177  1.00  0.00     0.031 C 
ATOM     54  C   UNL A   1      43.584  39.987  28.528  1.00  0.00     0.029 A 
ATOM     55  C   UNL A   1      44.468  39.675  27.399  1.00  0.00     0.049 A 
ATOM     56  H   UNL A   1      44.806  37.647  26.766  1.00  0.00     0.167 HD
ATOM     57  C   UNL A   1      45.969  33.320  27.728  1.00  0.00     0.037 A 
ATOM     58  C   UNL A   1      45.324  40.557  26.696  1.00  0.00     0.037 A 
ATOM     59  C   UNL A   1      46.841  34.108  26.904  1.00  0.00     0.049 A 
ATOM     60  C   UNL A   1      46.502  39.768  26.329  1.00  0.00     0.074 A 
ATOM     61  C   UNL A   1      46.798  34.472  25.572  1.00  0.00     0.029 A 
ATOM     62  N   UNL A   1      47.642  35.028  27.542  1.00  0.00    -0.354 N 
ATOM     63  N   UNL A   1      47.428  39.522  27.203  1.00  0.00    -0.248 NA
ATOM     64  C   UNL A   1      46.806  39.369  24.961  1.00  0.00     0.031 C 
ATOM     65  C   UNL A   1      47.099  35.847  25.575  1.00  0.00     0.029 A 
ATOM     66  C   UNL A   1      47.708  36.169  26.778  1.00  0.00     0.049 A 
ATOM     67  H   UNL A   1      48.095  34.890  28.405  1.00  0.00     0.167 HD
ATOM     68  C   UNL A   1      48.113  38.501  26.638  1.00  0.00     0.074 A 
ATOM     69  C   UNL A   1      47.894  38.634  25.208  1.00  0.00     0.031 C 
ATOM     70  C   UNL A   1      48.159  37.384  27.399  1.00  0.00     0.037 A 
BRANCH  57  71
ATOM     71  C   UNL A   1      46.205  33.027  29.191  1.00  0.00     0.057 A 
ATOM     72  C   UNL A   1      46.353  34.090  30.082  1.00  0.00     0.134 A 
ATOM     73  C   UNL A   1      46.485  31.737  29.688  1.00  0.00     0.134 A 
ATOM     74  F   UNL A   1      46.044  35.339  29.703  1.00  0.00    -0.206 F 
ATOM     75  C   UNL A   1      46.840  33.892  31.379  1.00  0.00     0.040 A 
ATOM     76  C   UNL A   1      47.040  31.534  30.950  1.00  0.00     0.040 A 
ATOM     77  F   UNL A   1      46.254  30.644  28.941  1.00  0.00    -0.206 F 
ATOM     78  C   UNL A   1      47.230  32.619  31.797  1.00  0.00     0.006 A 
ENDBRANCH  57  71
BRANCH  58  79
ATOM     79  C   UNL A   1      45.703  42.069  26.339  1.00  0.00     0.057 A 
ATOM     80  C   UNL A   1      45.241  42.715  25.127  1.00  0.00     0.134 A 
ATOM     81  C   UNL A   1      46.086  43.010  27.304  1.00  0.00     0.134 A 
ATOM     82  F   UNL A   1      44.871  42.013  24.045  1.00  0.00    -0.206 F 
ATOM     83  C   UNL A   1      45.064  44.110  24.951  1.00  0.00     0.040 A 
ATOM     84  C   UNL A   1      45.950  44.425  27.120  1.00  0.00     0.040 A 
ATOM     85  F   UNL A   1      46.532  42.601  28.498  1.00  0.00    -0.206 F 
ATOM     86  C   UNL A   1      45.401  44.977  25.964  1.00  0.00     0.006 A 
ENDBRANCH  58  79
BRANCH  70  87
ATOM     87  C   UNL A   1      48.484  37.570  28.870  1.00  0.00     0.057 A 
ATOM     88  C   UNL A   1      47.613  37.998  29.897  1.00  0.00     0.134 A 
ATOM     89  C   UNL A   1      49.817  37.378  29.250  1.00  0.00     0.134 A 
ATOM     90  F   UNL A   1      46.290  38.122  29.719  1.00  0.00    -0.206 F 
ATOM     91  C   UNL A   1      48.070  38.303  31.186  1.00  0.00     0.040 A 
ATOM     92  C   UNL A   1      50.275  37.626  30.547  1.00  0.00     0.040 A 
ATOM     93  F   UNL A   1      50.710  36.928  28.356  1.00  0.00    -0.206 F 
ATOM     94  C   UNL A   1      49.406  38.117  31.515  1.00  0.00     0.006 A 
ENDBRANCH  70  87
ENDBRANCH  44  45
ENDBRANCH  37  39
ENDBRANCH  36  37
ENDBRANCH  35  36
ENDBRANCH  34  35
ENDBRANCH  33  34
ENDBRANCH  32  33
ENDBRANCH   1  32
TORSDOF 21
ENDMDL
