MODEL 1
REMARK VINA RESULT:     -10.8      0.000      0.000
REMARK SMILES Cc1nn(Cc2nc(C(C)(C)C)cs2)c(C)c1C(=O)OCCOCCOCCOC(=O)c1ccc(-c2c3nc(c(-c4c(F)cccc4F)c4ccc([nH]4)c(-c4c(F)cccc4F)c4nc(c(-c5c(F)cccc5F)c5ccc2[nH]5)C=C4)C=C3)cc1
REMARK SMILES IDX 24 1 23 2 22 3 21 4 20 5 18 6 19 7 17 8 1 9 2 10 3 11 4 12
REMARK SMILES IDX 15 13 16 14 5 15 6 16 7 17 14 18 8 19 13 20 9 21 10 22 11 23
REMARK SMILES IDX 12 24 25 25 26 26 27 27 28 28 29 29 30 30 31 31 32 32 33 33
REMARK SMILES IDX 85 34 34 35 84 36 35 37 36 38 37 39 78 40 38 41 83 42 77 43
REMARK SMILES IDX 79 44 39 45 82 46 76 47 75 48 40 50 66 51 49 52 65 53 50 54
REMARK SMILES IDX 53 55 64 56 80 57 51 58 52 59 63 61 81 62 54 63 41 64 42 65
REMARK SMILES IDX 47 66 43 67 44 68 46 69 48 70 45 71 67 72 68 73 73 74 69 75
REMARK SMILES IDX 70 76 72 77 74 78 71 79 55 80 56 81 61 82 57 83 58 84 60 85
REMARK SMILES IDX 62 86 59 87
REMARK H PARENT 79 49 53 60
REMARK Flexibility Score: inf
ROOT
ATOM      1  C   UNL A   1      38.791  22.188  26.126  1.00  0.00     0.188 C 
ENDROOT
BRANCH   1   2
ATOM      2  O   UNL A   1      37.927  21.813  25.074  1.00  0.00    -0.376 OA
BRANCH   2   3
ATOM      3  C   UNL A   1      36.608  22.341  25.068  1.00  0.00     0.202 C 
BRANCH   3   4
ATOM      4  C   UNL A   1      35.417  21.596  25.716  1.00  0.00     0.261 C 
BRANCH   4   5
ATOM      5  O   UNL A   1      34.098  21.997  25.332  1.00  0.00    -0.460 OA
BRANCH   5   6
ATOM      6  C   UNL A   1      33.584  23.116  25.908  1.00  0.00     0.341 C 
ATOM      7  O   UNL A   1      33.983  23.584  26.972  1.00  0.00    -0.246 OA
BRANCH   6   8
ATOM      8  C   UNL A   1      32.628  23.792  25.043  1.00  0.00     0.103 A 
ATOM      9  C   UNL A   1      30.307  23.256  26.148  1.00  0.00     0.070 C 
ATOM     10  C   UNL A   1      31.212  23.882  25.148  1.00  0.00     0.074 A 
ATOM     11  N   UNL A   1      30.687  24.611  24.157  1.00  0.00    -0.177 NA
ATOM     12  N   UNL A   1      31.729  24.919  23.361  1.00  0.00    -0.262 N 
ATOM     13  C   UNL A   1      32.914  24.377  23.812  1.00  0.00     0.051 A 
ATOM     14  C   UNL A   1      34.175  24.405  23.025  1.00  0.00     0.067 C 
BRANCH  12  15
ATOM     15  C   UNL A   1      31.552  25.893  22.286  1.00  0.00     0.212 C 
BRANCH  15  16
ATOM     16  C   UNL A   1      31.150  27.250  22.770  1.00  0.00     0.114 A 
ATOM     17  N   UNL A   1      30.010  27.841  22.472  1.00  0.00    -0.244 NA
ATOM     18  S   UNL A   1      32.109  28.090  23.925  1.00  0.00    -0.125 S 
ATOM     19  C   UNL A   1      29.882  29.055  23.134  1.00  0.00     0.057 A 
ATOM     20  C   UNL A   1      30.922  29.326  24.005  1.00  0.00     0.091 A 
BRANCH  19  21
ATOM     21  C   UNL A   1      28.659  29.904  22.813  1.00  0.00     0.005 C 
ATOM     22  C   UNL A   1      28.629  31.124  23.758  1.00  0.00     0.017 C 
ATOM     23  C   UNL A   1      28.731  30.403  21.356  1.00  0.00     0.017 C 
ATOM     24  C   UNL A   1      27.337  29.130  22.988  1.00  0.00     0.017 C 
ENDBRANCH  19  21
ENDBRANCH  15  16
ENDBRANCH  12  15
ENDBRANCH   6   8
ENDBRANCH   5   6
ENDBRANCH   4   5
ENDBRANCH   3   4
ENDBRANCH   2   3
ENDBRANCH   1   2
BRANCH   1  25
ATOM     25  C   UNL A   1      40.117  21.397  26.144  1.00  0.00     0.188 C 
BRANCH  25  26
ATOM     26  O   UNL A   1      40.668  20.911  27.363  1.00  0.00    -0.376 OA
BRANCH  26  27
ATOM     27  C   UNL A   1      41.771  20.015  27.384  1.00  0.00     0.202 C 
BRANCH  27  28
ATOM     28  C   UNL A   1      42.353  19.436  26.096  1.00  0.00     0.261 C 
BRANCH  28  29
ATOM     29  O   UNL A   1      43.761  19.536  25.995  1.00  0.00    -0.460 OA
BRANCH  29  30
ATOM     30  C   UNL A   1      44.197  19.891  24.771  1.00  0.00     0.338 C 
ATOM     31  O   UNL A   1      44.289  19.191  23.778  1.00  0.00    -0.246 OA
BRANCH  30  32
ATOM     32  C   UNL A   1      44.611  21.295  24.811  1.00  0.00     0.060 A 
ATOM     33  C   UNL A   1      45.698  21.604  25.632  1.00  0.00     0.016 A 
ATOM     34  C   UNL A   1      43.749  22.274  24.300  1.00  0.00     0.016 A 
ATOM     35  C   UNL A   1      45.756  22.866  26.171  1.00  0.00     0.010 A 
ATOM     36  C   UNL A   1      43.802  23.531  24.845  1.00  0.00     0.010 A 
ATOM     37  C   UNL A   1      44.731  23.763  25.856  1.00  0.00    -0.014 A 
BRANCH  37  38
ATOM     38  C   UNL A   1      44.590  24.934  26.688  1.00  0.00     0.031 A 
ATOM     39  C   UNL A   1      45.725  25.870  26.609  1.00  0.00     0.074 A 
ATOM     40  C   UNL A   1      43.459  25.150  27.385  1.00  0.00     0.049 A 
ATOM     41  N   UNL A   1      46.559  26.186  27.539  1.00  0.00    -0.248 NA
ATOM     42  C   UNL A   1      46.051  26.414  25.281  1.00  0.00     0.031 C 
ATOM     43  C   UNL A   1      42.193  24.409  27.300  1.00  0.00     0.029 A 
ATOM     44  N   UNL A   1      43.170  26.153  28.254  1.00  0.00    -0.354 N 
ATOM     45  C   UNL A   1      47.394  27.138  26.967  1.00  0.00     0.074 A 
ATOM     46  C   UNL A   1      47.159  27.104  25.548  1.00  0.00     0.031 C 
ATOM     47  C   UNL A   1      41.220  25.120  27.911  1.00  0.00     0.029 A 
ATOM     48  C   UNL A   1      41.820  26.285  28.537  1.00  0.00     0.049 A 
ATOM     49  H   UNL A   1      43.859  26.734  28.648  1.00  0.00     0.167 HD
ATOM     50  C   UNL A   1      48.008  28.080  27.729  1.00  0.00     0.037 A 
ATOM     51  C   UNL A   1      41.237  27.327  29.177  1.00  0.00     0.037 A 
ATOM     52  C   UNL A   1      48.041  27.708  29.118  1.00  0.00     0.049 A 
ATOM     53  C   UNL A   1      42.298  28.042  29.925  1.00  0.00     0.074 A 
ATOM     54  C   UNL A   1      48.621  26.691  29.848  1.00  0.00     0.029 A 
ATOM     55  N   UNL A   1      47.094  28.272  29.933  1.00  0.00    -0.354 N 
ATOM     56  N   UNL A   1      42.930  27.541  30.950  1.00  0.00    -0.248 NA
ATOM     57  C   UNL A   1      42.962  29.165  29.279  1.00  0.00     0.031 C 
ATOM     58  C   UNL A   1      47.715  26.428  30.917  1.00  0.00     0.029 A 
ATOM     59  C   UNL A   1      46.641  27.312  30.799  1.00  0.00     0.049 A 
ATOM     60  H   UNL A   1      46.789  29.208  29.901  1.00  0.00     0.167 HD
ATOM     61  C   UNL A   1      44.236  27.991  30.820  1.00  0.00     0.074 A 
ATOM     62  C   UNL A   1      44.163  29.084  29.857  1.00  0.00     0.031 C 
ATOM     63  C   UNL A   1      45.281  27.248  31.290  1.00  0.00     0.037 A 
BRANCH  50  64
ATOM     64  C   UNL A   1      48.188  29.503  27.274  1.00  0.00     0.057 A 
ATOM     65  C   UNL A   1      49.461  30.089  27.336  1.00  0.00     0.134 A 
ATOM     66  C   UNL A   1      47.118  30.399  27.064  1.00  0.00     0.134 A 
ATOM     67  F   UNL A   1      50.549  29.341  27.569  1.00  0.00    -0.206 F 
ATOM     68  C   UNL A   1      49.649  31.472  27.246  1.00  0.00     0.040 A 
ATOM     69  C   UNL A   1      47.300  31.775  26.915  1.00  0.00     0.040 A 
ATOM     70  F   UNL A   1      45.837  30.009  27.096  1.00  0.00    -0.206 F 
ATOM     71  C   UNL A   1      48.567  32.320  27.036  1.00  0.00     0.006 A 
ENDBRANCH  50  64
BRANCH  51  72
ATOM     72  C   UNL A   1      39.906  27.912  28.905  1.00  0.00     0.057 A 
ATOM     73  C   UNL A   1      38.912  27.963  29.889  1.00  0.00     0.134 A 
ATOM     74  C   UNL A   1      39.665  28.666  27.742  1.00  0.00     0.134 A 
ATOM     75  F   UNL A   1      39.074  27.318  31.054  1.00  0.00    -0.206 F 
ATOM     76  C   UNL A   1      37.746  28.725  29.728  1.00  0.00     0.040 A 
ATOM     77  C   UNL A   1      38.505  29.424  27.564  1.00  0.00     0.040 A 
ATOM     78  F   UNL A   1      40.588  28.761  26.774  1.00  0.00    -0.206 F 
ATOM     79  C   UNL A   1      37.543  29.464  28.566  1.00  0.00     0.006 A 
ENDBRANCH  51  72
BRANCH  63  80
ATOM     80  C   UNL A   1      44.948  26.102  32.206  1.00  0.00     0.057 A 
ATOM     81  C   UNL A   1      44.707  26.246  33.580  1.00  0.00     0.134 A 
ATOM     82  C   UNL A   1      44.731  24.835  31.655  1.00  0.00     0.134 A 
ATOM     83  F   UNL A   1      44.794  27.441  34.175  1.00  0.00    -0.206 F 
ATOM     84  C   UNL A   1      44.312  25.169  34.378  1.00  0.00     0.040 A 
ATOM     85  C   UNL A   1      44.304  23.757  32.434  1.00  0.00     0.040 A 
ATOM     86  F   UNL A   1      44.883  24.637  30.335  1.00  0.00    -0.206 F 
ATOM     87  C   UNL A   1      44.104  23.919  33.803  1.00  0.00     0.006 A 
ENDBRANCH  63  80
ENDBRANCH  37  38
ENDBRANCH  30  32
ENDBRANCH  29  30
ENDBRANCH  28  29
ENDBRANCH  27  28
ENDBRANCH  26  27
ENDBRANCH  25  26
ENDBRANCH   1  25
TORSDOF 20
ENDMDL
MODEL 2
REMARK VINA RESULT:     -10.7      1.536      2.109
REMARK SMILES Cc1nn(Cc2nc(C(C)(C)C)cs2)c(C)c1C(=O)OCCOCCOCCOC(=O)c1ccc(-c2c3nc(c(-c4c(F)cccc4F)c4ccc([nH]4)c(-c4c(F)cccc4F)c4nc(c(-c5c(F)cccc5F)c5ccc2[nH]5)C=C4)C=C3)cc1
REMARK SMILES IDX 24 1 23 2 22 3 21 4 20 5 18 6 19 7 17 8 1 9 2 10 3 11 4 12
REMARK SMILES IDX 15 13 16 14 5 15 6 16 7 17 14 18 8 19 13 20 9 21 10 22 11 23
REMARK SMILES IDX 12 24 25 25 26 26 27 27 28 28 29 29 30 30 31 31 32 32 33 33
REMARK SMILES IDX 85 34 34 35 84 36 35 37 36 38 37 39 78 40 38 41 83 42 77 43
REMARK SMILES IDX 79 44 39 45 82 46 76 47 75 48 40 50 66 51 49 52 65 53 50 54
REMARK SMILES IDX 53 55 64 56 80 57 51 58 52 59 63 61 81 62 54 63 41 64 42 65
REMARK SMILES IDX 47 66 43 67 44 68 46 69 48 70 45 71 67 72 68 73 73 74 69 75
REMARK SMILES IDX 70 76 72 77 74 78 71 79 55 80 56 81 61 82 57 83 58 84 60 85
REMARK SMILES IDX 62 86 59 87
REMARK H PARENT 79 49 53 60
REMARK Flexibility Score: inf
ROOT
ATOM      1  C   UNL A   1      39.790  20.965  26.173  1.00  0.00     0.188 C 
ENDROOT
BRANCH   1   2
ATOM      2  O   UNL A   1      39.439  19.708  25.632  1.00  0.00    -0.376 OA
BRANCH   2   3
ATOM      3  C   UNL A   1      38.179  19.583  24.987  1.00  0.00     0.202 C 
BRANCH   3   4
ATOM      4  C   UNL A   1      37.122  20.712  25.013  1.00  0.00     0.261 C 
BRANCH   4   5
ATOM      5  O   UNL A   1      35.744  20.328  24.989  1.00  0.00    -0.460 OA
BRANCH   5   6
ATOM      6  C   UNL A   1      34.842  21.170  25.558  1.00  0.00     0.341 C 
ATOM      7  O   UNL A   1      34.801  21.419  26.761  1.00  0.00    -0.246 OA
BRANCH   6   8
ATOM      8  C   UNL A   1      34.042  21.874  24.567  1.00  0.00     0.103 A 
ATOM      9  C   UNL A   1      32.376  20.039  23.700  1.00  0.00     0.070 C 
ATOM     10  C   UNL A   1      32.957  21.405  23.774  1.00  0.00     0.074 A 
ATOM     11  N   UNL A   1      32.470  22.367  22.984  1.00  0.00    -0.177 NA
ATOM     12  N   UNL A   1      33.277  23.427  23.185  1.00  0.00    -0.262 N 
ATOM     13  C   UNL A   1      34.294  23.152  24.074  1.00  0.00     0.051 A 
ATOM     14  C   UNL A   1      35.427  24.080  24.328  1.00  0.00     0.067 C 
BRANCH  12  15
ATOM     15  C   UNL A   1      32.907  24.730  22.635  1.00  0.00     0.212 C 
BRANCH  15  16
ATOM     16  C   UNL A   1      32.162  25.595  23.600  1.00  0.00     0.114 A 
ATOM     17  N   UNL A   1      32.704  26.572  24.298  1.00  0.00    -0.244 NA
ATOM     18  S   UNL A   1      30.451  25.480  23.744  1.00  0.00    -0.125 S 
ATOM     19  C   UNL A   1      31.750  27.252  25.044  1.00  0.00     0.057 A 
ATOM     20  C   UNL A   1      30.457  26.812  24.825  1.00  0.00     0.091 A 
BRANCH  19  21
ATOM     21  C   UNL A   1      32.240  28.347  25.982  1.00  0.00     0.005 C 
ATOM     22  C   UNL A   1      31.610  29.691  25.561  1.00  0.00     0.017 C 
ATOM     23  C   UNL A   1      31.817  28.030  27.430  1.00  0.00     0.017 C 
ATOM     24  C   UNL A   1      33.773  28.508  25.957  1.00  0.00     0.017 C 
ENDBRANCH  19  21
ENDBRANCH  15  16
ENDBRANCH  12  15
ENDBRANCH   6   8
ENDBRANCH   5   6
ENDBRANCH   4   5
ENDBRANCH   3   4
ENDBRANCH   2   3
ENDBRANCH   1   2
BRANCH   1  25
ATOM     25  C   UNL A   1      41.164  20.970  26.876  1.00  0.00     0.188 C 
BRANCH  25  26
ATOM     26  O   UNL A   1      41.627  19.833  27.596  1.00  0.00    -0.376 OA
BRANCH  26  27
ATOM     27  C   UNL A   1      42.577  18.931  27.045  1.00  0.00     0.202 C 
BRANCH  27  28
ATOM     28  C   UNL A   1      43.033  19.042  25.592  1.00  0.00     0.261 C 
BRANCH  28  29
ATOM     29  O   UNL A   1      44.346  19.545  25.430  1.00  0.00    -0.460 OA
BRANCH  29  30
ATOM     30  C   UNL A   1      44.578  20.089  24.220  1.00  0.00     0.338 C 
ATOM     31  O   UNL A   1      44.498  19.549  23.130  1.00  0.00    -0.246 OA
BRANCH  30  32
ATOM     32  C   UNL A   1      45.003  21.478  24.404  1.00  0.00     0.060 A 
ATOM     33  C   UNL A   1      46.024  21.702  25.331  1.00  0.00     0.016 A 
ATOM     34  C   UNL A   1      44.197  22.510  23.906  1.00  0.00     0.016 A 
ATOM     35  C   UNL A   1      46.053  22.916  25.972  1.00  0.00     0.010 A 
ATOM     36  C   UNL A   1      44.221  23.719  24.552  1.00  0.00     0.010 A 
ATOM     37  C   UNL A   1      45.067  23.853  25.649  1.00  0.00    -0.014 A 
BRANCH  37  38
ATOM     38  C   UNL A   1      44.874  24.958  26.558  1.00  0.00     0.031 A 
ATOM     39  C   UNL A   1      46.028  25.867  26.656  1.00  0.00     0.074 A 
ATOM     40  C   UNL A   1      43.687  25.147  27.166  1.00  0.00     0.049 A 
ATOM     41  N   UNL A   1      46.780  26.086  27.680  1.00  0.00    -0.248 NA
ATOM     42  C   UNL A   1      46.484  26.507  25.412  1.00  0.00     0.031 C 
ATOM     43  C   UNL A   1      42.420  24.449  26.908  1.00  0.00     0.029 A 
ATOM     44  N   UNL A   1      43.340  26.085  28.084  1.00  0.00    -0.354 N 
ATOM     45  C   UNL A   1      47.681  27.059  27.265  1.00  0.00     0.074 A 
ATOM     46  C   UNL A   1      47.576  27.144  25.832  1.00  0.00     0.031 C 
ATOM     47  C   UNL A   1      41.409  25.134  27.486  1.00  0.00     0.029 A 
ATOM     48  C   UNL A   1      41.972  26.230  28.256  1.00  0.00     0.049 A 
ATOM     49  H   UNL A   1      44.001  26.615  28.584  1.00  0.00     0.167 HD
ATOM     50  C   UNL A   1      48.240  27.920  28.153  1.00  0.00     0.037 A 
ATOM     51  C   UNL A   1      41.353  27.232  28.924  1.00  0.00     0.037 A 
ATOM     52  C   UNL A   1      48.140  27.439  29.505  1.00  0.00     0.049 A 
ATOM     53  C   UNL A   1      42.354  27.858  29.820  1.00  0.00     0.074 A 
ATOM     54  C   UNL A   1      48.632  26.352  30.198  1.00  0.00     0.029 A 
ATOM     55  N   UNL A   1      47.133  27.961  30.275  1.00  0.00    -0.354 N 
ATOM     56  N   UNL A   1      42.881  27.260  30.852  1.00  0.00    -0.248 NA
ATOM     57  C   UNL A   1      43.095  29.011  29.329  1.00  0.00     0.031 C 
ATOM     58  C   UNL A   1      47.627  26.029  31.156  1.00  0.00     0.029 A 
ATOM     59  C   UNL A   1      46.585  26.947  31.016  1.00  0.00     0.049 A 
ATOM     60  H   UNL A   1      46.850  28.904  30.292  1.00  0.00     0.167 HD
ATOM     61  C   UNL A   1      44.202  27.685  30.877  1.00  0.00     0.074 A 
ATOM     62  C   UNL A   1      44.237  28.852  30.003  1.00  0.00     0.031 C 
ATOM     63  C   UNL A   1      45.186  26.880  31.377  1.00  0.00     0.037 A 
BRANCH  50  64
ATOM     64  C   UNL A   1      48.488  29.370  27.834  1.00  0.00     0.057 A 
ATOM     65  C   UNL A   1      49.761  29.916  28.056  1.00  0.00     0.134 A 
ATOM     66  C   UNL A   1      47.458  30.308  27.603  1.00  0.00     0.134 A 
ATOM     67  F   UNL A   1      50.810  29.123  28.322  1.00  0.00    -0.206 F 
ATOM     68  C   UNL A   1      49.982  31.296  28.097  1.00  0.00     0.040 A 
ATOM     69  C   UNL A   1      47.680  31.686  27.583  1.00  0.00     0.040 A 
ATOM     70  F   UNL A   1      46.173  29.951  27.489  1.00  0.00    -0.206 F 
ATOM     71  C   UNL A   1      48.940  32.187  27.861  1.00  0.00     0.006 A 
ENDBRANCH  50  64
BRANCH  51  72
ATOM     72  C   UNL A   1      40.064  27.871  28.583  1.00  0.00     0.057 A 
ATOM     73  C   UNL A   1      38.997  27.903  29.489  1.00  0.00     0.134 A 
ATOM     74  C   UNL A   1      39.934  28.692  27.447  1.00  0.00     0.134 A 
ATOM     75  F   UNL A   1      39.051  27.193  30.626  1.00  0.00    -0.206 F 
ATOM     76  C   UNL A   1      37.868  28.708  29.281  1.00  0.00     0.040 A 
ATOM     77  C   UNL A   1      38.812  29.494  27.223  1.00  0.00     0.040 A 
ATOM     78  F   UNL A   1      40.933  28.809  26.559  1.00  0.00    -0.206 F 
ATOM     79  C   UNL A   1      37.777  29.512  28.148  1.00  0.00     0.006 A 
ENDBRANCH  51  72
BRANCH  63  80
ATOM     80  C   UNL A   1      44.749  25.673  32.162  1.00  0.00     0.057 A 
ATOM     81  C   UNL A   1      44.529  24.410  31.593  1.00  0.00     0.134 A 
ATOM     82  C   UNL A   1      44.680  25.760  33.556  1.00  0.00     0.134 A 
ATOM     83  F   UNL A   1      44.670  24.211  30.277  1.00  0.00    -0.206 F 
ATOM     84  C   UNL A   1      44.211  23.294  32.371  1.00  0.00     0.040 A 
ATOM     85  C   UNL A   1      44.395  24.646  34.349  1.00  0.00     0.040 A 
ATOM     86  F   UNL A   1      44.938  26.924  34.174  1.00  0.00    -0.206 F 
ATOM     87  C   UNL A   1      44.148  23.409  33.757  1.00  0.00     0.006 A 
ENDBRANCH  63  80
ENDBRANCH  37  38
ENDBRANCH  30  32
ENDBRANCH  29  30
ENDBRANCH  28  29
ENDBRANCH  27  28
ENDBRANCH  26  27
ENDBRANCH  25  26
ENDBRANCH   1  25
TORSDOF 20
ENDMDL
MODEL 3
REMARK VINA RESULT:     -10.7      5.345     10.573
REMARK SMILES Cc1nn(Cc2nc(C(C)(C)C)cs2)c(C)c1C(=O)OCCOCCOCCOC(=O)c1ccc(-c2c3nc(c(-c4c(F)cccc4F)c4ccc([nH]4)c(-c4c(F)cccc4F)c4nc(c(-c5c(F)cccc5F)c5ccc2[nH]5)C=C4)C=C3)cc1
REMARK SMILES IDX 24 1 23 2 22 3 21 4 20 5 18 6 19 7 17 8 1 9 2 10 3 11 4 12
REMARK SMILES IDX 15 13 16 14 5 15 6 16 7 17 14 18 8 19 13 20 9 21 10 22 11 23
REMARK SMILES IDX 12 24 25 25 26 26 27 27 28 28 29 29 30 30 31 31 32 32 33 33
REMARK SMILES IDX 85 34 34 35 84 36 35 37 36 38 37 39 78 40 38 41 83 42 77 43
REMARK SMILES IDX 79 44 39 45 82 46 76 47 75 48 40 50 66 51 49 52 65 53 50 54
REMARK SMILES IDX 53 55 64 56 80 57 51 58 52 59 63 61 81 62 54 63 41 64 42 65
REMARK SMILES IDX 47 66 43 67 44 68 46 69 48 70 45 71 67 72 68 73 73 74 69 75
REMARK SMILES IDX 70 76 72 77 74 78 71 79 55 80 56 81 61 82 57 83 58 84 60 85
REMARK SMILES IDX 62 86 59 87
REMARK H PARENT 79 49 53 60
REMARK Flexibility Score: inf
ROOT
ATOM      1  C   UNL A   1      34.275  33.034  28.927  1.00  0.00     0.188 C 
ENDROOT
BRANCH   1   2
ATOM      2  O   UNL A   1      33.824  32.421  27.738  1.00  0.00    -0.376 OA
BRANCH   2   3
ATOM      3  C   UNL A   1      34.203  31.073  27.493  1.00  0.00     0.202 C 
BRANCH   3   4
ATOM      4  C   UNL A   1      33.175  29.985  27.102  1.00  0.00     0.261 C 
BRANCH   4   5
ATOM      5  O   UNL A   1      33.374  29.304  25.859  1.00  0.00    -0.460 OA
BRANCH   5   6
ATOM      6  C   UNL A   1      32.274  28.998  25.122  1.00  0.00     0.341 C 
ATOM      7  O   UNL A   1      31.369  29.794  24.879  1.00  0.00    -0.246 OA
BRANCH   6   8
ATOM      8  C   UNL A   1      32.368  27.680  24.511  1.00  0.00     0.103 A 
ATOM      9  C   UNL A   1      33.686  28.124  22.284  1.00  0.00     0.070 C 
ATOM     10  C   UNL A   1      32.996  27.283  23.298  1.00  0.00     0.074 A 
ATOM     11  N   UNL A   1      32.877  25.968  23.086  1.00  0.00    -0.177 NA
ATOM     12  N   UNL A   1      32.105  25.521  24.095  1.00  0.00    -0.262 N 
ATOM     13  C   UNL A   1      31.704  26.534  24.939  1.00  0.00     0.051 A 
ATOM     14  C   UNL A   1      30.698  26.345  26.018  1.00  0.00     0.067 C 
BRANCH  12  15
ATOM     15  C   UNL A   1      31.944  24.082  24.296  1.00  0.00     0.212 C 
BRANCH  15  16
ATOM     16  C   UNL A   1      33.099  23.445  25.001  1.00  0.00     0.114 A 
ATOM     17  N   UNL A   1      34.273  23.214  24.450  1.00  0.00    -0.244 NA
ATOM     18  S   UNL A   1      33.023  23.113  26.688  1.00  0.00    -0.125 S 
ATOM     19  C   UNL A   1      35.171  22.690  25.372  1.00  0.00     0.057 A 
ATOM     20  C   UNL A   1      34.663  22.611  26.657  1.00  0.00     0.091 A 
BRANCH  19  21
ATOM     21  C   UNL A   1      36.544  22.277  24.860  1.00  0.00     0.005 C 
ATOM     22  C   UNL A   1      37.629  22.966  25.713  1.00  0.00     0.017 C 
ATOM     23  C   UNL A   1      36.712  20.749  24.978  1.00  0.00     0.017 C 
ATOM     24  C   UNL A   1      36.771  22.670  23.387  1.00  0.00     0.017 C 
ENDBRANCH  19  21
ENDBRANCH  15  16
ENDBRANCH  12  15
ENDBRANCH   6   8
ENDBRANCH   5   6
ENDBRANCH   4   5
ENDBRANCH   3   4
ENDBRANCH   2   3
ENDBRANCH   1   2
BRANCH   1  25
ATOM     25  C   UNL A   1      35.143  34.287  28.683  1.00  0.00     0.188 C 
BRANCH  25  26
ATOM     26  O   UNL A   1      34.553  35.568  28.499  1.00  0.00    -0.376 OA
BRANCH  26  27
ATOM     27  C   UNL A   1      33.221  35.848  28.908  1.00  0.00     0.202 C 
BRANCH  27  28
ATOM     28  C   UNL A   1      32.906  36.330  30.322  1.00  0.00     0.261 C 
BRANCH  28  29
ATOM     29  O   UNL A   1      33.835  35.908  31.303  1.00  0.00    -0.460 OA
BRANCH  29  30
ATOM     30  C   UNL A   1      33.310  35.096  32.240  1.00  0.00     0.338 C 
ATOM     31  O   UNL A   1      32.138  34.971  32.551  1.00  0.00    -0.246 OA
BRANCH  30  32
ATOM     32  C   UNL A   1      34.401  34.377  32.901  1.00  0.00     0.060 A 
ATOM     33  C   UNL A   1      35.525  35.130  33.252  1.00  0.00     0.016 A 
ATOM     34  C   UNL A   1      34.411  32.977  32.873  1.00  0.00     0.016 A 
ATOM     35  C   UNL A   1      36.738  34.488  33.300  1.00  0.00     0.010 A 
ATOM     36  C   UNL A   1      35.623  32.337  32.913  1.00  0.00     0.010 A 
ATOM     37  C   UNL A   1      36.769  33.122  33.007  1.00  0.00    -0.014 A 
BRANCH  37  38
ATOM     38  C   UNL A   1      38.053  32.535  32.701  1.00  0.00     0.031 A 
ATOM     39  C   UNL A   1      38.987  32.502  33.838  1.00  0.00     0.074 A 
ATOM     40  C   UNL A   1      38.289  31.994  31.491  1.00  0.00     0.049 A 
ATOM     41  N   UNL A   1      40.105  33.131  33.965  1.00  0.00    -0.248 NA
ATOM     42  C   UNL A   1      38.547  31.785  35.045  1.00  0.00     0.031 C 
ATOM     43  C   UNL A   1      37.326  31.746  30.409  1.00  0.00     0.029 A 
ATOM     44  N   UNL A   1      39.438  31.455  31.008  1.00  0.00    -0.354 N 
ATOM     45  C   UNL A   1      40.616  32.719  35.190  1.00  0.00     0.074 A 
ATOM     46  C   UNL A   1      39.548  32.048  35.884  1.00  0.00     0.031 C 
ATOM     47  C   UNL A   1      37.880  30.913  29.502  1.00  0.00     0.029 A 
ATOM     48  C   UNL A   1      39.267  30.683  29.870  1.00  0.00     0.049 A 
ATOM     49  H   UNL A   1      40.316  31.599  31.429  1.00  0.00     0.167 HD
ATOM     50  C   UNL A   1      41.953  32.708  35.423  1.00  0.00     0.037 A 
ATOM     51  C   UNL A   1      40.186  29.854  29.321  1.00  0.00     0.037 A 
ATOM     52  C   UNL A   1      42.668  33.537  34.490  1.00  0.00     0.049 A 
ATOM     53  C   UNL A   1      41.516  30.260  29.833  1.00  0.00     0.074 A 
ATOM     54  C   UNL A   1      42.696  34.885  34.197  1.00  0.00     0.029 A 
ATOM     55  N   UNL A   1      43.274  32.903  33.436  1.00  0.00    -0.354 N 
ATOM     56  N   UNL A   1      42.098  31.388  29.534  1.00  0.00    -0.248 NA
ATOM     57  C   UNL A   1      42.030  29.597  31.023  1.00  0.00     0.031 C 
ATOM     58  C   UNL A   1      42.949  34.962  32.796  1.00  0.00     0.029 A 
ATOM     59  C   UNL A   1      43.087  33.660  32.310  1.00  0.00     0.049 A 
ATOM     60  H   UNL A   1      43.760  32.048  33.481  1.00  0.00     0.167 HD
ATOM     61  C   UNL A   1      42.740  31.781  30.700  1.00  0.00     0.074 A 
ATOM     62  C   UNL A   1      42.772  30.584  31.533  1.00  0.00     0.031 C 
ATOM     63  C   UNL A   1      42.925  33.104  30.984  1.00  0.00     0.037 A 
BRANCH  50  64
ATOM     64  C   UNL A   1      42.632  31.624  36.217  1.00  0.00     0.057 A 
ATOM     65  C   UNL A   1      43.509  31.977  37.253  1.00  0.00     0.134 A 
ATOM     66  C   UNL A   1      42.684  30.273  35.812  1.00  0.00     0.134 A 
ATOM     67  F   UNL A   1      43.573  33.241  37.696  1.00  0.00    -0.206 F 
ATOM     68  C   UNL A   1      44.410  31.063  37.809  1.00  0.00     0.040 A 
ATOM     69  C   UNL A   1      43.539  29.339  36.400  1.00  0.00     0.040 A 
ATOM     70  F   UNL A   1      41.994  29.811  34.762  1.00  0.00    -0.206 F 
ATOM     71  C   UNL A   1      44.428  29.739  37.382  1.00  0.00     0.006 A 
ENDBRANCH  50  64
BRANCH  51  72
ATOM     72  C   UNL A   1      39.938  28.554  28.661  1.00  0.00     0.057 A 
ATOM     73  C   UNL A   1      40.421  28.279  27.376  1.00  0.00     0.134 A 
ATOM     74  C   UNL A   1      39.434  27.455  29.381  1.00  0.00     0.134 A 
ATOM     75  F   UNL A   1      40.967  29.252  26.632  1.00  0.00    -0.206 F 
ATOM     76  C   UNL A   1      40.408  26.984  26.839  1.00  0.00     0.040 A 
ATOM     77  C   UNL A   1      39.409  26.161  28.856  1.00  0.00     0.040 A 
ATOM     78  F   UNL A   1      39.030  27.587  30.653  1.00  0.00    -0.206 F 
ATOM     79  C   UNL A   1      39.908  25.918  27.583  1.00  0.00     0.006 A 
ENDBRANCH  51  72
BRANCH  63  80
ATOM     80  C   UNL A   1      42.689  34.083  29.866  1.00  0.00     0.057 A 
ATOM     81  C   UNL A   1      43.636  34.374  28.872  1.00  0.00     0.134 A 
ATOM     82  C   UNL A   1      41.419  34.645  29.713  1.00  0.00     0.134 A 
ATOM     83  F   UNL A   1      44.846  33.803  28.883  1.00  0.00    -0.206 F 
ATOM     84  C   UNL A   1      43.344  35.221  27.800  1.00  0.00     0.040 A 
ATOM     85  C   UNL A   1      41.104  35.468  28.629  1.00  0.00     0.040 A 
ATOM     86  F   UNL A   1      40.444  34.362  30.594  1.00  0.00    -0.206 F 
ATOM     87  C   UNL A   1      42.071  35.768  27.673  1.00  0.00     0.006 A 
ENDBRANCH  63  80
ENDBRANCH  37  38
ENDBRANCH  30  32
ENDBRANCH  29  30
ENDBRANCH  28  29
ENDBRANCH  27  28
ENDBRANCH  26  27
ENDBRANCH  25  26
ENDBRANCH   1  25
TORSDOF 20
ENDMDL
