MODEL 1
REMARK VINA RESULT:      -9.0      0.000      0.000
REMARK SMILES CCCCCCNC(=O)Oc1cccc(-c2ccc([C@@H](C)C(=O)OCCOCCOCCOC(=O)c3ccc(-c4c5nc(c(-c6c(F)cccc6F)c6ccc([nH]6)c(-c6c(F)cccc6F)c6nc(c(-c7c(F)cccc7F)c7ccc4[nH]7)C=C6)C=C5)cc3)cc2O)c1
REMARK SMILES IDX 25 1 24 2 22 3 23 4 20 5 21 6 19 7 16 8 17 9 91 10 18 11
REMARK SMILES IDX 90 12 15 13 11 14 12 15 93 16 13 17 14 18 10 19 8 20 7 21
REMARK SMILES IDX 9 23 6 24 5 25 4 26 3 27 2 28 1 29 92 30 26 32 27 33 28 34
REMARK SMILES IDX 29 35 30 36 31 37 32 38 33 39 34 40 35 41 36 42 37 43 89 44
REMARK SMILES IDX 38 45 88 46 39 47 40 48 41 49 82 50 42 51 87 52 81 53 83 54
REMARK SMILES IDX 43 55 86 56 80 57 79 58 44 60 70 61 53 62 69 63 54 64 57 65
REMARK SMILES IDX 68 66 84 67 55 68 56 69 67 71 85 72 58 73 45 74 46 75 51 76
REMARK SMILES IDX 47 77 48 78 50 79 52 80 49 81 71 82 72 83 77 84 73 85 74 86
REMARK SMILES IDX 76 87 78 88 75 89 59 90 60 91 65 92 61 93 62 94 64 95 66 96
REMARK SMILES IDX 63 97
REMARK H PARENT 7 22 92 31 83 59 57 70
REMARK Flexibility Score: inf
ROOT
ATOM      1  C   UNL A   1      34.681  22.541  25.347  1.00  0.00     0.261 C 
ENDROOT
BRANCH   1   2
ATOM      2  O   UNL A   1      34.599  22.340  23.921  1.00  0.00    -0.463 OA
BRANCH   2   3
ATOM      3  C   UNL A   1      33.762  23.166  23.247  1.00  0.00     0.313 C 
ATOM      4  O   UNL A   1      33.889  23.437  22.054  1.00  0.00    -0.252 OA
BRANCH   3   5
ATOM      5  C   UNL A   1      32.639  23.786  24.070  1.00  0.00     0.126 C 
ATOM      6  C   UNL A   1      31.332  23.656  23.287  1.00  0.00     0.025 C 
BRANCH   5   7
ATOM      7  C   UNL A   1      32.777  25.190  24.652  1.00  0.00    -0.030 A 
ATOM      8  C   UNL A   1      32.804  27.857  25.728  1.00  0.00     0.024 A 
ATOM      9  C   UNL A   1      33.588  27.496  24.615  1.00  0.00     0.013 A 
ATOM     10  C   UNL A   1      32.011  26.843  26.290  1.00  0.00     0.123 A 
ATOM     11  C   UNL A   1      33.565  26.194  24.075  1.00  0.00     0.005 A 
ATOM     12  C   UNL A   1      32.004  25.542  25.773  1.00  0.00     0.051 A 
BRANCH   8  13
ATOM     13  C   UNL A   1      32.788  29.258  26.214  1.00  0.00    -0.011 A 
ATOM     14  C   UNL A   1      33.684  31.069  27.573  1.00  0.00     0.133 A 
ATOM     15  C   UNL A   1      32.604  31.887  27.251  1.00  0.00     0.047 A 
ATOM     16  C   UNL A   1      33.792  29.771  27.060  1.00  0.00     0.056 A 
ATOM     17  C   UNL A   1      31.622  31.408  26.391  1.00  0.00     0.004 A 
ATOM     18  C   UNL A   1      31.711  30.106  25.885  1.00  0.00     0.009 A 
BRANCH  14  19
ATOM     19  O   UNL A   1      34.562  31.551  28.561  1.00  0.00    -0.410 OA
BRANCH  19  20
ATOM     20  C   UNL A   1      35.760  32.118  28.163  1.00  0.00     0.412 C 
ATOM     21  N   UNL A   1      36.852  31.352  28.467  1.00  0.00    -0.321 N 
ATOM     22  H   UNL A   1      37.719  31.669  28.127  1.00  0.00     0.167 HD
ATOM     23  O   UNL A   1      35.888  33.211  27.610  1.00  0.00    -0.224 OA
BRANCH  21  24
ATOM     24  C   UNL A   1      36.869  30.121  29.237  1.00  0.00     0.119 C 
BRANCH  24  25
ATOM     25  C   UNL A   1      37.982  29.166  28.808  1.00  0.00     0.021 C 
BRANCH  25  26
ATOM     26  C   UNL A   1      38.487  29.352  27.372  1.00  0.00     0.002 C 
BRANCH  26  27
ATOM     27  C   UNL A   1      39.991  29.136  27.158  1.00  0.00    -0.000 C 
BRANCH  27  28
ATOM     28  C   UNL A   1      40.588  27.899  27.833  1.00  0.00    -0.003 C 
ATOM     29  C   UNL A   1      41.258  28.200  29.164  1.00  0.00     0.004 C 
ENDBRANCH  27  28
ENDBRANCH  26  27
ENDBRANCH  25  26
ENDBRANCH  24  25
ENDBRANCH  21  24
ENDBRANCH  19  20
ENDBRANCH  14  19
ENDBRANCH   8  13
BRANCH  10  30
ATOM     30  O   UNL A   1      31.157  27.057  27.341  1.00  0.00    -0.507 OA
ATOM     31  H   UNL A   1      30.700  27.871  27.414  1.00  0.00     0.293 HD
ENDBRANCH  10  30
ENDBRANCH   5   7
ENDBRANCH   3   5
ENDBRANCH   2   3
ENDBRANCH   1   2
BRANCH   1  32
ATOM     32  C   UNL A   1      35.804  21.747  26.014  1.00  0.00     0.202 C 
BRANCH  32  33
ATOM     33  O   UNL A   1      36.825  21.269  25.149  1.00  0.00    -0.376 OA
BRANCH  33  34
ATOM     34  C   UNL A   1      38.182  21.624  25.406  1.00  0.00     0.188 C 
BRANCH  34  35
ATOM     35  C   UNL A   1      39.246  20.529  25.565  1.00  0.00     0.188 C 
BRANCH  35  36
ATOM     36  O   UNL A   1      39.898  20.567  26.826  1.00  0.00    -0.376 OA
BRANCH  36  37
ATOM     37  C   UNL A   1      41.314  20.472  26.762  1.00  0.00     0.202 C 
BRANCH  37  38
ATOM     38  C   UNL A   1      41.907  21.804  27.223  1.00  0.00     0.261 C 
BRANCH  38  39
ATOM     39  O   UNL A   1      41.661  22.880  26.297  1.00  0.00    -0.460 OA
BRANCH  39  40
ATOM     40  C   UNL A   1      41.459  24.091  26.854  1.00  0.00     0.338 C 
ATOM     41  O   UNL A   1      40.468  24.465  27.472  1.00  0.00    -0.246 OA
BRANCH  40  42
ATOM     42  C   UNL A   1      42.696  24.881  26.760  1.00  0.00     0.060 A 
ATOM     43  C   UNL A   1      43.311  25.297  27.949  1.00  0.00     0.016 A 
ATOM     44  C   UNL A   1      43.217  25.259  25.520  1.00  0.00     0.016 A 
ATOM     45  C   UNL A   1      44.411  26.152  27.899  1.00  0.00     0.010 A 
ATOM     46  C   UNL A   1      44.312  26.125  25.471  1.00  0.00     0.010 A 
ATOM     47  C   UNL A   1      44.880  26.612  26.662  1.00  0.00    -0.014 A 
BRANCH  47  48
ATOM     48  C   UNL A   1      45.797  27.776  26.617  1.00  0.00     0.031 A 
ATOM     49  C   UNL A   1      47.274  27.509  26.500  1.00  0.00     0.074 A 
ATOM     50  C   UNL A   1      45.338  29.038  26.658  1.00  0.00     0.049 A 
ATOM     51  N   UNL A   1      48.272  28.354  26.461  1.00  0.00    -0.248 NA
ATOM     52  C   UNL A   1      47.679  26.095  26.418  1.00  0.00     0.031 C 
ATOM     53  C   UNL A   1      43.934  29.429  26.745  1.00  0.00     0.029 A 
ATOM     54  N   UNL A   1      46.023  30.227  26.638  1.00  0.00    -0.354 N 
ATOM     55  C   UNL A   1      49.419  27.577  26.354  1.00  0.00     0.074 A 
ATOM     56  C   UNL A   1      48.999  26.193  26.362  1.00  0.00     0.031 C 
ATOM     57  C   UNL A   1      43.860  30.772  26.783  1.00  0.00     0.029 A 
ATOM     58  C   UNL A   1      45.211  31.330  26.743  1.00  0.00     0.049 A 
ATOM     59  H   UNL A   1      47.003  30.285  26.555  1.00  0.00     0.167 HD
ATOM     60  C   UNL A   1      50.706  27.978  26.245  1.00  0.00     0.037 A 
ATOM     61  C   UNL A   1      45.531  32.638  26.815  1.00  0.00     0.037 A 
ATOM     62  C   UNL A   1      51.130  29.351  26.234  1.00  0.00     0.049 A 
ATOM     63  C   UNL A   1      46.978  33.056  26.748  1.00  0.00     0.074 A 
ATOM     64  C   UNL A   1      52.412  29.857  26.108  1.00  0.00     0.029 A 
ATOM     65  N   UNL A   1      50.279  30.438  26.361  1.00  0.00    -0.354 N 
ATOM     66  N   UNL A   1      48.050  32.314  26.605  1.00  0.00    -0.248 NA
ATOM     67  C   UNL A   1      47.256  34.496  26.848  1.00  0.00     0.031 C 
ATOM     68  C   UNL A   1      52.341  31.251  26.198  1.00  0.00     0.029 A 
ATOM     69  C   UNL A   1      51.011  31.613  26.336  1.00  0.00     0.049 A 
ATOM     70  H   UNL A   1      49.301  30.382  26.454  1.00  0.00     0.167 HD
ATOM     71  C   UNL A   1      49.123  33.199  26.568  1.00  0.00     0.074 A 
ATOM     72  C   UNL A   1      48.571  34.531  26.690  1.00  0.00     0.031 C 
ATOM     73  C   UNL A   1      50.446  32.933  26.444  1.00  0.00     0.037 A 
BRANCH  60  74
ATOM     74  C   UNL A   1      51.753  26.911  26.146  1.00  0.00     0.057 A 
ATOM     75  C   UNL A   1      52.113  26.344  24.916  1.00  0.00     0.134 A 
ATOM     76  C   UNL A   1      52.430  26.468  27.288  1.00  0.00     0.134 A 
ATOM     77  F   UNL A   1      51.488  26.712  23.788  1.00  0.00    -0.206 F 
ATOM     78  C   UNL A   1      53.103  25.363  24.829  1.00  0.00     0.040 A 
ATOM     79  C   UNL A   1      53.437  25.505  27.210  1.00  0.00     0.040 A 
ATOM     80  F   UNL A   1      52.132  26.971  28.495  1.00  0.00    -0.206 F 
ATOM     81  C   UNL A   1      53.773  24.947  25.977  1.00  0.00     0.006 A 
ENDBRANCH  60  74
BRANCH  61  82
ATOM     82  C   UNL A   1      44.468  33.662  26.971  1.00  0.00     0.057 A 
ATOM     83  C   UNL A   1      44.032  34.069  28.238  1.00  0.00     0.134 A 
ATOM     84  C   UNL A   1      43.822  34.213  25.858  1.00  0.00     0.134 A 
ATOM     85  F   UNL A   1      44.593  33.554  29.342  1.00  0.00    -0.206 F 
ATOM     86  C   UNL A   1      42.976  34.968  28.393  1.00  0.00     0.040 A 
ATOM     87  C   UNL A   1      42.780  35.131  25.999  1.00  0.00     0.040 A 
ATOM     88  F   UNL A   1      44.189  33.859  24.618  1.00  0.00    -0.206 F 
ATOM     89  C   UNL A   1      42.348  35.503  27.270  1.00  0.00     0.006 A 
ENDBRANCH  61  82
BRANCH  73  90
ATOM     90  C   UNL A   1      51.384  34.103  26.395  1.00  0.00     0.057 A 
ATOM     91  C   UNL A   1      51.912  34.677  27.558  1.00  0.00     0.134 A 
ATOM     92  C   UNL A   1      51.795  34.635  25.166  1.00  0.00     0.134 A 
ATOM     93  F   UNL A   1      51.550  34.222  28.767  1.00  0.00    -0.206 F 
ATOM     94  C   UNL A   1      52.796  35.757  27.501  1.00  0.00     0.040 A 
ATOM     95  C   UNL A   1      52.698  35.697  25.095  1.00  0.00     0.040 A 
ATOM     96  F   UNL A   1      51.336  34.123  24.014  1.00  0.00    -0.206 F 
ATOM     97  C   UNL A   1      53.196  36.265  26.266  1.00  0.00     0.006 A 
ENDBRANCH  73  90
ENDBRANCH  47  48
ENDBRANCH  40  42
ENDBRANCH  39  40
ENDBRANCH  38  39
ENDBRANCH  37  38
ENDBRANCH  36  37
ENDBRANCH  35  36
ENDBRANCH  34  35
ENDBRANCH  33  34
ENDBRANCH  32  33
ENDBRANCH   1  32
TORSDOF 27
ENDMDL
MODEL 2
REMARK VINA RESULT:      -8.6      5.893     12.885
REMARK SMILES CCCCCCNC(=O)Oc1cccc(-c2ccc([C@@H](C)C(=O)OCCOCCOCCOC(=O)c3ccc(-c4c5nc(c(-c6c(F)cccc6F)c6ccc([nH]6)c(-c6c(F)cccc6F)c6nc(c(-c7c(F)cccc7F)c7ccc4[nH]7)C=C6)C=C5)cc3)cc2O)c1
REMARK SMILES IDX 25 1 24 2 22 3 23 4 20 5 21 6 19 7 16 8 17 9 91 10 18 11
REMARK SMILES IDX 90 12 15 13 11 14 12 15 93 16 13 17 14 18 10 19 8 20 7 21
REMARK SMILES IDX 9 23 6 24 5 25 4 26 3 27 2 28 1 29 92 30 26 32 27 33 28 34
REMARK SMILES IDX 29 35 30 36 31 37 32 38 33 39 34 40 35 41 36 42 37 43 89 44
REMARK SMILES IDX 38 45 88 46 39 47 40 48 41 49 82 50 42 51 87 52 81 53 83 54
REMARK SMILES IDX 43 55 86 56 80 57 79 58 44 60 70 61 53 62 69 63 54 64 57 65
REMARK SMILES IDX 68 66 84 67 55 68 56 69 67 71 85 72 58 73 45 74 46 75 51 76
REMARK SMILES IDX 47 77 48 78 50 79 52 80 49 81 71 82 72 83 77 84 73 85 74 86
REMARK SMILES IDX 76 87 78 88 75 89 59 90 60 91 65 92 61 93 62 94 64 95 66 96
REMARK SMILES IDX 63 97
REMARK H PARENT 7 22 92 31 83 59 57 70
REMARK Flexibility Score: inf
ROOT
ATOM      1  C   UNL A   1      50.672  27.328  30.217  1.00  0.00     0.261 C 
ENDROOT
BRANCH   1   2
ATOM      2  O   UNL A   1      49.911  28.153  31.123  1.00  0.00    -0.463 OA
BRANCH   2   3
ATOM      3  C   UNL A   1      48.629  28.412  30.763  1.00  0.00     0.313 C 
ATOM      4  O   UNL A   1      47.750  28.730  31.561  1.00  0.00    -0.252 OA
BRANCH   3   5
ATOM      5  C   UNL A   1      48.315  28.258  29.279  1.00  0.00     0.126 C 
ATOM      6  C   UNL A   1      48.067  29.647  28.687  1.00  0.00     0.025 C 
BRANCH   5   7
ATOM      7  C   UNL A   1      47.251  27.275  28.802  1.00  0.00    -0.030 A 
ATOM      8  C   UNL A   1      45.356  25.415  27.697  1.00  0.00     0.024 A 
ATOM      9  C   UNL A   1      44.954  26.643  28.256  1.00  0.00     0.013 A 
ATOM     10  C   UNL A   1      46.733  25.143  27.711  1.00  0.00     0.123 A 
ATOM     11  C   UNL A   1      45.880  27.564  28.785  1.00  0.00     0.005 A 
ATOM     12  C   UNL A   1      47.657  26.043  28.258  1.00  0.00     0.051 A 
BRANCH   8  13
ATOM     13  C   UNL A   1      44.360  24.510  27.072  1.00  0.00    -0.011 A 
ATOM     14  C   UNL A   1      42.743  22.694  27.184  1.00  0.00     0.133 A 
ATOM     15  C   UNL A   1      42.608  22.687  25.798  1.00  0.00     0.047 A 
ATOM     16  C   UNL A   1      43.599  23.596  27.827  1.00  0.00     0.056 A 
ATOM     17  C   UNL A   1      43.326  23.605  25.041  1.00  0.00     0.004 A 
ATOM     18  C   UNL A   1      44.198  24.501  25.672  1.00  0.00     0.009 A 
BRANCH  14  19
ATOM     19  O   UNL A   1      42.109  21.648  27.880  1.00  0.00    -0.410 OA
BRANCH  19  20
ATOM     20  C   UNL A   1      40.987  21.065  27.320  1.00  0.00     0.412 C 
ATOM     21  N   UNL A   1      41.076  19.704  27.214  1.00  0.00    -0.321 N 
ATOM     22  H   UNL A   1      40.270  19.234  26.904  1.00  0.00     0.167 HD
ATOM     23  O   UNL A   1      39.990  21.666  26.917  1.00  0.00    -0.224 OA
BRANCH  21  24
ATOM     24  C   UNL A   1      42.234  18.879  27.510  1.00  0.00     0.119 C 
BRANCH  24  25
ATOM     25  C   UNL A   1      42.875  18.282  26.258  1.00  0.00     0.021 C 
BRANCH  25  26
ATOM     26  C   UNL A   1      43.428  19.302  25.255  1.00  0.00     0.002 C 
BRANCH  26  27
ATOM     27  C   UNL A   1      44.773  18.945  24.609  1.00  0.00    -0.000 C 
BRANCH  27  28
ATOM     28  C   UNL A   1      45.999  19.650  25.194  1.00  0.00    -0.003 C 
ATOM     29  C   UNL A   1      46.012  21.150  24.941  1.00  0.00     0.004 C 
ENDBRANCH  27  28
ENDBRANCH  26  27
ENDBRANCH  25  26
ENDBRANCH  24  25
ENDBRANCH  21  24
ENDBRANCH  19  20
ENDBRANCH  14  19
ENDBRANCH   8  13
BRANCH  10  30
ATOM     30  O   UNL A   1      47.279  24.014  27.156  1.00  0.00    -0.507 OA
ATOM     31  H   UNL A   1      47.567  23.313  27.707  1.00  0.00     0.293 HD
ENDBRANCH  10  30
ENDBRANCH   5   7
ENDBRANCH   3   5
ENDBRANCH   2   3
ENDBRANCH   1   2
BRANCH   1  32
ATOM     32  C   UNL A   1      50.803  25.876  30.676  1.00  0.00     0.202 C 
BRANCH  32  33
ATOM     33  O   UNL A   1      50.107  25.535  31.867  1.00  0.00    -0.376 OA
BRANCH  33  34
ATOM     34  C   UNL A   1      50.848  25.233  33.047  1.00  0.00     0.188 C 
BRANCH  34  35
ATOM     35  C   UNL A   1      50.629  23.897  33.772  1.00  0.00     0.188 C 
BRANCH  35  36
ATOM     36  O   UNL A   1      49.676  23.983  34.820  1.00  0.00    -0.376 OA
BRANCH  36  37
ATOM     37  C   UNL A   1      49.491  25.290  35.346  1.00  0.00     0.202 C 
BRANCH  37  38
ATOM     38  C   UNL A   1      48.005  25.640  35.256  1.00  0.00     0.261 C 
BRANCH  38  39
ATOM     39  O   UNL A   1      47.418  25.937  36.537  1.00  0.00    -0.460 OA
BRANCH  39  40
ATOM     40  C   UNL A   1      47.094  27.229  36.743  1.00  0.00     0.338 C 
ATOM     41  O   UNL A   1      47.676  28.032  37.465  1.00  0.00    -0.246 OA
BRANCH  40  42
ATOM     42  C   UNL A   1      46.008  27.610  35.827  1.00  0.00     0.060 A 
ATOM     43  C   UNL A   1      46.244  28.640  34.907  1.00  0.00     0.016 A 
ATOM     44  C   UNL A   1      44.753  27.002  35.906  1.00  0.00     0.016 A 
ATOM     45  C   UNL A   1      45.202  29.113  34.111  1.00  0.00     0.010 A 
ATOM     46  C   UNL A   1      43.706  27.483  35.117  1.00  0.00     0.010 A 
ATOM     47  C   UNL A   1      43.917  28.573  34.254  1.00  0.00    -0.014 A 
BRANCH  47  48
ATOM     48  C   UNL A   1      42.755  29.296  33.684  1.00  0.00     0.031 A 
ATOM     49  C   UNL A   1      42.216  28.836  32.356  1.00  0.00     0.074 A 
ATOM     50  C   UNL A   1      42.176  30.322  34.332  1.00  0.00     0.049 A 
ATOM     51  N   UNL A   1      41.226  29.316  31.648  1.00  0.00    -0.248 NA
ATOM     52  C   UNL A   1      42.888  27.678  31.743  1.00  0.00     0.031 C 
ATOM     53  C   UNL A   1      42.586  30.846  35.632  1.00  0.00     0.029 A 
ATOM     54  N   UNL A   1      41.114  31.110  33.966  1.00  0.00    -0.354 N 
ATOM     55  C   UNL A   1      41.158  28.523  30.510  1.00  0.00     0.074 A 
ATOM     56  C   UNL A   1      42.224  27.549  30.604  1.00  0.00     0.031 C 
ATOM     57  C   UNL A   1      41.789  31.882  35.952  1.00  0.00     0.029 A 
ATOM     58  C   UNL A   1      40.829  32.102  34.871  1.00  0.00     0.049 A 
ATOM     59  H   UNL A   1      40.604  30.977  33.134  1.00  0.00     0.167 HD
ATOM     60  C   UNL A   1      40.282  28.591  29.482  1.00  0.00     0.037 A 
ATOM     61  C   UNL A   1      39.907  33.085  34.819  1.00  0.00     0.037 A 
ATOM     62  C   UNL A   1      39.220  29.554  29.383  1.00  0.00     0.049 A 
ATOM     63  C   UNL A   1      38.978  33.172  33.635  1.00  0.00     0.074 A 
ATOM     64  C   UNL A   1      38.267  29.688  28.388  1.00  0.00     0.029 A 
ATOM     65  N   UNL A   1      38.975  30.554  30.312  1.00  0.00    -0.354 N 
ATOM     66  N   UNL A   1      38.897  32.391  32.584  1.00  0.00    -0.248 NA
ATOM     67  C   UNL A   1      38.007  34.276  33.635  1.00  0.00     0.031 C 
ATOM     68  C   UNL A   1      37.469  30.796  28.695  1.00  0.00     0.029 A 
ATOM     69  C   UNL A   1      37.899  31.322  29.902  1.00  0.00     0.049 A 
ATOM     70  H   UNL A   1      39.490  30.695  31.138  1.00  0.00     0.167 HD
ATOM     71  C   UNL A   1      37.850  32.893  31.818  1.00  0.00     0.074 A 
ATOM     72  C   UNL A   1      37.319  34.035  32.529  1.00  0.00     0.031 C 
ATOM     73  C   UNL A   1      37.372  32.448  30.630  1.00  0.00     0.037 A 
BRANCH  60  74
ATOM     74  C   UNL A   1      40.446  27.599  28.371  1.00  0.00     0.057 A 
ATOM     75  C   UNL A   1      39.803  26.354  28.393  1.00  0.00     0.134 A 
ATOM     76  C   UNL A   1      41.231  27.905  27.253  1.00  0.00     0.134 A 
ATOM     77  F   UNL A   1      39.052  25.994  29.445  1.00  0.00    -0.206 F 
ATOM     78  C   UNL A   1      39.946  25.443  27.346  1.00  0.00     0.040 A 
ATOM     79  C   UNL A   1      41.363  27.010  26.191  1.00  0.00     0.040 A 
ATOM     80  F   UNL A   1      41.873  29.080  27.173  1.00  0.00    -0.206 F 
ATOM     81  C   UNL A   1      40.722  25.774  26.236  1.00  0.00     0.006 A 
ENDBRANCH  60  74
BRANCH  61  82
ATOM     82  C   UNL A   1      39.813  34.083  35.913  1.00  0.00     0.057 A 
ATOM     83  C   UNL A   1      40.528  35.286  35.863  1.00  0.00     0.134 A 
ATOM     84  C   UNL A   1      39.053  33.832  37.062  1.00  0.00     0.134 A 
ATOM     85  F   UNL A   1      41.297  35.570  34.800  1.00  0.00    -0.206 F 
ATOM     86  C   UNL A   1      40.511  36.191  36.924  1.00  0.00     0.040 A 
ATOM     87  C   UNL A   1      39.008  34.740  38.121  1.00  0.00     0.040 A 
ATOM     88  F   UNL A   1      38.350  32.696  37.174  1.00  0.00    -0.206 F 
ATOM     89  C   UNL A   1      39.747  35.920  38.058  1.00  0.00     0.006 A 
ENDBRANCH  61  82
BRANCH  73  90
ATOM     90  C   UNL A   1      36.194  33.171  30.045  1.00  0.00     0.057 A 
ATOM     91  C   UNL A   1      36.326  34.039  28.954  1.00  0.00     0.134 A 
ATOM     92  C   UNL A   1      34.907  32.964  30.556  1.00  0.00     0.134 A 
ATOM     93  F   UNL A   1      37.534  34.288  28.425  1.00  0.00    -0.206 F 
ATOM     94  C   UNL A   1      35.222  34.696  28.408  1.00  0.00     0.040 A 
ATOM     95  C   UNL A   1      33.791  33.594  30.003  1.00  0.00     0.040 A 
ATOM     96  F   UNL A   1      34.710  32.135  31.593  1.00  0.00    -0.206 F 
ATOM     97  C   UNL A   1      33.949  34.468  28.929  1.00  0.00     0.006 A 
ENDBRANCH  73  90
ENDBRANCH  47  48
ENDBRANCH  40  42
ENDBRANCH  39  40
ENDBRANCH  38  39
ENDBRANCH  37  38
ENDBRANCH  36  37
ENDBRANCH  35  36
ENDBRANCH  34  35
ENDBRANCH  33  34
ENDBRANCH  32  33
ENDBRANCH   1  32
TORSDOF 27
ENDMDL
MODEL 3
REMARK VINA RESULT:      -8.4      5.599     12.564
REMARK SMILES CCCCCCNC(=O)Oc1cccc(-c2ccc([C@@H](C)C(=O)OCCOCCOCCOC(=O)c3ccc(-c4c5nc(c(-c6c(F)cccc6F)c6ccc([nH]6)c(-c6c(F)cccc6F)c6nc(c(-c7c(F)cccc7F)c7ccc4[nH]7)C=C6)C=C5)cc3)cc2O)c1
REMARK SMILES IDX 25 1 24 2 22 3 23 4 20 5 21 6 19 7 16 8 17 9 91 10 18 11
REMARK SMILES IDX 90 12 15 13 11 14 12 15 93 16 13 17 14 18 10 19 8 20 7 21
REMARK SMILES IDX 9 23 6 24 5 25 4 26 3 27 2 28 1 29 92 30 26 32 27 33 28 34
REMARK SMILES IDX 29 35 30 36 31 37 32 38 33 39 34 40 35 41 36 42 37 43 89 44
REMARK SMILES IDX 38 45 88 46 39 47 40 48 41 49 82 50 42 51 87 52 81 53 83 54
REMARK SMILES IDX 43 55 86 56 80 57 79 58 44 60 70 61 53 62 69 63 54 64 57 65
REMARK SMILES IDX 68 66 84 67 55 68 56 69 67 71 85 72 58 73 45 74 46 75 51 76
REMARK SMILES IDX 47 77 48 78 50 79 52 80 49 81 71 82 72 83 77 84 73 85 74 86
REMARK SMILES IDX 76 87 78 88 75 89 59 90 60 91 65 92 61 93 62 94 64 95 66 96
REMARK SMILES IDX 63 97
REMARK H PARENT 7 22 92 31 83 59 57 70
REMARK Flexibility Score: inf
ROOT
ATOM      1  C   UNL A   1      50.437  27.014  30.303  1.00  0.00     0.261 C 
ENDROOT
BRANCH   1   2
ATOM      2  O   UNL A   1      49.730  27.876  31.217  1.00  0.00    -0.463 OA
BRANCH   2   3
ATOM      3  C   UNL A   1      48.548  28.376  30.777  1.00  0.00     0.313 C 
ATOM      4  O   UNL A   1      47.671  28.805  31.523  1.00  0.00    -0.252 OA
BRANCH   3   5
ATOM      5  C   UNL A   1      48.343  28.352  29.267  1.00  0.00     0.126 C 
ATOM      6  C   UNL A   1      47.999  29.768  28.800  1.00  0.00     0.025 C 
BRANCH   5   7
ATOM      7  C   UNL A   1      47.408  27.334  28.619  1.00  0.00    -0.030 A 
ATOM      8  C   UNL A   1      45.797  25.406  27.220  1.00  0.00     0.024 A 
ATOM      9  C   UNL A   1      45.273  26.639  27.653  1.00  0.00     0.013 A 
ATOM     10  C   UNL A   1      47.149  25.164  27.512  1.00  0.00     0.123 A 
ATOM     11  C   UNL A   1      46.064  27.593  28.325  1.00  0.00     0.005 A 
ATOM     12  C   UNL A   1      47.933  26.098  28.202  1.00  0.00     0.051 A 
BRANCH   8  13
ATOM     13  C   UNL A   1      44.958  24.465  26.439  1.00  0.00    -0.011 A 
ATOM     14  C   UNL A   1      43.255  22.732  26.281  1.00  0.00     0.133 A 
ATOM     15  C   UNL A   1      43.515  22.557  24.924  1.00  0.00     0.047 A 
ATOM     16  C   UNL A   1      43.955  23.678  27.039  1.00  0.00     0.056 A 
ATOM     17  C   UNL A   1      44.477  23.349  24.309  1.00  0.00     0.004 A 
ATOM     18  C   UNL A   1      45.195  24.287  25.061  1.00  0.00     0.009 A 
BRANCH  14  19
ATOM     19  O   UNL A   1      42.382  21.803  26.877  1.00  0.00    -0.410 OA
BRANCH  19  20
ATOM     20  C   UNL A   1      41.492  22.251  27.837  1.00  0.00     0.412 C 
ATOM     21  N   UNL A   1      40.186  22.198  27.436  1.00  0.00    -0.321 N 
ATOM     22  H   UNL A   1      39.509  22.422  28.113  1.00  0.00     0.167 HD
ATOM     23  O   UNL A   1      41.796  22.689  28.948  1.00  0.00    -0.224 OA
BRANCH  21  24
ATOM     24  C   UNL A   1      39.691  21.845  26.117  1.00  0.00     0.119 C 
BRANCH  24  25
ATOM     25  C   UNL A   1      38.226  22.230  25.909  1.00  0.00     0.021 C 
BRANCH  25  26
ATOM     26  C   UNL A   1      37.377  21.195  25.161  1.00  0.00     0.002 C 
BRANCH  26  27
ATOM     27  C   UNL A   1      36.033  21.698  24.620  1.00  0.00    -0.000 C 
BRANCH  27  28
ATOM     28  C   UNL A   1      36.113  22.670  23.440  1.00  0.00    -0.003 C 
ATOM     29  C   UNL A   1      35.145  23.838  23.551  1.00  0.00     0.004 C 
ENDBRANCH  27  28
ENDBRANCH  26  27
ENDBRANCH  25  26
ENDBRANCH  24  25
ENDBRANCH  21  24
ENDBRANCH  19  20
ENDBRANCH  14  19
ENDBRANCH   8  13
BRANCH  10  30
ATOM     30  O   UNL A   1      47.812  24.034  27.107  1.00  0.00    -0.507 OA
ATOM     31  H   UNL A   1      47.891  23.839  26.194  1.00  0.00     0.293 HD
ENDBRANCH  10  30
ENDBRANCH   5   7
ENDBRANCH   3   5
ENDBRANCH   2   3
ENDBRANCH   1   2
BRANCH   1  32
ATOM     32  C   UNL A   1      50.703  25.616  30.862  1.00  0.00     0.202 C 
BRANCH  32  33
ATOM     33  O   UNL A   1      49.852  25.197  31.919  1.00  0.00    -0.376 OA
BRANCH  33  34
ATOM     34  C   UNL A   1      50.427  24.752  33.145  1.00  0.00     0.188 C 
BRANCH  34  35
ATOM     35  C   UNL A   1      50.332  23.272  33.546  1.00  0.00     0.188 C 
BRANCH  35  36
ATOM     36  O   UNL A   1      49.188  22.982  34.334  1.00  0.00    -0.376 OA
BRANCH  36  37
ATOM     37  C   UNL A   1      48.813  24.014  35.236  1.00  0.00     0.202 C 
BRANCH  37  38
ATOM     38  C   UNL A   1      47.289  24.131  35.228  1.00  0.00     0.261 C 
BRANCH  38  39
ATOM     39  O   UNL A   1      46.755  24.621  36.472  1.00  0.00    -0.460 OA
BRANCH  39  40
ATOM     40  C   UNL A   1      46.627  25.960  36.562  1.00  0.00     0.338 C 
ATOM     41  O   UNL A   1      47.315  26.726  37.228  1.00  0.00    -0.246 OA
BRANCH  40  42
ATOM     42  C   UNL A   1      45.619  26.418  35.593  1.00  0.00     0.060 A 
ATOM     43  C   UNL A   1      45.925  27.522  34.787  1.00  0.00     0.016 A 
ATOM     44  C   UNL A   1      44.366  25.806  35.515  1.00  0.00     0.016 A 
ATOM     45  C   UNL A   1      44.951  28.062  33.949  1.00  0.00     0.010 A 
ATOM     46  C   UNL A   1      43.386  26.354  34.684  1.00  0.00     0.010 A 
ATOM     47  C   UNL A   1      43.661  27.512  33.936  1.00  0.00    -0.014 A 
BRANCH  47  48
ATOM     48  C   UNL A   1      42.547  28.282  33.334  1.00  0.00     0.031 A 
ATOM     49  C   UNL A   1      42.240  28.063  31.877  1.00  0.00     0.074 A 
ATOM     50  C   UNL A   1      41.809  29.140  34.060  1.00  0.00     0.049 A 
ATOM     51  N   UNL A   1      41.333  28.627  31.123  1.00  0.00    -0.248 NA
ATOM     52  C   UNL A   1      43.075  27.072  31.175  1.00  0.00     0.031 C 
ATOM     53  C   UNL A   1      41.988  29.422  35.481  1.00  0.00     0.029 A 
ATOM     54  N   UNL A   1      40.759  29.938  33.683  1.00  0.00    -0.354 N 
ATOM     55  C   UNL A   1      41.488  28.065  29.862  1.00  0.00     0.074 A 
ATOM     56  C   UNL A   1      42.594  27.136  29.943  1.00  0.00     0.031 C 
ATOM     57  C   UNL A   1      41.081  30.343  35.857  1.00  0.00     0.029 A 
ATOM     58  C   UNL A   1      40.275  30.727  34.698  1.00  0.00     0.049 A 
ATOM     59  H   UNL A   1      40.386  29.945  32.771  1.00  0.00     0.167 HD
ATOM     60  C   UNL A   1      40.768  28.290  28.740  1.00  0.00     0.037 A 
ATOM     61  C   UNL A   1      39.304  31.661  34.683  1.00  0.00     0.037 A 
ATOM     62  C   UNL A   1      39.667  29.210  28.654  1.00  0.00     0.049 A 
ATOM     63  C   UNL A   1      38.554  31.935  33.404  1.00  0.00     0.074 A 
ATOM     64  C   UNL A   1      38.862  29.492  27.564  1.00  0.00     0.029 A 
ATOM     65  N   UNL A   1      39.220  30.003  29.699  1.00  0.00    -0.354 N 
ATOM     66  N   UNL A   1      38.682  31.367  32.229  1.00  0.00    -0.248 NA
ATOM     67  C   UNL A   1      37.518  32.977  33.454  1.00  0.00     0.031 C 
ATOM     68  C   UNL A   1      37.952  30.486  27.939  1.00  0.00     0.029 A 
ATOM     69  C   UNL A   1      38.163  30.790  29.274  1.00  0.00     0.049 A 
ATOM     70  H   UNL A   1      39.598  30.005  30.608  1.00  0.00     0.167 HD
ATOM     71  C   UNL A   1      37.725  31.962  31.413  1.00  0.00     0.074 A 
ATOM     72  C   UNL A   1      37.017  32.923  32.229  1.00  0.00     0.031 C 
ATOM     73  C   UNL A   1      37.458  31.732  30.103  1.00  0.00     0.037 A 
BRANCH  60  74
ATOM     74  C   UNL A   1      41.162  27.537  27.506  1.00  0.00     0.057 A 
ATOM     75  C   UNL A   1      42.073  28.064  26.581  1.00  0.00     0.134 A 
ATOM     76  C   UNL A   1      40.649  26.259  27.257  1.00  0.00     0.134 A 
ATOM     77  F   UNL A   1      42.585  29.292  26.753  1.00  0.00    -0.206 F 
ATOM     78  C   UNL A   1      42.449  27.349  25.442  1.00  0.00     0.040 A 
ATOM     79  C   UNL A   1      41.035  25.526  26.134  1.00  0.00     0.040 A 
ATOM     80  F   UNL A   1      39.772  25.700  28.105  1.00  0.00    -0.206 F 
ATOM     81  C   UNL A   1      41.935  26.072  25.221  1.00  0.00     0.006 A 
ENDBRANCH  60  74
BRANCH  61  82
ATOM     82  C   UNL A   1      38.982  32.428  35.912  1.00  0.00     0.057 A 
ATOM     83  C   UNL A   1      39.532  33.693  36.145  1.00  0.00     0.134 A 
ATOM     84  C   UNL A   1      38.163  31.887  36.911  1.00  0.00     0.134 A 
ATOM     85  F   UNL A   1      40.348  34.252  35.237  1.00  0.00    -0.206 F 
ATOM     86  C   UNL A   1      39.302  34.383  37.336  1.00  0.00     0.040 A 
ATOM     87  C   UNL A   1      37.905  32.575  38.097  1.00  0.00     0.040 A 
ATOM     88  F   UNL A   1      37.610  30.676  36.751  1.00  0.00    -0.206 F 
ATOM     89  C   UNL A   1      38.483  33.824  38.315  1.00  0.00     0.006 A 
ENDBRANCH  61  82
BRANCH  73  90
ATOM     90  C   UNL A   1      36.330  32.504  29.484  1.00  0.00     0.057 A 
ATOM     91  C   UNL A   1      36.466  33.849  29.120  1.00  0.00     0.134 A 
ATOM     92  C   UNL A   1      35.106  31.880  29.212  1.00  0.00     0.134 A 
ATOM     93  F   UNL A   1      37.610  34.508  29.364  1.00  0.00    -0.206 F 
ATOM     94  C   UNL A   1      35.415  34.555  28.531  1.00  0.00     0.040 A 
ATOM     95  C   UNL A   1      34.056  32.567  28.599  1.00  0.00     0.040 A 
ATOM     96  F   UNL A   1      34.914  30.589  29.524  1.00  0.00    -0.206 F 
ATOM     97  C   UNL A   1      34.208  33.911  28.263  1.00  0.00     0.006 A 
ENDBRANCH  73  90
ENDBRANCH  47  48
ENDBRANCH  40  42
ENDBRANCH  39  40
ENDBRANCH  38  39
ENDBRANCH  37  38
ENDBRANCH  36  37
ENDBRANCH  35  36
ENDBRANCH  34  35
ENDBRANCH  33  34
ENDBRANCH  32  33
ENDBRANCH   1  32
TORSDOF 27
ENDMDL
