MODEL 1
REMARK VINA RESULT:     -10.9      0.000      0.000
REMARK SMILES Cc1cc(C(=O)Nc2ccn(C)n2)sc1/C=C/C(=O)OCCOCCOCCOC(=O)c1ccc(-c2c3nc(c(-c4c(F)cccc4F)c4ccc([nH]4)c(-c4c(F)cccc4F)c4nc(c(-c5c(F)cccc5F)c5ccc2[nH]5)C=C4)C=C3)cc1
REMARK SMILES IDX 24 1 23 2 22 3 21 4 20 5 18 6 19 7 17 8 16 9 15 10 1 11 2 12
REMARK SMILES IDX 3 13 4 14 14 15 5 16 6 17 7 18 8 20 9 21 13 22 10 23 11 24
REMARK SMILES IDX 12 25 25 26 26 27 27 28 28 29 29 30 30 31 31 32 32 33 33 34
REMARK SMILES IDX 85 35 34 36 84 37 35 38 36 39 37 40 78 41 38 42 83 43 77 44
REMARK SMILES IDX 79 45 39 46 82 47 76 48 75 49 40 51 66 52 49 53 65 54 50 55
REMARK SMILES IDX 53 56 64 57 80 58 51 59 52 60 63 62 81 63 54 64 41 65 42 66
REMARK SMILES IDX 47 67 43 68 44 69 46 70 48 71 45 72 67 73 68 74 73 75 69 76
REMARK SMILES IDX 70 77 72 78 74 79 71 80 55 81 56 82 61 83 57 84 58 85 60 86
REMARK SMILES IDX 62 87 59 88
REMARK H PARENT 7 19 79 50 53 61
REMARK Flexibility Score: inf
ROOT
ATOM      1  C   UNL A   1      42.120  18.899  26.116  1.00  0.00     0.188 C 
ENDROOT
BRANCH   1   2
ATOM      2  O   UNL A   1      41.525  20.020  26.763  1.00  0.00    -0.376 OA
BRANCH   2   3
ATOM      3  C   UNL A   1      40.780  20.962  26.002  1.00  0.00     0.202 C 
BRANCH   3   4
ATOM      4  C   UNL A   1      39.785  21.883  26.722  1.00  0.00     0.261 C 
BRANCH   4   5
ATOM      5  O   UNL A   1      38.656  22.305  25.938  1.00  0.00    -0.460 OA
BRANCH   5   6
ATOM      6  C   UNL A   1      38.278  23.593  26.124  1.00  0.00     0.330 C 
ATOM      7  O   UNL A   1      39.021  24.550  26.289  1.00  0.00    -0.247 OA
BRANCH   6   8
ATOM      8  C   UNL A   1      36.824  23.792  25.972  1.00  0.00     0.095 C 
ATOM      9  C   UNL A   1      35.898  22.840  25.766  1.00  0.00     0.027 C 
BRANCH   9  10
ATOM     10  C   UNL A   1      34.500  23.127  25.582  1.00  0.00     0.031 A 
ATOM     11  C   UNL A   1      34.292  23.111  23.009  1.00  0.00     0.046 C 
ATOM     12  C   UNL A   1      33.783  23.321  24.401  1.00  0.00    -0.032 A 
ATOM     13  C   UNL A   1      32.432  23.751  24.660  1.00  0.00     0.029 A 
ATOM     14  C   UNL A   1      32.119  23.838  26.002  1.00  0.00     0.093 A 
ATOM     15  S   UNL A   1      33.414  23.224  26.920  1.00  0.00    -0.130 S 
BRANCH  14  16
ATOM     16  C   UNL A   1      30.814  24.177  26.575  1.00  0.00     0.266 C 
ATOM     17  O   UNL A   1      30.168  23.343  27.216  1.00  0.00    -0.268 OA
ATOM     18  N   UNL A   1      30.309  25.457  26.523  1.00  0.00    -0.304 N 
ATOM     19  H   UNL A   1      29.694  25.692  27.256  1.00  0.00     0.171 HD
BRANCH  18  20
ATOM     20  C   UNL A   1      30.530  26.452  25.610  1.00  0.00     0.154 A 
ATOM     21  C   UNL A   1      31.508  27.474  25.614  1.00  0.00     0.068 A 
ATOM     22  N   UNL A   1      29.770  26.517  24.516  1.00  0.00    -0.155 NA
ATOM     23  C   UNL A   1      31.209  28.262  24.527  1.00  0.00     0.110 A 
ATOM     24  N   UNL A   1      30.114  27.687  23.951  1.00  0.00    -0.274 N 
ATOM     25  C   UNL A   1      29.283  28.250  22.915  1.00  0.00     0.173 C 
ENDBRANCH  18  20
ENDBRANCH  14  16
ENDBRANCH   9  10
ENDBRANCH   6   8
ENDBRANCH   5   6
ENDBRANCH   4   5
ENDBRANCH   3   4
ENDBRANCH   2   3
ENDBRANCH   1   2
BRANCH   1  26
ATOM     26  C   UNL A   1      43.617  18.919  25.740  1.00  0.00     0.188 C 
BRANCH  26  27
ATOM     27  O   UNL A   1      43.890  19.571  24.516  1.00  0.00    -0.376 OA
BRANCH  27  28
ATOM     28  C   UNL A   1      44.724  20.718  24.556  1.00  0.00     0.202 C 
BRANCH  28  29
ATOM     29  C   UNL A   1      44.576  21.710  25.724  1.00  0.00     0.261 C 
BRANCH  29  30
ATOM     30  O   UNL A   1      43.646  22.786  25.539  1.00  0.00    -0.460 OA
BRANCH  30  31
ATOM     31  C   UNL A   1      44.153  24.018  25.335  1.00  0.00     0.338 C 
ATOM     32  O   UNL A   1      44.932  24.361  24.455  1.00  0.00    -0.246 OA
BRANCH  31  33
ATOM     33  C   UNL A   1      43.489  24.945  26.272  1.00  0.00     0.060 A 
ATOM     34  C   UNL A   1      43.902  26.282  26.312  1.00  0.00     0.016 A 
ATOM     35  C   UNL A   1      42.467  24.493  27.112  1.00  0.00     0.016 A 
ATOM     36  C   UNL A   1      43.304  27.167  27.212  1.00  0.00     0.010 A 
ATOM     37  C   UNL A   1      41.881  25.378  28.021  1.00  0.00     0.010 A 
ATOM     38  C   UNL A   1      42.311  26.714  28.092  1.00  0.00    -0.014 A 
BRANCH  38  39
ATOM     39  C   UNL A   1      41.837  27.591  29.191  1.00  0.00     0.031 A 
ATOM     40  C   UNL A   1      42.544  27.534  30.516  1.00  0.00     0.074 A 
ATOM     41  C   UNL A   1      40.800  28.430  29.017  1.00  0.00     0.049 A 
ATOM     42  N   UNL A   1      42.277  28.166  31.630  1.00  0.00    -0.248 NA
ATOM     43  C   UNL A   1      43.712  26.642  30.594  1.00  0.00     0.031 C 
ATOM     44  C   UNL A   1      40.047  28.600  27.776  1.00  0.00     0.029 A 
ATOM     45  N   UNL A   1      40.192  29.287  29.901  1.00  0.00    -0.354 N 
ATOM     46  C   UNL A   1      43.240  27.749  32.540  1.00  0.00     0.074 A 
ATOM     47  C   UNL A   1      44.079  26.787  31.857  1.00  0.00     0.031 C 
ATOM     48  C   UNL A   1      39.062  29.493  27.984  1.00  0.00     0.029 A 
ATOM     49  C   UNL A   1      39.099  29.934  29.378  1.00  0.00     0.049 A 
ATOM     50  H   UNL A   1      40.510  29.426  30.823  1.00  0.00     0.167 HD
ATOM     51  C   UNL A   1      43.417  28.137  33.826  1.00  0.00     0.037 A 
ATOM     52  C   UNL A   1      38.216  30.764  29.967  1.00  0.00     0.037 A 
ATOM     53  C   UNL A   1      42.577  29.082  34.510  1.00  0.00     0.049 A 
ATOM     54  C   UNL A   1      38.384  31.120  31.422  1.00  0.00     0.074 A 
ATOM     55  C   UNL A   1      42.681  29.547  35.809  1.00  0.00     0.029 A 
ATOM     56  N   UNL A   1      41.466  29.698  33.953  1.00  0.00    -0.354 N 
ATOM     57  N   UNL A   1      39.316  30.744  32.263  1.00  0.00    -0.248 NA
ATOM     58  C   UNL A   1      37.377  32.018  32.006  1.00  0.00     0.031 C 
ATOM     59  C   UNL A   1      41.607  30.410  36.053  1.00  0.00     0.029 A 
ATOM     60  C   UNL A   1      40.864  30.521  34.889  1.00  0.00     0.049 A 
ATOM     61  H   UNL A   1      41.153  29.570  33.028  1.00  0.00     0.167 HD
ATOM     62  C   UNL A   1      39.026  31.381  33.466  1.00  0.00     0.074 A 
ATOM     63  C   UNL A   1      37.836  32.175  33.240  1.00  0.00     0.031 C 
ATOM     64  C   UNL A   1      39.685  31.316  34.648  1.00  0.00     0.037 A 
BRANCH  51  65
ATOM     65  C   UNL A   1      44.554  27.513  34.581  1.00  0.00     0.057 A 
ATOM     66  C   UNL A   1      45.824  28.103  34.621  1.00  0.00     0.134 A 
ATOM     67  C   UNL A   1      44.369  26.323  35.293  1.00  0.00     0.134 A 
ATOM     68  F   UNL A   1      46.070  29.236  33.947  1.00  0.00    -0.206 F 
ATOM     69  C   UNL A   1      46.877  27.516  35.326  1.00  0.00     0.040 A 
ATOM     70  C   UNL A   1      45.408  25.740  36.021  1.00  0.00     0.040 A 
ATOM     71  F   UNL A   1      43.176  25.708  35.297  1.00  0.00    -0.206 F 
ATOM     72  C   UNL A   1      46.669  26.334  36.033  1.00  0.00     0.006 A 
ENDBRANCH  51  65
BRANCH  52  73
ATOM     73  C   UNL A   1      37.074  31.310  29.189  1.00  0.00     0.057 A 
ATOM     74  C   UNL A   1      37.081  32.627  28.717  1.00  0.00     0.134 A 
ATOM     75  C   UNL A   1      35.937  30.536  28.927  1.00  0.00     0.134 A 
ATOM     76  F   UNL A   1      38.134  33.423  28.956  1.00  0.00    -0.206 F 
ATOM     77  C   UNL A   1      35.992  33.163  28.027  1.00  0.00     0.040 A 
ATOM     78  C   UNL A   1      34.851  31.050  28.217  1.00  0.00     0.040 A 
ATOM     79  F   UNL A   1      35.868  29.267  29.354  1.00  0.00    -0.206 F 
ATOM     80  C   UNL A   1      34.874  32.370  27.771  1.00  0.00     0.006 A 
ENDBRANCH  52  73
BRANCH  64  81
ATOM     81  C   UNL A   1      39.165  32.154  35.779  1.00  0.00     0.057 A 
ATOM     82  C   UNL A   1      38.275  31.646  36.733  1.00  0.00     0.134 A 
ATOM     83  C   UNL A   1      39.598  33.478  35.941  1.00  0.00     0.134 A 
ATOM     84  F   UNL A   1      37.812  30.391  36.629  1.00  0.00    -0.206 F 
ATOM     85  C   UNL A   1      37.819  32.428  37.796  1.00  0.00     0.040 A 
ATOM     86  C   UNL A   1      39.171  34.260  37.014  1.00  0.00     0.040 A 
ATOM     87  F   UNL A   1      40.459  34.024  35.069  1.00  0.00    -0.206 F 
ATOM     88  C   UNL A   1      38.273  33.737  37.942  1.00  0.00     0.006 A 
ENDBRANCH  64  81
ENDBRANCH  38  39
ENDBRANCH  31  33
ENDBRANCH  30  31
ENDBRANCH  29  30
ENDBRANCH  28  29
ENDBRANCH  27  28
ENDBRANCH  26  27
ENDBRANCH   1  26
TORSDOF 20
ENDMDL
MODEL 2
REMARK VINA RESULT:     -10.6      5.011     10.616
REMARK SMILES Cc1cc(C(=O)Nc2ccn(C)n2)sc1/C=C/C(=O)OCCOCCOCCOC(=O)c1ccc(-c2c3nc(c(-c4c(F)cccc4F)c4ccc([nH]4)c(-c4c(F)cccc4F)c4nc(c(-c5c(F)cccc5F)c5ccc2[nH]5)C=C4)C=C3)cc1
REMARK SMILES IDX 24 1 23 2 22 3 21 4 20 5 18 6 19 7 17 8 16 9 15 10 1 11 2 12
REMARK SMILES IDX 3 13 4 14 14 15 5 16 6 17 7 18 8 20 9 21 13 22 10 23 11 24
REMARK SMILES IDX 12 25 25 26 26 27 27 28 28 29 29 30 30 31 31 32 32 33 33 34
REMARK SMILES IDX 85 35 34 36 84 37 35 38 36 39 37 40 78 41 38 42 83 43 77 44
REMARK SMILES IDX 79 45 39 46 82 47 76 48 75 49 40 51 66 52 49 53 65 54 50 55
REMARK SMILES IDX 53 56 64 57 80 58 51 59 52 60 63 62 81 63 54 64 41 65 42 66
REMARK SMILES IDX 47 67 43 68 44 69 46 70 48 71 45 72 67 73 68 74 73 75 69 76
REMARK SMILES IDX 70 77 72 78 74 79 71 80 55 81 56 82 61 83 57 84 58 85 60 86
REMARK SMILES IDX 62 87 59 88
REMARK H PARENT 7 19 79 50 53 61
REMARK Flexibility Score: inf
ROOT
ATOM      1  C   UNL A   1      33.391  36.117  30.277  1.00  0.00     0.188 C 
ENDROOT
BRANCH   1   2
ATOM      2  O   UNL A   1      33.450  35.186  29.201  1.00  0.00    -0.376 OA
BRANCH   2   3
ATOM      3  C   UNL A   1      34.541  35.226  28.290  1.00  0.00     0.202 C 
BRANCH   3   4
ATOM      4  C   UNL A   1      35.631  34.149  28.383  1.00  0.00     0.261 C 
BRANCH   4   5
ATOM      5  O   UNL A   1      35.391  32.959  27.612  1.00  0.00    -0.460 OA
BRANCH   5   6
ATOM      6  C   UNL A   1      34.678  31.999  28.249  1.00  0.00     0.330 C 
ATOM      7  O   UNL A   1      34.391  31.976  29.437  1.00  0.00    -0.247 OA
BRANCH   6   8
ATOM      8  C   UNL A   1      34.127  30.986  27.326  1.00  0.00     0.095 C 
ATOM      9  C   UNL A   1      32.859  30.544  27.282  1.00  0.00     0.027 C 
BRANCH   9  10
ATOM     10  C   UNL A   1      32.416  29.515  26.377  1.00  0.00     0.031 A 
ATOM     11  C   UNL A   1      31.403  27.783  28.001  1.00  0.00     0.046 C 
ATOM     12  C   UNL A   1      31.843  28.275  26.658  1.00  0.00    -0.032 A 
ATOM     13  C   UNL A   1      31.695  27.472  25.469  1.00  0.00     0.029 A 
ATOM     14  C   UNL A   1      32.102  28.106  24.312  1.00  0.00     0.093 A 
ATOM     15  S   UNL A   1      32.490  29.725  24.666  1.00  0.00    -0.130 S 
BRANCH  14  16
ATOM     16  C   UNL A   1      32.010  27.579  22.948  1.00  0.00     0.266 C 
ATOM     17  O   UNL A   1      32.970  27.006  22.424  1.00  0.00    -0.268 OA
ATOM     18  N   UNL A   1      30.828  27.595  22.242  1.00  0.00    -0.304 N 
ATOM     19  H   UNL A   1      30.734  26.881  21.569  1.00  0.00     0.171 HD
BRANCH  18  20
ATOM     20  C   UNL A   1      29.763  28.451  22.331  1.00  0.00     0.154 A 
ATOM     21  C   UNL A   1      28.599  28.357  23.130  1.00  0.00     0.068 A 
ATOM     22  N   UNL A   1      29.763  29.572  21.608  1.00  0.00    -0.155 NA
ATOM     23  C   UNL A   1      27.814  29.419  22.745  1.00  0.00     0.110 A 
ATOM     24  N   UNL A   1      28.525  30.067  21.779  1.00  0.00    -0.274 N 
ATOM     25  C   UNL A   1      28.048  31.111  20.904  1.00  0.00     0.173 C 
ENDBRANCH  18  20
ENDBRANCH  14  16
ENDBRANCH   9  10
ENDBRANCH   6   8
ENDBRANCH   5   6
ENDBRANCH   4   5
ENDBRANCH   3   4
ENDBRANCH   2   3
ENDBRANCH   1   2
BRANCH   1  26
ATOM     26  C   UNL A   1      32.267  36.021  31.331  1.00  0.00     0.188 C 
BRANCH  26  27
ATOM     27  O   UNL A   1      32.639  35.321  32.501  1.00  0.00    -0.376 OA
BRANCH  27  28
ATOM     28  C   UNL A   1      33.960  34.807  32.565  1.00  0.00     0.202 C 
BRANCH  28  29
ATOM     29  C   UNL A   1      34.166  33.294  32.758  1.00  0.00     0.261 C 
BRANCH  29  30
ATOM     30  O   UNL A   1      35.356  32.729  32.190  1.00  0.00    -0.460 OA
BRANCH  30  31
ATOM     31  C   UNL A   1      36.318  32.322  33.042  1.00  0.00     0.338 C 
ATOM     32  O   UNL A   1      36.309  32.406  34.263  1.00  0.00    -0.246 OA
BRANCH  31  33
ATOM     33  C   UNL A   1      37.344  31.605  32.261  1.00  0.00     0.060 A 
ATOM     34  C   UNL A   1      38.329  30.876  32.939  1.00  0.00     0.016 A 
ATOM     35  C   UNL A   1      37.337  31.658  30.864  1.00  0.00     0.016 A 
ATOM     36  C   UNL A   1      39.325  30.215  32.217  1.00  0.00     0.010 A 
ATOM     37  C   UNL A   1      38.343  31.005  30.145  1.00  0.00     0.010 A 
ATOM     38  C   UNL A   1      39.355  30.299  30.818  1.00  0.00    -0.014 A 
BRANCH  38  39
ATOM     39  C   UNL A   1      40.529  29.787  30.068  1.00  0.00     0.031 A 
ATOM     40  C   UNL A   1      41.665  30.727  29.777  1.00  0.00     0.074 A 
ATOM     41  C   UNL A   1      40.591  28.508  29.658  1.00  0.00     0.049 A 
ATOM     42  N   UNL A   1      42.764  30.519  29.098  1.00  0.00    -0.248 NA
ATOM     43  C   UNL A   1      41.544  32.087  30.327  1.00  0.00     0.031 C 
ATOM     44  C   UNL A   1      39.570  27.490  29.898  1.00  0.00     0.029 A 
ATOM     45  N   UNL A   1      41.556  27.853  28.933  1.00  0.00    -0.354 N 
ATOM     46  C   UNL A   1      43.464  31.719  29.139  1.00  0.00     0.074 A 
ATOM     47  C   UNL A   1      42.652  32.658  29.882  1.00  0.00     0.031 C 
ATOM     48  C   UNL A   1      39.955  26.342  29.312  1.00  0.00     0.029 A 
ATOM     49  C   UNL A   1      41.232  26.553  28.632  1.00  0.00     0.049 A 
ATOM     50  H   UNL A   1      42.401  28.276  28.654  1.00  0.00     0.167 HD
ATOM     51  C   UNL A   1      44.677  32.011  28.612  1.00  0.00     0.037 A 
ATOM     52  C   UNL A   1      41.881  25.648  27.873  1.00  0.00     0.037 A 
ATOM     53  C   UNL A   1      45.479  31.083  27.862  1.00  0.00     0.049 A 
ATOM     54  C   UNL A   1      43.192  26.019  27.229  1.00  0.00     0.074 A 
ATOM     55  C   UNL A   1      46.727  31.281  27.296  1.00  0.00     0.029 A 
ATOM     56  N   UNL A   1      45.107  29.782  27.560  1.00  0.00    -0.354 N 
ATOM     57  N   UNL A   1      43.859  27.146  27.300  1.00  0.00    -0.248 NA
ATOM     58  C   UNL A   1      43.840  24.991  26.402  1.00  0.00     0.031 C 
ATOM     59  C   UNL A   1      47.089  30.115  26.614  1.00  0.00     0.029 A 
ATOM     60  C   UNL A   1      46.090  29.173  26.798  1.00  0.00     0.049 A 
ATOM     61  H   UNL A   1      44.267  29.353  27.847  1.00  0.00     0.167 HD
ATOM     62  C   UNL A   1      45.016  26.953  26.552  1.00  0.00     0.074 A 
ATOM     63  C   UNL A   1      44.964  25.597  26.046  1.00  0.00     0.031 C 
ATOM     64  C   UNL A   1      46.030  27.819  26.309  1.00  0.00     0.037 A 
BRANCH  51  65
ATOM     65  C   UNL A   1      45.194  33.405  28.811  1.00  0.00     0.057 A 
ATOM     66  C   UNL A   1      46.005  33.741  29.903  1.00  0.00     0.134 A 
ATOM     67  C   UNL A   1      44.898  34.415  27.890  1.00  0.00     0.134 A 
ATOM     68  F   UNL A   1      46.313  32.823  30.831  1.00  0.00    -0.206 F 
ATOM     69  C   UNL A   1      46.482  35.041  30.083  1.00  0.00     0.040 A 
ATOM     70  C   UNL A   1      45.389  35.712  28.045  1.00  0.00     0.040 A 
ATOM     71  F   UNL A   1      44.129  34.158  26.820  1.00  0.00    -0.206 F 
ATOM     72  C   UNL A   1      46.180  36.029  29.149  1.00  0.00     0.006 A 
ENDBRANCH  51  65
BRANCH  52  73
ATOM     73  C   UNL A   1      41.298  24.299  27.661  1.00  0.00     0.057 A 
ATOM     74  C   UNL A   1      41.794  23.178  28.336  1.00  0.00     0.134 A 
ATOM     75  C   UNL A   1      40.250  24.094  26.754  1.00  0.00     0.134 A 
ATOM     76  F   UNL A   1      42.812  23.308  29.200  1.00  0.00    -0.206 F 
ATOM     77  C   UNL A   1      41.284  21.900  28.105  1.00  0.00     0.040 A 
ATOM     78  C   UNL A   1      39.713  22.826  26.533  1.00  0.00     0.040 A 
ATOM     79  F   UNL A   1      39.732  25.127  26.075  1.00  0.00    -0.206 F 
ATOM     80  C   UNL A   1      40.235  21.722  27.203  1.00  0.00     0.006 A 
ENDBRANCH  52  73
BRANCH  64  81
ATOM     81  C   UNL A   1      47.188  27.319  25.494  1.00  0.00     0.057 A 
ATOM     82  C   UNL A   1      48.226  26.569  26.061  1.00  0.00     0.134 A 
ATOM     83  C   UNL A   1      47.240  27.553  24.113  1.00  0.00     0.134 A 
ATOM     84  F   UNL A   1      48.244  26.318  27.378  1.00  0.00    -0.206 F 
ATOM     85  C   UNL A   1      49.284  26.086  25.287  1.00  0.00     0.040 A 
ATOM     86  C   UNL A   1      48.277  27.054  23.326  1.00  0.00     0.040 A 
ATOM     87  F   UNL A   1      46.272  28.256  23.506  1.00  0.00    -0.206 F 
ATOM     88  C   UNL A   1      49.307  26.323  23.913  1.00  0.00     0.006 A 
ENDBRANCH  64  81
ENDBRANCH  38  39
ENDBRANCH  31  33
ENDBRANCH  30  31
ENDBRANCH  29  30
ENDBRANCH  28  29
ENDBRANCH  27  28
ENDBRANCH  26  27
ENDBRANCH   1  26
TORSDOF 20
ENDMDL
MODEL 3
REMARK VINA RESULT:     -10.2      4.391      9.436
REMARK SMILES Cc1cc(C(=O)Nc2ccn(C)n2)sc1/C=C/C(=O)OCCOCCOCCOC(=O)c1ccc(-c2c3nc(c(-c4c(F)cccc4F)c4ccc([nH]4)c(-c4c(F)cccc4F)c4nc(c(-c5c(F)cccc5F)c5ccc2[nH]5)C=C4)C=C3)cc1
REMARK SMILES IDX 24 1 23 2 22 3 21 4 20 5 18 6 19 7 17 8 16 9 15 10 1 11 2 12
REMARK SMILES IDX 3 13 4 14 14 15 5 16 6 17 7 18 8 20 9 21 13 22 10 23 11 24
REMARK SMILES IDX 12 25 25 26 26 27 27 28 28 29 29 30 30 31 31 32 32 33 33 34
REMARK SMILES IDX 85 35 34 36 84 37 35 38 36 39 37 40 78 41 38 42 83 43 77 44
REMARK SMILES IDX 79 45 39 46 82 47 76 48 75 49 40 51 66 52 49 53 65 54 50 55
REMARK SMILES IDX 53 56 64 57 80 58 51 59 52 60 63 62 81 63 54 64 41 65 42 66
REMARK SMILES IDX 47 67 43 68 44 69 46 70 48 71 45 72 67 73 68 74 73 75 69 76
REMARK SMILES IDX 70 77 72 78 74 79 71 80 55 81 56 82 61 83 57 84 58 85 60 86
REMARK SMILES IDX 62 87 59 88
REMARK H PARENT 7 19 79 50 53 61
REMARK Flexibility Score: inf
ROOT
ATOM      1  C   UNL A   1      35.264  33.673  28.356  1.00  0.00     0.188 C 
ENDROOT
BRANCH   1   2
ATOM      2  O   UNL A   1      35.640  32.514  27.619  1.00  0.00    -0.376 OA
BRANCH   2   3
ATOM      3  C   UNL A   1      35.331  31.222  28.125  1.00  0.00     0.202 C 
BRANCH   3   4
ATOM      4  C   UNL A   1      34.493  30.264  27.266  1.00  0.00     0.261 C 
BRANCH   4   5
ATOM      5  O   UNL A   1      33.125  30.099  27.680  1.00  0.00    -0.460 OA
BRANCH   5   6
ATOM      6  C   UNL A   1      32.201  30.477  26.765  1.00  0.00     0.330 C 
ATOM      7  O   UNL A   1      31.638  31.561  26.708  1.00  0.00    -0.247 OA
BRANCH   6   8
ATOM      8  C   UNL A   1      32.004  29.475  25.700  1.00  0.00     0.095 C 
ATOM      9  C   UNL A   1      32.496  29.522  24.450  1.00  0.00     0.027 C 
BRANCH   9  10
ATOM     10  C   UNL A   1      32.215  28.520  23.455  1.00  0.00     0.031 A 
ATOM     11  C   UNL A   1      29.834  29.176  22.702  1.00  0.00     0.046 C 
ATOM     12  C   UNL A   1      31.046  28.298  22.726  1.00  0.00    -0.032 A 
ATOM     13  C   UNL A   1      31.123  27.086  21.949  1.00  0.00     0.029 A 
ATOM     14  C   UNL A   1      32.335  26.432  22.049  1.00  0.00     0.093 A 
ATOM     15  S   UNL A   1      33.418  27.394  22.944  1.00  0.00    -0.130 S 
BRANCH  14  16
ATOM     16  C   UNL A   1      32.737  25.222  21.328  1.00  0.00     0.266 C 
ATOM     17  O   UNL A   1      32.992  25.260  20.120  1.00  0.00    -0.268 OA
ATOM     18  N   UNL A   1      32.958  24.029  21.978  1.00  0.00    -0.304 N 
ATOM     19  H   UNL A   1      33.604  23.429  21.540  1.00  0.00     0.171 HD
BRANCH  18  20
ATOM     20  C   UNL A   1      32.415  23.549  23.139  1.00  0.00     0.154 A 
ATOM     21  C   UNL A   1      31.056  23.427  23.513  1.00  0.00     0.068 A 
ATOM     22  N   UNL A   1      33.222  23.087  24.096  1.00  0.00    -0.155 NA
ATOM     23  C   UNL A   1      31.081  22.996  24.819  1.00  0.00     0.110 A 
ATOM     24  N   UNL A   1      32.401  22.884  25.141  1.00  0.00    -0.274 N 
ATOM     25  C   UNL A   1      32.959  22.679  26.457  1.00  0.00     0.173 C 
ENDBRANCH  18  20
ENDBRANCH  14  16
ENDBRANCH   9  10
ENDBRANCH   6   8
ENDBRANCH   5   6
ENDBRANCH   4   5
ENDBRANCH   3   4
ENDBRANCH   2   3
ENDBRANCH   1   2
BRANCH   1  26
ATOM     26  C   UNL A   1      34.033  33.640  29.287  1.00  0.00     0.188 C 
BRANCH  26  27
ATOM     27  O   UNL A   1      33.028  34.571  28.938  1.00  0.00    -0.376 OA
BRANCH  27  28
ATOM     28  C   UNL A   1      33.352  35.950  29.034  1.00  0.00     0.202 C 
BRANCH  28  29
ATOM     29  C   UNL A   1      32.668  36.806  30.114  1.00  0.00     0.261 C 
BRANCH  29  30
ATOM     30  O   UNL A   1      33.212  36.725  31.439  1.00  0.00    -0.460 OA
BRANCH  30  31
ATOM     31  C   UNL A   1      32.802  35.704  32.217  1.00  0.00     0.338 C 
ATOM     32  O   UNL A   1      31.650  35.338  32.414  1.00  0.00    -0.246 OA
BRANCH  31  33
ATOM     33  C   UNL A   1      34.000  34.983  32.690  1.00  0.00     0.060 A 
ATOM     34  C   UNL A   1      35.259  35.571  32.520  1.00  0.00     0.016 A 
ATOM     35  C   UNL A   1      33.880  33.729  33.295  1.00  0.00     0.016 A 
ATOM     36  C   UNL A   1      36.406  34.892  32.936  1.00  0.00     0.010 A 
ATOM     37  C   UNL A   1      35.030  33.045  33.699  1.00  0.00     0.010 A 
ATOM     38  C   UNL A   1      36.301  33.613  33.501  1.00  0.00    -0.014 A 
BRANCH  38  39
ATOM     39  C   UNL A   1      37.522  32.803  33.737  1.00  0.00     0.031 A 
ATOM     40  C   UNL A   1      38.332  33.062  34.976  1.00  0.00     0.074 A 
ATOM     41  C   UNL A   1      37.904  31.847  32.871  1.00  0.00     0.049 A 
ATOM     42  N   UNL A   1      39.457  32.518  35.365  1.00  0.00    -0.248 NA
ATOM     43  C   UNL A   1      37.800  34.074  35.903  1.00  0.00     0.031 C 
ATOM     44  C   UNL A   1      37.194  31.480  31.647  1.00  0.00     0.029 A 
ATOM     45  N   UNL A   1      39.001  31.023  32.885  1.00  0.00    -0.354 N 
ATOM     46  C   UNL A   1      39.766  33.120  36.578  1.00  0.00     0.074 A 
ATOM     47  C   UNL A   1      38.728  34.092  36.846  1.00  0.00     0.031 C 
ATOM     48  C   UNL A   1      37.886  30.514  31.017  1.00  0.00     0.029 A 
ATOM     49  C   UNL A   1      39.101  30.218  31.776  1.00  0.00     0.049 A 
ATOM     50  H   UNL A   1      39.657  31.009  33.620  1.00  0.00     0.167 HD
ATOM     51  C   UNL A   1      40.816  32.881  37.400  1.00  0.00     0.037 A 
ATOM     52  C   UNL A   1      40.074  29.363  31.407  1.00  0.00     0.037 A 
ATOM     53  C   UNL A   1      41.856  31.925  37.129  1.00  0.00     0.049 A 
ATOM     54  C   UNL A   1      41.274  29.170  32.297  1.00  0.00     0.074 A 
ATOM     55  C   UNL A   1      42.955  31.602  37.905  1.00  0.00     0.029 A 
ATOM     56  N   UNL A   1      41.932  31.145  35.985  1.00  0.00    -0.354 N 
ATOM     57  N   UNL A   1      41.541  29.721  33.457  1.00  0.00    -0.248 NA
ATOM     58  C   UNL A   1      42.306  28.234  31.828  1.00  0.00     0.031 C 
ATOM     59  C   UNL A   1      43.721  30.661  37.209  1.00  0.00     0.029 A 
ATOM     60  C   UNL A   1      43.071  30.359  36.024  1.00  0.00     0.049 A 
ATOM     61  H   UNL A   1      41.273  31.149  35.253  1.00  0.00     0.167 HD
ATOM     62  C   UNL A   1      42.754  29.178  33.868  1.00  0.00     0.074 A 
ATOM     63  C   UNL A   1      43.165  28.246  32.838  1.00  0.00     0.031 C 
ATOM     64  C   UNL A   1      43.463  29.427  34.996  1.00  0.00     0.037 A 
BRANCH  51  65
ATOM     65  C   UNL A   1      40.900  33.690  38.660  1.00  0.00     0.057 A 
ATOM     66  C   UNL A   1      41.710  34.829  38.753  1.00  0.00     0.134 A 
ATOM     67  C   UNL A   1      40.145  33.338  39.785  1.00  0.00     0.134 A 
ATOM     68  F   UNL A   1      42.469  35.211  37.716  1.00  0.00    -0.206 F 
ATOM     69  C   UNL A   1      41.783  35.577  39.930  1.00  0.00     0.040 A 
ATOM     70  C   UNL A   1      40.191  34.092  40.960  1.00  0.00     0.040 A 
ATOM     71  F   UNL A   1      39.348  32.259  39.761  1.00  0.00    -0.206 F 
ATOM     72  C   UNL A   1      41.017  35.212  41.035  1.00  0.00     0.006 A 
ENDBRANCH  51  65
BRANCH  52  73
ATOM     73  C   UNL A   1      39.970  28.627  30.120  1.00  0.00     0.057 A 
ATOM     74  C   UNL A   1      39.283  27.412  30.032  1.00  0.00     0.134 A 
ATOM     75  C   UNL A   1      40.582  29.109  28.956  1.00  0.00     0.134 A 
ATOM     76  F   UNL A   1      38.696  26.889  31.119  1.00  0.00    -0.206 F 
ATOM     77  C   UNL A   1      39.222  26.690  28.838  1.00  0.00     0.040 A 
ATOM     78  C   UNL A   1      40.508  28.412  27.750  1.00  0.00     0.040 A 
ATOM     79  F   UNL A   1      41.256  30.267  28.975  1.00  0.00    -0.206 F 
ATOM     80  C   UNL A   1      39.833  27.194  27.690  1.00  0.00     0.006 A 
ENDBRANCH  52  73
BRANCH  64  81
ATOM     81  C   UNL A   1      44.733  28.653  35.202  1.00  0.00     0.057 A 
ATOM     82  C   UNL A   1      45.975  29.137  34.773  1.00  0.00     0.134 A 
ATOM     83  C   UNL A   1      44.717  27.427  35.881  1.00  0.00     0.134 A 
ATOM     84  F   UNL A   1      46.059  30.298  34.107  1.00  0.00    -0.206 F 
ATOM     85  C   UNL A   1      47.153  28.421  34.994  1.00  0.00     0.040 A 
ATOM     86  C   UNL A   1      45.890  26.715  36.131  1.00  0.00     0.040 A 
ATOM     87  F   UNL A   1      43.562  26.912  36.327  1.00  0.00    -0.206 F 
ATOM     88  C   UNL A   1      47.113  27.209  35.682  1.00  0.00     0.006 A 
ENDBRANCH  64  81
ENDBRANCH  38  39
ENDBRANCH  31  33
ENDBRANCH  30  31
ENDBRANCH  29  30
ENDBRANCH  28  29
ENDBRANCH  27  28
ENDBRANCH  26  27
ENDBRANCH   1  26
TORSDOF 20
ENDMDL
