MODEL 1
REMARK VINA RESULT:     -11.1      0.000      0.000
REMARK SMILES C[C@H]1CCc2sc3ncn4nc(/C=C\C(=O)OCCOCCOCCOC(=O)c5ccc(-c6c7nc(c(-c8c(F)cccc8F)c8ccc([nH]8)c(-c8c(F)cccc8F)c8nc(c(-c9c(F)cccc9F)c9ccc6[nH]9)C=C8)C=C7)cc5)nc4c3c2C1
REMARK SMILES IDX 22 1 21 2 20 3 19 4 18 5 17 6 15 7 16 8 14 9 13 10 12 11
REMARK SMILES IDX 1 12 2 13 3 14 87 15 4 16 86 17 5 18 85 19 6 20 7 21 84 22
REMARK SMILES IDX 8 23 10 24 83 25 9 26 11 27 23 28 24 29 25 30 26 31 27 32
REMARK SMILES IDX 28 33 29 34 30 35 82 36 31 37 81 38 32 39 33 40 34 41 75 42
REMARK SMILES IDX 35 43 80 44 74 45 76 46 36 47 79 48 73 49 72 50 37 52 63 53
REMARK SMILES IDX 46 54 62 55 47 56 50 57 61 58 77 59 48 60 49 61 60 63 78 64
REMARK SMILES IDX 51 65 38 66 39 67 44 68 40 69 41 70 43 71 45 72 42 73 64 74
REMARK SMILES IDX 65 75 70 76 66 77 67 78 69 79 71 80 68 81 52 82 53 83 58 84
REMARK SMILES IDX 54 85 55 86 57 87 59 88 56 89
REMARK H PARENT 76 51 50 62
REMARK Flexibility Score: inf
ROOT
ATOM      1  C   UNL A   1      33.742  31.585  27.733  1.00  0.00     0.188 C 
ENDROOT
BRANCH   1   2
ATOM      2  C   UNL A   1      34.448  30.245  27.404  1.00  0.00     0.188 C 
BRANCH   2   3
ATOM      3  O   UNL A   1      33.886  29.330  26.484  1.00  0.00    -0.376 OA
BRANCH   3   4
ATOM      4  C   UNL A   1      32.948  28.370  26.951  1.00  0.00     0.202 C 
BRANCH   4   5
ATOM      5  C   UNL A   1      31.600  28.149  26.247  1.00  0.00     0.261 C 
BRANCH   5   6
ATOM      6  O   UNL A   1      31.710  27.830  24.861  1.00  0.00    -0.460 OA
BRANCH   6   7
ATOM      7  C   UNL A   1      31.236  26.630  24.473  1.00  0.00     0.330 C 
ATOM      8  O   UNL A   1      31.358  26.126  23.365  1.00  0.00    -0.247 OA
BRANCH   7   9
ATOM      9  C   UNL A   1      30.725  25.847  25.613  1.00  0.00     0.097 C 
ATOM     10  C   UNL A   1      31.250  24.774  26.221  1.00  0.00     0.058 C 
BRANCH  10  11
ATOM     11  C   UNL A   1      32.462  24.062  25.985  1.00  0.00     0.175 A 
ATOM     12  C   UNL A   1      32.341  18.157  22.611  1.00  0.00     0.008 C 
ATOM     13  C   UNL A   1      32.438  18.091  24.137  1.00  0.00    -0.009 C 
ATOM     14  C   UNL A   1      33.553  17.139  24.623  1.00  0.00     0.009 C 
ATOM     15  C   UNL A   1      32.600  19.508  24.719  1.00  0.00     0.041 C 
ATOM     16  C   UNL A   1      34.973  17.646  24.320  1.00  0.00     0.047 C 
ATOM     17  C   UNL A   1      34.018  19.948  24.848  1.00  0.00    -0.020 A 
ATOM     18  C   UNL A   1      35.090  19.094  24.681  1.00  0.00     0.011 A 
ATOM     19  C   UNL A   1      34.474  21.238  25.190  1.00  0.00     0.060 A 
ATOM     20  S   UNL A   1      36.597  19.869  24.904  1.00  0.00    -0.120 S 
ATOM     21  C   UNL A   1      35.851  21.367  25.267  1.00  0.00     0.129 A 
ATOM     22  C   UNL A   1      33.738  22.472  25.504  1.00  0.00     0.168 A 
ATOM     23  N   UNL A   1      36.572  22.496  25.586  1.00  0.00    -0.225 NA
ATOM     24  N   UNL A   1      34.472  23.557  25.862  1.00  0.00    -0.201 N 
ATOM     25  N   UNL A   1      32.464  22.770  25.511  1.00  0.00    -0.207 NA
ATOM     26  C   UNL A   1      35.867  23.562  25.883  1.00  0.00     0.227 A 
ATOM     27  N   UNL A   1      33.683  24.595  26.185  1.00  0.00    -0.145 NA
ENDBRANCH  10  11
ENDBRANCH   7   9
ENDBRANCH   6   7
ENDBRANCH   5   6
ENDBRANCH   4   5
ENDBRANCH   3   4
ENDBRANCH   2   3
ENDBRANCH   1   2
BRANCH   1  28
ATOM     28  O   UNL A   1      34.179  32.437  28.771  1.00  0.00    -0.376 OA
BRANCH  28  29
ATOM     29  C   UNL A   1      35.532  32.698  29.097  1.00  0.00     0.202 C 
BRANCH  29  30
ATOM     30  C   UNL A   1      36.336  31.994  30.177  1.00  0.00     0.261 C 
BRANCH  30  31
ATOM     31  O   UNL A   1      37.283  31.089  29.658  1.00  0.00    -0.460 OA
BRANCH  31  32
ATOM     32  C   UNL A   1      37.020  29.816  30.009  1.00  0.00     0.338 C 
ATOM     33  O   UNL A   1      36.227  29.420  30.845  1.00  0.00    -0.246 OA
BRANCH  32  34
ATOM     34  C   UNL A   1      37.917  28.928  29.282  1.00  0.00     0.060 A 
ATOM     35  C   UNL A   1      38.479  27.901  30.041  1.00  0.00     0.016 A 
ATOM     36  C   UNL A   1      38.464  29.382  28.076  1.00  0.00     0.016 A 
ATOM     37  C   UNL A   1      39.764  27.537  29.743  1.00  0.00     0.010 A 
ATOM     38  C   UNL A   1      39.753  29.027  27.789  1.00  0.00     0.010 A 
ATOM     39  C   UNL A   1      40.410  28.201  28.694  1.00  0.00    -0.014 A 
BRANCH  39  40
ATOM     40  C   UNL A   1      41.822  27.968  28.550  1.00  0.00     0.031 A 
ATOM     41  C   UNL A   1      42.111  26.710  27.846  1.00  0.00     0.074 A 
ATOM     42  C   UNL A   1      42.740  28.842  28.995  1.00  0.00     0.049 A 
ATOM     43  N   UNL A   1      42.592  25.626  28.352  1.00  0.00    -0.248 NA
ATOM     44  C   UNL A   1      41.615  26.576  26.470  1.00  0.00     0.031 C 
ATOM     45  C   UNL A   1      42.556  30.214  29.472  1.00  0.00     0.029 A 
ATOM     46  N   UNL A   1      44.086  28.682  29.030  1.00  0.00    -0.354 N 
ATOM     47  C   UNL A   1      42.654  24.729  27.295  1.00  0.00     0.074 A 
ATOM     48  C   UNL A   1      41.862  25.290  26.234  1.00  0.00     0.031 C 
ATOM     49  C   UNL A   1      43.761  30.828  29.527  1.00  0.00     0.029 A 
ATOM     50  C   UNL A   1      44.798  29.855  29.225  1.00  0.00     0.049 A 
ATOM     51  H   UNL A   1      44.521  27.805  28.927  1.00  0.00     0.167 HD
ATOM     52  C   UNL A   1      43.575  23.730  27.294  1.00  0.00     0.037 A 
ATOM     53  C   UNL A   1      46.136  29.994  29.052  1.00  0.00     0.037 A 
ATOM     54  C   UNL A   1      44.065  23.474  28.627  1.00  0.00     0.049 A 
ATOM     55  C   UNL A   1      46.733  28.632  29.119  1.00  0.00     0.074 A 
ATOM     56  C   UNL A   1      43.474  23.086  29.813  1.00  0.00     0.029 A 
ATOM     57  N   UNL A   1      45.292  23.990  28.970  1.00  0.00    -0.354 N 
ATOM     58  N   UNL A   1      46.784  27.917  30.209  1.00  0.00    -0.248 NA
ATOM     59  C   UNL A   1      46.839  27.878  27.876  1.00  0.00     0.031 C 
ATOM     60  C   UNL A   1      44.162  23.813  30.828  1.00  0.00     0.029 A 
ATOM     61  C   UNL A   1      45.169  24.558  30.212  1.00  0.00     0.049 A 
ATOM     62  H   UNL A   1      46.110  23.957  28.425  1.00  0.00     0.167 HD
ATOM     63  C   UNL A   1      46.500  26.620  29.800  1.00  0.00     0.074 A 
ATOM     64  C   UNL A   1      46.623  26.644  28.344  1.00  0.00     0.031 C 
ATOM     65  C   UNL A   1      45.905  25.726  30.642  1.00  0.00     0.037 A 
BRANCH  52  66
ATOM     66  C   UNL A   1      44.307  23.286  26.055  1.00  0.00     0.057 A 
ATOM     67  C   UNL A   1      44.283  21.924  25.708  1.00  0.00     0.134 A 
ATOM     68  C   UNL A   1      45.259  24.062  25.360  1.00  0.00     0.134 A 
ATOM     69  F   UNL A   1      43.428  21.077  26.301  1.00  0.00    -0.206 F 
ATOM     70  C   UNL A   1      45.196  21.364  24.809  1.00  0.00     0.040 A 
ATOM     71  C   UNL A   1      46.139  23.523  24.420  1.00  0.00     0.040 A 
ATOM     72  F   UNL A   1      45.469  25.358  25.614  1.00  0.00    -0.206 F 
ATOM     73  C   UNL A   1      46.134  22.162  24.168  1.00  0.00     0.006 A 
ENDBRANCH  52  66
BRANCH  53  74
ATOM     74  C   UNL A   1      46.864  31.156  28.494  1.00  0.00     0.057 A 
ATOM     75  C   UNL A   1      46.816  31.450  27.124  1.00  0.00     0.134 A 
ATOM     76  C   UNL A   1      47.398  32.162  29.321  1.00  0.00     0.134 A 
ATOM     77  F   UNL A   1      46.285  30.574  26.259  1.00  0.00    -0.206 F 
ATOM     78  C   UNL A   1      47.251  32.680  26.609  1.00  0.00     0.040 A 
ATOM     79  C   UNL A   1      47.843  33.390  28.818  1.00  0.00     0.040 A 
ATOM     80  F   UNL A   1      47.424  32.027  30.654  1.00  0.00    -0.206 F 
ATOM     81  C   UNL A   1      47.757  33.657  27.458  1.00  0.00     0.006 A 
ENDBRANCH  53  74
BRANCH  65  82
ATOM     82  C   UNL A   1      45.774  26.098  32.095  1.00  0.00     0.057 A 
ATOM     83  C   UNL A   1      44.629  26.688  32.650  1.00  0.00     0.134 A 
ATOM     84  C   UNL A   1      46.760  25.669  32.990  1.00  0.00     0.134 A 
ATOM     85  F   UNL A   1      43.590  27.043  31.884  1.00  0.00    -0.206 F 
ATOM     86  C   UNL A   1      44.487  26.870  34.030  1.00  0.00     0.040 A 
ATOM     87  C   UNL A   1      46.616  25.812  34.372  1.00  0.00     0.040 A 
ATOM     88  F   UNL A   1      47.859  25.044  32.536  1.00  0.00    -0.206 F 
ATOM     89  C   UNL A   1      45.478  26.419  34.896  1.00  0.00     0.006 A 
ENDBRANCH  65  82
ENDBRANCH  39  40
ENDBRANCH  32  34
ENDBRANCH  31  32
ENDBRANCH  30  31
ENDBRANCH  29  30
ENDBRANCH  28  29
ENDBRANCH   1  28
TORSDOF 18
ENDMDL
MODEL 2
REMARK VINA RESULT:     -11.0      4.368      9.204
REMARK SMILES C[C@H]1CCc2sc3ncn4nc(/C=C\C(=O)OCCOCCOCCOC(=O)c5ccc(-c6c7nc(c(-c8c(F)cccc8F)c8ccc([nH]8)c(-c8c(F)cccc8F)c8nc(c(-c9c(F)cccc9F)c9ccc6[nH]9)C=C8)C=C7)cc5)nc4c3c2C1
REMARK SMILES IDX 22 1 21 2 20 3 19 4 18 5 17 6 15 7 16 8 14 9 13 10 12 11
REMARK SMILES IDX 1 12 2 13 3 14 87 15 4 16 86 17 5 18 85 19 6 20 7 21 84 22
REMARK SMILES IDX 8 23 10 24 83 25 9 26 11 27 23 28 24 29 25 30 26 31 27 32
REMARK SMILES IDX 28 33 29 34 30 35 82 36 31 37 81 38 32 39 33 40 34 41 75 42
REMARK SMILES IDX 35 43 80 44 74 45 76 46 36 47 79 48 73 49 72 50 37 52 63 53
REMARK SMILES IDX 46 54 62 55 47 56 50 57 61 58 77 59 48 60 49 61 60 63 78 64
REMARK SMILES IDX 51 65 38 66 39 67 44 68 40 69 41 70 43 71 45 72 42 73 64 74
REMARK SMILES IDX 65 75 70 76 66 77 67 78 69 79 71 80 68 81 52 82 53 83 58 84
REMARK SMILES IDX 54 85 55 86 57 87 59 88 56 89
REMARK H PARENT 76 51 50 62
REMARK Flexibility Score: inf
ROOT
ATOM      1  C   UNL A   1      46.364  19.685  25.192  1.00  0.00     0.188 C 
ENDROOT
BRANCH   1   2
ATOM      2  C   UNL A   1      45.173  18.694  25.137  1.00  0.00     0.188 C 
BRANCH   2   3
ATOM      3  O   UNL A   1      43.841  19.157  25.040  1.00  0.00    -0.376 OA
BRANCH   3   4
ATOM      4  C   UNL A   1      42.936  18.885  26.101  1.00  0.00     0.202 C 
BRANCH   4   5
ATOM      5  C   UNL A   1      41.647  19.698  26.294  1.00  0.00     0.261 C 
BRANCH   5   6
ATOM      6  O   UNL A   1      41.836  20.942  26.967  1.00  0.00    -0.460 OA
BRANCH   6   7
ATOM      7  C   UNL A   1      41.887  22.047  26.198  1.00  0.00     0.330 C 
ATOM      8  O   UNL A   1      42.227  22.099  25.025  1.00  0.00    -0.247 OA
BRANCH   7   9
ATOM      9  C   UNL A   1      41.259  23.205  26.860  1.00  0.00     0.097 C 
ATOM     10  C   UNL A   1      39.973  23.582  26.893  1.00  0.00     0.058 C 
BRANCH  10  11
ATOM     11  C   UNL A   1      38.807  22.987  26.329  1.00  0.00     0.175 A 
ATOM     12  C   UNL A   1      33.617  26.900  24.323  1.00  0.00     0.008 C 
ATOM     13  C   UNL A   1      33.486  26.201  25.678  1.00  0.00    -0.009 C 
ATOM     14  C   UNL A   1      32.133  25.476  25.846  1.00  0.00     0.009 C 
ATOM     15  C   UNL A   1      34.677  25.251  25.902  1.00  0.00     0.041 C 
ATOM     16  C   UNL A   1      31.973  24.248  24.934  1.00  0.00     0.047 C 
ATOM     17  C   UNL A   1      34.450  23.869  25.392  1.00  0.00    -0.020 A 
ATOM     18  C   UNL A   1      33.216  23.415  24.969  1.00  0.00     0.011 A 
ATOM     19  C   UNL A   1      35.404  22.834  25.306  1.00  0.00     0.060 A 
ATOM     20  S   UNL A   1      33.249  21.786  24.453  1.00  0.00    -0.120 S 
ATOM     21  C   UNL A   1      34.916  21.632  24.817  1.00  0.00     0.129 A 
ATOM     22  C   UNL A   1      36.829  22.799  25.667  1.00  0.00     0.168 A 
ATOM     23  N   UNL A   1      35.609  20.457  24.634  1.00  0.00    -0.225 NA
ATOM     24  N   UNL A   1      37.476  21.613  25.522  1.00  0.00    -0.201 N 
ATOM     25  N   UNL A   1      37.654  23.708  26.118  1.00  0.00    -0.207 NA
ATOM     26  C   UNL A   1      36.869  20.472  24.997  1.00  0.00     0.227 A 
ATOM     27  N   UNL A   1      38.748  21.697  25.944  1.00  0.00    -0.145 NA
ENDBRANCH  10  11
ENDBRANCH   7   9
ENDBRANCH   6   7
ENDBRANCH   5   6
ENDBRANCH   4   5
ENDBRANCH   3   4
ENDBRANCH   2   3
ENDBRANCH   1   2
BRANCH   1  28
ATOM     28  O   UNL A   1      46.198  21.054  25.493  1.00  0.00    -0.376 OA
BRANCH  28  29
ATOM     29  C   UNL A   1      45.973  22.077  24.541  1.00  0.00     0.202 C 
BRANCH  29  30
ATOM     30  C   UNL A   1      45.970  23.570  24.825  1.00  0.00     0.261 C 
BRANCH  30  31
ATOM     31  O   UNL A   1      44.675  24.097  24.991  1.00  0.00    -0.460 OA
BRANCH  31  32
ATOM     32  C   UNL A   1      44.676  25.442  25.065  1.00  0.00     0.338 C 
ATOM     33  O   UNL A   1      45.508  26.214  24.624  1.00  0.00    -0.246 OA
BRANCH  32  34
ATOM     34  C   UNL A   1      43.534  25.874  25.859  1.00  0.00     0.060 A 
ATOM     35  C   UNL A   1      42.669  26.763  25.220  1.00  0.00     0.016 A 
ATOM     36  C   UNL A   1      43.605  25.735  27.251  1.00  0.00     0.016 A 
ATOM     37  C   UNL A   1      42.092  27.735  25.991  1.00  0.00     0.010 A 
ATOM     38  C   UNL A   1      43.037  26.716  28.017  1.00  0.00     0.010 A 
ATOM     39  C   UNL A   1      42.391  27.755  27.358  1.00  0.00    -0.014 A 
BRANCH  39  40
ATOM     40  C   UNL A   1      41.963  28.912  28.099  1.00  0.00     0.031 A 
ATOM     41  C   UNL A   1      42.956  29.994  28.063  1.00  0.00     0.074 A 
ATOM     42  C   UNL A   1      40.769  28.968  28.711  1.00  0.00     0.049 A 
ATOM     43  N   UNL A   1      43.708  30.395  29.032  1.00  0.00    -0.248 NA
ATOM     44  C   UNL A   1      43.300  30.554  26.749  1.00  0.00     0.031 C 
ATOM     45  C   UNL A   1      39.626  28.059  28.595  1.00  0.00     0.029 A 
ATOM     46  N   UNL A   1      40.306  29.941  29.534  1.00  0.00    -0.354 N 
ATOM     47  C   UNL A   1      44.482  31.413  28.493  1.00  0.00     0.074 A 
ATOM     48  C   UNL A   1      44.338  31.326  27.065  1.00  0.00     0.031 C 
ATOM     49  C   UNL A   1      38.535  28.650  29.137  1.00  0.00     0.029 A 
ATOM     50  C   UNL A   1      38.937  29.904  29.752  1.00  0.00     0.049 A 
ATOM     51  H   UNL A   1      40.892  30.617  29.943  1.00  0.00     0.167 HD
ATOM     52  C   UNL A   1      44.959  32.407  29.286  1.00  0.00     0.037 A 
ATOM     53  C   UNL A   1      38.211  30.897  30.324  1.00  0.00     0.037 A 
ATOM     54  C   UNL A   1      44.965  32.008  30.673  1.00  0.00     0.049 A 
ATOM     55  C   UNL A   1      39.159  31.750  31.092  1.00  0.00     0.074 A 
ATOM     56  C   UNL A   1      45.578  30.991  31.380  1.00  0.00     0.029 A 
ATOM     57  N   UNL A   1      43.953  32.468  31.480  1.00  0.00    -0.354 N 
ATOM     58  N   UNL A   1      39.773  31.356  32.173  1.00  0.00    -0.248 NA
ATOM     59  C   UNL A   1      39.785  32.865  30.393  1.00  0.00     0.031 C 
ATOM     60  C   UNL A   1      44.618  30.582  32.351  1.00  0.00     0.029 A 
ATOM     61  C   UNL A   1      43.500  31.407  32.221  1.00  0.00     0.049 A 
ATOM     62  H   UNL A   1      43.614  33.391  31.518  1.00  0.00     0.167 HD
ATOM     63  C   UNL A   1      41.059  31.869  32.060  1.00  0.00     0.074 A 
ATOM     64  C   UNL A   1      40.984  32.855  30.985  1.00  0.00     0.031 C 
ATOM     65  C   UNL A   1      42.125  31.242  32.639  1.00  0.00     0.037 A 
BRANCH  52  66
ATOM     66  C   UNL A   1      45.027  33.848  28.851  1.00  0.00     0.057 A 
ATOM     67  C   UNL A   1      46.244  34.537  28.986  1.00  0.00     0.134 A 
ATOM     68  C   UNL A   1      43.906  34.663  28.586  1.00  0.00     0.134 A 
ATOM     69  F   UNL A   1      47.383  33.879  29.247  1.00  0.00    -0.206 F 
ATOM     70  C   UNL A   1      46.322  35.933  28.951  1.00  0.00     0.040 A 
ATOM     71  C   UNL A   1      43.982  36.054  28.494  1.00  0.00     0.040 A 
ATOM     72  F   UNL A   1      42.660  34.184  28.500  1.00  0.00    -0.206 F 
ATOM     73  C   UNL A   1      45.187  36.697  28.713  1.00  0.00     0.006 A 
ENDBRANCH  52  66
BRANCH  53  74
ATOM     74  C   UNL A   1      36.846  31.345  29.966  1.00  0.00     0.057 A 
ATOM     75  C   UNL A   1      35.954  31.799  30.946  1.00  0.00     0.134 A 
ATOM     76  C   UNL A   1      36.477  31.600  28.632  1.00  0.00     0.134 A 
ATOM     77  F   UNL A   1      36.236  31.644  32.247  1.00  0.00    -0.206 F 
ATOM     78  C   UNL A   1      34.774  32.486  30.622  1.00  0.00     0.040 A 
ATOM     79  C   UNL A   1      35.300  32.277  28.294  1.00  0.00     0.040 A 
ATOM     80  F   UNL A   1      37.286  31.282  27.612  1.00  0.00    -0.206 F 
ATOM     81  C   UNL A   1      34.450  32.735  29.293  1.00  0.00     0.006 A 
ENDBRANCH  53  74
BRANCH  65  82
ATOM     82  C   UNL A   1      41.851  30.114  33.596  1.00  0.00     0.057 A 
ATOM     83  C   UNL A   1      41.720  28.772  33.205  1.00  0.00     0.134 A 
ATOM     84  C   UNL A   1      41.915  30.367  34.970  1.00  0.00     0.134 A 
ATOM     85  F   UNL A   1      41.746  28.420  31.914  1.00  0.00    -0.206 F 
ATOM     86  C   UNL A   1      41.626  27.737  34.141  1.00  0.00     0.040 A 
ATOM     87  C   UNL A   1      41.858  29.339  35.915  1.00  0.00     0.040 A 
ATOM     88  F   UNL A   1      42.097  31.620  35.418  1.00  0.00    -0.206 F 
ATOM     89  C   UNL A   1      41.707  28.018  35.501  1.00  0.00     0.006 A 
ENDBRANCH  65  82
ENDBRANCH  39  40
ENDBRANCH  32  34
ENDBRANCH  31  32
ENDBRANCH  30  31
ENDBRANCH  29  30
ENDBRANCH  28  29
ENDBRANCH   1  28
TORSDOF 18
ENDMDL
MODEL 3
REMARK VINA RESULT:     -11.0      4.477      9.658
REMARK SMILES C[C@H]1CCc2sc3ncn4nc(/C=C\C(=O)OCCOCCOCCOC(=O)c5ccc(-c6c7nc(c(-c8c(F)cccc8F)c8ccc([nH]8)c(-c8c(F)cccc8F)c8nc(c(-c9c(F)cccc9F)c9ccc6[nH]9)C=C8)C=C7)cc5)nc4c3c2C1
REMARK SMILES IDX 22 1 21 2 20 3 19 4 18 5 17 6 15 7 16 8 14 9 13 10 12 11
REMARK SMILES IDX 1 12 2 13 3 14 87 15 4 16 86 17 5 18 85 19 6 20 7 21 84 22
REMARK SMILES IDX 8 23 10 24 83 25 9 26 11 27 23 28 24 29 25 30 26 31 27 32
REMARK SMILES IDX 28 33 29 34 30 35 82 36 31 37 81 38 32 39 33 40 34 41 75 42
REMARK SMILES IDX 35 43 80 44 74 45 76 46 36 47 79 48 73 49 72 50 37 52 63 53
REMARK SMILES IDX 46 54 62 55 47 56 50 57 61 58 77 59 48 60 49 61 60 63 78 64
REMARK SMILES IDX 51 65 38 66 39 67 44 68 40 69 41 70 43 71 45 72 42 73 64 74
REMARK SMILES IDX 65 75 70 76 66 77 67 78 69 79 71 80 68 81 52 82 53 83 58 84
REMARK SMILES IDX 54 85 55 86 57 87 59 88 56 89
REMARK H PARENT 76 51 50 62
REMARK Flexibility Score: inf
ROOT
ATOM      1  C   UNL A   1      45.220  21.967  23.881  1.00  0.00     0.188 C 
ENDROOT
BRANCH   1   2
ATOM      2  C   UNL A   1      45.061  20.683  24.733  1.00  0.00     0.188 C 
BRANCH   2   3
ATOM      3  O   UNL A   1      44.152  19.666  24.361  1.00  0.00    -0.376 OA
BRANCH   3   4
ATOM      4  C   UNL A   1      43.340  19.065  25.360  1.00  0.00     0.202 C 
BRANCH   4   5
ATOM      5  C   UNL A   1      42.068  19.746  25.887  1.00  0.00     0.261 C 
BRANCH   5   6
ATOM      6  O   UNL A   1      42.314  20.888  26.706  1.00  0.00    -0.460 OA
BRANCH   6   7
ATOM      7  C   UNL A   1      41.269  21.371  27.406  1.00  0.00     0.330 C 
ATOM      8  O   UNL A   1      40.707  20.821  28.343  1.00  0.00    -0.247 OA
BRANCH   7   9
ATOM      9  C   UNL A   1      40.989  22.779  27.073  1.00  0.00     0.097 C 
ATOM     10  C   UNL A   1      39.905  23.329  26.507  1.00  0.00     0.058 C 
BRANCH  10  11
ATOM     11  C   UNL A   1      38.680  22.747  26.068  1.00  0.00     0.175 A 
ATOM     12  C   UNL A   1      33.496  26.733  24.194  1.00  0.00     0.008 C 
ATOM     13  C   UNL A   1      33.442  26.125  25.598  1.00  0.00    -0.009 C 
ATOM     14  C   UNL A   1      32.081  25.467  25.910  1.00  0.00     0.009 C 
ATOM     15  C   UNL A   1      34.613  25.144  25.796  1.00  0.00     0.041 C 
ATOM     16  C   UNL A   1      31.810  24.192  25.093  1.00  0.00     0.047 C 
ATOM     17  C   UNL A   1      34.299  23.744  25.394  1.00  0.00    -0.020 A 
ATOM     18  C   UNL A   1      33.022  23.314  25.092  1.00  0.00     0.011 A 
ATOM     19  C   UNL A   1      35.206  22.667  25.306  1.00  0.00     0.060 A 
ATOM     20  S   UNL A   1      32.958  21.657  24.681  1.00  0.00    -0.120 S 
ATOM     21  C   UNL A   1      34.641  21.459  24.933  1.00  0.00     0.129 A 
ATOM     22  C   UNL A   1      36.652  22.598  25.564  1.00  0.00     0.168 A 
ATOM     23  N   UNL A   1      35.277  20.247  24.777  1.00  0.00    -0.225 NA
ATOM     24  N   UNL A   1      37.244  21.381  25.450  1.00  0.00    -0.201 N 
ATOM     25  N   UNL A   1      37.540  23.500  25.895  1.00  0.00    -0.207 NA
ATOM     26  C   UNL A   1      36.560  20.234  25.046  1.00  0.00     0.227 A 
ATOM     27  N   UNL A   1      38.547  21.439  25.773  1.00  0.00    -0.145 NA
ENDBRANCH  10  11
ENDBRANCH   7   9
ENDBRANCH   6   7
ENDBRANCH   5   6
ENDBRANCH   4   5
ENDBRANCH   3   4
ENDBRANCH   2   3
ENDBRANCH   1   2
BRANCH   1  28
ATOM     28  O   UNL A   1      45.066  23.262  24.423  1.00  0.00    -0.376 OA
BRANCH  28  29
ATOM     29  C   UNL A   1      43.826  23.892  24.689  1.00  0.00     0.202 C 
BRANCH  29  30
ATOM     30  C   UNL A   1      43.643  25.301  25.227  1.00  0.00     0.261 C 
BRANCH  30  31
ATOM     31  O   UNL A   1      42.292  25.644  25.429  1.00  0.00    -0.460 OA
BRANCH  31  32
ATOM     32  C   UNL A   1      42.075  26.967  25.302  1.00  0.00     0.338 C 
ATOM     33  O   UNL A   1      42.635  27.747  24.552  1.00  0.00    -0.246 OA
BRANCH  32  34
ATOM     34  C   UNL A   1      41.090  27.384  26.290  1.00  0.00     0.060 A 
ATOM     35  C   UNL A   1      40.674  28.712  26.190  1.00  0.00     0.016 A 
ATOM     36  C   UNL A   1      40.962  26.623  27.459  1.00  0.00     0.016 A 
ATOM     37  C   UNL A   1      40.410  29.373  27.358  1.00  0.00     0.010 A 
ATOM     38  C   UNL A   1      40.711  27.290  28.627  1.00  0.00     0.010 A 
ATOM     39  C   UNL A   1      40.554  28.670  28.559  1.00  0.00    -0.014 A 
BRANCH  39  40
ATOM     40  C   UNL A   1      40.497  29.440  29.773  1.00  0.00     0.031 A 
ATOM     41  C   UNL A   1      39.247  30.204  29.890  1.00  0.00     0.074 A 
ATOM     42  C   UNL A   1      41.482  29.411  30.686  1.00  0.00     0.049 A 
ATOM     43  N   UNL A   1      39.099  31.480  29.781  1.00  0.00    -0.248 NA
ATOM     44  C   UNL A   1      37.990  29.443  29.925  1.00  0.00     0.031 C 
ATOM     45  C   UNL A   1      42.629  28.506  30.780  1.00  0.00     0.029 A 
ATOM     46  N   UNL A   1      41.603  30.178  31.798  1.00  0.00    -0.354 N 
ATOM     47  C   UNL A   1      37.740  31.704  29.944  1.00  0.00     0.074 A 
ATOM     48  C   UNL A   1      37.096  30.424  29.823  1.00  0.00     0.031 C 
ATOM     49  C   UNL A   1      43.190  28.629  32.006  1.00  0.00     0.029 A 
ATOM     50  C   UNL A   1      42.530  29.711  32.717  1.00  0.00     0.049 A 
ATOM     51  H   UNL A   1      41.077  30.997  31.940  1.00  0.00     0.167 HD
ATOM     52  C   UNL A   1      37.292  32.889  30.435  1.00  0.00     0.037 A 
ATOM     53  C   UNL A   1      42.652  30.153  33.994  1.00  0.00     0.037 A 
ATOM     54  C   UNL A   1      38.289  33.922  30.288  1.00  0.00     0.049 A 
ATOM     55  C   UNL A   1      42.006  31.492  34.061  1.00  0.00     0.074 A 
ATOM     56  C   UNL A   1      38.944  34.483  29.209  1.00  0.00     0.029 A 
ATOM     57  N   UNL A   1      39.029  34.262  31.395  1.00  0.00    -0.354 N 
ATOM     58  N   UNL A   1      42.485  32.556  33.476  1.00  0.00    -0.248 NA
ATOM     59  C   UNL A   1      40.585  31.544  34.377  1.00  0.00     0.031 C 
ATOM     60  C   UNL A   1      40.275  34.719  29.663  1.00  0.00     0.029 A 
ATOM     61  C   UNL A   1      40.342  34.344  31.005  1.00  0.00     0.049 A 
ATOM     62  H   UNL A   1      38.681  34.420  32.302  1.00  0.00     0.167 HD
ATOM     63  C   UNL A   1      41.372  33.217  32.971  1.00  0.00     0.074 A 
ATOM     64  C   UNL A   1      40.226  32.590  33.626  1.00  0.00     0.031 C 
ATOM     65  C   UNL A   1      41.459  34.001  31.857  1.00  0.00     0.037 A 
BRANCH  52  66
ATOM     66  C   UNL A   1      36.135  33.000  31.394  1.00  0.00     0.057 A 
ATOM     67  C   UNL A   1      35.070  33.856  31.070  1.00  0.00     0.134 A 
ATOM     68  C   UNL A   1      36.151  32.545  32.730  1.00  0.00     0.134 A 
ATOM     69  F   UNL A   1      34.945  34.365  29.835  1.00  0.00    -0.206 F 
ATOM     70  C   UNL A   1      34.146  34.296  32.024  1.00  0.00     0.040 A 
ATOM     71  C   UNL A   1      35.202  32.934  33.676  1.00  0.00     0.040 A 
ATOM     72  F   UNL A   1      37.130  31.783  33.230  1.00  0.00    -0.206 F 
ATOM     73  C   UNL A   1      34.215  33.842  33.334  1.00  0.00     0.006 A 
ENDBRANCH  52  66
BRANCH  53  74
ATOM     74  C   UNL A   1      42.966  29.358  35.203  1.00  0.00     0.057 A 
ATOM     75  C   UNL A   1      42.283  28.167  35.484  1.00  0.00     0.134 A 
ATOM     76  C   UNL A   1      44.124  29.598  35.966  1.00  0.00     0.134 A 
ATOM     77  F   UNL A   1      41.193  27.827  34.782  1.00  0.00    -0.206 F 
ATOM     78  C   UNL A   1      42.736  27.256  36.450  1.00  0.00     0.040 A 
ATOM     79  C   UNL A   1      44.583  28.702  36.938  1.00  0.00     0.040 A 
ATOM     80  F   UNL A   1      44.902  30.665  35.735  1.00  0.00    -0.206 F 
ATOM     81  C   UNL A   1      43.895  27.519  37.173  1.00  0.00     0.006 A 
ENDBRANCH  53  74
BRANCH  65  82
ATOM     82  C   UNL A   1      42.828  34.324  31.321  1.00  0.00     0.057 A 
ATOM     83  C   UNL A   1      43.630  35.369  31.804  1.00  0.00     0.134 A 
ATOM     84  C   UNL A   1      43.427  33.431  30.425  1.00  0.00     0.134 A 
ATOM     85  F   UNL A   1      43.178  36.216  32.737  1.00  0.00    -0.206 F 
ATOM     86  C   UNL A   1      44.956  35.533  31.391  1.00  0.00     0.040 A 
ATOM     87  C   UNL A   1      44.760  33.563  30.031  1.00  0.00     0.040 A 
ATOM     88  F   UNL A   1      42.738  32.374  29.964  1.00  0.00    -0.206 F 
ATOM     89  C   UNL A   1      45.529  34.621  30.511  1.00  0.00     0.006 A 
ENDBRANCH  65  82
ENDBRANCH  39  40
ENDBRANCH  32  34
ENDBRANCH  31  32
ENDBRANCH  30  31
ENDBRANCH  29  30
ENDBRANCH  28  29
ENDBRANCH   1  28
TORSDOF 18
ENDMDL
