MODEL 1
REMARK VINA RESULT:     -10.0      0.000      0.000
REMARK SMILES CN(CC(N)=O)c1ccccc1/C=C/C(=O)OCCOCCOCCOC(=O)c1ccc(-c2c3nc(c(-c4c(F)cccc4F)c4ccc([nH]4)c(-c4c(F)cccc4F)c4nc(c(-c5c(F)cccc5F)c5ccc2[nH]5)C=C4)C=C3)cc1
REMARK SMILES IDX 21 1 20 2 19 3 18 4 17 5 15 6 16 7 14 8 13 9 12 10 7 11 8 12
REMARK SMILES IDX 9 13 11 14 10 15 2 16 1 17 3 18 4 19 5 20 6 21 22 24 23 25
REMARK SMILES IDX 24 26 25 27 26 28 27 29 28 30 29 31 30 32 82 33 31 34 81 35
REMARK SMILES IDX 32 36 33 37 34 38 75 39 35 40 80 41 74 42 76 43 36 44 79 45
REMARK SMILES IDX 73 46 72 47 37 49 63 50 46 51 62 52 47 53 50 54 61 55 77 56
REMARK SMILES IDX 48 57 49 58 60 60 78 61 51 62 38 63 39 64 44 65 40 66 41 67
REMARK SMILES IDX 43 68 45 69 42 70 64 71 65 72 70 73 66 74 67 75 69 76 71 77
REMARK SMILES IDX 68 78 52 79 53 80 58 81 54 82 55 83 57 84 59 85 56 86
REMARK H PARENT 5 22 5 23 76 48 50 59
REMARK Flexibility Score: inf
ROOT
ATOM      1  C   UNL A   1      41.100  20.788  27.257  1.00  0.00     0.188 C 
ENDROOT
BRANCH   1   2
ATOM      2  O   UNL A   1      39.802  21.344  27.256  1.00  0.00    -0.376 OA
BRANCH   2   3
ATOM      3  C   UNL A   1      39.189  21.745  26.042  1.00  0.00     0.202 C 
BRANCH   3   4
ATOM      4  C   UNL A   1      37.710  22.154  25.924  1.00  0.00     0.261 C 
BRANCH   4   5
ATOM      5  O   UNL A   1      37.444  23.489  25.478  1.00  0.00    -0.460 OA
BRANCH   5   6
ATOM      6  C   UNL A   1      36.400  23.613  24.625  1.00  0.00     0.330 C 
ATOM      7  O   UNL A   1      36.202  22.942  23.621  1.00  0.00    -0.247 OA
BRANCH   6   8
ATOM      8  C   UNL A   1      35.414  24.620  25.064  1.00  0.00     0.094 C 
ATOM      9  C   UNL A   1      34.166  24.781  24.598  1.00  0.00     0.018 C 
BRANCH   9  10
ATOM     10  C   UNL A   1      33.273  25.828  25.131  1.00  0.00    -0.002 A 
ATOM     11  C   UNL A   1      31.966  26.036  24.628  1.00  0.00     0.044 A 
ATOM     12  C   UNL A   1      31.173  26.996  25.289  1.00  0.00     0.026 A 
ATOM     13  C   UNL A   1      31.659  27.783  26.334  1.00  0.00     0.002 A 
ATOM     14  C   UNL A   1      33.771  26.669  26.152  1.00  0.00     0.010 A 
ATOM     15  C   UNL A   1      32.971  27.640  26.748  1.00  0.00     0.001 A 
BRANCH  11  16
ATOM     16  N   UNL A   1      31.438  25.347  23.543  1.00  0.00    -0.365 N 
ATOM     17  C   UNL A   1      30.813  24.047  23.721  1.00  0.00     0.144 C 
BRANCH  16  18
ATOM     18  C   UNL A   1      31.406  25.965  22.209  1.00  0.00     0.215 C 
BRANCH  18  19
ATOM     19  C   UNL A   1      32.784  26.432  21.726  1.00  0.00     0.236 C 
ATOM     20  N   UNL A   1      33.012  27.782  21.806  1.00  0.00    -0.368 N 
ATOM     21  O   UNL A   1      33.650  25.687  21.273  1.00  0.00    -0.273 OA
ATOM     22  H   UNL A   1      32.318  28.378  22.168  1.00  0.00     0.159 HD
ATOM     23  H   UNL A   1      33.871  28.156  21.499  1.00  0.00     0.159 HD
ENDBRANCH  18  19
ENDBRANCH  16  18
ENDBRANCH  11  16
ENDBRANCH   9  10
ENDBRANCH   6   8
ENDBRANCH   5   6
ENDBRANCH   4   5
ENDBRANCH   3   4
ENDBRANCH   2   3
ENDBRANCH   1   2
BRANCH   1  24
ATOM     24  C   UNL A   1      41.390  19.507  26.454  1.00  0.00     0.188 C 
BRANCH  24  25
ATOM     25  O   UNL A   1      42.247  19.590  25.341  1.00  0.00    -0.376 OA
BRANCH  25  26
ATOM     26  C   UNL A   1      43.610  19.938  25.513  1.00  0.00     0.202 C 
BRANCH  26  27
ATOM     27  C   UNL A   1      44.195  21.367  25.507  1.00  0.00     0.261 C 
BRANCH  27  28
ATOM     28  O   UNL A   1      43.291  22.474  25.493  1.00  0.00    -0.460 OA
BRANCH  28  29
ATOM     29  C   UNL A   1      43.833  23.679  25.192  1.00  0.00     0.338 C 
ATOM     30  O   UNL A   1      44.503  23.972  24.212  1.00  0.00    -0.246 OA
BRANCH  29  31
ATOM     31  C   UNL A   1      43.341  24.667  26.167  1.00  0.00     0.060 A 
ATOM     32  C   UNL A   1      43.802  25.989  26.097  1.00  0.00     0.016 A 
ATOM     33  C   UNL A   1      42.425  24.284  27.147  1.00  0.00     0.016 A 
ATOM     34  C   UNL A   1      43.328  26.942  26.998  1.00  0.00     0.010 A 
ATOM     35  C   UNL A   1      41.976  25.233  28.066  1.00  0.00     0.010 A 
ATOM     36  C   UNL A   1      42.427  26.564  28.001  1.00  0.00    -0.014 A 
BRANCH  36  37
ATOM     37  C   UNL A   1      42.036  27.519  29.064  1.00  0.00     0.031 A 
ATOM     38  C   UNL A   1      42.786  27.504  30.364  1.00  0.00     0.074 A 
ATOM     39  C   UNL A   1      41.005  28.364  28.888  1.00  0.00     0.049 A 
ATOM     40  N   UNL A   1      42.533  28.142  31.477  1.00  0.00    -0.248 NA
ATOM     41  C   UNL A   1      43.979  26.645  30.415  1.00  0.00     0.031 C 
ATOM     42  C   UNL A   1      40.228  28.506  27.659  1.00  0.00     0.029 A 
ATOM     43  N   UNL A   1      40.418  29.244  29.764  1.00  0.00    -0.354 N 
ATOM     44  C   UNL A   1      43.528  27.758  32.365  1.00  0.00     0.074 A 
ATOM     45  C   UNL A   1      44.374  26.812  31.669  1.00  0.00     0.031 C 
ATOM     46  C   UNL A   1      39.245  29.399  27.867  1.00  0.00     0.029 A 
ATOM     47  C   UNL A   1      39.298  29.856  29.255  1.00  0.00     0.049 A 
ATOM     48  H   UNL A   1      40.766  29.420  30.667  1.00  0.00     0.167 HD
ATOM     49  C   UNL A   1      43.721  28.162  33.643  1.00  0.00     0.037 A 
ATOM     50  C   UNL A   1      38.396  30.658  29.855  1.00  0.00     0.037 A 
ATOM     51  C   UNL A   1      42.866  29.091  34.335  1.00  0.00     0.049 A 
ATOM     52  C   UNL A   1      38.571  31.013  31.311  1.00  0.00     0.074 A 
ATOM     53  C   UNL A   1      42.983  29.570  35.628  1.00  0.00     0.029 A 
ATOM     54  N   UNL A   1      41.726  29.668  33.796  1.00  0.00    -0.354 N 
ATOM     55  N   UNL A   1      39.527  30.665  32.139  1.00  0.00    -0.248 NA
ATOM     56  C   UNL A   1      37.538  31.866  31.916  1.00  0.00     0.031 C 
ATOM     57  C   UNL A   1      41.882  30.390  35.891  1.00  0.00     0.029 A 
ATOM     58  C   UNL A   1      41.113  30.473  34.742  1.00  0.00     0.049 A 
ATOM     59  H   UNL A   1      41.401  29.527  32.878  1.00  0.00     0.167 HD
ATOM     60  C   UNL A   1      39.226  31.277  33.350  1.00  0.00     0.074 A 
ATOM     61  C   UNL A   1      38.006  32.030  33.146  1.00  0.00     0.031 C 
ATOM     62  C   UNL A   1      39.900  31.222  34.526  1.00  0.00     0.037 A 
BRANCH  49  63
ATOM     63  C   UNL A   1      44.883  27.570  34.385  1.00  0.00     0.057 A 
ATOM     64  C   UNL A   1      44.778  26.360  35.085  1.00  0.00     0.134 A 
ATOM     65  C   UNL A   1      46.132  28.204  34.378  1.00  0.00     0.134 A 
ATOM     66  F   UNL A   1      43.606  25.709  35.144  1.00  0.00    -0.206 F 
ATOM     67  C   UNL A   1      45.865  25.817  35.771  1.00  0.00     0.040 A 
ATOM     68  C   UNL A   1      47.233  27.656  35.036  1.00  0.00     0.040 A 
ATOM     69  F   UNL A   1      46.305  29.362  33.723  1.00  0.00    -0.206 F 
ATOM     70  C   UNL A   1      47.100  26.463  35.742  1.00  0.00     0.006 A 
ENDBRANCH  49  63
BRANCH  50  71
ATOM     71  C   UNL A   1      37.220  31.155  29.096  1.00  0.00     0.057 A 
ATOM     72  C   UNL A   1      37.138  32.486  28.672  1.00  0.00     0.134 A 
ATOM     73  C   UNL A   1      36.137  30.317  28.797  1.00  0.00     0.134 A 
ATOM     74  F   UNL A   1      38.130  33.345  28.952  1.00  0.00    -0.206 F 
ATOM     75  C   UNL A   1      36.018  32.972  27.995  1.00  0.00     0.040 A 
ATOM     76  C   UNL A   1      35.024  30.782  28.096  1.00  0.00     0.040 A 
ATOM     77  F   UNL A   1      36.150  29.032  29.179  1.00  0.00    -0.206 F 
ATOM     78  C   UNL A   1      34.959  32.115  27.698  1.00  0.00     0.006 A 
ENDBRANCH  50  71
BRANCH  62  79
ATOM     79  C   UNL A   1      39.358  32.020  35.677  1.00  0.00     0.057 A 
ATOM     80  C   UNL A   1      39.720  33.356  35.890  1.00  0.00     0.134 A 
ATOM     81  C   UNL A   1      38.414  31.461  36.550  1.00  0.00     0.134 A 
ATOM     82  F   UNL A   1      40.627  33.950  35.100  1.00  0.00    -0.206 F 
ATOM     83  C   UNL A   1      39.175  34.102  36.937  1.00  0.00     0.040 A 
ATOM     84  C   UNL A   1      37.840  32.205  37.582  1.00  0.00     0.040 A 
ATOM     85  F   UNL A   1      38.014  30.189  36.397  1.00  0.00    -0.206 F 
ATOM     86  C   UNL A   1      38.225  33.529  37.782  1.00  0.00     0.006 A 
ENDBRANCH  62  79
ENDBRANCH  36  37
ENDBRANCH  29  31
ENDBRANCH  28  29
ENDBRANCH  27  28
ENDBRANCH  26  27
ENDBRANCH  25  26
ENDBRANCH  24  25
ENDBRANCH   1  24
TORSDOF 21
ENDMDL
MODEL 2
REMARK VINA RESULT:      -9.7      1.150      6.328
REMARK SMILES CN(CC(N)=O)c1ccccc1/C=C/C(=O)OCCOCCOCCOC(=O)c1ccc(-c2c3nc(c(-c4c(F)cccc4F)c4ccc([nH]4)c(-c4c(F)cccc4F)c4nc(c(-c5c(F)cccc5F)c5ccc2[nH]5)C=C4)C=C3)cc1
REMARK SMILES IDX 21 1 20 2 19 3 18 4 17 5 15 6 16 7 14 8 13 9 12 10 7 11 8 12
REMARK SMILES IDX 9 13 11 14 10 15 2 16 1 17 3 18 4 19 5 20 6 21 22 24 23 25
REMARK SMILES IDX 24 26 25 27 26 28 27 29 28 30 29 31 30 32 82 33 31 34 81 35
REMARK SMILES IDX 32 36 33 37 34 38 75 39 35 40 80 41 74 42 76 43 36 44 79 45
REMARK SMILES IDX 73 46 72 47 37 49 63 50 46 51 62 52 47 53 50 54 61 55 77 56
REMARK SMILES IDX 48 57 49 58 60 60 78 61 51 62 38 63 39 64 44 65 40 66 41 67
REMARK SMILES IDX 43 68 45 69 42 70 64 71 65 72 70 73 66 74 67 75 69 76 71 77
REMARK SMILES IDX 68 78 52 79 53 80 58 81 54 82 55 83 57 84 59 85 56 86
REMARK H PARENT 5 22 5 23 76 48 50 59
REMARK Flexibility Score: inf
ROOT
ATOM      1  C   UNL A   1      39.977  22.937  27.231  1.00  0.00     0.188 C 
ENDROOT
BRANCH   1   2
ATOM      2  O   UNL A   1      39.374  23.978  26.491  1.00  0.00    -0.376 OA
BRANCH   2   3
ATOM      3  C   UNL A   1      37.973  23.998  26.282  1.00  0.00     0.202 C 
BRANCH   3   4
ATOM      4  C   UNL A   1      37.186  22.840  25.643  1.00  0.00     0.261 C 
BRANCH   4   5
ATOM      5  O   UNL A   1      36.399  23.154  24.488  1.00  0.00    -0.460 OA
BRANCH   5   6
ATOM      6  C   UNL A   1      35.082  22.855  24.590  1.00  0.00     0.330 C 
ATOM      7  O   UNL A   1      34.574  21.759  24.398  1.00  0.00    -0.247 OA
BRANCH   6   8
ATOM      8  C   UNL A   1      34.268  23.993  25.059  1.00  0.00     0.094 C 
ATOM      9  C   UNL A   1      34.199  25.214  24.508  1.00  0.00     0.018 C 
BRANCH   9  10
ATOM     10  C   UNL A   1      33.334  26.268  25.073  1.00  0.00    -0.002 A 
ATOM     11  C   UNL A   1      32.037  26.532  24.571  1.00  0.00     0.044 A 
ATOM     12  C   UNL A   1      31.269  27.491  25.261  1.00  0.00     0.026 A 
ATOM     13  C   UNL A   1      31.771  28.227  26.335  1.00  0.00     0.002 A 
ATOM     14  C   UNL A   1      33.851  27.058  26.124  1.00  0.00     0.010 A 
ATOM     15  C   UNL A   1      33.077  28.031  26.749  1.00  0.00     0.001 A 
BRANCH  11  16
ATOM     16  N   UNL A   1      31.494  25.897  23.460  1.00  0.00    -0.365 N 
ATOM     17  C   UNL A   1      30.845  24.603  23.587  1.00  0.00     0.144 C 
BRANCH  16  18
ATOM     18  C   UNL A   1      31.474  26.568  22.152  1.00  0.00     0.215 C 
BRANCH  18  19
ATOM     19  C   UNL A   1      32.456  25.958  21.144  1.00  0.00     0.236 C 
ATOM     20  N   UNL A   1      31.912  25.578  19.944  1.00  0.00    -0.368 N 
ATOM     21  O   UNL A   1      33.653  25.785  21.360  1.00  0.00    -0.273 OA
ATOM     22  H   UNL A   1      30.953  25.717  19.773  1.00  0.00     0.159 HD
ATOM     23  H   UNL A   1      32.481  25.165  19.254  1.00  0.00     0.159 HD
ENDBRANCH  18  19
ENDBRANCH  16  18
ENDBRANCH  11  16
ENDBRANCH   9  10
ENDBRANCH   6   8
ENDBRANCH   5   6
ENDBRANCH   4   5
ENDBRANCH   3   4
ENDBRANCH   2   3
ENDBRANCH   1   2
BRANCH   1  24
ATOM     24  C   UNL A   1      40.800  21.855  26.508  1.00  0.00     0.188 C 
BRANCH  24  25
ATOM     25  O   UNL A   1      42.198  21.858  26.663  1.00  0.00    -0.376 OA
BRANCH  25  26
ATOM     26  C   UNL A   1      43.043  21.785  25.526  1.00  0.00     0.202 C 
BRANCH  26  27
ATOM     27  C   UNL A   1      43.542  22.978  24.683  1.00  0.00     0.261 C 
BRANCH  27  28
ATOM     28  O   UNL A   1      43.046  24.284  24.987  1.00  0.00    -0.460 OA
BRANCH  28  29
ATOM     29  C   UNL A   1      43.976  25.203  25.347  1.00  0.00     0.338 C 
ATOM     30  O   UNL A   1      44.958  25.559  24.711  1.00  0.00    -0.246 OA
BRANCH  29  31
ATOM     31  C   UNL A   1      43.526  25.858  26.586  1.00  0.00     0.060 A 
ATOM     32  C   UNL A   1      42.733  25.141  27.493  1.00  0.00     0.016 A 
ATOM     33  C   UNL A   1      43.890  27.179  26.849  1.00  0.00     0.016 A 
ATOM     34  C   UNL A   1      42.318  25.739  28.682  1.00  0.00     0.010 A 
ATOM     35  C   UNL A   1      43.448  27.784  28.026  1.00  0.00     0.010 A 
ATOM     36  C   UNL A   1      42.657  27.072  28.946  1.00  0.00    -0.014 A 
BRANCH  36  37
ATOM     37  C   UNL A   1      42.094  27.776  30.123  1.00  0.00     0.031 A 
ATOM     38  C   UNL A   1      40.879  28.638  29.939  1.00  0.00     0.074 A 
ATOM     39  C   UNL A   1      42.678  27.678  31.329  1.00  0.00     0.049 A 
ATOM     40  N   UNL A   1      40.302  29.451  30.784  1.00  0.00    -0.248 NA
ATOM     41  C   UNL A   1      40.233  28.576  28.619  1.00  0.00     0.031 C 
ATOM     42  C   UNL A   1      43.833  26.841  31.646  1.00  0.00     0.029 A 
ATOM     43  N   UNL A   1      42.389  28.317  32.510  1.00  0.00    -0.354 N 
ATOM     44  C   UNL A   1      39.230  30.006  30.099  1.00  0.00     0.074 A 
ATOM     45  C   UNL A   1      39.252  29.456  28.761  1.00  0.00     0.031 C 
ATOM     46  C   UNL A   1      44.175  27.039  32.931  1.00  0.00     0.029 A 
ATOM     47  C   UNL A   1      43.291  28.049  33.511  1.00  0.00     0.049 A 
ATOM     48  H   UNL A   1      41.611  28.908  32.628  1.00  0.00     0.167 HD
ATOM     49  C   UNL A   1      38.309  30.892  30.547  1.00  0.00     0.037 A 
ATOM     50  C   UNL A   1      43.414  28.590  34.740  1.00  0.00     0.037 A 
ATOM     51  C   UNL A   1      38.302  31.449  31.875  1.00  0.00     0.049 A 
ATOM     52  C   UNL A   1      42.439  29.652  35.184  1.00  0.00     0.074 A 
ATOM     53  C   UNL A   1      37.405  32.345  32.428  1.00  0.00     0.029 A 
ATOM     54  N   UNL A   1      39.248  31.175  32.852  1.00  0.00    -0.354 N 
ATOM     55  N   UNL A   1      41.413  30.156  34.540  1.00  0.00    -0.248 NA
ATOM     56  C   UNL A   1      42.643  30.224  36.523  1.00  0.00     0.031 C 
ATOM     57  C   UNL A   1      37.841  32.659  33.719  1.00  0.00     0.029 A 
ATOM     58  C   UNL A   1      38.974  31.910  33.994  1.00  0.00     0.049 A 
ATOM     59  H   UNL A   1      40.001  30.549  32.749  1.00  0.00     0.167 HD
ATOM     60  C   UNL A   1      40.837  31.081  35.403  1.00  0.00     0.074 A 
ATOM     61  C   UNL A   1      41.618  31.059  36.621  1.00  0.00     0.031 C 
ATOM     62  C   UNL A   1      39.756  31.877  35.203  1.00  0.00     0.037 A 
BRANCH  49  63
ATOM     63  C   UNL A   1      37.253  31.339  29.579  1.00  0.00     0.057 A 
ATOM     64  C   UNL A   1      37.334  32.567  28.908  1.00  0.00     0.134 A 
ATOM     65  C   UNL A   1      36.155  30.519  29.293  1.00  0.00     0.134 A 
ATOM     66  F   UNL A   1      38.354  33.406  29.147  1.00  0.00    -0.206 F 
ATOM     67  C   UNL A   1      36.348  32.973  28.008  1.00  0.00     0.040 A 
ATOM     68  C   UNL A   1      35.178  30.901  28.373  1.00  0.00     0.040 A 
ATOM     69  F   UNL A   1      36.017  29.328  29.895  1.00  0.00    -0.206 F 
ATOM     70  C   UNL A   1      35.268  32.135  27.734  1.00  0.00     0.006 A 
ENDBRANCH  49  63
BRANCH  50  71
ATOM     71  C   UNL A   1      44.523  28.167  35.632  1.00  0.00     0.057 A 
ATOM     72  C   UNL A   1      44.344  27.166  36.593  1.00  0.00     0.134 A 
ATOM     73  C   UNL A   1      45.786  28.773  35.563  1.00  0.00     0.134 A 
ATOM     74  F   UNL A   1      43.151  26.569  36.728  1.00  0.00    -0.206 F 
ATOM     75  C   UNL A   1      45.369  26.794  37.464  1.00  0.00     0.040 A 
ATOM     76  C   UNL A   1      46.829  28.390  36.407  1.00  0.00     0.040 A 
ATOM     77  F   UNL A   1      46.023  29.742  34.668  1.00  0.00    -0.206 F 
ATOM     78  C   UNL A   1      46.620  27.401  37.366  1.00  0.00     0.006 A 
ENDBRANCH  50  71
BRANCH  62  79
ATOM     79  C   UNL A   1      39.329  32.767  36.336  1.00  0.00     0.057 A 
ATOM     80  C   UNL A   1      39.856  34.053  36.508  1.00  0.00     0.134 A 
ATOM     81  C   UNL A   1      38.333  32.353  37.231  1.00  0.00     0.134 A 
ATOM     82  F   UNL A   1      40.821  34.508  35.694  1.00  0.00    -0.206 F 
ATOM     83  C   UNL A   1      39.418  34.889  37.537  1.00  0.00     0.040 A 
ATOM     84  C   UNL A   1      37.867  33.190  38.246  1.00  0.00     0.040 A 
ATOM     85  F   UNL A   1      37.778  31.137  37.118  1.00  0.00    -0.206 F 
ATOM     86  C   UNL A   1      38.414  34.461  38.404  1.00  0.00     0.006 A 
ENDBRANCH  62  79
ENDBRANCH  36  37
ENDBRANCH  29  31
ENDBRANCH  28  29
ENDBRANCH  27  28
ENDBRANCH  26  27
ENDBRANCH  25  26
ENDBRANCH  24  25
ENDBRANCH   1  24
TORSDOF 21
ENDMDL
MODEL 3
REMARK VINA RESULT:      -9.7      3.045      8.860
REMARK SMILES CN(CC(N)=O)c1ccccc1/C=C/C(=O)OCCOCCOCCOC(=O)c1ccc(-c2c3nc(c(-c4c(F)cccc4F)c4ccc([nH]4)c(-c4c(F)cccc4F)c4nc(c(-c5c(F)cccc5F)c5ccc2[nH]5)C=C4)C=C3)cc1
REMARK SMILES IDX 21 1 20 2 19 3 18 4 17 5 15 6 16 7 14 8 13 9 12 10 7 11 8 12
REMARK SMILES IDX 9 13 11 14 10 15 2 16 1 17 3 18 4 19 5 20 6 21 22 24 23 25
REMARK SMILES IDX 24 26 25 27 26 28 27 29 28 30 29 31 30 32 82 33 31 34 81 35
REMARK SMILES IDX 32 36 33 37 34 38 75 39 35 40 80 41 74 42 76 43 36 44 79 45
REMARK SMILES IDX 73 46 72 47 37 49 63 50 46 51 62 52 47 53 50 54 61 55 77 56
REMARK SMILES IDX 48 57 49 58 60 60 78 61 51 62 38 63 39 64 44 65 40 66 41 67
REMARK SMILES IDX 43 68 45 69 42 70 64 71 65 72 70 73 66 74 67 75 69 76 71 77
REMARK SMILES IDX 68 78 52 79 53 80 58 81 54 82 55 83 57 84 59 85 56 86
REMARK H PARENT 5 22 5 23 76 48 50 59
REMARK Flexibility Score: inf
ROOT
ATOM      1  C   UNL A   1      31.070  29.687  24.621  1.00  0.00     0.188 C 
ENDROOT
BRANCH   1   2
ATOM      2  O   UNL A   1      31.197  29.000  23.392  1.00  0.00    -0.376 OA
BRANCH   2   3
ATOM      3  C   UNL A   1      30.385  27.874  23.107  1.00  0.00     0.202 C 
BRANCH   3   4
ATOM      4  C   UNL A   1      30.910  26.428  23.064  1.00  0.00     0.261 C 
BRANCH   4   5
ATOM      5  O   UNL A   1      32.316  26.246  23.273  1.00  0.00    -0.460 OA
BRANCH   5   6
ATOM      6  C   UNL A   1      32.949  25.515  22.326  1.00  0.00     0.330 C 
ATOM      7  O   UNL A   1      33.598  25.955  21.387  1.00  0.00    -0.247 OA
BRANCH   6   8
ATOM      8  C   UNL A   1      32.864  24.061  22.569  1.00  0.00     0.094 C 
ATOM      9  C   UNL A   1      33.418  23.382  23.586  1.00  0.00     0.018 C 
BRANCH   9  10
ATOM     10  C   UNL A   1      33.251  21.922  23.719  1.00  0.00    -0.002 A 
ATOM     11  C   UNL A   1      33.954  21.165  24.687  1.00  0.00     0.044 A 
ATOM     12  C   UNL A   1      33.631  19.797  24.786  1.00  0.00     0.026 A 
ATOM     13  C   UNL A   1      32.731  19.171  23.921  1.00  0.00     0.002 A 
ATOM     14  C   UNL A   1      32.385  21.267  22.814  1.00  0.00     0.010 A 
ATOM     15  C   UNL A   1      32.129  19.903  22.912  1.00  0.00     0.001 A 
BRANCH  11  16
ATOM     16  N   UNL A   1      34.919  21.699  25.533  1.00  0.00    -0.365 N 
ATOM     17  C   UNL A   1      34.543  22.318  26.793  1.00  0.00     0.144 C 
BRANCH  16  18
ATOM     18  C   UNL A   1      36.348  21.556  25.220  1.00  0.00     0.215 C 
BRANCH  18  19
ATOM     19  C   UNL A   1      36.977  22.838  24.661  1.00  0.00     0.236 C 
ATOM     20  N   UNL A   1      36.984  22.945  23.294  1.00  0.00    -0.368 N 
ATOM     21  O   UNL A   1      37.470  23.726  25.352  1.00  0.00    -0.273 OA
ATOM     22  H   UNL A   1      36.590  22.232  22.743  1.00  0.00     0.159 HD
ATOM     23  H   UNL A   1      37.386  23.735  22.864  1.00  0.00     0.159 HD
ENDBRANCH  18  19
ENDBRANCH  16  18
ENDBRANCH  11  16
ENDBRANCH   9  10
ENDBRANCH   6   8
ENDBRANCH   5   6
ENDBRANCH   4   5
ENDBRANCH   3   4
ENDBRANCH   2   3
ENDBRANCH   1   2
BRANCH   1  24
ATOM     24  C   UNL A   1      32.205  29.621  25.660  1.00  0.00     0.188 C 
BRANCH  24  25
ATOM     25  O   UNL A   1      32.163  30.501  26.757  1.00  0.00    -0.376 OA
BRANCH  25  26
ATOM     26  C   UNL A   1      31.563  31.779  26.626  1.00  0.00     0.202 C 
BRANCH  26  27
ATOM     27  C   UNL A   1      32.225  33.134  26.955  1.00  0.00     0.261 C 
BRANCH  27  28
ATOM     28  O   UNL A   1      32.139  33.629  28.294  1.00  0.00    -0.460 OA
BRANCH  28  29
ATOM     29  C   UNL A   1      33.026  34.599  28.626  1.00  0.00     0.338 C 
ATOM     30  O   UNL A   1      32.839  35.807  28.641  1.00  0.00    -0.246 OA
BRANCH  29  31
ATOM     31  C   UNL A   1      34.243  33.957  29.148  1.00  0.00     0.060 A 
ATOM     32  C   UNL A   1      34.124  32.913  30.077  1.00  0.00     0.016 A 
ATOM     33  C   UNL A   1      35.499  34.386  28.718  1.00  0.00     0.016 A 
ATOM     34  C   UNL A   1      35.267  32.278  30.563  1.00  0.00     0.010 A 
ATOM     35  C   UNL A   1      36.641  33.769  29.230  1.00  0.00     0.010 A 
ATOM     36  C   UNL A   1      36.533  32.717  30.158  1.00  0.00    -0.014 A 
BRANCH  36  37
ATOM     37  C   UNL A   1      37.759  32.166  30.782  1.00  0.00     0.031 A 
ATOM     38  C   UNL A   1      38.498  31.065  30.080  1.00  0.00     0.074 A 
ATOM     39  C   UNL A   1      38.187  32.615  31.975  1.00  0.00     0.049 A 
ATOM     40  N   UNL A   1      39.503  30.340  30.499  1.00  0.00    -0.248 NA
ATOM     41  C   UNL A   1      38.036  30.735  28.723  1.00  0.00     0.031 C 
ATOM     42  C   UNL A   1      37.583  33.707  32.735  1.00  0.00     0.029 A 
ATOM     43  N   UNL A   1      39.221  32.180  32.769  1.00  0.00    -0.354 N 
ATOM     44  C   UNL A   1      39.789  29.462  29.463  1.00  0.00     0.074 A 
ATOM     45  C   UNL A   1      38.836  29.727  28.407  1.00  0.00     0.031 C 
ATOM     46  C   UNL A   1      38.239  33.840  33.901  1.00  0.00     0.029 A 
ATOM     47  C   UNL A   1      39.278  32.814  33.986  1.00  0.00     0.049 A 
ATOM     48  H   UNL A   1      39.859  31.485  32.492  1.00  0.00     0.167 HD
ATOM     49  C   UNL A   1      40.761  28.521  29.398  1.00  0.00     0.037 A 
ATOM     50  C   UNL A   1      40.050  32.563  35.062  1.00  0.00     0.037 A 
ATOM     51  C   UNL A   1      41.696  28.250  30.459  1.00  0.00     0.049 A 
ATOM     52  C   UNL A   1      41.057  31.442  35.007  1.00  0.00     0.074 A 
ATOM     53  C   UNL A   1      42.724  27.324  30.485  1.00  0.00     0.029 A 
ATOM     54  N   UNL A   1      41.705  28.892  31.688  1.00  0.00    -0.354 N 
ATOM     55  N   UNL A   1      41.339  30.629  34.017  1.00  0.00    -0.248 NA
ATOM     56  C   UNL A   1      41.850  31.200  36.222  1.00  0.00     0.031 C 
ATOM     57  C   UNL A   1      43.317  27.365  31.750  1.00  0.00     0.029 A 
ATOM     58  C   UNL A   1      42.700  28.360  32.491  1.00  0.00     0.049 A 
ATOM     59  H   UNL A   1      41.094  29.619  31.949  1.00  0.00     0.167 HD
ATOM     60  C   UNL A   1      42.356  29.801  34.479  1.00  0.00     0.074 A 
ATOM     61  C   UNL A   1      42.651  30.217  35.833  1.00  0.00     0.031 C 
ATOM     62  C   UNL A   1      42.988  28.787  33.837  1.00  0.00     0.037 A 
BRANCH  49  63
ATOM     63  C   UNL A   1      40.837  27.692  28.149  1.00  0.00     0.057 A 
ATOM     64  C   UNL A   1      41.582  28.098  27.033  1.00  0.00     0.134 A 
ATOM     65  C   UNL A   1      40.177  26.459  28.070  1.00  0.00     0.134 A 
ATOM     66  F   UNL A   1      42.227  29.275  27.038  1.00  0.00    -0.206 F 
ATOM     67  C   UNL A   1      41.648  27.320  25.877  1.00  0.00     0.040 A 
ATOM     68  C   UNL A   1      40.259  25.659  26.930  1.00  0.00     0.040 A 
ATOM     69  F   UNL A   1      39.450  26.008  29.103  1.00  0.00    -0.206 F 
ATOM     70  C   UNL A   1      40.989  26.092  25.826  1.00  0.00     0.006 A 
ENDBRANCH  49  63
BRANCH  50  71
ATOM     71  C   UNL A   1      39.882  33.363  36.302  1.00  0.00     0.057 A 
ATOM     72  C   UNL A   1      40.607  34.543  36.511  1.00  0.00     0.134 A 
ATOM     73  C   UNL A   1      39.011  32.955  37.321  1.00  0.00     0.134 A 
ATOM     74  F   UNL A   1      41.477  34.971  35.586  1.00  0.00    -0.206 F 
ATOM     75  C   UNL A   1      40.486  35.277  37.692  1.00  0.00     0.040 A 
ATOM     76  C   UNL A   1      38.858  33.695  38.494  1.00  0.00     0.040 A 
ATOM     77  F   UNL A   1      38.291  31.832  37.187  1.00  0.00    -0.206 F 
ATOM     78  C   UNL A   1      39.603  34.857  38.685  1.00  0.00     0.006 A 
ENDBRANCH  50  71
BRANCH  62  79
ATOM     79  C   UNL A   1      44.086  28.074  34.575  1.00  0.00     0.057 A 
ATOM     80  C   UNL A   1      45.402  28.554  34.592  1.00  0.00     0.134 A 
ATOM     81  C   UNL A   1      43.809  26.924  35.328  1.00  0.00     0.134 A 
ATOM     82  F   UNL A   1      45.738  29.643  33.884  1.00  0.00    -0.206 F 
ATOM     83  C   UNL A   1      46.404  27.909  35.319  1.00  0.00     0.040 A 
ATOM     84  C   UNL A   1      44.796  26.287  36.081  1.00  0.00     0.040 A 
ATOM     85  F   UNL A   1      42.568  26.416  35.364  1.00  0.00    -0.206 F 
ATOM     86  C   UNL A   1      46.101  26.776  36.074  1.00  0.00     0.006 A 
ENDBRANCH  62  79
ENDBRANCH  36  37
ENDBRANCH  29  31
ENDBRANCH  28  29
ENDBRANCH  27  28
ENDBRANCH  26  27
ENDBRANCH  25  26
ENDBRANCH  24  25
ENDBRANCH   1  24
TORSDOF 21
ENDMDL
