MODEL 1
REMARK VINA RESULT:      -9.9      0.000      0.000
REMARK SMILES CO[C@@H]1C[C@H](C(=O)OCCOCCOCCOC(=O)c2ccc(-c3c4nc(c(-c5c(F)cccc5F)c5ccc([nH]5)c(-c5c(F)cccc5F)c5nc(c(-c6c(F)cccc6F)c6ccc3[nH]6)C=C5)C=C4)cc2)N(C(=O)c2ccc([N+](=O)[O-])s2)C1
REMARK SMILES IDX 12 1 11 2 10 3 9 4 8 5 6 6 7 7 5 8 3 9 4 10 85 11 74 12 2 13
REMARK SMILES IDX 1 14 75 15 76 16 77 17 78 18 84 19 79 20 80 21 81 22 82 23
REMARK SMILES IDX 83 24 13 25 14 26 15 27 16 28 17 29 18 30 19 31 20 32 21 33
REMARK SMILES IDX 73 34 22 35 72 36 23 37 24 38 25 39 66 40 26 41 71 42 65 43
REMARK SMILES IDX 67 44 27 45 70 46 64 47 63 48 28 50 54 51 37 52 53 53 38 54
REMARK SMILES IDX 41 55 52 56 68 57 39 58 40 59 51 61 69 62 42 63 29 64 30 65
REMARK SMILES IDX 35 66 31 67 32 68 34 69 36 70 33 71 55 72 56 73 61 74 57 75
REMARK SMILES IDX 58 76 60 77 62 78 59 79 43 80 44 81 49 82 45 83 46 84 48 85
REMARK SMILES IDX 50 86 47 87
REMARK H PARENT 67 49 41 60
REMARK Flexibility Score: inf
ROOT
ATOM      1  C   UNL A   1      35.505  32.168  28.023  1.00  0.00     0.188 C 
ENDROOT
BRANCH   1   2
ATOM      2  O   UNL A   1      35.139  30.856  27.614  1.00  0.00    -0.376 OA
BRANCH   2   3
ATOM      3  C   UNL A   1      33.774  30.646  27.235  1.00  0.00     0.202 C 
BRANCH   3   4
ATOM      4  C   UNL A   1      33.440  29.298  26.572  1.00  0.00     0.261 C 
BRANCH   4   5
ATOM      5  O   UNL A   1      32.939  29.432  25.223  1.00  0.00    -0.462 OA
BRANCH   5   6
ATOM      6  C   UNL A   1      33.268  28.427  24.370  1.00  0.00     0.329 C 
ATOM      7  O   UNL A   1      34.301  28.405  23.709  1.00  0.00    -0.250 OA
BRANCH   6   8
ATOM      8  C   UNL A   1      32.315  27.211  24.452  1.00  0.00     0.198 C 
ATOM      9  C   UNL A   1      30.113  27.632  23.475  1.00  0.00     0.140 C 
ATOM     10  C   UNL A   1      30.855  27.473  24.813  1.00  0.00     0.071 C 
ATOM     11  C   UNL A   1      31.137  27.260  22.397  1.00  0.00     0.152 C 
ATOM     12  N   UNL A   1      32.226  26.631  23.118  1.00  0.00    -0.321 N 
BRANCH   9  13
ATOM     13  O   UNL A   1      29.664  28.976  23.320  1.00  0.00    -0.380 OA
ATOM     14  C   UNL A   1      30.109  29.550  22.092  1.00  0.00     0.195 C 
ENDBRANCH   9  13
BRANCH  12  15
ATOM     15  C   UNL A   1      33.165  25.840  22.470  1.00  0.00     0.265 C 
ATOM     16  O   UNL A   1      33.602  26.165  21.368  1.00  0.00    -0.268 OA
BRANCH  15  17
ATOM     17  C   UNL A   1      33.562  24.600  23.122  1.00  0.00     0.099 A 
ATOM     18  C   UNL A   1      34.671  24.341  23.910  1.00  0.00     0.033 A 
ATOM     19  S   UNL A   1      32.534  23.230  23.020  1.00  0.00    -0.058 S 
ATOM     20  C   UNL A   1      34.702  22.991  24.376  1.00  0.00     0.099 A 
ATOM     21  C   UNL A   1      33.607  22.281  23.932  1.00  0.00     0.324 A 
BRANCH  21  22
ATOM     22  N   UNL A   1      33.326  20.893  24.194  1.00  0.00     0.074 N 
ATOM     23  O   UNL A   1      33.944  20.379  25.137  1.00  0.00    -0.258 OA
ATOM     24  O   UNL A   1      32.512  20.306  23.471  1.00  0.00    -0.258 OA
ENDBRANCH  21  22
ENDBRANCH  15  17
ENDBRANCH  12  15
ENDBRANCH   6   8
ENDBRANCH   5   6
ENDBRANCH   4   5
ENDBRANCH   3   4
ENDBRANCH   2   3
ENDBRANCH   1   2
BRANCH   1  25
ATOM     25  C   UNL A   1      34.367  33.194  28.097  1.00  0.00     0.188 C 
BRANCH  25  26
ATOM     26  O   UNL A   1      34.645  34.317  28.912  1.00  0.00    -0.376 OA
BRANCH  26  27
ATOM     27  C   UNL A   1      34.053  35.571  28.576  1.00  0.00     0.202 C 
BRANCH  27  28
ATOM     28  C   UNL A   1      32.940  36.099  29.507  1.00  0.00     0.261 C 
BRANCH  28  29
ATOM     29  O   UNL A   1      32.549  35.231  30.590  1.00  0.00    -0.460 OA
BRANCH  29  30
ATOM     30  C   UNL A   1      32.740  35.677  31.852  1.00  0.00     0.338 C 
ATOM     31  O   UNL A   1      31.962  36.355  32.509  1.00  0.00    -0.246 OA
BRANCH  30  32
ATOM     32  C   UNL A   1      33.912  34.968  32.430  1.00  0.00     0.060 A 
ATOM     33  C   UNL A   1      35.165  35.594  32.345  1.00  0.00     0.016 A 
ATOM     34  C   UNL A   1      33.788  33.755  33.115  1.00  0.00     0.016 A 
ATOM     35  C   UNL A   1      36.300  34.984  32.883  1.00  0.00     0.010 A 
ATOM     36  C   UNL A   1      34.927  33.136  33.644  1.00  0.00     0.010 A 
ATOM     37  C   UNL A   1      36.196  33.725  33.490  1.00  0.00    -0.014 A 
BRANCH  37  38
ATOM     38  C   UNL A   1      37.423  32.916  33.712  1.00  0.00     0.031 A 
ATOM     39  C   UNL A   1      38.212  33.175  34.971  1.00  0.00     0.074 A 
ATOM     40  C   UNL A   1      37.826  31.956  32.860  1.00  0.00     0.049 A 
ATOM     41  N   UNL A   1      39.331  32.637  35.382  1.00  0.00    -0.248 NA
ATOM     42  C   UNL A   1      37.655  34.185  35.886  1.00  0.00     0.031 C 
ATOM     43  C   UNL A   1      37.141  31.568  31.630  1.00  0.00     0.029 A 
ATOM     44  N   UNL A   1      38.927  31.136  32.908  1.00  0.00    -0.354 N 
ATOM     45  C   UNL A   1      39.614  33.248  36.597  1.00  0.00     0.074 A 
ATOM     46  C   UNL A   1      38.572  34.222  36.838  1.00  0.00     0.031 C 
ATOM     47  C   UNL A   1      37.848  30.592  31.030  1.00  0.00     0.029 A 
ATOM     48  C   UNL A   1      39.048  30.309  31.818  1.00  0.00     0.049 A 
ATOM     49  H   UNL A   1      39.570  31.140  33.653  1.00  0.00     0.167 HD
ATOM     50  C   UNL A   1      40.642  33.017  37.448  1.00  0.00     0.037 A 
ATOM     51  C   UNL A   1      40.026  29.441  31.486  1.00  0.00     0.037 A 
ATOM     52  C   UNL A   1      41.689  32.059  37.212  1.00  0.00     0.049 A 
ATOM     53  C   UNL A   1      41.205  29.252  32.408  1.00  0.00     0.074 A 
ATOM     54  C   UNL A   1      42.772  31.751  38.015  1.00  0.00     0.029 A 
ATOM     55  N   UNL A   1      41.788  31.261  36.082  1.00  0.00    -0.354 N 
ATOM     56  N   UNL A   1      41.455  29.821  33.564  1.00  0.00    -0.248 NA
ATOM     57  C   UNL A   1      42.237  28.294  31.980  1.00  0.00     0.031 C 
ATOM     58  C   UNL A   1      43.556  30.805  37.348  1.00  0.00     0.029 A 
ATOM     59  C   UNL A   1      42.926  30.477  36.158  1.00  0.00     0.049 A 
ATOM     60  H   UNL A   1      41.145  31.254  35.337  1.00  0.00     0.167 HD
ATOM     61  C   UNL A   1      42.649  29.264  34.015  1.00  0.00     0.074 A 
ATOM     62  C   UNL A   1      43.069  28.309  33.012  1.00  0.00     0.031 C 
ATOM     63  C   UNL A   1      43.330  29.518  35.160  1.00  0.00     0.037 A 
BRANCH  50  64
ATOM     64  C   UNL A   1      40.692  33.846  38.698  1.00  0.00     0.057 A 
ATOM     65  C   UNL A   1      41.480  35.002  38.792  1.00  0.00     0.134 A 
ATOM     66  C   UNL A   1      39.947  33.480  39.826  1.00  0.00     0.134 A 
ATOM     67  F   UNL A   1      42.235  35.396  37.755  1.00  0.00    -0.206 F 
ATOM     68  C   UNL A   1      41.549  35.744  39.972  1.00  0.00     0.040 A 
ATOM     69  C   UNL A   1      39.984  34.230  41.001  1.00  0.00     0.040 A 
ATOM     70  F   UNL A   1      39.173  32.384  39.804  1.00  0.00    -0.206 F 
ATOM     71  C   UNL A   1      40.795  35.362  41.079  1.00  0.00     0.006 A 
ENDBRANCH  50  64
BRANCH  51  72
ATOM     72  C   UNL A   1      39.945  28.682  30.210  1.00  0.00     0.057 A 
ATOM     73  C   UNL A   1      40.544  29.160  29.039  1.00  0.00     0.134 A 
ATOM     74  C   UNL A   1      39.244  27.473  30.128  1.00  0.00     0.134 A 
ATOM     75  F   UNL A   1      41.204  30.328  29.046  1.00  0.00    -0.206 F 
ATOM     76  C   UNL A   1      40.437  28.471  27.829  1.00  0.00     0.040 A 
ATOM     77  C   UNL A   1      39.152  26.760  28.931  1.00  0.00     0.040 A 
ATOM     78  F   UNL A   1      38.643  26.964  31.213  1.00  0.00    -0.206 F 
ATOM     79  C   UNL A   1      39.745  27.263  27.775  1.00  0.00     0.006 A 
ENDBRANCH  51  72
BRANCH  63  80
ATOM     80  C   UNL A   1      44.573  28.714  35.426  1.00  0.00     0.057 A 
ATOM     81  C   UNL A   1      45.842  29.140  35.012  1.00  0.00     0.134 A 
ATOM     82  C   UNL A   1      44.502  27.516  36.149  1.00  0.00     0.134 A 
ATOM     83  F   UNL A   1      45.984  30.274  34.309  1.00  0.00    -0.206 F 
ATOM     84  C   UNL A   1      46.989  28.390  35.284  1.00  0.00     0.040 A 
ATOM     85  C   UNL A   1      45.643  26.773  36.453  1.00  0.00     0.040 A 
ATOM     86  F   UNL A   1      43.320  27.055  36.588  1.00  0.00    -0.206 F 
ATOM     87  C   UNL A   1      46.891  27.206  36.012  1.00  0.00     0.006 A 
ENDBRANCH  63  80
ENDBRANCH  37  38
ENDBRANCH  30  32
ENDBRANCH  29  30
ENDBRANCH  28  29
ENDBRANCH  27  28
ENDBRANCH  26  27
ENDBRANCH  25  26
ENDBRANCH   1  25
TORSDOF 21
ENDMDL
MODEL 2
REMARK VINA RESULT:      -9.8      2.959      5.491
REMARK SMILES CO[C@@H]1C[C@H](C(=O)OCCOCCOCCOC(=O)c2ccc(-c3c4nc(c(-c5c(F)cccc5F)c5ccc([nH]5)c(-c5c(F)cccc5F)c5nc(c(-c6c(F)cccc6F)c6ccc3[nH]6)C=C5)C=C4)cc2)N(C(=O)c2ccc([N+](=O)[O-])s2)C1
REMARK SMILES IDX 12 1 11 2 10 3 9 4 8 5 6 6 7 7 5 8 3 9 4 10 85 11 74 12 2 13
REMARK SMILES IDX 1 14 75 15 76 16 77 17 78 18 84 19 79 20 80 21 81 22 82 23
REMARK SMILES IDX 83 24 13 25 14 26 15 27 16 28 17 29 18 30 19 31 20 32 21 33
REMARK SMILES IDX 73 34 22 35 72 36 23 37 24 38 25 39 66 40 26 41 71 42 65 43
REMARK SMILES IDX 67 44 27 45 70 46 64 47 63 48 28 50 54 51 37 52 53 53 38 54
REMARK SMILES IDX 41 55 52 56 68 57 39 58 40 59 51 61 69 62 42 63 29 64 30 65
REMARK SMILES IDX 35 66 31 67 32 68 34 69 36 70 33 71 55 72 56 73 61 74 57 75
REMARK SMILES IDX 58 76 60 77 62 78 59 79 43 80 44 81 49 82 45 83 46 84 48 85
REMARK SMILES IDX 50 86 47 87
REMARK H PARENT 67 49 41 60
REMARK Flexibility Score: inf
ROOT
ATOM      1  C   UNL A   1      30.943  27.804  23.514  1.00  0.00     0.188 C 
ENDROOT
BRANCH   1   2
ATOM      2  O   UNL A   1      30.249  26.781  24.219  1.00  0.00    -0.376 OA
BRANCH   2   3
ATOM      3  C   UNL A   1      30.983  26.065  25.219  1.00  0.00     0.202 C 
BRANCH   3   4
ATOM      4  C   UNL A   1      32.490  25.880  24.971  1.00  0.00     0.261 C 
BRANCH   4   5
ATOM      5  O   UNL A   1      33.115  24.965  25.900  1.00  0.00    -0.462 OA
BRANCH   5   6
ATOM      6  C   UNL A   1      32.923  23.645  25.645  1.00  0.00     0.329 C 
ATOM      7  O   UNL A   1      32.118  23.219  24.823  1.00  0.00    -0.250 OA
BRANCH   6   8
ATOM      8  C   UNL A   1      33.952  22.725  26.344  1.00  0.00     0.198 C 
ATOM      9  C   UNL A   1      33.679  20.359  25.788  1.00  0.00     0.140 C 
ATOM     10  C   UNL A   1      33.454  21.395  26.903  1.00  0.00     0.071 C 
ATOM     11  C   UNL A   1      34.477  21.095  24.707  1.00  0.00     0.152 C 
ATOM     12  N   UNL A   1      34.929  22.317  25.343  1.00  0.00    -0.321 N 
BRANCH   9  13
ATOM     13  O   UNL A   1      32.427  19.901  25.285  1.00  0.00    -0.380 OA
ATOM     14  C   UNL A   1      32.515  18.582  24.751  1.00  0.00     0.195 C 
ENDBRANCH   9  13
BRANCH  12  15
ATOM     15  C   UNL A   1      35.972  23.067  24.817  1.00  0.00     0.265 C 
ATOM     16  O   UNL A   1      35.811  23.726  23.791  1.00  0.00    -0.268 OA
BRANCH  15  17
ATOM     17  C   UNL A   1      37.258  22.998  25.494  1.00  0.00     0.099 A 
ATOM     18  C   UNL A   1      37.911  23.968  26.237  1.00  0.00     0.033 A 
ATOM     19  S   UNL A   1      38.129  21.519  25.493  1.00  0.00    -0.058 S 
ATOM     20  C   UNL A   1      39.161  23.507  26.751  1.00  0.00     0.099 A 
ATOM     21  C   UNL A   1      39.403  22.199  26.388  1.00  0.00     0.324 A 
BRANCH  21  22
ATOM     22  N   UNL A   1      40.572  21.423  26.715  1.00  0.00     0.074 N 
ATOM     23  O   UNL A   1      41.302  21.108  25.764  1.00  0.00    -0.258 OA
ATOM     24  O   UNL A   1      40.767  21.113  27.896  1.00  0.00    -0.258 OA
ENDBRANCH  21  22
ENDBRANCH  15  17
ENDBRANCH  12  15
ENDBRANCH   6   8
ENDBRANCH   5   6
ENDBRANCH   4   5
ENDBRANCH   3   4
ENDBRANCH   2   3
ENDBRANCH   1   2
BRANCH   1  25
ATOM     25  C   UNL A   1      30.172  29.111  23.289  1.00  0.00     0.188 C 
BRANCH  25  26
ATOM     26  O   UNL A   1      30.440  30.119  24.245  1.00  0.00    -0.376 OA
BRANCH  26  27
ATOM     27  C   UNL A   1      31.435  29.874  25.238  1.00  0.00     0.202 C 
BRANCH  27  28
ATOM     28  C   UNL A   1      31.674  30.982  26.287  1.00  0.00     0.261 C 
BRANCH  28  29
ATOM     29  O   UNL A   1      32.789  30.784  27.181  1.00  0.00    -0.460 OA
BRANCH  29  30
ATOM     30  C   UNL A   1      33.538  31.863  27.498  1.00  0.00     0.338 C 
ATOM     31  O   UNL A   1      33.141  33.013  27.628  1.00  0.00    -0.246 OA
BRANCH  30  32
ATOM     32  C   UNL A   1      34.871  31.392  27.959  1.00  0.00     0.060 A 
ATOM     33  C   UNL A   1      35.063  30.009  28.107  1.00  0.00     0.016 A 
ATOM     34  C   UNL A   1      35.942  32.267  28.167  1.00  0.00     0.016 A 
ATOM     35  C   UNL A   1      36.298  29.506  28.521  1.00  0.00     0.010 A 
ATOM     36  C   UNL A   1      37.177  31.764  28.594  1.00  0.00     0.010 A 
ATOM     37  C   UNL A   1      37.348  30.385  28.818  1.00  0.00    -0.014 A 
BRANCH  37  38
ATOM     38  C   UNL A   1      38.507  29.899  29.610  1.00  0.00     0.031 A 
ATOM     39  C   UNL A   1      38.671  30.436  31.010  1.00  0.00     0.074 A 
ATOM     40  C   UNL A   1      39.378  28.987  29.141  1.00  0.00     0.049 A 
ATOM     41  N   UNL A   1      39.611  30.204  31.890  1.00  0.00    -0.248 NA
ATOM     42  C   UNL A   1      37.628  31.367  31.472  1.00  0.00     0.031 C 
ATOM     43  C   UNL A   1      39.319  28.350  27.829  1.00  0.00     0.029 A 
ATOM     44  N   UNL A   1      40.496  28.446  29.731  1.00  0.00    -0.354 N 
ATOM     45  C   UNL A   1      39.275  30.965  33.004  1.00  0.00     0.074 A 
ATOM     46  C   UNL A   1      38.069  31.693  32.675  1.00  0.00     0.031 C 
ATOM     47  C   UNL A   1      40.366  27.514  27.705  1.00  0.00     0.029 A 
ATOM     48  C   UNL A   1      41.183  27.579  28.917  1.00  0.00     0.049 A 
ATOM     49  H   UNL A   1      40.777  28.660  30.649  1.00  0.00     0.167 HD
ATOM     50  C   UNL A   1      39.903  31.046  34.200  1.00  0.00     0.037 A 
ATOM     51  C   UNL A   1      42.349  26.932  29.122  1.00  0.00     0.037 A 
ATOM     52  C   UNL A   1      41.109  30.336  34.533  1.00  0.00     0.049 A 
ATOM     53  C   UNL A   1      43.078  27.095  30.433  1.00  0.00     0.074 A 
ATOM     54  C   UNL A   1      41.820  30.352  35.719  1.00  0.00     0.029 A 
ATOM     55  N   UNL A   1      41.788  29.488  33.670  1.00  0.00    -0.354 N 
ATOM     56  N   UNL A   1      42.743  27.802  31.486  1.00  0.00    -0.248 NA
ATOM     57  C   UNL A   1      44.346  26.364  30.584  1.00  0.00     0.031 C 
ATOM     58  C   UNL A   1      42.958  29.556  35.557  1.00  0.00     0.029 A 
ATOM     59  C   UNL A   1      42.921  28.993  34.292  1.00  0.00     0.049 A 
ATOM     60  H   UNL A   1      41.506  29.272  32.752  1.00  0.00     0.167 HD
ATOM     61  C   UNL A   1      43.737  27.572  32.434  1.00  0.00     0.074 A 
ATOM     62  C   UNL A   1      44.683  26.655  31.832  1.00  0.00     0.031 C 
ATOM     63  C   UNL A   1      43.851  28.070  33.689  1.00  0.00     0.037 A 
BRANCH  50  64
ATOM     64  C   UNL A   1      39.305  31.968  35.223  1.00  0.00     0.057 A 
ATOM     65  C   UNL A   1      38.427  31.508  36.215  1.00  0.00     0.134 A 
ATOM     66  C   UNL A   1      39.608  33.335  35.213  1.00  0.00     0.134 A 
ATOM     67  F   UNL A   1      38.078  30.214  36.267  1.00  0.00    -0.206 F 
ATOM     68  C   UNL A   1      37.847  32.381  37.137  1.00  0.00     0.040 A 
ATOM     69  C   UNL A   1      39.059  34.212  36.148  1.00  0.00     0.040 A 
ATOM     70  F   UNL A   1      40.441  33.841  34.291  1.00  0.00    -0.206 F 
ATOM     71  C   UNL A   1      38.168  33.736  37.109  1.00  0.00     0.006 A 
ENDBRANCH  50  64
BRANCH  51  72
ATOM     72  C   UNL A   1      42.918  26.069  28.053  1.00  0.00     0.057 A 
ATOM     73  C   UNL A   1      42.574  24.716  27.947  1.00  0.00     0.134 A 
ATOM     74  C   UNL A   1      43.840  26.573  27.127  1.00  0.00     0.134 A 
ATOM     75  F   UNL A   1      41.719  24.168  28.823  1.00  0.00    -0.206 F 
ATOM     76  C   UNL A   1      43.136  23.892  26.970  1.00  0.00     0.040 A 
ATOM     77  C   UNL A   1      44.390  25.767  26.129  1.00  0.00     0.040 A 
ATOM     78  F   UNL A   1      44.216  27.859  27.178  1.00  0.00    -0.206 F 
ATOM     79  C   UNL A   1      44.042  24.420  26.053  1.00  0.00     0.006 A 
ENDBRANCH  51  72
BRANCH  63  80
ATOM     80  C   UNL A   1      45.007  27.596  34.528  1.00  0.00     0.057 A 
ATOM     81  C   UNL A   1      44.942  26.427  35.297  1.00  0.00     0.134 A 
ATOM     82  C   UNL A   1      46.219  28.300  34.527  1.00  0.00     0.134 A 
ATOM     83  F   UNL A   1      43.811  25.708  35.350  1.00  0.00    -0.206 F 
ATOM     84  C   UNL A   1      46.032  25.991  36.055  1.00  0.00     0.040 A 
ATOM     85  C   UNL A   1      47.323  27.859  35.257  1.00  0.00     0.040 A 
ATOM     86  F   UNL A   1      46.355  29.421  33.802  1.00  0.00    -0.206 F 
ATOM     87  C   UNL A   1      47.229  26.705  36.030  1.00  0.00     0.006 A 
ENDBRANCH  63  80
ENDBRANCH  37  38
ENDBRANCH  30  32
ENDBRANCH  29  30
ENDBRANCH  28  29
ENDBRANCH  27  28
ENDBRANCH  26  27
ENDBRANCH  25  26
ENDBRANCH   1  25
TORSDOF 21
ENDMDL
MODEL 3
REMARK VINA RESULT:      -9.8      2.414      7.180
REMARK SMILES CO[C@@H]1C[C@H](C(=O)OCCOCCOCCOC(=O)c2ccc(-c3c4nc(c(-c5c(F)cccc5F)c5ccc([nH]5)c(-c5c(F)cccc5F)c5nc(c(-c6c(F)cccc6F)c6ccc3[nH]6)C=C5)C=C4)cc2)N(C(=O)c2ccc([N+](=O)[O-])s2)C1
REMARK SMILES IDX 12 1 11 2 10 3 9 4 8 5 6 6 7 7 5 8 3 9 4 10 85 11 74 12 2 13
REMARK SMILES IDX 1 14 75 15 76 16 77 17 78 18 84 19 79 20 80 21 81 22 82 23
REMARK SMILES IDX 83 24 13 25 14 26 15 27 16 28 17 29 18 30 19 31 20 32 21 33
REMARK SMILES IDX 73 34 22 35 72 36 23 37 24 38 25 39 66 40 26 41 71 42 65 43
REMARK SMILES IDX 67 44 27 45 70 46 64 47 63 48 28 50 54 51 37 52 53 53 38 54
REMARK SMILES IDX 41 55 52 56 68 57 39 58 40 59 51 61 69 62 42 63 29 64 30 65
REMARK SMILES IDX 35 66 31 67 32 68 34 69 36 70 33 71 55 72 56 73 61 74 57 75
REMARK SMILES IDX 58 76 60 77 62 78 59 79 43 80 44 81 49 82 45 83 46 84 48 85
REMARK SMILES IDX 50 86 47 87
REMARK H PARENT 67 49 41 60
REMARK Flexibility Score: inf
ROOT
ATOM      1  C   UNL A   1      30.051  29.506  23.116  1.00  0.00     0.188 C 
ENDROOT
BRANCH   1   2
ATOM      2  O   UNL A   1      29.468  28.209  23.164  1.00  0.00    -0.376 OA
BRANCH   2   3
ATOM      3  C   UNL A   1      30.342  27.092  22.963  1.00  0.00     0.202 C 
BRANCH   3   4
ATOM      4  C   UNL A   1      31.719  27.395  22.347  1.00  0.00     0.261 C 
BRANCH   4   5
ATOM      5  O   UNL A   1      32.801  27.330  23.304  1.00  0.00    -0.462 OA
BRANCH   5   6
ATOM      6  C   UNL A   1      33.513  26.173  23.310  1.00  0.00     0.329 C 
ATOM      7  O   UNL A   1      33.804  25.546  22.295  1.00  0.00    -0.250 OA
BRANCH   6   8
ATOM      8  C   UNL A   1      34.097  25.814  24.697  1.00  0.00     0.198 C 
ATOM      9  C   UNL A   1      32.411  25.718  26.467  1.00  0.00     0.140 C 
ATOM     10  C   UNL A   1      33.565  26.572  25.911  1.00  0.00     0.071 C 
ATOM     11  C   UNL A   1      32.455  24.410  25.670  1.00  0.00     0.152 C 
ATOM     12  N   UNL A   1      33.732  24.432  24.984  1.00  0.00    -0.321 N 
BRANCH   9  13
ATOM     13  O   UNL A   1      31.170  26.394  26.285  1.00  0.00    -0.380 OA
ATOM     14  C   UNL A   1      31.293  27.801  26.483  1.00  0.00     0.195 C 
ENDBRANCH   9  13
BRANCH  12  15
ATOM     15  C   UNL A   1      34.295  23.277  24.459  1.00  0.00     0.265 C 
ATOM     16  O   UNL A   1      33.642  22.547  23.715  1.00  0.00    -0.268 OA
BRANCH  15  17
ATOM     17  C   UNL A   1      35.653  22.948  24.866  1.00  0.00     0.099 A 
ATOM     18  C   UNL A   1      36.646  23.780  25.355  1.00  0.00     0.033 A 
ATOM     19  S   UNL A   1      36.164  21.310  24.842  1.00  0.00    -0.058 S 
ATOM     20  C   UNL A   1      37.851  23.071  25.650  1.00  0.00     0.099 A 
ATOM     21  C   UNL A   1      37.720  21.724  25.384  1.00  0.00     0.324 A 
BRANCH  21  22
ATOM     22  N   UNL A   1      38.737  20.718  25.546  1.00  0.00     0.074 N 
ATOM     23  O   UNL A   1      38.441  19.575  25.167  1.00  0.00    -0.258 OA
ATOM     24  O   UNL A   1      39.817  21.042  26.054  1.00  0.00    -0.258 OA
ENDBRANCH  21  22
ENDBRANCH  15  17
ENDBRANCH  12  15
ENDBRANCH   6   8
ENDBRANCH   5   6
ENDBRANCH   4   5
ENDBRANCH   3   4
ENDBRANCH   2   3
ENDBRANCH   1   2
BRANCH   1  25
ATOM     25  C   UNL A   1      29.088  30.686  23.301  1.00  0.00     0.188 C 
BRANCH  25  26
ATOM     26  O   UNL A   1      29.448  31.576  24.341  1.00  0.00    -0.376 OA
BRANCH  26  27
ATOM     27  C   UNL A   1      30.577  31.260  25.153  1.00  0.00     0.202 C 
BRANCH  27  28
ATOM     28  C   UNL A   1      31.043  32.331  26.163  1.00  0.00     0.261 C 
BRANCH  28  29
ATOM     29  O   UNL A   1      32.235  32.022  26.915  1.00  0.00    -0.460 OA
BRANCH  29  30
ATOM     30  C   UNL A   1      32.887  33.048  27.506  1.00  0.00     0.338 C 
ATOM     31  O   UNL A   1      32.419  34.143  27.787  1.00  0.00    -0.246 OA
BRANCH  30  32
ATOM     32  C   UNL A   1      34.182  32.542  28.032  1.00  0.00     0.060 A 
ATOM     33  C   UNL A   1      34.277  31.175  28.337  1.00  0.00     0.016 A 
ATOM     34  C   UNL A   1      35.310  33.360  28.154  1.00  0.00     0.016 A 
ATOM     35  C   UNL A   1      35.473  30.638  28.820  1.00  0.00     0.010 A 
ATOM     36  C   UNL A   1      36.506  32.825  28.650  1.00  0.00     0.010 A 
ATOM     37  C   UNL A   1      36.579  31.472  29.030  1.00  0.00    -0.014 A 
BRANCH  37  38
ATOM     38  C   UNL A   1      37.699  31.000  29.885  1.00  0.00     0.031 A 
ATOM     39  C   UNL A   1      38.691  30.045  29.272  1.00  0.00     0.074 A 
ATOM     40  C   UNL A   1      37.871  31.416  31.153  1.00  0.00     0.049 A 
ATOM     41  N   UNL A   1      39.729  29.458  29.809  1.00  0.00    -0.248 NA
ATOM     42  C   UNL A   1      38.473  29.706  27.855  1.00  0.00     0.031 C 
ATOM     43  C   UNL A   1      37.020  32.368  31.861  1.00  0.00     0.029 A 
ATOM     44  N   UNL A   1      38.834  31.073  32.073  1.00  0.00    -0.354 N 
ATOM     45  C   UNL A   1      40.281  28.678  28.800  1.00  0.00     0.074 A 
ATOM     46  C   UNL A   1      39.443  28.836  27.632  1.00  0.00     0.031 C 
ATOM     47  C   UNL A   1      37.488  32.521  33.112  1.00  0.00     0.029 A 
ATOM     48  C   UNL A   1      38.654  31.658  33.303  1.00  0.00     0.049 A 
ATOM     49  H   UNL A   1      39.580  30.465  31.870  1.00  0.00     0.167 HD
ATOM     50  C   UNL A   1      41.393  27.905  28.832  1.00  0.00     0.037 A 
ATOM     51  C   UNL A   1      39.340  31.497  34.453  1.00  0.00     0.037 A 
ATOM     52  C   UNL A   1      42.226  27.732  29.991  1.00  0.00     0.049 A 
ATOM     53  C   UNL A   1      40.531  30.570  34.492  1.00  0.00     0.074 A 
ATOM     54  C   UNL A   1      43.374  26.972  30.122  1.00  0.00     0.029 A 
ATOM     55  N   UNL A   1      41.994  28.322  31.225  1.00  0.00    -0.354 N 
ATOM     56  N   UNL A   1      41.056  29.851  33.529  1.00  0.00    -0.248 NA
ATOM     57  C   UNL A   1      41.228  30.438  35.782  1.00  0.00     0.031 C 
ATOM     58  C   UNL A   1      43.807  27.058  31.448  1.00  0.00     0.029 A 
ATOM     59  C   UNL A   1      42.966  27.925  32.127  1.00  0.00     0.049 A 
ATOM     60  H   UNL A   1      41.249  28.932  31.428  1.00  0.00     0.167 HD
ATOM     61  C   UNL A   1      42.161  29.213  34.085  1.00  0.00     0.074 A 
ATOM     62  C   UNL A   1      42.235  29.635  35.468  1.00  0.00     0.031 C 
ATOM     63  C   UNL A   1      43.038  28.361  33.500  1.00  0.00     0.037 A 
BRANCH  50  64
ATOM     64  C   UNL A   1      41.744  27.164  27.575  1.00  0.00     0.057 A 
ATOM     65  C   UNL A   1      42.438  27.775  26.520  1.00  0.00     0.134 A 
ATOM     66  C   UNL A   1      41.380  25.821  27.416  1.00  0.00     0.134 A 
ATOM     67  F   UNL A   1      42.796  29.065  26.600  1.00  0.00    -0.206 F 
ATOM     68  C   UNL A   1      42.725  27.086  25.341  1.00  0.00     0.040 A 
ATOM     69  C   UNL A   1      41.689  25.114  26.254  1.00  0.00     0.040 A 
ATOM     70  F   UNL A   1      40.715  25.176  28.386  1.00  0.00    -0.206 F 
ATOM     71  C   UNL A   1      42.356  25.750  25.208  1.00  0.00     0.006 A 
ENDBRANCH  50  64
BRANCH  51  72
ATOM     72  C   UNL A   1      38.916  32.222  35.679  1.00  0.00     0.057 A 
ATOM     73  C   UNL A   1      39.247  33.567  35.883  1.00  0.00     0.134 A 
ATOM     74  C   UNL A   1      38.192  31.577  36.690  1.00  0.00     0.134 A 
ATOM     75  F   UNL A   1      39.965  34.231  34.965  1.00  0.00    -0.206 F 
ATOM     76  C   UNL A   1      38.886  34.241  37.051  1.00  0.00     0.040 A 
ATOM     77  C   UNL A   1      37.802  32.246  37.852  1.00  0.00     0.040 A 
ATOM     78  F   UNL A   1      37.850  30.287  36.560  1.00  0.00    -0.206 F 
ATOM     79  C   UNL A   1      38.155  33.581  38.037  1.00  0.00     0.006 A 
ENDBRANCH  51  72
BRANCH  63  80
ATOM     80  C   UNL A   1      44.191  27.866  34.329  1.00  0.00     0.057 A 
ATOM     81  C   UNL A   1      44.137  26.662  35.042  1.00  0.00     0.134 A 
ATOM     82  C   UNL A   1      45.392  28.588  34.377  1.00  0.00     0.134 A 
ATOM     83  F   UNL A   1      43.017  25.924  35.048  1.00  0.00    -0.206 F 
ATOM     84  C   UNL A   1      45.224  26.208  35.793  1.00  0.00     0.040 A 
ATOM     85  C   UNL A   1      46.495  28.131  35.099  1.00  0.00     0.040 A 
ATOM     86  F   UNL A   1      45.519  29.744  33.707  1.00  0.00    -0.206 F 
ATOM     87  C   UNL A   1      46.410  26.940  35.817  1.00  0.00     0.006 A 
ENDBRANCH  63  80
ENDBRANCH  37  38
ENDBRANCH  30  32
ENDBRANCH  29  30
ENDBRANCH  28  29
ENDBRANCH  27  28
ENDBRANCH  26  27
ENDBRANCH  25  26
ENDBRANCH   1  25
TORSDOF 21
ENDMDL
