MODEL 1
REMARK VINA RESULT:     -10.0      0.000      0.000
REMARK SMILES O=C(OCCOCCOCCOC(=O)c1cc([C@@H]2C=NN=C2c2ccc(F)cc2)c2c(ccc3ccccc32)n1)c1ccc(-c2c3nc(c(-c4c(F)cccc4F)c4ccc([nH]4)c(-c4c(F)cccc4F)c4nc(c(-c5c(F)cccc5F)c5ccc2[nH]5)C=C4)C=C3)cc1
REMARK SMILES IDX 7 1 6 2 5 3 4 4 3 5 2 6 1 7 41 8 42 9 94 10 43 11 93 12
REMARK SMILES IDX 44 13 45 14 46 15 87 16 47 17 92 18 86 19 88 20 48 21 91 22
REMARK SMILES IDX 85 23 84 24 49 26 75 27 58 28 74 29 59 30 62 31 73 32 89 33
REMARK SMILES IDX 60 34 61 35 72 37 90 38 63 39 50 40 51 41 56 42 52 43 53 44
REMARK SMILES IDX 55 45 57 46 54 47 76 48 77 49 82 50 78 51 79 52 81 53 83 54
REMARK SMILES IDX 80 55 64 56 65 57 70 58 66 59 67 60 69 61 71 62 68 63 8 64
REMARK SMILES IDX 9 65 10 66 11 67 12 68 13 69 14 70 15 71 16 72 40 73 17 74
REMARK SMILES IDX 31 75 30 76 32 77 39 78 33 79 34 80 38 81 35 82 37 83 36 84
REMARK SMILES IDX 18 85 19 86 22 87 20 88 21 89 23 90 24 91 29 92 25 93 28 94
REMARK SMILES IDX 26 95 27 96
REMARK H PARENT 88 25 62 36
REMARK Flexibility Score: inf
ROOT
ATOM      1  C   UNL A   1      33.668  35.628  29.012  1.00  0.00     0.188 C 
ENDROOT
BRANCH   1   2
ATOM      2  O   UNL A   1      32.654  34.771  28.508  1.00  0.00    -0.376 OA
BRANCH   2   3
ATOM      3  C   UNL A   1      33.114  33.567  27.923  1.00  0.00     0.202 C 
BRANCH   3   4
ATOM      4  C   UNL A   1      34.637  33.462  27.929  1.00  0.00     0.261 C 
BRANCH   4   5
ATOM      5  O   UNL A   1      35.172  32.241  28.477  1.00  0.00    -0.460 OA
BRANCH   5   6
ATOM      6  C   UNL A   1      35.554  31.909  29.722  1.00  0.00     0.338 C 
ATOM      7  O   UNL A   1      34.864  32.253  30.679  1.00  0.00    -0.246 OA
BRANCH   6   8
ATOM      8  C   UNL A   1      36.870  31.291  30.019  1.00  0.00     0.060 A 
ATOM      9  C   UNL A   1      38.020  31.470  29.254  1.00  0.00     0.016 A 
ATOM     10  C   UNL A   1      36.893  30.378  31.093  1.00  0.00     0.016 A 
ATOM     11  C   UNL A   1      39.145  30.689  29.500  1.00  0.00     0.010 A 
ATOM     12  C   UNL A   1      38.011  29.589  31.335  1.00  0.00     0.010 A 
ATOM     13  C   UNL A   1      39.110  29.700  30.487  1.00  0.00    -0.014 A 
BRANCH  13  14
ATOM     14  C   UNL A   1      40.191  28.718  30.474  1.00  0.00     0.031 A 
ATOM     15  C   UNL A   1      40.963  28.502  31.728  1.00  0.00     0.074 A 
ATOM     16  C   UNL A   1      40.484  28.012  29.363  1.00  0.00     0.049 A 
ATOM     17  N   UNL A   1      42.240  28.623  31.919  1.00  0.00    -0.248 NA
ATOM     18  C   UNL A   1      40.209  28.115  32.928  1.00  0.00     0.031 C 
ATOM     19  C   UNL A   1      39.690  27.888  28.136  1.00  0.00     0.029 A 
ATOM     20  N   UNL A   1      41.537  27.174  29.139  1.00  0.00    -0.354 N 
ATOM     21  C   UNL A   1      42.482  28.163  33.213  1.00  0.00     0.074 A 
ATOM     22  C   UNL A   1      41.190  27.942  33.816  1.00  0.00     0.031 C 
ATOM     23  C   UNL A   1      40.177  26.872  27.393  1.00  0.00     0.029 A 
ATOM     24  C   UNL A   1      41.386  26.370  28.021  1.00  0.00     0.049 A 
ATOM     25  H   UNL A   1      42.332  27.142  29.719  1.00  0.00     0.167 HD
ATOM     26  C   UNL A   1      43.727  27.831  33.653  1.00  0.00     0.037 A 
ATOM     27  C   UNL A   1      42.159  25.316  27.670  1.00  0.00     0.037 A 
ATOM     28  C   UNL A   1      44.765  28.463  32.887  1.00  0.00     0.049 A 
ATOM     29  C   UNL A   1      43.464  25.449  28.356  1.00  0.00     0.074 A 
ATOM     30  C   UNL A   1      45.126  29.769  32.621  1.00  0.00     0.029 A 
ATOM     31  N   UNL A   1      45.509  27.701  32.025  1.00  0.00    -0.354 N 
ATOM     32  N   UNL A   1      44.362  26.351  28.076  1.00  0.00    -0.248 NA
ATOM     33  C   UNL A   1      43.640  24.766  29.627  1.00  0.00     0.031 C 
ATOM     34  C   UNL A   1      45.683  29.747  31.310  1.00  0.00     0.029 A 
ATOM     35  C   UNL A   1      45.628  28.424  30.867  1.00  0.00     0.049 A 
ATOM     36  H   UNL A   1      45.885  26.809  32.202  1.00  0.00     0.167 HD
ATOM     37  C   UNL A   1      44.973  26.631  29.289  1.00  0.00     0.074 A 
ATOM     38  C   UNL A   1      44.576  25.543  30.174  1.00  0.00     0.031 C 
ATOM     39  C   UNL A   1      45.518  27.856  29.544  1.00  0.00     0.037 A 
BRANCH  26  40
ATOM     40  C   UNL A   1      44.005  26.708  34.620  1.00  0.00     0.057 A 
ATOM     41  C   UNL A   1      44.099  26.890  36.016  1.00  0.00     0.134 A 
ATOM     42  C   UNL A   1      43.908  25.369  34.199  1.00  0.00     0.134 A 
ATOM     43  F   UNL A   1      44.090  28.107  36.574  1.00  0.00    -0.206 F 
ATOM     44  C   UNL A   1      44.108  25.825  36.921  1.00  0.00     0.040 A 
ATOM     45  C   UNL A   1      43.866  24.297  35.100  1.00  0.00     0.040 A 
ATOM     46  F   UNL A   1      43.774  25.063  32.899  1.00  0.00    -0.206 F 
ATOM     47  C   UNL A   1      43.965  24.523  36.467  1.00  0.00     0.006 A 
ENDBRANCH  26  40
BRANCH  27  48
ATOM     48  C   UNL A   1      41.720  24.063  27.018  1.00  0.00     0.057 A 
ATOM     49  C   UNL A   1      40.575  23.370  27.452  1.00  0.00     0.134 A 
ATOM     50  C   UNL A   1      42.554  23.377  26.127  1.00  0.00     0.134 A 
ATOM     51  F   UNL A   1      39.753  23.892  28.375  1.00  0.00    -0.206 F 
ATOM     52  C   UNL A   1      40.275  22.074  27.025  1.00  0.00     0.040 A 
ATOM     53  C   UNL A   1      42.272  22.073  25.701  1.00  0.00     0.040 A 
ATOM     54  F   UNL A   1      43.694  23.935  25.694  1.00  0.00    -0.206 F 
ATOM     55  C   UNL A   1      41.133  21.415  26.155  1.00  0.00     0.006 A 
ENDBRANCH  27  48
BRANCH  39  56
ATOM     56  C   UNL A   1      45.710  28.797  28.389  1.00  0.00     0.057 A 
ATOM     57  C   UNL A   1      46.996  28.984  27.868  1.00  0.00     0.134 A 
ATOM     58  C   UNL A   1      44.697  29.634  27.899  1.00  0.00     0.134 A 
ATOM     59  F   UNL A   1      48.029  28.265  28.337  1.00  0.00    -0.206 F 
ATOM     60  C   UNL A   1      47.262  29.952  26.895  1.00  0.00     0.040 A 
ATOM     61  C   UNL A   1      44.943  30.582  26.903  1.00  0.00     0.040 A 
ATOM     62  F   UNL A   1      43.461  29.598  28.416  1.00  0.00    -0.206 F 
ATOM     63  C   UNL A   1      46.231  30.749  26.402  1.00  0.00     0.006 A 
ENDBRANCH  39  56
ENDBRANCH  13  14
ENDBRANCH   6   8
ENDBRANCH   5   6
ENDBRANCH   4   5
ENDBRANCH   3   4
ENDBRANCH   2   3
ENDBRANCH   1   2
BRANCH   1  64
ATOM     64  C   UNL A   1      33.149  36.781  29.896  1.00  0.00     0.188 C 
BRANCH  64  65
ATOM     65  O   UNL A   1      32.309  36.566  31.027  1.00  0.00    -0.376 OA
BRANCH  65  66
ATOM     66  C   UNL A   1      32.855  36.454  32.327  1.00  0.00     0.202 C 
BRANCH  66  67
ATOM     67  C   UNL A   1      33.440  35.086  32.684  1.00  0.00     0.261 C 
BRANCH  67  68
ATOM     68  O   UNL A   1      34.866  35.082  32.825  1.00  0.00    -0.459 OA
BRANCH  68  69
ATOM     69  C   UNL A   1      35.382  34.002  33.465  1.00  0.00     0.357 C 
ATOM     70  O   UNL A   1      34.813  33.244  34.231  1.00  0.00    -0.244 OA
BRANCH  69  71
ATOM     71  C   UNL A   1      36.823  33.897  33.141  1.00  0.00     0.149 A 
ATOM     72  C   UNL A   1      37.587  33.030  33.871  1.00  0.00     0.041 A 
ATOM     73  N   UNL A   1      37.271  34.513  32.036  1.00  0.00    -0.241 NA
ATOM     74  C   UNL A   1      38.871  32.663  33.399  1.00  0.00    -0.021 A 
ATOM     75  C   UNL A   1      38.505  34.234  31.603  1.00  0.00     0.072 A 
ATOM     76  C   UNL A   1      39.402  33.283  32.185  1.00  0.00     0.012 A 
ATOM     77  C   UNL A   1      38.833  34.926  30.457  1.00  0.00     0.029 A 
ATOM     78  C   UNL A   1      40.662  33.046  31.435  1.00  0.00    -0.009 A 
ATOM     79  C   UNL A   1      40.026  34.722  29.783  1.00  0.00     0.011 A 
ATOM     80  C   UNL A   1      40.936  33.784  30.245  1.00  0.00    -0.018 A 
ATOM     81  C   UNL A   1      41.672  32.108  31.751  1.00  0.00     0.009 A 
ATOM     82  C   UNL A   1      42.102  33.586  29.482  1.00  0.00     0.009 A 
ATOM     83  C   UNL A   1      42.833  31.901  30.992  1.00  0.00     0.001 A 
ATOM     84  C   UNL A   1      43.051  32.643  29.851  1.00  0.00     0.001 A 
BRANCH  74  85
ATOM     85  C   UNL A   1      39.408  31.493  34.193  1.00  0.00     0.115 C 
ATOM     86  C   UNL A   1      38.473  30.612  34.929  1.00  0.00     0.123 C 
ATOM     87  C   UNL A   1      40.420  31.713  35.273  1.00  0.00     0.083 C 
ATOM     88  N   UNL A   1      38.935  30.259  36.086  1.00  0.00    -0.162 NA
ATOM     89  N   UNL A   1      40.177  30.955  36.305  1.00  0.00    -0.154 NA
BRANCH  87  90
ATOM     90  C   UNL A   1      41.640  32.546  35.128  1.00  0.00    -0.001 A 
ATOM     91  C   UNL A   1      42.872  31.891  35.010  1.00  0.00     0.013 A 
ATOM     92  C   UNL A   1      41.612  33.948  35.099  1.00  0.00     0.013 A 
ATOM     93  C   UNL A   1      44.048  32.626  34.833  1.00  0.00     0.040 A 
ATOM     94  C   UNL A   1      42.786  34.681  34.916  1.00  0.00     0.040 A 
ATOM     95  C   UNL A   1      43.994  34.014  34.782  1.00  0.00     0.123 A 
ATOM     96  F   UNL A   1      45.120  34.718  34.609  1.00  0.00    -0.207 F 
ENDBRANCH  87  90
ENDBRANCH  74  85
ENDBRANCH  69  71
ENDBRANCH  68  69
ENDBRANCH  67  68
ENDBRANCH  66  67
ENDBRANCH  65  66
ENDBRANCH  64  65
ENDBRANCH   1  64
TORSDOF 19
ENDMDL
MODEL 2
REMARK VINA RESULT:      -9.4      2.237      6.388
REMARK SMILES O=C(OCCOCCOCCOC(=O)c1cc([C@@H]2C=NN=C2c2ccc(F)cc2)c2c(ccc3ccccc32)n1)c1ccc(-c2c3nc(c(-c4c(F)cccc4F)c4ccc([nH]4)c(-c4c(F)cccc4F)c4nc(c(-c5c(F)cccc5F)c5ccc2[nH]5)C=C4)C=C3)cc1
REMARK SMILES IDX 7 1 6 2 5 3 4 4 3 5 2 6 1 7 41 8 42 9 94 10 43 11 93 12
REMARK SMILES IDX 44 13 45 14 46 15 87 16 47 17 92 18 86 19 88 20 48 21 91 22
REMARK SMILES IDX 85 23 84 24 49 26 75 27 58 28 74 29 59 30 62 31 73 32 89 33
REMARK SMILES IDX 60 34 61 35 72 37 90 38 63 39 50 40 51 41 56 42 52 43 53 44
REMARK SMILES IDX 55 45 57 46 54 47 76 48 77 49 82 50 78 51 79 52 81 53 83 54
REMARK SMILES IDX 80 55 64 56 65 57 70 58 66 59 67 60 69 61 71 62 68 63 8 64
REMARK SMILES IDX 9 65 10 66 11 67 12 68 13 69 14 70 15 71 16 72 40 73 17 74
REMARK SMILES IDX 31 75 30 76 32 77 39 78 33 79 34 80 38 81 35 82 37 83 36 84
REMARK SMILES IDX 18 85 19 86 22 87 20 88 21 89 23 90 24 91 29 92 25 93 28 94
REMARK SMILES IDX 26 95 27 96
REMARK H PARENT 88 25 62 36
REMARK Flexibility Score: inf
ROOT
ATOM      1  C   UNL A   1      34.513  35.293  28.734  1.00  0.00     0.188 C 
ENDROOT
BRANCH   1   2
ATOM      2  O   UNL A   1      34.220  34.017  29.284  1.00  0.00    -0.376 OA
BRANCH   2   3
ATOM      3  C   UNL A   1      35.181  33.011  29.028  1.00  0.00     0.202 C 
BRANCH   3   4
ATOM      4  C   UNL A   1      35.255  31.978  30.148  1.00  0.00     0.261 C 
BRANCH   4   5
ATOM      5  O   UNL A   1      36.021  30.794  29.852  1.00  0.00    -0.460 OA
BRANCH   5   6
ATOM      6  C   UNL A   1      36.198  30.103  28.712  1.00  0.00     0.338 C 
ATOM      7  O   UNL A   1      35.262  29.983  27.925  1.00  0.00    -0.246 OA
BRANCH   6   8
ATOM      8  C   UNL A   1      37.429  29.323  28.431  1.00  0.00     0.060 A 
ATOM      9  C   UNL A   1      37.949  28.335  29.263  1.00  0.00     0.016 A 
ATOM     10  C   UNL A   1      38.156  29.713  27.287  1.00  0.00     0.016 A 
ATOM     11  C   UNL A   1      39.211  27.808  29.009  1.00  0.00     0.010 A 
ATOM     12  C   UNL A   1      39.422  29.196  27.035  1.00  0.00     0.010 A 
ATOM     13  C   UNL A   1      39.973  28.295  27.943  1.00  0.00    -0.014 A 
BRANCH  13  14
ATOM     14  C   UNL A   1      41.389  27.937  27.928  1.00  0.00     0.031 A 
ATOM     15  C   UNL A   1      41.778  26.621  27.353  1.00  0.00     0.074 A 
ATOM     16  C   UNL A   1      42.330  28.775  28.410  1.00  0.00     0.049 A 
ATOM     17  N   UNL A   1      42.429  25.654  27.922  1.00  0.00    -0.248 NA
ATOM     18  C   UNL A   1      41.375  26.342  25.968  1.00  0.00     0.031 C 
ATOM     19  C   UNL A   1      42.182  30.191  28.764  1.00  0.00     0.029 A 
ATOM     20  N   UNL A   1      43.660  28.543  28.602  1.00  0.00    -0.354 N 
ATOM     21  C   UNL A   1      42.672  24.713  26.922  1.00  0.00     0.074 A 
ATOM     22  C   UNL A   1      41.931  25.147  25.763  1.00  0.00     0.031 C 
ATOM     23  C   UNL A   1      43.405  30.739  28.922  1.00  0.00     0.029 A 
ATOM     24  C   UNL A   1      44.405  29.691  28.815  1.00  0.00     0.049 A 
ATOM     25  H   UNL A   1      44.056  27.642  28.589  1.00  0.00     0.167 HD
ATOM     26  C   UNL A   1      43.602  23.726  27.053  1.00  0.00     0.037 A 
ATOM     27  C   UNL A   1      45.754  29.791  28.833  1.00  0.00     0.037 A 
ATOM     28  C   UNL A   1      43.905  23.440  28.428  1.00  0.00     0.049 A 
ATOM     29  C   UNL A   1      46.316  28.447  29.093  1.00  0.00     0.074 A 
ATOM     30  C   UNL A   1      43.180  23.006  29.520  1.00  0.00     0.029 A 
ATOM     31  N   UNL A   1      45.116  23.837  28.935  1.00  0.00    -0.354 N 
ATOM     32  N   UNL A   1      46.230  27.813  30.228  1.00  0.00    -0.248 NA
ATOM     33  C   UNL A   1      46.693  27.631  27.950  1.00  0.00     0.031 C 
ATOM     34  C   UNL A   1      43.799  23.613  30.650  1.00  0.00     0.029 A 
ATOM     35  C   UNL A   1      44.865  24.375  30.170  1.00  0.00     0.049 A 
ATOM     36  H   UNL A   1      45.994  23.751  28.498  1.00  0.00     0.167 HD
ATOM     37  C   UNL A   1      46.150  26.473  29.882  1.00  0.00     0.074 A 
ATOM     38  C   UNL A   1      46.563  26.416  28.485  1.00  0.00     0.031 C 
ATOM     39  C   UNL A   1      45.495  25.573  30.672  1.00  0.00     0.037 A 
BRANCH  26  40
ATOM     40  C   UNL A   1      44.440  23.203  25.914  1.00  0.00     0.057 A 
ATOM     41  C   UNL A   1      45.467  23.948  25.300  1.00  0.00     0.134 A 
ATOM     42  C   UNL A   1      44.422  21.833  25.591  1.00  0.00     0.134 A 
ATOM     43  F   UNL A   1      45.679  25.238  25.591  1.00  0.00    -0.206 F 
ATOM     44  C   UNL A   1      46.397  23.381  24.424  1.00  0.00     0.040 A 
ATOM     45  C   UNL A   1      45.379  21.244  24.754  1.00  0.00     0.040 A 
ATOM     46  F   UNL A   1      43.518  21.007  26.140  1.00  0.00    -0.206 F 
ATOM     47  C   UNL A   1      46.372  22.019  24.167  1.00  0.00     0.006 A 
ENDBRANCH  26  40
BRANCH  27  48
ATOM     48  C   UNL A   1      46.574  30.920  28.341  1.00  0.00     0.057 A 
ATOM     49  C   UNL A   1      47.079  31.899  29.217  1.00  0.00     0.134 A 
ATOM     50  C   UNL A   1      46.668  31.210  26.975  1.00  0.00     0.134 A 
ATOM     51  F   UNL A   1      46.960  31.771  30.547  1.00  0.00    -0.206 F 
ATOM     52  C   UNL A   1      47.643  33.094  28.763  1.00  0.00     0.040 A 
ATOM     53  C   UNL A   1      47.219  32.409  26.507  1.00  0.00     0.040 A 
ATOM     54  F   UNL A   1      46.172  30.361  26.064  1.00  0.00    -0.206 F 
ATOM     55  C   UNL A   1      47.703  33.358  27.402  1.00  0.00     0.006 A 
ENDBRANCH  27  48
BRANCH  39  56
ATOM     56  C   UNL A   1      45.122  25.997  32.065  1.00  0.00     0.057 A 
ATOM     57  C   UNL A   1      45.908  25.571  33.141  1.00  0.00     0.134 A 
ATOM     58  C   UNL A   1      43.929  26.665  32.373  1.00  0.00     0.134 A 
ATOM     59  F   UNL A   1      47.031  24.866  32.924  1.00  0.00    -0.206 F 
ATOM     60  C   UNL A   1      45.532  25.807  34.467  1.00  0.00     0.040 A 
ATOM     61  C   UNL A   1      43.558  26.938  33.692  1.00  0.00     0.040 A 
ATOM     62  F   UNL A   1      43.063  27.014  31.412  1.00  0.00    -0.206 F 
ATOM     63  C   UNL A   1      44.358  26.502  34.746  1.00  0.00     0.006 A 
ENDBRANCH  39  56
ENDBRANCH  13  14
ENDBRANCH   6   8
ENDBRANCH   5   6
ENDBRANCH   4   5
ENDBRANCH   3   4
ENDBRANCH   2   3
ENDBRANCH   1   2
BRANCH   1  64
ATOM     64  C   UNL A   1      33.310  36.258  28.679  1.00  0.00     0.188 C 
BRANCH  64  65
ATOM     65  O   UNL A   1      32.428  36.452  29.782  1.00  0.00    -0.376 OA
BRANCH  65  66
ATOM     66  C   UNL A   1      32.932  36.685  31.083  1.00  0.00     0.202 C 
BRANCH  66  67
ATOM     67  C   UNL A   1      32.622  35.601  32.117  1.00  0.00     0.261 C 
BRANCH  67  68
ATOM     68  O   UNL A   1      33.770  34.849  32.533  1.00  0.00    -0.459 OA
BRANCH  68  69
ATOM     69  C   UNL A   1      34.542  35.445  33.475  1.00  0.00     0.357 C 
ATOM     70  O   UNL A   1      34.395  36.546  33.977  1.00  0.00    -0.244 OA
BRANCH  69  71
ATOM     71  C   UNL A   1      35.686  34.558  33.787  1.00  0.00     0.149 A 
ATOM     72  C   UNL A   1      36.540  34.225  32.772  1.00  0.00     0.041 A 
ATOM     73  N   UNL A   1      35.936  34.274  35.074  1.00  0.00    -0.241 NA
ATOM     74  C   UNL A   1      37.801  33.656  33.079  1.00  0.00    -0.021 A 
ATOM     75  C   UNL A   1      37.092  33.678  35.386  1.00  0.00     0.072 A 
ATOM     76  C   UNL A   1      38.139  33.348  34.467  1.00  0.00     0.012 A 
ATOM     77  C   UNL A   1      37.224  33.453  36.739  1.00  0.00     0.029 A 
ATOM     78  C   UNL A   1      39.387  32.823  35.079  1.00  0.00    -0.009 A 
ATOM     79  C   UNL A   1      38.380  32.931  37.295  1.00  0.00     0.011 A 
ATOM     80  C   UNL A   1      39.466  32.628  36.490  1.00  0.00    -0.018 A 
ATOM     81  C   UNL A   1      40.587  32.497  34.405  1.00  0.00     0.009 A 
ATOM     82  C   UNL A   1      40.629  32.154  37.125  1.00  0.00     0.009 A 
ATOM     83  C   UNL A   1      41.752  32.032  35.033  1.00  0.00     0.001 A 
ATOM     84  C   UNL A   1      41.774  31.858  36.400  1.00  0.00     0.001 A 
BRANCH  74  85
ATOM     85  C   UNL A   1      38.682  33.642  31.850  1.00  0.00     0.115 C 
ATOM     86  C   UNL A   1      38.422  34.592  30.745  1.00  0.00     0.123 C 
ATOM     87  C   UNL A   1      38.840  32.388  31.047  1.00  0.00     0.083 C 
ATOM     88  N   UNL A   1      38.580  34.050  29.580  1.00  0.00    -0.162 NA
ATOM     89  N   UNL A   1      38.851  32.647  29.770  1.00  0.00    -0.154 NA
BRANCH  87  90
ATOM     90  C   UNL A   1      39.123  31.050  31.622  1.00  0.00    -0.001 A 
ATOM     91  C   UNL A   1      40.410  30.521  31.451  1.00  0.00     0.013 A 
ATOM     92  C   UNL A   1      38.171  30.299  32.325  1.00  0.00     0.013 A 
ATOM     93  C   UNL A   1      40.742  29.282  32.005  1.00  0.00     0.040 A 
ATOM     94  C   UNL A   1      38.505  29.063  32.882  1.00  0.00     0.040 A 
ATOM     95  C   UNL A   1      39.789  28.566  32.720  1.00  0.00     0.123 A 
ATOM     96  F   UNL A   1      40.108  27.380  33.253  1.00  0.00    -0.207 F 
ENDBRANCH  87  90
ENDBRANCH  74  85
ENDBRANCH  69  71
ENDBRANCH  68  69
ENDBRANCH  67  68
ENDBRANCH  66  67
ENDBRANCH  65  66
ENDBRANCH  64  65
ENDBRANCH   1  64
TORSDOF 19
ENDMDL
MODEL 3
REMARK VINA RESULT:      -8.6      5.767     11.413
REMARK SMILES O=C(OCCOCCOCCOC(=O)c1cc([C@@H]2C=NN=C2c2ccc(F)cc2)c2c(ccc3ccccc32)n1)c1ccc(-c2c3nc(c(-c4c(F)cccc4F)c4ccc([nH]4)c(-c4c(F)cccc4F)c4nc(c(-c5c(F)cccc5F)c5ccc2[nH]5)C=C4)C=C3)cc1
REMARK SMILES IDX 7 1 6 2 5 3 4 4 3 5 2 6 1 7 41 8 42 9 94 10 43 11 93 12
REMARK SMILES IDX 44 13 45 14 46 15 87 16 47 17 92 18 86 19 88 20 48 21 91 22
REMARK SMILES IDX 85 23 84 24 49 26 75 27 58 28 74 29 59 30 62 31 73 32 89 33
REMARK SMILES IDX 60 34 61 35 72 37 90 38 63 39 50 40 51 41 56 42 52 43 53 44
REMARK SMILES IDX 55 45 57 46 54 47 76 48 77 49 82 50 78 51 79 52 81 53 83 54
REMARK SMILES IDX 80 55 64 56 65 57 70 58 66 59 67 60 69 61 71 62 68 63 8 64
REMARK SMILES IDX 9 65 10 66 11 67 12 68 13 69 14 70 15 71 16 72 40 73 17 74
REMARK SMILES IDX 31 75 30 76 32 77 39 78 33 79 34 80 38 81 35 82 37 83 36 84
REMARK SMILES IDX 18 85 19 86 22 87 20 88 21 89 23 90 24 91 29 92 25 93 28 94
REMARK SMILES IDX 26 95 27 96
REMARK H PARENT 88 25 62 36
REMARK Flexibility Score: inf
ROOT
ATOM      1  C   UNL A   1      38.658  21.071  25.698  1.00  0.00     0.188 C 
ENDROOT
BRANCH   1   2
ATOM      2  O   UNL A   1      39.926  21.545  26.127  1.00  0.00    -0.376 OA
BRANCH   2   3
ATOM      3  C   UNL A   1      40.670  20.646  26.928  1.00  0.00     0.202 C 
BRANCH   3   4
ATOM      4  C   UNL A   1      41.398  19.592  26.096  1.00  0.00     0.261 C 
BRANCH   4   5
ATOM      5  O   UNL A   1      42.836  19.695  26.086  1.00  0.00    -0.460 OA
BRANCH   5   6
ATOM      6  C   UNL A   1      43.673  20.492  25.400  1.00  0.00     0.338 C 
ATOM      7  O   UNL A   1      44.429  20.001  24.565  1.00  0.00    -0.246 OA
BRANCH   6   8
ATOM      8  C   UNL A   1      43.855  21.929  25.723  1.00  0.00     0.060 A 
ATOM      9  C   UNL A   1      44.616  22.413  26.783  1.00  0.00     0.016 A 
ATOM     10  C   UNL A   1      43.100  22.834  24.947  1.00  0.00     0.016 A 
ATOM     11  C   UNL A   1      44.558  23.762  27.120  1.00  0.00     0.010 A 
ATOM     12  C   UNL A   1      43.032  24.180  25.287  1.00  0.00     0.010 A 
ATOM     13  C   UNL A   1      43.708  24.623  26.421  1.00  0.00    -0.014 A 
BRANCH  13  14
ATOM     14  C   UNL A   1      43.456  25.931  27.022  1.00  0.00     0.031 A 
ATOM     15  C   UNL A   1      44.449  27.016  26.795  1.00  0.00     0.074 A 
ATOM     16  C   UNL A   1      42.349  26.163  27.757  1.00  0.00     0.049 A 
ATOM     17  N   UNL A   1      45.108  27.701  27.675  1.00  0.00    -0.248 NA
ATOM     18  C   UNL A   1      44.756  27.370  25.402  1.00  0.00     0.031 C 
ATOM     19  C   UNL A   1      41.150  25.325  27.872  1.00  0.00     0.029 A 
ATOM     20  N   UNL A   1      42.033  27.263  28.498  1.00  0.00    -0.354 N 
ATOM     21  C   UNL A   1      45.786  28.692  26.965  1.00  0.00     0.074 A 
ATOM     22  C   UNL A   1      45.600  28.390  25.566  1.00  0.00     0.031 C 
ATOM     23  C   UNL A   1      40.165  26.040  28.458  1.00  0.00     0.029 A 
ATOM     24  C   UNL A   1      40.703  27.322  28.877  1.00  0.00     0.049 A 
ATOM     25  H   UNL A   1      42.691  27.955  28.741  1.00  0.00     0.167 HD
ATOM     26  C   UNL A   1      46.315  29.794  27.564  1.00  0.00     0.037 A 
ATOM     27  C   UNL A   1      40.063  28.377  29.433  1.00  0.00     0.037 A 
ATOM     28  C   UNL A   1      46.562  29.589  28.965  1.00  0.00     0.049 A 
ATOM     29  C   UNL A   1      41.079  29.269  30.037  1.00  0.00     0.074 A 
ATOM     30  C   UNL A   1      47.340  28.720  29.704  1.00  0.00     0.029 A 
ATOM     31  N   UNL A   1      45.749  30.208  29.878  1.00  0.00    -0.354 N 
ATOM     32  N   UNL A   1      41.781  28.985  31.097  1.00  0.00    -0.248 NA
ATOM     33  C   UNL A   1      41.575  30.378  29.238  1.00  0.00     0.031 C 
ATOM     34  C   UNL A   1      46.626  28.514  30.919  1.00  0.00     0.029 A 
ATOM     35  C   UNL A   1      45.460  29.277  30.841  1.00  0.00     0.049 A 
ATOM     36  H   UNL A   1      45.434  31.141  29.849  1.00  0.00     0.167 HD
ATOM     37  C   UNL A   1      43.005  29.601  30.888  1.00  0.00     0.074 A 
ATOM     38  C   UNL A   1      42.776  30.539  29.795  1.00  0.00     0.031 C 
ATOM     39  C   UNL A   1      44.154  29.102  31.430  1.00  0.00     0.037 A 
BRANCH  26  40
ATOM     40  C   UNL A   1      46.359  31.160  26.927  1.00  0.00     0.057 A 
ATOM     41  C   UNL A   1      45.204  31.900  26.597  1.00  0.00     0.134 A 
ATOM     42  C   UNL A   1      47.564  31.885  26.885  1.00  0.00     0.134 A 
ATOM     43  F   UNL A   1      43.975  31.378  26.697  1.00  0.00    -0.206 F 
ATOM     44  C   UNL A   1      45.244  33.251  26.242  1.00  0.00     0.040 A 
ATOM     45  C   UNL A   1      47.610  33.251  26.578  1.00  0.00     0.040 A 
ATOM     46  F   UNL A   1      48.728  31.306  27.215  1.00  0.00    -0.206 F 
ATOM     47  C   UNL A   1      46.447  33.940  26.256  1.00  0.00     0.006 A 
ENDBRANCH  26  40
BRANCH  27  48
ATOM     48  C   UNL A   1      38.663  28.796  29.207  1.00  0.00     0.057 A 
ATOM     49  C   UNL A   1      38.261  29.398  27.999  1.00  0.00     0.134 A 
ATOM     50  C   UNL A   1      37.742  28.853  30.259  1.00  0.00     0.134 A 
ATOM     51  F   UNL A   1      39.096  29.484  26.953  1.00  0.00    -0.206 F 
ATOM     52  C   UNL A   1      37.019  30.019  27.847  1.00  0.00     0.040 A 
ATOM     53  C   UNL A   1      36.499  29.484  30.124  1.00  0.00     0.040 A 
ATOM     54  F   UNL A   1      38.051  28.350  31.463  1.00  0.00    -0.206 F 
ATOM     55  C   UNL A   1      36.137  30.074  28.917  1.00  0.00     0.006 A 
ENDBRANCH  27  48
BRANCH  39  56
ATOM     56  C   UNL A   1      44.032  28.052  32.498  1.00  0.00     0.057 A 
ATOM     57  C   UNL A   1      44.121  28.431  33.842  1.00  0.00     0.134 A 
ATOM     58  C   UNL A   1      43.998  26.677  32.225  1.00  0.00     0.134 A 
ATOM     59  F   UNL A   1      44.225  29.728  34.175  1.00  0.00    -0.206 F 
ATOM     60  C   UNL A   1      44.163  27.487  34.872  1.00  0.00     0.040 A 
ATOM     61  C   UNL A   1      44.005  25.724  33.246  1.00  0.00     0.040 A 
ATOM     62  F   UNL A   1      44.021  26.221  30.965  1.00  0.00    -0.206 F 
ATOM     63  C   UNL A   1      44.095  26.127  34.576  1.00  0.00     0.006 A 
ENDBRANCH  39  56
ENDBRANCH  13  14
ENDBRANCH   6   8
ENDBRANCH   5   6
ENDBRANCH   4   5
ENDBRANCH   3   4
ENDBRANCH   2   3
ENDBRANCH   1   2
BRANCH   1  64
ATOM     64  C   UNL A   1      37.663  22.181  25.299  1.00  0.00     0.188 C 
BRANCH  64  65
ATOM     65  O   UNL A   1      37.038  22.230  24.019  1.00  0.00    -0.376 OA
BRANCH  65  66
ATOM     66  C   UNL A   1      35.915  23.059  23.789  1.00  0.00     0.202 C 
BRANCH  66  67
ATOM     67  C   UNL A   1      35.556  23.294  22.321  1.00  0.00     0.261 C 
BRANCH  67  68
ATOM     68  O   UNL A   1      34.234  22.862  21.969  1.00  0.00    -0.459 OA
BRANCH  68  69
ATOM     69  C   UNL A   1      33.508  23.752  21.246  1.00  0.00     0.357 C 
ATOM     70  O   UNL A   1      33.327  23.766  20.041  1.00  0.00    -0.244 OA
BRANCH  69  71
ATOM     71  C   UNL A   1      32.984  24.794  22.158  1.00  0.00     0.149 A 
ATOM     72  C   UNL A   1      31.933  24.471  22.971  1.00  0.00     0.041 A 
ATOM     73  N   UNL A   1      33.674  25.938  22.276  1.00  0.00    -0.241 NA
ATOM     74  C   UNL A   1      31.612  25.313  24.065  1.00  0.00    -0.021 A 
ATOM     75  C   UNL A   1      33.351  26.782  23.262  1.00  0.00     0.072 A 
ATOM     76  C   UNL A   1      32.348  26.561  24.260  1.00  0.00     0.012 A 
ATOM     77  C   UNL A   1      34.143  27.910  23.276  1.00  0.00     0.029 A 
ATOM     78  C   UNL A   1      32.276  27.583  25.334  1.00  0.00    -0.009 A 
ATOM     79  C   UNL A   1      34.045  28.874  24.265  1.00  0.00     0.011 A 
ATOM     80  C   UNL A   1      33.137  28.721  25.300  1.00  0.00    -0.018 A 
ATOM     81  C   UNL A   1      31.434  27.559  26.470  1.00  0.00     0.009 A 
ATOM     82  C   UNL A   1      33.127  29.709  26.303  1.00  0.00     0.009 A 
ATOM     83  C   UNL A   1      31.424  28.537  27.476  1.00  0.00     0.001 A 
ATOM     84  C   UNL A   1      32.275  29.618  27.393  1.00  0.00     0.001 A 
BRANCH  74  85
ATOM     85  C   UNL A   1      30.627  24.626  24.983  1.00  0.00     0.115 C 
ATOM     86  C   UNL A   1      29.606  25.425  25.698  1.00  0.00     0.123 C 
ATOM     87  C   UNL A   1      31.114  23.792  26.127  1.00  0.00     0.083 C 
ATOM     88  N   UNL A   1      29.421  25.015  26.913  1.00  0.00    -0.162 NA
ATOM     89  N   UNL A   1      30.377  23.973  27.187  1.00  0.00    -0.154 NA
BRANCH  87  90
ATOM     90  C   UNL A   1      32.180  22.764  26.027  1.00  0.00    -0.001 A 
ATOM     91  C   UNL A   1      32.056  21.785  25.033  1.00  0.00     0.013 A 
ATOM     92  C   UNL A   1      33.298  22.734  26.872  1.00  0.00     0.013 A 
ATOM     93  C   UNL A   1      33.050  20.816  24.870  1.00  0.00     0.040 A 
ATOM     94  C   UNL A   1      34.293  21.770  26.705  1.00  0.00     0.040 A 
ATOM     95  C   UNL A   1      34.163  20.820  25.704  1.00  0.00     0.123 A 
ATOM     96  F   UNL A   1      35.116  19.894  25.546  1.00  0.00    -0.207 F 
ENDBRANCH  87  90
ENDBRANCH  74  85
ENDBRANCH  69  71
ENDBRANCH  68  69
ENDBRANCH  67  68
ENDBRANCH  66  67
ENDBRANCH  65  66
ENDBRANCH  64  65
ENDBRANCH   1  64
TORSDOF 19
ENDMDL
