MODEL 1
REMARK VINA RESULT:     -13.5      0.000      0.000
REMARK SMILES N#C/C(=C/c1cccc(OCC(=O)OCCOCCOCCOC(=O)c2ccc(-c3c4nc(c(-c5c(F)cccc5F)c5ccc([nH]5)c(-c5c(F)cccc5F)c5nc(c(-c6c(F)cccc6F)c6ccc3[nH]6)C=C5)C=C4)cc2)c1)c1nc2ccccc2[nH]1
REMARK SMILES IDX 18 1 17 2 16 3 15 4 14 5 12 6 13 7 11 8 10 9 9 10 5 11 6 12
REMARK SMILES IDX 80 13 7 14 8 15 4 16 3 17 2 18 1 19 81 20 82 21 89 22 83 23
REMARK SMILES IDX 88 24 84 26 87 27 85 28 86 29 19 30 20 31 21 32 22 33 23 34
REMARK SMILES IDX 24 35 25 36 26 37 27 38 79 39 28 40 78 41 29 42 30 43 31 44
REMARK SMILES IDX 72 45 32 46 77 47 71 48 73 49 33 50 76 51 70 52 69 53 34 55
REMARK SMILES IDX 60 56 43 57 59 58 44 59 47 60 58 61 74 62 45 63 46 64 57 66
REMARK SMILES IDX 75 67 48 68 35 69 36 70 41 71 37 72 38 73 40 74 42 75 39 76
REMARK SMILES IDX 61 77 62 78 67 79 63 80 64 81 66 82 68 83 65 84 49 85 50 86
REMARK SMILES IDX 55 87 51 88 52 89 54 90 56 91 53 92
REMARK H PARENT 89 25 73 54 47 65
REMARK Flexibility Score: inf
ROOT
ATOM      1  C   UNL A   1      31.715  28.944  23.029  1.00  0.00     0.188 C 
ENDROOT
BRANCH   1   2
ATOM      2  O   UNL A   1      33.120  27.498  22.540  1.00  0.00    -0.376 OA
BRANCH   2   3
ATOM      3  C   UNL A   1      32.881  26.213  21.574  1.00  0.00     0.202 C 
BRANCH   3   4
ATOM      4  C   UNL A   1      31.632  25.193  22.251  1.00  0.00     0.261 C 
BRANCH   4   5
ATOM      5  O   UNL A   1      32.239  23.398  23.004  1.00  0.00    -0.461 OA
BRANCH   5   6
ATOM      6  C   UNL A   1      32.832  21.974  23.021  1.00  0.00     0.344 C 
ATOM      7  O   UNL A   1      33.765  21.667  23.781  1.00  0.00    -0.248 OA
BRANCH   6   8
ATOM      8  C   UNL A   1      31.980  20.541  22.273  1.00  0.00     0.351 C 
BRANCH   8   9
ATOM      9  O   UNL A   1      31.856  19.086  22.451  1.00  0.00    -0.482 OA
BRANCH   9  10
ATOM     10  C   UNL A   1      32.650  18.122  23.119  1.00  0.00     0.120 A 
ATOM     11  C   UNL A   1      34.813  17.782  24.401  1.00  0.00    -0.021 A 
ATOM     12  C   UNL A   1      34.124  17.152  25.430  1.00  0.00     0.008 A 
ATOM     13  C   UNL A   1      34.052  17.905  23.098  1.00  0.00     0.054 A 
ATOM     14  C   UNL A   1      32.733  16.956  25.281  1.00  0.00     0.004 A 
ATOM     15  C   UNL A   1      32.005  17.505  24.191  1.00  0.00     0.046 A 
BRANCH  11  16
ATOM     16  C   UNL A   1      36.184  18.968  24.916  1.00  0.00     0.031 C 
ATOM     17  C   UNL A   1      36.349  20.720  25.605  1.00  0.00     0.095 C 
BRANCH  17  18
ATOM     18  C   UNL A   1      37.709  21.382  25.451  1.00  0.00     0.103 C 
ATOM     19  N   UNL A   1      38.835  21.931  25.323  1.00  0.00    -0.192 NA
ENDBRANCH  17  18
BRANCH  17  20
ATOM     20  C   UNL A   1      35.246  21.745  26.540  1.00  0.00     0.149 A 
ATOM     21  N   UNL A   1      33.675  21.363  27.122  1.00  0.00    -0.228 NA
ATOM     22  N   UNL A   1      35.218  23.532  26.083  1.00  0.00    -0.337 N 
ATOM     23  C   UNL A   1      32.386  22.790  26.857  1.00  0.00     0.089 A 
ATOM     24  C   UNL A   1      33.511  24.217  26.163  1.00  0.00     0.066 A 
ATOM     25  H   UNL A   1      36.014  24.053  25.828  1.00  0.00     0.168 HD
ATOM     26  C   UNL A   1      30.615  23.009  26.834  1.00  0.00     0.030 A 
ATOM     27  C   UNL A   1      32.740  25.757  25.725  1.00  0.00     0.028 A 
ATOM     28  C   UNL A   1      29.932  24.564  26.344  1.00  0.00     0.002 A 
ATOM     29  C   UNL A   1      30.958  25.907  25.861  1.00  0.00     0.002 A 
ENDBRANCH  17  20
ENDBRANCH  11  16
ENDBRANCH   9  10
ENDBRANCH   8   9
ENDBRANCH   6   8
ENDBRANCH   5   6
ENDBRANCH   4   5
ENDBRANCH   3   4
ENDBRANCH   2   3
ENDBRANCH   1   2
BRANCH   1  30
ATOM     30  C   UNL A   1      31.425  29.414  24.843  1.00  0.00     0.188 C 
BRANCH  30  31
ATOM     31  O   UNL A   1      31.383  30.669  25.567  1.00  0.00    -0.376 OA
BRANCH  31  32
ATOM     32  C   UNL A   1      31.898  30.980  26.860  1.00  0.00     0.202 C 
BRANCH  32  33
ATOM     33  C   UNL A   1      33.395  31.250  27.084  1.00  0.00     0.261 C 
BRANCH  33  34
ATOM     34  O   UNL A   1      33.893  30.674  28.274  1.00  0.00    -0.460 OA
BRANCH  34  35
ATOM     35  C   UNL A   1      34.889  31.422  28.785  1.00  0.00     0.338 C 
ATOM     36  O   UNL A   1      34.936  32.634  28.847  1.00  0.00    -0.246 OA
BRANCH  35  37
ATOM     37  C   UNL A   1      35.944  30.451  29.111  1.00  0.00     0.060 A 
ATOM     38  C   UNL A   1      36.670  29.739  30.742  1.00  0.00     0.016 A 
ATOM     39  C   UNL A   1      36.886  30.185  27.559  1.00  0.00     0.016 A 
ATOM     40  C   UNL A   1      38.345  28.830  30.701  1.00  0.00     0.010 A 
ATOM     41  C   UNL A   1      38.520  29.394  27.556  1.00  0.00     0.010 A 
ATOM     42  C   UNL A   1      39.301  28.750  29.101  1.00  0.00    -0.014 A 
BRANCH  42  43
ATOM     43  C   UNL A   1      40.814  28.442  28.957  1.00  0.00     0.031 A 
ATOM     44  C   UNL A   1      41.979  29.481  29.074  1.00  0.00     0.074 A 
ATOM     45  C   UNL A   1      41.198  27.192  28.641  1.00  0.00     0.049 A 
ATOM     46  N   UNL A   1      43.276  29.329  28.827  1.00  0.00    -0.248 NA
ATOM     47  C   UNL A   1      41.669  30.846  29.528  1.00  0.00     0.031 C 
ATOM     48  C   UNL A   1      40.291  26.074  28.441  1.00  0.00     0.029 A 
ATOM     49  N   UNL A   1      42.450  26.661  28.404  1.00  0.00    -0.354 N 
ATOM     50  C   UNL A   1      43.904  30.564  29.058  1.00  0.00     0.074 A 
ATOM     51  C   UNL A   1      42.841  31.469  29.437  1.00  0.00     0.031 C 
ATOM     52  C   UNL A   1      41.002  24.981  28.149  1.00  0.00     0.029 A 
ATOM     53  C   UNL A   1      42.417  25.337  28.037  1.00  0.00     0.049 A 
ATOM     54  H   UNL A   1      43.283  27.178  28.489  1.00  0.00     0.167 HD
ATOM     55  C   UNL A   1      45.221  30.933  28.990  1.00  0.00     0.037 A 
ATOM     56  C   UNL A   1      43.373  24.491  27.602  1.00  0.00     0.037 A 
ATOM     57  C   UNL A   1      46.328  30.056  28.656  1.00  0.00     0.049 A 
ATOM     58  C   UNL A   1      44.806  24.917  27.471  1.00  0.00     0.074 A 
ATOM     59  C   UNL A   1      47.689  30.344  28.635  1.00  0.00     0.029 A 
ATOM     60  N   UNL A   1      46.213  28.730  28.274  1.00  0.00    -0.354 N 
ATOM     61  N   UNL A   1      45.355  26.077  27.726  1.00  0.00    -0.248 NA
ATOM     62  C   UNL A   1      45.756  23.901  26.989  1.00  0.00     0.031 C 
ATOM     63  C   UNL A   1      48.383  29.223  28.165  1.00  0.00     0.029 A 
ATOM     64  C   UNL A   1      47.467  28.206  27.975  1.00  0.00     0.049 A 
ATOM     65  H   UNL A   1      45.366  28.231  28.221  1.00  0.00     0.167 HD
ATOM     66  C   UNL A   1      46.712  25.925  27.456  1.00  0.00     0.074 A 
ATOM     67  C   UNL A   1      46.908  24.554  27.040  1.00  0.00     0.031 C 
ATOM     68  C   UNL A   1      47.698  26.848  27.548  1.00  0.00     0.037 A 
BRANCH  55  69
ATOM     69  C   UNL A   1      45.597  32.382  29.280  1.00  0.00     0.057 A 
ATOM     70  C   UNL A   1      45.478  33.397  28.321  1.00  0.00     0.134 A 
ATOM     71  C   UNL A   1      45.969  32.788  30.575  1.00  0.00     0.134 A 
ATOM     72  F   UNL A   1      45.094  33.106  27.069  1.00  0.00    -0.206 F 
ATOM     73  C   UNL A   1      45.762  34.737  28.619  1.00  0.00     0.040 A 
ATOM     74  C   UNL A   1      46.219  34.128  30.895  1.00  0.00     0.040 A 
ATOM     75  F   UNL A   1      46.055  31.893  31.571  1.00  0.00    -0.206 F 
ATOM     76  C   UNL A   1      46.130  35.107  29.910  1.00  0.00     0.006 A 
ENDBRANCH  55  69
BRANCH  56  77
ATOM     77  C   UNL A   1      42.969  23.114  27.219  1.00  0.00     0.057 A 
ATOM     78  C   UNL A   1      42.683  22.145  28.185  1.00  0.00     0.134 A 
ATOM     79  C   UNL A   1      42.816  22.756  25.872  1.00  0.00     0.134 A 
ATOM     80  F   UNL A   1      42.835  22.423  29.488  1.00  0.00    -0.206 F 
ATOM     81  C   UNL A   1      42.259  20.866  27.826  1.00  0.00     0.040 A 
ATOM     82  C   UNL A   1      42.353  21.496  25.502  1.00  0.00     0.040 A 
ATOM     83  F   UNL A   1      43.064  23.647  24.901  1.00  0.00    -0.206 F 
ATOM     84  C   UNL A   1      42.079  20.543  26.481  1.00  0.00     0.006 A 
ENDBRANCH  56  77
BRANCH  68  85
ATOM     85  C   UNL A   1      49.105  26.408  27.230  1.00  0.00     0.057 A 
ATOM     86  C   UNL A   1      49.602  26.382  25.919  1.00  0.00     0.134 A 
ATOM     87  C   UNL A   1      49.979  26.000  28.248  1.00  0.00     0.134 A 
ATOM     88  F   UNL A   1      48.822  26.745  24.889  1.00  0.00    -0.206 F 
ATOM     89  C   UNL A   1      50.895  25.936  25.630  1.00  0.00     0.040 A 
ATOM     90  C   UNL A   1      51.285  25.584  27.976  1.00  0.00     0.040 A 
ATOM     91  F   UNL A   1      49.580  26.001  29.529  1.00  0.00    -0.206 F 
ATOM     92  C   UNL A   1      51.744  25.541  26.662  1.00  0.00     0.006 A 
ENDBRANCH  68  85
ENDBRANCH  42  43
ENDBRANCH  35  37
ENDBRANCH  34  35
ENDBRANCH  33  34
ENDBRANCH  32  33
ENDBRANCH  31  32
ENDBRANCH  30  31
ENDBRANCH   1  30
TORSDOF 22
ENDMDL
MODEL 2
REMARK VINA RESULT:     -13.4      3.925      8.665
REMARK SMILES N#C/C(=C/c1cccc(OCC(=O)OCCOCCOCCOC(=O)c2ccc(-c3c4nc(c(-c5c(F)cccc5F)c5ccc([nH]5)c(-c5c(F)cccc5F)c5nc(c(-c6c(F)cccc6F)c6ccc3[nH]6)C=C5)C=C4)cc2)c1)c1nc2ccccc2[nH]1
REMARK SMILES IDX 18 1 17 2 16 3 15 4 14 5 12 6 13 7 11 8 10 9 9 10 5 11 6 12
REMARK SMILES IDX 80 13 7 14 8 15 4 16 3 17 2 18 1 19 81 20 82 21 89 22 83 23
REMARK SMILES IDX 88 24 84 26 87 27 85 28 86 29 19 30 20 31 21 32 22 33 23 34
REMARK SMILES IDX 24 35 25 36 26 37 27 38 79 39 28 40 78 41 29 42 30 43 31 44
REMARK SMILES IDX 72 45 32 46 77 47 71 48 73 49 33 50 76 51 70 52 69 53 34 55
REMARK SMILES IDX 60 56 43 57 59 58 44 59 47 60 58 61 74 62 45 63 46 64 57 66
REMARK SMILES IDX 75 67 48 68 35 69 36 70 41 71 37 72 38 73 40 74 42 75 39 76
REMARK SMILES IDX 61 77 62 78 67 79 63 80 64 81 66 82 68 83 65 84 49 85 50 86
REMARK SMILES IDX 55 87 51 88 52 89 54 90 56 91 53 92
REMARK H PARENT 89 25 73 54 47 65
REMARK Flexibility Score: inf
ROOT
ATOM      1  C   UNL A   1      34.990  22.196  26.506  1.00  0.00     0.188 C 
ENDROOT
BRANCH   1   2
ATOM      2  O   UNL A   1      33.623  20.639  26.604  1.00  0.00    -0.376 OA
BRANCH   2   3
ATOM      3  C   UNL A   1      32.904  19.908  25.342  1.00  0.00     0.202 C 
BRANCH   3   4
ATOM      4  C   UNL A   1      32.108  21.106  24.346  1.00  0.00     0.261 C 
BRANCH   4   5
ATOM      5  O   UNL A   1      31.450  22.783  25.301  1.00  0.00    -0.461 OA
BRANCH   5   6
ATOM      6  C   UNL A   1      30.976  24.240  25.483  1.00  0.00     0.344 C 
ATOM      7  O   UNL A   1      30.434  24.621  26.533  1.00  0.00    -0.248 OA
BRANCH   6   8
ATOM      8  C   UNL A   1      31.527  25.600  24.394  1.00  0.00     0.351 C 
BRANCH   8   9
ATOM      9  O   UNL A   1      31.769  27.050  24.439  1.00  0.00    -0.482 OA
BRANCH   9  10
ATOM     10  C   UNL A   1      31.738  28.005  25.485  1.00  0.00     0.120 A 
ATOM     11  C   UNL A   1      33.166  29.214  27.198  1.00  0.00    -0.021 A 
ATOM     12  C   UNL A   1      32.661  30.439  26.779  1.00  0.00     0.008 A 
ATOM     13  C   UNL A   1      32.370  28.005  26.755  1.00  0.00     0.054 A 
ATOM     14  C   UNL A   1      31.669  30.444  25.775  1.00  0.00     0.004 A 
ATOM     15  C   UNL A   1      31.282  29.262  25.088  1.00  0.00     0.046 A 
BRANCH  11  16
ATOM     16  C   UNL A   1      35.011  29.157  27.581  1.00  0.00     0.031 C 
ATOM     17  C   UNL A   1      36.407  30.367  27.977  1.00  0.00     0.095 C 
BRANCH  17  18
ATOM     18  C   UNL A   1      37.824  29.850  27.787  1.00  0.00     0.103 C 
ATOM     19  N   UNL A   1      38.999  29.422  27.629  1.00  0.00    -0.192 NA
ENDBRANCH  17  18
BRANCH  17  20
ATOM     20  C   UNL A   1      36.414  31.999  28.669  1.00  0.00     0.149 A 
ATOM     21  N   UNL A   1      36.606  32.456  30.315  1.00  0.00    -0.228 NA
ATOM     22  N   UNL A   1      35.229  33.200  27.923  1.00  0.00    -0.337 N 
ATOM     23  C   UNL A   1      35.365  33.837  30.881  1.00  0.00     0.089 A 
ATOM     24  C   UNL A   1      34.483  34.289  29.207  1.00  0.00     0.066 A 
ATOM     25  H   UNL A   1      35.021  33.252  26.963  1.00  0.00     0.168 HD
ATOM     26  C   UNL A   1      34.719  34.518  32.399  1.00  0.00     0.030 A 
ATOM     27  C   UNL A   1      33.202  35.520  29.238  1.00  0.00     0.028 A 
ATOM     28  C   UNL A   1      33.413  35.708  32.338  1.00  0.00     0.002 A 
ATOM     29  C   UNL A   1      32.717  36.231  30.811  1.00  0.00     0.002 A 
ENDBRANCH  17  20
ENDBRANCH  11  16
ENDBRANCH   9  10
ENDBRANCH   8   9
ENDBRANCH   6   8
ENDBRANCH   5   6
ENDBRANCH   4   5
ENDBRANCH   3   4
ENDBRANCH   2   3
ENDBRANCH   1   2
BRANCH   1  30
ATOM     30  C   UNL A   1      36.362  22.175  25.199  1.00  0.00     0.188 C 
BRANCH  30  31
ATOM     31  O   UNL A   1      37.805  22.317  25.245  1.00  0.00    -0.376 OA
BRANCH  31  32
ATOM     32  C   UNL A   1      38.779  21.429  25.790  1.00  0.00     0.202 C 
BRANCH  32  33
ATOM     33  C   UNL A   1      39.841  21.917  26.789  1.00  0.00     0.261 C 
BRANCH  33  34
ATOM     34  O   UNL A   1      40.819  22.750  26.200  1.00  0.00    -0.460 OA
BRANCH  34  35
ATOM     35  C   UNL A   1      40.668  24.024  26.607  1.00  0.00     0.338 C 
ATOM     36  O   UNL A   1      39.647  24.682  26.590  1.00  0.00    -0.246 OA
BRANCH  35  37
ATOM     37  C   UNL A   1      42.032  24.466  26.932  1.00  0.00     0.060 A 
ATOM     38  C   UNL A   1      43.052  24.623  28.553  1.00  0.00     0.016 A 
ATOM     39  C   UNL A   1      42.664  25.311  25.431  1.00  0.00     0.016 A 
ATOM     40  C   UNL A   1      44.644  25.673  28.559  1.00  0.00     0.010 A 
ATOM     41  C   UNL A   1      44.133  26.376  25.479  1.00  0.00     0.010 A 
ATOM     42  C   UNL A   1      45.117  26.620  27.022  1.00  0.00    -0.014 A 
BRANCH  42  43
ATOM     43  C   UNL A   1      46.099  27.818  26.957  1.00  0.00     0.031 A 
ATOM     44  C   UNL A   1      45.702  29.333  26.920  1.00  0.00     0.074 A 
ATOM     45  C   UNL A   1      47.418  27.576  26.858  1.00  0.00     0.049 A 
ATOM     46  N   UNL A   1      46.465  30.402  26.722  1.00  0.00    -0.248 NA
ATOM     47  C   UNL A   1      44.294  29.702  27.136  1.00  0.00     0.031 C 
ATOM     48  C   UNL A   1      48.015  26.251  26.831  1.00  0.00     0.029 A 
ATOM     49  N   UNL A   1      48.492  28.435  26.733  1.00  0.00    -0.354 N 
ATOM     50  C   UNL A   1      45.633  31.534  26.756  1.00  0.00     0.074 A 
ATOM     51  C   UNL A   1      44.296  31.020  26.963  1.00  0.00     0.031 C 
ATOM     52  C   UNL A   1      49.343  26.372  26.736  1.00  0.00     0.029 A 
ATOM     53  C   UNL A   1      49.693  27.784  26.590  1.00  0.00     0.049 A 
ATOM     54  H   UNL A   1      48.405  29.415  26.745  1.00  0.00     0.167 HD
ATOM     55  C   UNL A   1      45.921  32.869  26.650  1.00  0.00     0.037 A 
ATOM     56  C   UNL A   1      50.938  28.226  26.317  1.00  0.00     0.037 A 
ATOM     57  C   UNL A   1      47.246  33.436  26.484  1.00  0.00     0.049 A 
ATOM     58  C   UNL A   1      51.239  29.686  26.141  1.00  0.00     0.074 A 
ATOM     59  C   UNL A   1      47.618  34.776  26.438  1.00  0.00     0.029 A 
ATOM     60  N   UNL A   1      48.414  32.711  26.325  1.00  0.00    -0.354 N 
ATOM     61  N   UNL A   1      50.433  30.714  26.210  1.00  0.00    -0.248 NA
ATOM     62  C   UNL A   1      52.637  30.042  25.850  1.00  0.00     0.031 C 
ATOM     63  C   UNL A   1      48.990  34.858  26.172  1.00  0.00     0.029 A 
ATOM     64  C   UNL A   1      49.492  33.571  26.137  1.00  0.00     0.049 A 
ATOM     65  H   UNL A   1      48.474  31.729  26.342  1.00  0.00     0.167 HD
ATOM     66  C   UNL A   1      51.227  31.836  25.991  1.00  0.00     0.074 A 
ATOM     67  C   UNL A   1      52.583  31.366  25.811  1.00  0.00     0.031 C 
ATOM     68  C   UNL A   1      50.854  33.138  25.945  1.00  0.00     0.037 A 
BRANCH  55  69
ATOM     69  C   UNL A   1      44.777  33.876  26.702  1.00  0.00     0.057 A 
ATOM     70  C   UNL A   1      44.040  34.237  25.566  1.00  0.00     0.134 A 
ATOM     71  C   UNL A   1      44.330  34.401  27.929  1.00  0.00     0.134 A 
ATOM     72  F   UNL A   1      44.373  33.757  24.360  1.00  0.00    -0.206 F 
ATOM     73  C   UNL A   1      42.947  35.114  25.638  1.00  0.00     0.040 A 
ATOM     74  C   UNL A   1      43.218  35.246  28.019  1.00  0.00     0.040 A 
ATOM     75  F   UNL A   1      44.941  34.066  29.076  1.00  0.00    -0.206 F 
ATOM     76  C   UNL A   1      42.531  35.618  26.867  1.00  0.00     0.006 A 
ENDBRANCH  55  69
BRANCH  56  77
ATOM     77  C   UNL A   1      52.020  27.220  26.160  1.00  0.00     0.057 A 
ATOM     78  C   UNL A   1      52.813  26.831  27.244  1.00  0.00     0.134 A 
ATOM     79  C   UNL A   1      52.249  26.594  24.928  1.00  0.00     0.134 A 
ATOM     80  F   UNL A   1      52.655  27.413  28.442  1.00  0.00    -0.206 F 
ATOM     81  C   UNL A   1      53.798  25.853  27.108  1.00  0.00     0.040 A 
ATOM     82  C   UNL A   1      53.201  25.587  24.788  1.00  0.00     0.040 A 
ATOM     83  F   UNL A   1      51.512  26.918  23.855  1.00  0.00    -0.206 F 
ATOM     84  C   UNL A   1      53.984  25.218  25.880  1.00  0.00     0.006 A 
ENDBRANCH  56  77
BRANCH  68  85
ATOM     85  C   UNL A   1      51.930  34.170  25.727  1.00  0.00     0.057 A 
ATOM     86  C   UNL A   1      52.440  34.463  24.454  1.00  0.00     0.134 A 
ATOM     87  C   UNL A   1      52.471  34.885  26.807  1.00  0.00     0.134 A 
ATOM     88  F   UNL A   1      51.982  33.812  23.374  1.00  0.00    -0.206 F 
ATOM     89  C   UNL A   1      53.464  35.396  24.267  1.00  0.00     0.040 A 
ATOM     90  C   UNL A   1      53.472  35.843  26.629  1.00  0.00     0.040 A 
ATOM     91  F   UNL A   1      52.034  34.666  28.056  1.00  0.00    -0.206 F 
ATOM     92  C   UNL A   1      53.979  36.094  25.356  1.00  0.00     0.006 A 
ENDBRANCH  68  85
ENDBRANCH  42  43
ENDBRANCH  35  37
ENDBRANCH  34  35
ENDBRANCH  33  34
ENDBRANCH  32  33
ENDBRANCH  31  32
ENDBRANCH  30  31
ENDBRANCH   1  30
TORSDOF 22
ENDMDL
MODEL 3
REMARK VINA RESULT:     -12.7      4.130      9.782
REMARK SMILES N#C/C(=C/c1cccc(OCC(=O)OCCOCCOCCOC(=O)c2ccc(-c3c4nc(c(-c5c(F)cccc5F)c5ccc([nH]5)c(-c5c(F)cccc5F)c5nc(c(-c6c(F)cccc6F)c6ccc3[nH]6)C=C5)C=C4)cc2)c1)c1nc2ccccc2[nH]1
REMARK SMILES IDX 18 1 17 2 16 3 15 4 14 5 12 6 13 7 11 8 10 9 9 10 5 11 6 12
REMARK SMILES IDX 80 13 7 14 8 15 4 16 3 17 2 18 1 19 81 20 82 21 89 22 83 23
REMARK SMILES IDX 88 24 84 26 87 27 85 28 86 29 19 30 20 31 21 32 22 33 23 34
REMARK SMILES IDX 24 35 25 36 26 37 27 38 79 39 28 40 78 41 29 42 30 43 31 44
REMARK SMILES IDX 72 45 32 46 77 47 71 48 73 49 33 50 76 51 70 52 69 53 34 55
REMARK SMILES IDX 60 56 43 57 59 58 44 59 47 60 58 61 74 62 45 63 46 64 57 66
REMARK SMILES IDX 75 67 48 68 35 69 36 70 41 71 37 72 38 73 40 74 42 75 39 76
REMARK SMILES IDX 61 77 62 78 67 79 63 80 64 81 66 82 68 83 65 84 49 85 50 86
REMARK SMILES IDX 55 87 51 88 52 89 54 90 56 91 53 92
REMARK H PARENT 89 25 73 54 47 65
REMARK Flexibility Score: inf
ROOT
ATOM      1  C   UNL A   1      34.406  23.961  25.249  1.00  0.00     0.188 C 
ENDROOT
BRANCH   1   2
ATOM      2  O   UNL A   1      32.595  22.959  25.389  1.00  0.00    -0.376 OA
BRANCH   2   3
ATOM      3  C   UNL A   1      31.894  22.069  24.222  1.00  0.00     0.202 C 
BRANCH   3   4
ATOM      4  C   UNL A   1      32.694  22.369  22.696  1.00  0.00     0.261 C 
BRANCH   4   5
ATOM      5  O   UNL A   1      33.032  24.322  22.220  1.00  0.00    -0.461 OA
BRANCH   5   6
ATOM      6  C   UNL A   1      32.773  25.720  21.622  1.00  0.00     0.344 C 
ATOM      7  O   UNL A   1      31.972  25.890  20.688  1.00  0.00    -0.248 OA
BRANCH   6   8
ATOM      8  C   UNL A   1      33.265  27.263  22.469  1.00  0.00     0.351 C 
BRANCH   8   9
ATOM      9  O   UNL A   1      33.907  27.707  23.716  1.00  0.00    -0.482 OA
BRANCH   9  10
ATOM     10  C   UNL A   1      33.515  27.659  25.076  1.00  0.00     0.120 A 
ATOM     11  C   UNL A   1      32.948  29.086  27.096  1.00  0.00    -0.021 A 
ATOM     12  C   UNL A   1      31.761  28.387  27.279  1.00  0.00     0.008 A 
ATOM     13  C   UNL A   1      33.959  28.413  26.193  1.00  0.00     0.054 A 
ATOM     14  C   UNL A   1      31.485  27.304  26.415  1.00  0.00     0.004 A 
ATOM     15  C   UNL A   1      32.301  27.006  25.291  1.00  0.00     0.046 A 
BRANCH  11  16
ATOM     16  C   UNL A   1      32.865  30.952  27.350  1.00  0.00     0.031 C 
ATOM     17  C   UNL A   1      34.001  32.350  27.919  1.00  0.00     0.095 C 
BRANCH  17  18
ATOM     18  C   UNL A   1      33.323  33.638  28.358  1.00  0.00     0.103 C 
ATOM     19  N   UNL A   1      32.760  34.705  28.721  1.00  0.00    -0.192 NA
ENDBRANCH  17  18
BRANCH  17  20
ATOM     20  C   UNL A   1      35.766  32.526  27.932  1.00  0.00     0.149 A 
ATOM     21  N   UNL A   1      36.952  31.324  28.248  1.00  0.00    -0.228 NA
ATOM     22  N   UNL A   1      36.417  34.106  28.627  1.00  0.00    -0.337 N 
ATOM     23  C   UNL A   1      38.378  31.937  29.415  1.00  0.00     0.089 A 
ATOM     24  C   UNL A   1      37.947  33.823  29.612  1.00  0.00     0.066 A 
ATOM     25  H   UNL A   1      36.000  34.987  28.489  1.00  0.00     0.168 HD
ATOM     26  C   UNL A   1      39.663  31.242  30.439  1.00  0.00     0.030 A 
ATOM     27  C   UNL A   1      38.986  34.818  30.655  1.00  0.00     0.028 A 
ATOM     28  C   UNL A   1      40.622  32.302  31.480  1.00  0.00     0.002 A 
ATOM     29  C   UNL A   1      40.331  34.034  31.544  1.00  0.00     0.002 A 
ENDBRANCH  17  20
ENDBRANCH  11  16
ENDBRANCH   9  10
ENDBRANCH   8   9
ENDBRANCH   6   8
ENDBRANCH   5   6
ENDBRANCH   4   5
ENDBRANCH   3   4
ENDBRANCH   2   3
ENDBRANCH   1   2
BRANCH   1  30
ATOM     30  C   UNL A   1      35.921  23.322  26.193  1.00  0.00     0.188 C 
BRANCH  30  31
ATOM     31  O   UNL A   1      37.329  23.188  25.872  1.00  0.00    -0.376 OA
BRANCH  31  32
ATOM     32  C   UNL A   1      38.390  24.120  26.069  1.00  0.00     0.202 C 
BRANCH  32  33
ATOM     33  C   UNL A   1      39.511  23.857  27.088  1.00  0.00     0.261 C 
BRANCH  33  34
ATOM     34  O   UNL A   1      40.691  24.586  26.819  1.00  0.00    -0.460 OA
BRANCH  34  35
ATOM     35  C   UNL A   1      41.699  23.756  26.491  1.00  0.00     0.338 C 
ATOM     36  O   UNL A   1      41.605  22.628  26.051  1.00  0.00    -0.246 OA
BRANCH  35  37
ATOM     37  C   UNL A   1      42.912  24.470  26.917  1.00  0.00     0.060 A 
ATOM     38  C   UNL A   1      43.485  25.307  28.549  1.00  0.00     0.016 A 
ATOM     39  C   UNL A   1      43.850  24.838  25.383  1.00  0.00     0.016 A 
ATOM     40  C   UNL A   1      44.964  26.511  28.514  1.00  0.00     0.010 A 
ATOM     41  C   UNL A   1      45.198  26.053  25.355  1.00  0.00     0.010 A 
ATOM     42  C   UNL A   1      45.751  26.940  26.877  1.00  0.00    -0.014 A 
BRANCH  42  43
ATOM     43  C   UNL A   1      46.649  28.172  26.594  1.00  0.00     0.031 A 
ATOM     44  C   UNL A   1      48.201  28.150  26.382  1.00  0.00     0.074 A 
ATOM     45  C   UNL A   1      46.094  29.397  26.584  1.00  0.00     0.049 A 
ATOM     46  N   UNL A   1      49.054  29.162  26.277  1.00  0.00    -0.248 NA
ATOM     47  C   UNL A   1      48.881  26.851  26.263  1.00  0.00     0.031 C 
ATOM     48  C   UNL A   1      44.681  29.665  26.799  1.00  0.00     0.029 A 
ATOM     49  N   UNL A   1      46.655  30.646  26.414  1.00  0.00    -0.354 N 
ATOM     50  C   UNL A   1      50.342  28.623  26.121  1.00  0.00     0.074 A 
ATOM     51  C   UNL A   1      50.165  27.187  26.175  1.00  0.00     0.031 C 
ATOM     52  C   UNL A   1      44.468  30.982  26.713  1.00  0.00     0.029 A 
ATOM     53  C   UNL A   1      45.748  31.670  26.541  1.00  0.00     0.049 A 
ATOM     54  H   UNL A   1      47.609  30.790  26.222  1.00  0.00     0.167 HD
ATOM     55  C   UNL A   1      51.557  29.226  25.932  1.00  0.00     0.037 A 
ATOM     56  C   UNL A   1      45.891  33.011  26.576  1.00  0.00     0.037 A 
ATOM     57  C   UNL A   1      51.782  30.656  25.829  1.00  0.00     0.049 A 
ATOM     58  C   UNL A   1      47.232  33.668  26.428  1.00  0.00     0.074 A 
ATOM     59  C   UNL A   1      52.970  31.332  25.570  1.00  0.00     0.029 A 
ATOM     60  N   UNL A   1      50.815  31.634  25.989  1.00  0.00    -0.354 N 
ATOM     61  N   UNL A   1      48.409  33.123  26.255  1.00  0.00    -0.248 NA
ATOM     62  C   UNL A   1      47.257  35.139  26.481  1.00  0.00     0.031 C 
ATOM     63  C   UNL A   1      52.736  32.710  25.654  1.00  0.00     0.029 A 
ATOM     64  C   UNL A   1      51.386  32.898  25.880  1.00  0.00     0.049 A 
ATOM     65  H   UNL A   1      49.861  31.459  26.157  1.00  0.00     0.167 HD
ATOM     66  C   UNL A   1      49.308  34.181  26.158  1.00  0.00     0.074 A 
ATOM     67  C   UNL A   1      48.538  35.401  26.267  1.00  0.00     0.031 C 
ATOM     68  C   UNL A   1      50.652  34.134  25.993  1.00  0.00     0.037 A 
BRANCH  55  69
ATOM     69  C   UNL A   1      52.803  28.356  25.818  1.00  0.00     0.057 A 
ATOM     70  C   UNL A   1      53.349  27.981  24.583  1.00  0.00     0.134 A 
ATOM     71  C   UNL A   1      53.536  27.987  26.962  1.00  0.00     0.134 A 
ATOM     72  F   UNL A   1      52.736  28.319  23.439  1.00  0.00    -0.206 F 
ATOM     73  C   UNL A   1      54.534  27.236  24.490  1.00  0.00     0.040 A 
ATOM     74  C   UNL A   1      54.740  27.277  26.880  1.00  0.00     0.040 A 
ATOM     75  F   UNL A   1      53.119  28.350  28.184  1.00  0.00    -0.206 F 
ATOM     76  C   UNL A   1      55.235  26.885  25.640  1.00  0.00     0.006 A 
ENDBRANCH  55  69
BRANCH  56  77
ATOM     77  C   UNL A   1      44.678  33.840  26.798  1.00  0.00     0.057 A 
ATOM     78  C   UNL A   1      44.228  34.139  28.087  1.00  0.00     0.134 A 
ATOM     79  C   UNL A   1      43.972  34.388  25.719  1.00  0.00     0.134 A 
ATOM     80  F   UNL A   1      44.850  33.623  29.158  1.00  0.00    -0.206 F 
ATOM     81  C   UNL A   1      43.117  34.956  28.297  1.00  0.00     0.040 A 
ATOM     82  C   UNL A   1      42.887  35.239  25.915  1.00  0.00     0.040 A 
ATOM     83  F   UNL A   1      44.363  34.145  24.459  1.00  0.00    -0.206 F 
ATOM     84  C   UNL A   1      42.453  35.520  27.208  1.00  0.00     0.006 A 
ENDBRANCH  56  77
BRANCH  68  85
ATOM     85  C   UNL A   1      51.392  35.442  25.879  1.00  0.00     0.057 A 
ATOM     86  C   UNL A   1      51.737  36.002  24.641  1.00  0.00     0.134 A 
ATOM     87  C   UNL A   1      51.770  36.156  27.026  1.00  0.00     0.134 A 
ATOM     88  F   UNL A   1      51.421  35.372  23.499  1.00  0.00    -0.206 F 
ATOM     89  C   UNL A   1      52.456  37.197  24.547  1.00  0.00     0.040 A 
ATOM     90  C   UNL A   1      52.461  37.368  26.945  1.00  0.00     0.040 A 
ATOM     91  F   UNL A   1      51.473  35.690  28.248  1.00  0.00    -0.206 F 
ATOM     92  C   UNL A   1      52.815  37.887  25.702  1.00  0.00     0.006 A 
ENDBRANCH  68  85
ENDBRANCH  42  43
ENDBRANCH  35  37
ENDBRANCH  34  35
ENDBRANCH  33  34
ENDBRANCH  32  33
ENDBRANCH  31  32
ENDBRANCH  30  31
ENDBRANCH   1  30
TORSDOF 22
ENDMDL
