MODEL 1
REMARK VINA RESULT:     -11.1      0.000      0.000
REMARK SMILES COc1ccc(NS(=O)(=O)c2ccc(NC(=O)[C@H]3CCCC[C@@H]3C(=O)OCCOCCOCCOC(=O)c3ccc(-c4c5nc(c(-c6c(F)cccc6F)c6ccc([nH]6)c(-c6c(F)cccc6F)c6nc(c(-c7c(F)cccc7F)c7ccc4[nH]7)C=C6)C=C5)cc3)cc2)cc1
REMARK SMILES IDX 28 1 27 2 26 3 24 4 25 5 23 6 18 7 19 8 20 9 22 10 21 11
REMARK SMILES IDX 16 12 15 13 17 15 14 16 11 17 12 18 93 19 13 20 92 21 8 22
REMARK SMILES IDX 9 23 10 24 7 25 6 27 3 28 4 29 95 30 5 31 94 32 2 33 1 34
REMARK SMILES IDX 29 35 30 36 31 37 32 38 33 39 34 40 35 41 36 42 37 43 38 44
REMARK SMILES IDX 39 45 91 46 40 47 90 48 41 49 42 50 43 51 84 52 44 53 89 54
REMARK SMILES IDX 83 55 85 56 45 57 88 58 82 59 81 60 46 62 72 63 55 64 71 65
REMARK SMILES IDX 56 66 59 67 70 68 86 69 57 70 58 71 69 73 87 74 60 75 47 76
REMARK SMILES IDX 48 77 53 78 49 79 50 80 52 81 54 82 51 83 73 84 74 85 79 86
REMARK SMILES IDX 75 87 76 88 78 89 80 90 77 91 61 92 62 93 67 94 63 95 64 96
REMARK SMILES IDX 66 97 68 98 65 99
REMARK H PARENT 15 14 7 26 85 61 59 72
REMARK Flexibility Score: inf
ROOT
ATOM      1  C   UNL A   1      34.327  32.879  28.010  1.00  0.00     0.202 C 
ENDROOT
BRANCH   1   2
ATOM      2  C   UNL A   1      34.529  31.367  28.233  1.00  0.00     0.261 C 
BRANCH   2   3
ATOM      3  O   UNL A   1      33.623  30.437  27.589  1.00  0.00    -0.463 OA
BRANCH   3   4
ATOM      4  C   UNL A   1      34.173  29.477  26.814  1.00  0.00     0.309 C 
ATOM      5  O   UNL A   1      35.282  29.000  27.026  1.00  0.00    -0.252 OA
BRANCH   4   6
ATOM      6  C   UNL A   1      33.354  29.131  25.573  1.00  0.00     0.111 C 
ATOM      7  C   UNL A   1      31.819  29.182  25.655  1.00  0.00     0.093 C 
ATOM      8  C   UNL A   1      31.249  28.185  26.658  1.00  0.00     0.014 C 
ATOM      9  C   UNL A   1      31.701  26.765  26.390  1.00  0.00     0.001 C 
ATOM     10  C   UNL A   1      33.872  27.733  25.294  1.00  0.00     0.016 C 
ATOM     11  C   UNL A   1      33.194  26.613  26.097  1.00  0.00     0.001 C 
BRANCH   7  12
ATOM     12  C   UNL A   1      30.881  29.286  24.402  1.00  0.00     0.228 C 
ATOM     13  N   UNL A   1      30.597  28.408  23.398  1.00  0.00    -0.326 N 
ATOM     14  H   UNL A   1      29.923  28.762  22.775  1.00  0.00     0.169 HD
ATOM     15  O   UNL A   1      30.267  30.365  24.281  1.00  0.00    -0.274 OA
BRANCH  13  16
ATOM     16  C   UNL A   1      31.031  27.128  23.036  1.00  0.00     0.041 A 
ATOM     17  C   UNL A   1      32.371  24.733  23.156  1.00  0.00     0.087 A 
ATOM     18  C   UNL A   1      30.989  24.739  23.349  1.00  0.00     0.024 A 
ATOM     19  C   UNL A   1      32.973  25.803  22.499  1.00  0.00     0.024 A 
ATOM     20  C   UNL A   1      30.306  25.964  23.256  1.00  0.00     0.027 A 
ATOM     21  C   UNL A   1      32.289  27.020  22.440  1.00  0.00     0.027 A 
BRANCH  17  22
ATOM     22  S   UNL A   1      33.410  23.486  23.892  1.00  0.00     0.261 S 
ATOM     23  O   UNL A   1      33.107  23.424  25.304  1.00  0.00    -0.201 OA
ATOM     24  O   UNL A   1      34.765  23.737  23.439  1.00  0.00    -0.201 OA
BRANCH  22  25
ATOM     25  N   UNL A   1      32.997  21.979  23.192  1.00  0.00    -0.280 N 
ATOM     26  H   UNL A   1      32.871  21.939  22.216  1.00  0.00     0.180 HD
BRANCH  25  27
ATOM     27  C   UNL A   1      32.825  20.771  23.946  1.00  0.00     0.049 A 
ATOM     28  C   UNL A   1      32.708  18.286  25.294  1.00  0.00     0.119 A 
ATOM     29  C   UNL A   1      32.334  18.386  23.961  1.00  0.00     0.048 A 
ATOM     30  C   UNL A   1      33.172  19.426  25.951  1.00  0.00     0.048 A 
ATOM     31  C   UNL A   1      32.407  19.614  23.303  1.00  0.00     0.030 A 
ATOM     32  C   UNL A   1      33.229  20.668  25.278  1.00  0.00     0.030 A 
BRANCH  28  33
ATOM     33  O   UNL A   1      32.647  17.022  25.806  1.00  0.00    -0.497 OA
ATOM     34  C   UNL A   1      33.171  15.984  24.989  1.00  0.00     0.278 C 
ENDBRANCH  28  33
ENDBRANCH  25  27
ENDBRANCH  22  25
ENDBRANCH  17  22
ENDBRANCH  13  16
ENDBRANCH   7  12
ENDBRANCH   4   6
ENDBRANCH   3   4
ENDBRANCH   2   3
ENDBRANCH   1   2
BRANCH   1  35
ATOM     35  O   UNL A   1      34.268  33.673  29.182  1.00  0.00    -0.376 OA
BRANCH  35  36
ATOM     36  C   UNL A   1      33.409  34.798  29.158  1.00  0.00     0.188 C 
BRANCH  36  37
ATOM     37  C   UNL A   1      33.131  35.424  30.541  1.00  0.00     0.188 C 
BRANCH  37  38
ATOM     38  O   UNL A   1      33.588  34.800  31.732  1.00  0.00    -0.376 OA
BRANCH  38  39
ATOM     39  C   UNL A   1      34.450  35.513  32.600  1.00  0.00     0.202 C 
BRANCH  39  40
ATOM     40  C   UNL A   1      35.819  34.894  32.921  1.00  0.00     0.261 C 
BRANCH  40  41
ATOM     41  O   UNL A   1      36.239  33.814  32.064  1.00  0.00    -0.460 OA
BRANCH  41  42
ATOM     42  C   UNL A   1      36.493  32.628  32.680  1.00  0.00     0.338 C 
ATOM     43  O   UNL A   1      35.908  32.163  33.631  1.00  0.00    -0.246 OA
BRANCH  42  44
ATOM     44  C   UNL A   1      37.512  31.857  31.911  1.00  0.00     0.060 A 
ATOM     45  C   UNL A   1      38.579  31.275  32.615  1.00  0.00     0.016 A 
ATOM     46  C   UNL A   1      37.462  31.749  30.520  1.00  0.00     0.016 A 
ATOM     47  C   UNL A   1      39.613  30.624  31.933  1.00  0.00     0.010 A 
ATOM     48  C   UNL A   1      38.516  31.123  29.834  1.00  0.00     0.010 A 
ATOM     49  C   UNL A   1      39.615  30.587  30.533  1.00  0.00    -0.014 A 
BRANCH  49  50
ATOM     50  C   UNL A   1      40.849  30.191  29.801  1.00  0.00     0.031 A 
ATOM     51  C   UNL A   1      40.951  28.782  29.276  1.00  0.00     0.074 A 
ATOM     52  C   UNL A   1      41.856  31.053  29.570  1.00  0.00     0.049 A 
ATOM     53  N   UNL A   1      41.951  28.182  28.680  1.00  0.00    -0.248 NA
ATOM     54  C   UNL A   1      39.759  27.936  29.447  1.00  0.00     0.031 C 
ATOM     55  C   UNL A   1      41.872  32.463  29.949  1.00  0.00     0.029 A 
ATOM     56  N   UNL A   1      43.072  30.854  28.959  1.00  0.00    -0.354 N 
ATOM     57  C   UNL A   1      41.510  26.894  28.406  1.00  0.00     0.074 A 
ATOM     58  C   UNL A   1      40.163  26.788  28.927  1.00  0.00     0.031 C 
ATOM     59  C   UNL A   1      43.049  33.000  29.576  1.00  0.00     0.029 A 
ATOM     60  C   UNL A   1      43.883  31.964  28.964  1.00  0.00     0.049 A 
ATOM     61  H   UNL A   1      43.338  29.996  28.556  1.00  0.00     0.167 HD
ATOM     62  C   UNL A   1      42.159  25.887  27.772  1.00  0.00     0.037 A 
ATOM     63  C   UNL A   1      45.157  32.118  28.549  1.00  0.00     0.037 A 
ATOM     64  C   UNL A   1      43.502  25.973  27.263  1.00  0.00     0.049 A 
ATOM     65  C   UNL A   1      45.902  30.951  27.950  1.00  0.00     0.074 A 
ATOM     66  C   UNL A   1      44.246  24.995  26.624  1.00  0.00     0.029 A 
ATOM     67  N   UNL A   1      44.306  27.099  27.339  1.00  0.00    -0.354 N 
ATOM     68  N   UNL A   1      45.482  29.734  27.706  1.00  0.00    -0.248 NA
ATOM     69  C   UNL A   1      47.306  31.182  27.570  1.00  0.00     0.031 C 
ATOM     70  C   UNL A   1      45.517  25.514  26.358  1.00  0.00     0.029 A 
ATOM     71  C   UNL A   1      45.545  26.834  26.778  1.00  0.00     0.049 A 
ATOM     72  H   UNL A   1      44.037  27.961  27.734  1.00  0.00     0.167 HD
ATOM     73  C   UNL A   1      46.551  29.069  27.115  1.00  0.00     0.074 A 
ATOM     74  C   UNL A   1      47.639  30.019  27.028  1.00  0.00     0.031 C 
ATOM     75  C   UNL A   1      46.621  27.786  26.680  1.00  0.00     0.037 A 
BRANCH  62  76
ATOM     76  C   UNL A   1      41.428  24.586  27.621  1.00  0.00     0.057 A 
ATOM     77  C   UNL A   1      40.424  24.411  26.660  1.00  0.00     0.134 A 
ATOM     78  C   UNL A   1      41.754  23.485  28.424  1.00  0.00     0.134 A 
ATOM     79  F   UNL A   1      40.053  25.429  25.869  1.00  0.00    -0.206 F 
ATOM     80  C   UNL A   1      39.754  23.193  26.520  1.00  0.00     0.040 A 
ATOM     81  C   UNL A   1      41.111  22.256  28.274  1.00  0.00     0.040 A 
ATOM     82  F   UNL A   1      42.711  23.585  29.360  1.00  0.00    -0.206 F 
ATOM     83  C   UNL A   1      40.103  22.110  27.323  1.00  0.00     0.006 A 
ENDBRANCH  62  76
BRANCH  63  84
ATOM     84  C   UNL A   1      45.837  33.432  28.699  1.00  0.00     0.057 A 
ATOM     85  C   UNL A   1      46.583  33.738  29.844  1.00  0.00     0.134 A 
ATOM     86  C   UNL A   1      45.721  34.430  27.723  1.00  0.00     0.134 A 
ATOM     87  F   UNL A   1      46.703  32.836  30.831  1.00  0.00    -0.206 F 
ATOM     88  C   UNL A   1      47.174  34.990  30.022  1.00  0.00     0.040 A 
ATOM     89  C   UNL A   1      46.329  35.677  27.874  1.00  0.00     0.040 A 
ATOM     90  F   UNL A   1      45.013  34.205  26.607  1.00  0.00    -0.206 F 
ATOM     91  C   UNL A   1      47.052  35.962  29.031  1.00  0.00     0.006 A 
ENDBRANCH  63  84
BRANCH  75  92
ATOM     92  C   UNL A   1      47.897  27.337  26.023  1.00  0.00     0.057 A 
ATOM     93  C   UNL A   1      48.120  27.484  24.648  1.00  0.00     0.134 A 
ATOM     94  C   UNL A   1      48.940  26.800  26.789  1.00  0.00     0.134 A 
ATOM     95  F   UNL A   1      47.161  27.982  23.852  1.00  0.00    -0.206 F 
ATOM     96  C   UNL A   1      49.324  27.092  24.056  1.00  0.00     0.040 A 
ATOM     97  C   UNL A   1      50.159  26.431  26.214  1.00  0.00     0.040 A 
ATOM     98  F   UNL A   1      48.802  26.643  28.114  1.00  0.00    -0.206 F 
ATOM     99  C   UNL A   1      50.350  26.572  24.842  1.00  0.00     0.006 A 
ENDBRANCH  75  92
ENDBRANCH  49  50
ENDBRANCH  42  44
ENDBRANCH  41  42
ENDBRANCH  40  41
ENDBRANCH  39  40
ENDBRANCH  38  39
ENDBRANCH  37  38
ENDBRANCH  36  37
ENDBRANCH  35  36
ENDBRANCH   1  35
TORSDOF 23
ENDMDL
MODEL 2
REMARK VINA RESULT:     -10.9      4.566     10.372
REMARK SMILES COc1ccc(NS(=O)(=O)c2ccc(NC(=O)[C@H]3CCCC[C@@H]3C(=O)OCCOCCOCCOC(=O)c3ccc(-c4c5nc(c(-c6c(F)cccc6F)c6ccc([nH]6)c(-c6c(F)cccc6F)c6nc(c(-c7c(F)cccc7F)c7ccc4[nH]7)C=C6)C=C5)cc3)cc2)cc1
REMARK SMILES IDX 28 1 27 2 26 3 24 4 25 5 23 6 18 7 19 8 20 9 22 10 21 11
REMARK SMILES IDX 16 12 15 13 17 15 14 16 11 17 12 18 93 19 13 20 92 21 8 22
REMARK SMILES IDX 9 23 10 24 7 25 6 27 3 28 4 29 95 30 5 31 94 32 2 33 1 34
REMARK SMILES IDX 29 35 30 36 31 37 32 38 33 39 34 40 35 41 36 42 37 43 38 44
REMARK SMILES IDX 39 45 91 46 40 47 90 48 41 49 42 50 43 51 84 52 44 53 89 54
REMARK SMILES IDX 83 55 85 56 45 57 88 58 82 59 81 60 46 62 72 63 55 64 71 65
REMARK SMILES IDX 56 66 59 67 70 68 86 69 57 70 58 71 69 73 87 74 60 75 47 76
REMARK SMILES IDX 48 77 53 78 49 79 50 80 52 81 54 82 51 83 73 84 74 85 79 86
REMARK SMILES IDX 75 87 76 88 78 89 80 90 77 91 61 92 62 93 67 94 63 95 64 96
REMARK SMILES IDX 66 97 68 98 65 99
REMARK H PARENT 15 14 7 26 85 61 59 72
REMARK Flexibility Score: inf
ROOT
ATOM      1  C   UNL A   1      39.666  23.444  27.232  1.00  0.00     0.202 C 
ENDROOT
BRANCH   1   2
ATOM      2  C   UNL A   1      38.295  24.053  26.875  1.00  0.00     0.261 C 
BRANCH   2   3
ATOM      3  O   UNL A   1      37.857  24.028  25.493  1.00  0.00    -0.463 OA
BRANCH   3   4
ATOM      4  C   UNL A   1      37.037  23.020  25.125  1.00  0.00     0.309 C 
ATOM      5  O   UNL A   1      37.334  22.194  24.270  1.00  0.00    -0.252 OA
BRANCH   4   6
ATOM      6  C   UNL A   1      35.653  23.074  25.768  1.00  0.00     0.111 C 
ATOM      7  C   UNL A   1      34.856  21.769  25.932  1.00  0.00     0.093 C 
ATOM      8  C   UNL A   1      34.523  21.110  24.598  1.00  0.00     0.014 C 
ATOM      9  C   UNL A   1      33.793  22.042  23.653  1.00  0.00     0.001 C 
ATOM     10  C   UNL A   1      34.967  24.058  24.840  1.00  0.00     0.016 C 
ATOM     11  C   UNL A   1      34.385  23.448  23.556  1.00  0.00     0.001 C 
BRANCH   7  12
ATOM     12  C   UNL A   1      33.661  21.596  26.934  1.00  0.00     0.228 C 
ATOM     13  N   UNL A   1      32.440  22.196  27.012  1.00  0.00    -0.326 N 
ATOM     14  H   UNL A   1      31.892  21.830  27.743  1.00  0.00     0.169 HD
ATOM     15  O   UNL A   1      33.839  20.753  27.837  1.00  0.00    -0.274 OA
BRANCH  13  16
ATOM     16  C   UNL A   1      31.775  23.207  26.309  1.00  0.00     0.041 A 
ATOM     17  C   UNL A   1      31.376  25.324  24.604  1.00  0.00     0.087 A 
ATOM     18  C   UNL A   1      30.864  24.074  24.254  1.00  0.00     0.024 A 
ATOM     19  C   UNL A   1      31.678  25.588  25.938  1.00  0.00     0.024 A 
ATOM     20  C   UNL A   1      31.046  23.002  25.146  1.00  0.00     0.027 A 
ATOM     21  C   UNL A   1      31.881  24.510  26.803  1.00  0.00     0.027 A 
BRANCH  17  22
ATOM     22  S   UNL A   1      31.831  26.525  23.369  1.00  0.00     0.261 S 
ATOM     23  O   UNL A   1      31.243  26.121  22.111  1.00  0.00    -0.201 OA
ATOM     24  O   UNL A   1      33.262  26.733  23.482  1.00  0.00    -0.201 OA
BRANCH  22  25
ATOM     25  N   UNL A   1      31.144  28.027  23.820  1.00  0.00    -0.280 N 
ATOM     26  H   UNL A   1      31.374  28.396  24.703  1.00  0.00     0.180 HD
BRANCH  25  27
ATOM     27  C   UNL A   1      30.253  28.779  22.984  1.00  0.00     0.049 A 
ATOM     28  C   UNL A   1      28.428  30.409  21.565  1.00  0.00     0.119 A 
ATOM     29  C   UNL A   1      27.971  29.444  22.452  1.00  0.00     0.048 A 
ATOM     30  C   UNL A   1      29.802  30.582  21.405  1.00  0.00     0.048 A 
ATOM     31  C   UNL A   1      28.881  28.654  23.156  1.00  0.00     0.030 A 
ATOM     32  C   UNL A   1      30.714  29.767  22.112  1.00  0.00     0.030 A 
BRANCH  28  33
ATOM     33  O   UNL A   1      27.442  31.154  20.983  1.00  0.00    -0.497 OA
ATOM     34  C   UNL A   1      27.869  32.221  20.146  1.00  0.00     0.278 C 
ENDBRANCH  28  33
ENDBRANCH  25  27
ENDBRANCH  22  25
ENDBRANCH  17  22
ENDBRANCH  13  16
ENDBRANCH   7  12
ENDBRANCH   4   6
ENDBRANCH   3   4
ENDBRANCH   2   3
ENDBRANCH   1   2
BRANCH   1  35
ATOM     35  O   UNL A   1      40.097  22.373  26.411  1.00  0.00    -0.376 OA
BRANCH  35  36
ATOM     36  C   UNL A   1      41.132  21.548  26.916  1.00  0.00     0.188 C 
BRANCH  36  37
ATOM     37  C   UNL A   1      42.414  21.527  26.057  1.00  0.00     0.188 C 
BRANCH  37  38
ATOM     38  O   UNL A   1      42.604  22.458  25.001  1.00  0.00    -0.376 OA
BRANCH  38  39
ATOM     39  C   UNL A   1      43.883  22.581  24.409  1.00  0.00     0.202 C 
BRANCH  39  40
ATOM     40  C   UNL A   1      45.106  22.608  25.339  1.00  0.00     0.261 C 
BRANCH  40  41
ATOM     41  O   UNL A   1      45.175  23.716  26.258  1.00  0.00    -0.460 OA
BRANCH  41  42
ATOM     42  C   UNL A   1      44.867  24.938  25.744  1.00  0.00     0.338 C 
ATOM     43  O   UNL A   1      45.111  25.340  24.629  1.00  0.00    -0.246 OA
BRANCH  42  44
ATOM     44  C   UNL A   1      44.010  25.697  26.700  1.00  0.00     0.060 A 
ATOM     45  C   UNL A   1      44.224  27.077  26.835  1.00  0.00     0.016 A 
ATOM     46  C   UNL A   1      43.051  25.065  27.494  1.00  0.00     0.016 A 
ATOM     47  C   UNL A   1      43.515  27.820  27.786  1.00  0.00     0.010 A 
ATOM     48  C   UNL A   1      42.362  25.804  28.469  1.00  0.00     0.010 A 
ATOM     49  C   UNL A   1      42.614  27.178  28.646  1.00  0.00    -0.014 A 
BRANCH  49  50
ATOM     50  C   UNL A   1      42.106  27.885  29.853  1.00  0.00     0.031 A 
ATOM     51  C   UNL A   1      40.875  28.743  29.719  1.00  0.00     0.074 A 
ATOM     52  C   UNL A   1      42.691  27.760  31.059  1.00  0.00     0.049 A 
ATOM     53  N   UNL A   1      40.292  29.514  30.602  1.00  0.00    -0.248 NA
ATOM     54  C   UNL A   1      40.211  28.725  28.405  1.00  0.00     0.031 C 
ATOM     55  C   UNL A   1      43.840  26.912  31.362  1.00  0.00     0.029 A 
ATOM     56  N   UNL A   1      42.391  28.364  32.258  1.00  0.00    -0.354 N 
ATOM     57  C   UNL A   1      39.197  30.071  29.954  1.00  0.00     0.074 A 
ATOM     58  C   UNL A   1      39.212  29.574  28.594  1.00  0.00     0.031 C 
ATOM     59  C   UNL A   1      44.159  27.061  32.662  1.00  0.00     0.029 A 
ATOM     60  C   UNL A   1      43.260  28.042  33.273  1.00  0.00     0.049 A 
ATOM     61  H   UNL A   1      41.626  28.971  32.378  1.00  0.00     0.167 HD
ATOM     62  C   UNL A   1      38.255  30.914  30.442  1.00  0.00     0.037 A 
ATOM     63  C   UNL A   1      43.338  28.504  34.538  1.00  0.00     0.037 A 
ATOM     64  C   UNL A   1      38.235  31.428  31.785  1.00  0.00     0.049 A 
ATOM     65  C   UNL A   1      42.347  29.531  35.028  1.00  0.00     0.074 A 
ATOM     66  C   UNL A   1      37.330  32.304  32.360  1.00  0.00     0.029 A 
ATOM     67  N   UNL A   1      39.166  31.118  32.764  1.00  0.00    -0.354 N 
ATOM     68  N   UNL A   1      41.323  30.062  34.404  1.00  0.00    -0.248 NA
ATOM     69  C   UNL A   1      42.527  30.028  36.402  1.00  0.00     0.031 C 
ATOM     70  C   UNL A   1      37.741  32.563  33.671  1.00  0.00     0.029 A 
ATOM     71  C   UNL A   1      38.869  31.802  33.932  1.00  0.00     0.049 A 
ATOM     72  H   UNL A   1      39.927  30.503  32.647  1.00  0.00     0.167 HD
ATOM     73  C   UNL A   1      40.720  30.921  35.317  1.00  0.00     0.074 A 
ATOM     74  C   UNL A   1      41.487  30.837  36.541  1.00  0.00     0.031 C 
ATOM     75  C   UNL A   1      39.626  31.706  35.154  1.00  0.00     0.037 A 
BRANCH  62  76
ATOM     76  C   UNL A   1      37.178  31.361  29.498  1.00  0.00     0.057 A 
ATOM     77  C   UNL A   1      37.210  32.620  28.884  1.00  0.00     0.134 A 
ATOM     78  C   UNL A   1      36.113  30.511  29.174  1.00  0.00     0.134 A 
ATOM     79  F   UNL A   1      38.195  33.488  29.162  1.00  0.00    -0.206 F 
ATOM     80  C   UNL A   1      36.209  33.025  27.999  1.00  0.00     0.040 A 
ATOM     81  C   UNL A   1      35.121  30.894  28.270  1.00  0.00     0.040 A 
ATOM     82  F   UNL A   1      36.026  29.289  29.724  1.00  0.00    -0.206 F 
ATOM     83  C   UNL A   1      35.165  32.157  27.684  1.00  0.00     0.006 A 
ENDBRANCH  62  76
BRANCH  63  84
ATOM     84  C   UNL A   1      44.409  28.018  35.446  1.00  0.00     0.057 A 
ATOM     85  C   UNL A   1      45.671  28.626  35.473  1.00  0.00     0.134 A 
ATOM     86  C   UNL A   1      44.215  26.907  36.276  1.00  0.00     0.134 A 
ATOM     87  F   UNL A   1      45.931  29.674  34.676  1.00  0.00    -0.206 F 
ATOM     88  C   UNL A   1      46.703  28.140  36.277  1.00  0.00     0.040 A 
ATOM     89  C   UNL A   1      45.229  26.425  37.106  1.00  0.00     0.040 A 
ATOM     90  F   UNL A   1      43.034  26.272  36.291  1.00  0.00    -0.206 F 
ATOM     91  C   UNL A   1      46.480  27.039  37.101  1.00  0.00     0.006 A 
ENDBRANCH  63  84
BRANCH  75  92
ATOM     92  C   UNL A   1      39.153  32.504  36.337  1.00  0.00     0.057 A 
ATOM     93  C   UNL A   1      38.255  31.983  37.278  1.00  0.00     0.134 A 
ATOM     94  C   UNL A   1      39.648  33.795  36.566  1.00  0.00     0.134 A 
ATOM     95  F   UNL A   1      37.735  30.757  37.116  1.00  0.00    -0.206 F 
ATOM     96  C   UNL A   1      37.850  32.725  38.391  1.00  0.00     0.040 A 
ATOM     97  C   UNL A   1      39.272  34.536  37.689  1.00  0.00     0.040 A 
ATOM     98  F   UNL A   1      40.520  34.353  35.714  1.00  0.00    -0.206 F 
ATOM     99  C   UNL A   1      38.365  34.003  38.602  1.00  0.00     0.006 A 
ENDBRANCH  75  92
ENDBRANCH  49  50
ENDBRANCH  42  44
ENDBRANCH  41  42
ENDBRANCH  40  41
ENDBRANCH  39  40
ENDBRANCH  38  39
ENDBRANCH  37  38
ENDBRANCH  36  37
ENDBRANCH  35  36
ENDBRANCH   1  35
TORSDOF 23
ENDMDL
MODEL 3
REMARK VINA RESULT:     -10.4      5.830     10.895
REMARK SMILES COc1ccc(NS(=O)(=O)c2ccc(NC(=O)[C@H]3CCCC[C@@H]3C(=O)OCCOCCOCCOC(=O)c3ccc(-c4c5nc(c(-c6c(F)cccc6F)c6ccc([nH]6)c(-c6c(F)cccc6F)c6nc(c(-c7c(F)cccc7F)c7ccc4[nH]7)C=C6)C=C5)cc3)cc2)cc1
REMARK SMILES IDX 28 1 27 2 26 3 24 4 25 5 23 6 18 7 19 8 20 9 22 10 21 11
REMARK SMILES IDX 16 12 15 13 17 15 14 16 11 17 12 18 93 19 13 20 92 21 8 22
REMARK SMILES IDX 9 23 10 24 7 25 6 27 3 28 4 29 95 30 5 31 94 32 2 33 1 34
REMARK SMILES IDX 29 35 30 36 31 37 32 38 33 39 34 40 35 41 36 42 37 43 38 44
REMARK SMILES IDX 39 45 91 46 40 47 90 48 41 49 42 50 43 51 84 52 44 53 89 54
REMARK SMILES IDX 83 55 85 56 45 57 88 58 82 59 81 60 46 62 72 63 55 64 71 65
REMARK SMILES IDX 56 66 59 67 70 68 86 69 57 70 58 71 69 73 87 74 60 75 47 76
REMARK SMILES IDX 48 77 53 78 49 79 50 80 52 81 54 82 51 83 73 84 74 85 79 86
REMARK SMILES IDX 75 87 76 88 78 89 80 90 77 91 61 92 62 93 67 94 63 95 64 96
REMARK SMILES IDX 66 97 68 98 65 99
REMARK H PARENT 15 14 7 26 85 61 59 72
REMARK Flexibility Score: inf
ROOT
ATOM      1  C   UNL A   1      33.730  37.604  32.244  1.00  0.00     0.202 C 
ENDROOT
BRANCH   1   2
ATOM      2  C   UNL A   1      33.807  36.543  33.360  1.00  0.00     0.261 C 
BRANCH   2   3
ATOM      3  O   UNL A   1      35.083  35.918  33.645  1.00  0.00    -0.463 OA
BRANCH   3   4
ATOM      4  C   UNL A   1      35.125  34.568  33.626  1.00  0.00     0.309 C 
ATOM      5  O   UNL A   1      34.121  33.867  33.586  1.00  0.00    -0.252 OA
BRANCH   4   6
ATOM      6  C   UNL A   1      36.526  33.985  33.794  1.00  0.00     0.111 C 
ATOM      7  C   UNL A   1      37.698  34.628  33.032  1.00  0.00     0.093 C 
ATOM      8  C   UNL A   1      37.534  34.540  31.518  1.00  0.00     0.014 C 
ATOM      9  C   UNL A   1      37.326  33.120  31.036  1.00  0.00     0.001 C 
ATOM     10  C   UNL A   1      36.273  32.553  33.365  1.00  0.00     0.016 C 
ATOM     11  C   UNL A   1      36.315  32.309  31.849  1.00  0.00     0.001 C 
BRANCH   7  12
ATOM     12  C   UNL A   1      39.204  34.439  33.425  1.00  0.00     0.228 C 
ATOM     13  N   UNL A   1      39.819  34.259  34.629  1.00  0.00    -0.326 N 
ATOM     14  H   UNL A   1      40.789  34.126  34.534  1.00  0.00     0.169 HD
ATOM     15  O   UNL A   1      40.011  34.450  32.473  1.00  0.00    -0.274 OA
BRANCH  13  16
ATOM     16  C   UNL A   1      39.409  34.220  35.966  1.00  0.00     0.041 A 
ATOM     17  C   UNL A   1      39.522  33.837  38.684  1.00  0.00     0.087 A 
ATOM     18  C   UNL A   1      39.443  35.141  38.192  1.00  0.00     0.024 A 
ATOM     19  C   UNL A   1      39.116  32.777  37.877  1.00  0.00     0.024 A 
ATOM     20  C   UNL A   1      39.355  35.327  36.801  1.00  0.00     0.027 A 
ATOM     21  C   UNL A   1      39.059  32.975  36.495  1.00  0.00     0.027 A 
BRANCH  17  22
ATOM     22  S   UNL A   1      40.303  33.474  40.244  1.00  0.00     0.261 S 
ATOM     23  O   UNL A   1      41.441  34.353  40.392  1.00  0.00    -0.201 OA
ATOM     24  O   UNL A   1      40.468  32.034  40.315  1.00  0.00    -0.201 OA
BRANCH  22  25
ATOM     25  N   UNL A   1      39.184  33.837  41.488  1.00  0.00    -0.280 N 
ATOM     26  H   UNL A   1      39.401  34.569  42.109  1.00  0.00     0.180 HD
BRANCH  25  27
ATOM     27  C   UNL A   1      37.947  33.135  41.676  1.00  0.00     0.049 A 
ATOM     28  C   UNL A   1      35.497  31.867  42.303  1.00  0.00     0.119 A 
ATOM     29  C   UNL A   1      36.679  31.457  42.904  1.00  0.00     0.048 A 
ATOM     30  C   UNL A   1      35.531  32.935  41.407  1.00  0.00     0.048 A 
ATOM     31  C   UNL A   1      37.881  32.097  42.596  1.00  0.00     0.030 A 
ATOM     32  C   UNL A   1      36.755  33.567  41.092  1.00  0.00     0.030 A 
BRANCH  28  33
ATOM     33  O   UNL A   1      34.384  31.201  42.731  1.00  0.00    -0.497 OA
ATOM     34  C   UNL A   1      34.127  31.234  44.128  1.00  0.00     0.278 C 
ENDBRANCH  28  33
ENDBRANCH  25  27
ENDBRANCH  22  25
ENDBRANCH  17  22
ENDBRANCH  13  16
ENDBRANCH   7  12
ENDBRANCH   4   6
ENDBRANCH   3   4
ENDBRANCH   2   3
ENDBRANCH   1   2
BRANCH   1  35
ATOM     35  O   UNL A   1      32.811  37.334  31.200  1.00  0.00    -0.376 OA
BRANCH  35  36
ATOM     36  C   UNL A   1      32.528  35.975  30.922  1.00  0.00     0.188 C 
BRANCH  36  37
ATOM     37  C   UNL A   1      33.326  35.379  29.744  1.00  0.00     0.188 C 
BRANCH  37  38
ATOM     38  O   UNL A   1      32.906  34.182  29.105  1.00  0.00    -0.376 OA
BRANCH  38  39
ATOM     39  C   UNL A   1      33.636  33.699  27.993  1.00  0.00     0.202 C 
BRANCH  39  40
ATOM     40  C   UNL A   1      34.551  32.483  28.207  1.00  0.00     0.261 C 
BRANCH  40  41
ATOM     41  O   UNL A   1      33.917  31.192  28.113  1.00  0.00    -0.460 OA
BRANCH  41  42
ATOM     42  C   UNL A   1      34.687  30.184  27.621  1.00  0.00     0.338 C 
ATOM     43  O   UNL A   1      34.494  29.550  26.608  1.00  0.00    -0.246 OA
BRANCH  42  44
ATOM     44  C   UNL A   1      35.939  30.054  28.421  1.00  0.00     0.060 A 
ATOM     45  C   UNL A   1      37.120  30.610  27.904  1.00  0.00     0.016 A 
ATOM     46  C   UNL A   1      35.975  29.353  29.627  1.00  0.00     0.016 A 
ATOM     47  C   UNL A   1      38.340  30.434  28.566  1.00  0.00     0.010 A 
ATOM     48  C   UNL A   1      37.205  29.149  30.275  1.00  0.00     0.010 A 
ATOM     49  C   UNL A   1      38.400  29.659  29.731  1.00  0.00    -0.014 A 
BRANCH  49  50
ATOM     50  C   UNL A   1      39.717  29.201  30.253  1.00  0.00     0.031 A 
ATOM     51  C   UNL A   1      40.422  28.078  29.537  1.00  0.00     0.074 A 
ATOM     52  C   UNL A   1      40.306  29.773  31.319  1.00  0.00     0.049 A 
ATOM     53  N   UNL A   1      41.532  27.456  29.845  1.00  0.00    -0.248 NA
ATOM     54  C   UNL A   1      39.783  27.593  28.303  1.00  0.00     0.031 C 
ATOM     55  C   UNL A   1      39.786  30.913  32.069  1.00  0.00     0.029 A 
ATOM     56  N   UNL A   1      41.482  29.457  31.959  1.00  0.00    -0.354 N 
ATOM     57  C   UNL A   1      41.725  26.510  28.847  1.00  0.00     0.074 A 
ATOM     58  C   UNL A   1      40.603  26.618  27.939  1.00  0.00     0.031 C 
ATOM     59  C   UNL A   1      40.631  31.191  33.079  1.00  0.00     0.029 A 
ATOM     60  C   UNL A   1      41.734  30.229  33.068  1.00  0.00     0.049 A 
ATOM     61  H   UNL A   1      42.088  28.743  31.651  1.00  0.00     0.167 HD
ATOM     62  C   UNL A   1      42.746  25.633  28.689  1.00  0.00     0.037 A 
ATOM     63  C   UNL A   1      42.723  30.149  33.983  1.00  0.00     0.037 A 
ATOM     64  C   UNL A   1      43.860  25.505  29.591  1.00  0.00     0.049 A 
ATOM     65  C   UNL A   1      43.788  29.090  33.852  1.00  0.00     0.074 A 
ATOM     66  C   UNL A   1      44.930  24.628  29.520  1.00  0.00     0.029 A 
ATOM     67  N   UNL A   1      44.046  26.269  30.731  1.00  0.00    -0.354 N 
ATOM     68  N   UNL A   1      43.956  28.191  32.912  1.00  0.00    -0.248 NA
ATOM     69  C   UNL A   1      44.804  29.031  34.917  1.00  0.00     0.031 C 
ATOM     70  C   UNL A   1      45.737  24.829  30.644  1.00  0.00     0.029 A 
ATOM     71  C   UNL A   1      45.202  25.870  31.384  1.00  0.00     0.049 A 
ATOM     72  H   UNL A   1      43.446  26.989  31.035  1.00  0.00     0.167 HD
ATOM     73  C   UNL A   1      45.109  27.490  33.251  1.00  0.00     0.074 A 
ATOM     74  C   UNL A   1      45.606  28.070  34.480  1.00  0.00     0.031 C 
ATOM     75  C   UNL A   1      45.703  26.460  32.599  1.00  0.00     0.037 A 
BRANCH  62  76
ATOM     76  C   UNL A   1      42.687  24.715  27.503  1.00  0.00     0.057 A 
ATOM     77  C   UNL A   1      43.257  25.062  26.272  1.00  0.00     0.134 A 
ATOM     78  C   UNL A   1      42.080  23.456  27.603  1.00  0.00     0.134 A 
ATOM     79  F   UNL A   1      43.840  26.259  26.106  1.00  0.00    -0.206 F 
ATOM     80  C   UNL A   1      43.206  24.199  25.176  1.00  0.00     0.040 A 
ATOM     81  C   UNL A   1      42.048  22.574  26.523  1.00  0.00     0.040 A 
ATOM     82  F   UNL A   1      41.520  23.060  28.757  1.00  0.00    -0.206 F 
ATOM     83  C   UNL A   1      42.606  22.948  25.303  1.00  0.00     0.006 A 
ENDBRANCH  62  76
BRANCH  63  84
ATOM     84  C   UNL A   1      42.755  31.093  35.131  1.00  0.00     0.057 A 
ATOM     85  C   UNL A   1      43.227  32.403  34.982  1.00  0.00     0.134 A 
ATOM     86  C   UNL A   1      42.359  30.694  36.414  1.00  0.00     0.134 A 
ATOM     87  F   UNL A   1      43.653  32.834  33.786  1.00  0.00    -0.206 F 
ATOM     88  C   UNL A   1      43.319  33.277  36.068  1.00  0.00     0.040 A 
ATOM     89  C   UNL A   1      42.420  31.565  37.503  1.00  0.00     0.040 A 
ATOM     90  F   UNL A   1      41.908  29.450  36.628  1.00  0.00    -0.206 F 
ATOM     91  C   UNL A   1      42.909  32.860  37.332  1.00  0.00     0.006 A 
ENDBRANCH  63  84
BRANCH  75  92
ATOM     92  C   UNL A   1      46.986  25.917  33.165  1.00  0.00     0.057 A 
ATOM     93  C   UNL A   1      48.232  26.479  32.861  1.00  0.00     0.134 A 
ATOM     94  C   UNL A   1      46.966  24.850  34.073  1.00  0.00     0.134 A 
ATOM     95  F   UNL A   1      48.325  27.497  31.992  1.00  0.00    -0.206 F 
ATOM     96  C   UNL A   1      49.413  25.985  33.420  1.00  0.00     0.040 A 
ATOM     97  C   UNL A   1      48.137  24.365  34.661  1.00  0.00     0.040 A 
ATOM     98  F   UNL A   1      45.807  24.271  34.421  1.00  0.00    -0.206 F 
ATOM     99  C   UNL A   1      49.366  24.930  34.330  1.00  0.00     0.006 A 
ENDBRANCH  75  92
ENDBRANCH  49  50
ENDBRANCH  42  44
ENDBRANCH  41  42
ENDBRANCH  40  41
ENDBRANCH  39  40
ENDBRANCH  38  39
ENDBRANCH  37  38
ENDBRANCH  36  37
ENDBRANCH  35  36
ENDBRANCH   1  35
TORSDOF 23
ENDMDL
