MODEL 1
REMARK VINA RESULT:      -9.9      0.000      0.000
REMARK SMILES O=C(NCc1ccc(C(=O)OCCOCCOCCOC(=O)c2ccc(-c3c4nc(c(-c5c(F)cccc5F)c5ccc([nH]5)c(-c5c(F)cccc5F)c5nc(c(-c6c(F)cccc6F)c6ccc3[nH]6)C=C5)C=C4)cc2)o1)c1cccnc1
REMARK SMILES IDX 15 1 14 2 13 3 12 4 11 5 9 6 10 7 8 8 5 9 6 10 77 11 7 12
REMARK SMILES IDX 4 13 3 14 1 15 2 16 78 18 79 19 83 20 80 21 82 22 81 23
REMARK SMILES IDX 16 24 17 25 18 26 19 27 20 28 21 29 22 30 23 31 24 32 76 33
REMARK SMILES IDX 25 34 75 35 26 36 27 37 28 38 69 39 29 40 74 41 68 42 70 43
REMARK SMILES IDX 30 44 73 45 67 46 66 47 31 49 57 50 40 51 56 52 41 53 44 54
REMARK SMILES IDX 55 55 71 56 42 57 43 58 54 60 72 61 45 62 32 63 33 64 38 65
REMARK SMILES IDX 34 66 35 67 37 68 39 69 36 70 58 71 59 72 64 73 60 74 61 75
REMARK SMILES IDX 63 76 65 77 62 78 46 79 47 80 52 81 48 82 49 83 51 84 53 85
REMARK SMILES IDX 50 86
REMARK H PARENT 3 17 70 48 44 59
REMARK Flexibility Score: inf
ROOT
ATOM      1  C   UNL A   1      33.614  25.126  26.013  1.00  0.00     0.188 C 
ENDROOT
BRANCH   1   2
ATOM      2  O   UNL A   1      34.173  23.880  25.611  1.00  0.00    -0.376 OA
BRANCH   2   3
ATOM      3  C   UNL A   1      34.475  23.649  24.241  1.00  0.00     0.202 C 
BRANCH   3   4
ATOM      4  C   UNL A   1      33.630  22.591  23.531  1.00  0.00     0.261 C 
BRANCH   4   5
ATOM      5  O   UNL A   1      32.646  23.182  22.666  1.00  0.00    -0.457 OA
BRANCH   5   6
ATOM      6  C   UNL A   1      31.566  23.742  23.286  1.00  0.00     0.374 C 
ATOM      7  O   UNL A   1      30.911  23.206  24.172  1.00  0.00    -0.242 OA
BRANCH   6   8
ATOM      8  C   UNL A   1      31.386  25.097  22.816  1.00  0.00     0.211 A 
ATOM      9  C   UNL A   1      30.667  27.175  23.010  1.00  0.00     0.124 A 
ATOM     10  C   UNL A   1      31.410  27.130  21.849  1.00  0.00     0.048 A 
ATOM     11  O   UNL A   1      30.640  25.945  23.592  1.00  0.00    -0.452 OA
ATOM     12  C   UNL A   1      31.868  25.795  21.722  1.00  0.00     0.058 A 
BRANCH   9  13
ATOM     13  C   UNL A   1      29.909  28.247  23.698  1.00  0.00     0.191 C 
BRANCH  13  14
ATOM     14  N   UNL A   1      28.488  28.000  23.541  1.00  0.00    -0.345 N 
ATOM     15  O   UNL A   1      26.305  28.448  23.265  1.00  0.00    -0.269 OA
ATOM     16  C   UNL A   1      27.469  28.826  23.151  1.00  0.00     0.253 C 
ATOM     17  H   UNL A   1      28.209  27.078  23.751  1.00  0.00     0.164 HD
BRANCH  16  18
ATOM     18  C   UNL A   1      27.720  30.182  22.638  1.00  0.00     0.058 A 
ATOM     19  C   UNL A   1      27.991  30.357  21.279  1.00  0.00     0.017 A 
ATOM     20  C   UNL A   1      27.786  31.295  23.461  1.00  0.00     0.124 A 
ATOM     21  C   UNL A   1      28.243  31.637  20.790  1.00  0.00     0.021 A 
ATOM     22  N   UNL A   1      28.003  32.556  23.010  1.00  0.00    -0.264 NA
ATOM     23  C   UNL A   1      28.223  32.696  21.684  1.00  0.00     0.111 A 
ENDBRANCH  16  18
ENDBRANCH  13  14
ENDBRANCH   9  13
ENDBRANCH   6   8
ENDBRANCH   5   6
ENDBRANCH   4   5
ENDBRANCH   3   4
ENDBRANCH   2   3
ENDBRANCH   1   2
BRANCH   1  24
ATOM     24  C   UNL A   1      33.870  26.389  25.168  1.00  0.00     0.188 C 
BRANCH  24  25
ATOM     25  O   UNL A   1      33.063  27.499  25.535  1.00  0.00    -0.376 OA
BRANCH  25  26
ATOM     26  C   UNL A   1      33.634  28.780  25.308  1.00  0.00     0.202 C 
BRANCH  26  27
ATOM     27  C   UNL A   1      33.246  29.779  26.400  1.00  0.00     0.261 C 
BRANCH  27  28
ATOM     28  O   UNL A   1      33.904  29.559  27.658  1.00  0.00    -0.460 OA
BRANCH  28  29
ATOM     29  C   UNL A   1      34.649  30.577  28.143  1.00  0.00     0.338 C 
ATOM     30  O   UNL A   1      34.266  31.684  28.475  1.00  0.00    -0.246 OA
BRANCH  29  31
ATOM     31  C   UNL A   1      36.015  30.061  28.354  1.00  0.00     0.060 A 
ATOM     32  C   UNL A   1      36.358  29.538  29.604  1.00  0.00     0.016 A 
ATOM     33  C   UNL A   1      36.944  30.079  27.309  1.00  0.00     0.016 A 
ATOM     34  C   UNL A   1      37.643  29.031  29.811  1.00  0.00     0.010 A 
ATOM     35  C   UNL A   1      38.231  29.585  27.524  1.00  0.00     0.010 A 
ATOM     36  C   UNL A   1      38.590  29.069  28.779  1.00  0.00    -0.014 A 
BRANCH  36  37
ATOM     37  C   UNL A   1      39.994  28.675  29.033  1.00  0.00     0.031 A 
ATOM     38  C   UNL A   1      40.926  29.668  29.664  1.00  0.00     0.074 A 
ATOM     39  C   UNL A   1      40.442  27.458  28.682  1.00  0.00     0.049 A 
ATOM     40  N   UNL A   1      42.211  29.573  29.889  1.00  0.00    -0.248 NA
ATOM     41  C   UNL A   1      40.328  30.943  30.090  1.00  0.00     0.031 C 
ATOM     42  C   UNL A   1      39.630  26.393  28.096  1.00  0.00     0.029 A 
ATOM     43  N   UNL A   1      41.704  26.922  28.753  1.00  0.00    -0.354 N 
ATOM     44  C   UNL A   1      42.576  30.770  30.488  1.00  0.00     0.074 A 
ATOM     45  C   UNL A   1      41.384  31.588  30.565  1.00  0.00     0.031 C 
ATOM     46  C   UNL A   1      40.419  25.333  27.846  1.00  0.00     0.029 A 
ATOM     47  C   UNL A   1      41.794  25.659  28.224  1.00  0.00     0.049 A 
ATOM     48  H   UNL A   1      42.470  27.398  29.146  1.00  0.00     0.167 HD
ATOM     49  C   UNL A   1      43.793  31.152  30.940  1.00  0.00     0.037 A 
ATOM     50  C   UNL A   1      42.869  24.869  28.041  1.00  0.00     0.037 A 
ATOM     51  C   UNL A   1      44.982  30.347  30.855  1.00  0.00     0.049 A 
ATOM     52  C   UNL A   1      44.231  25.357  28.456  1.00  0.00     0.074 A 
ATOM     53  C   UNL A   1      46.257  30.640  31.307  1.00  0.00     0.029 A 
ATOM     54  N   UNL A   1      45.044  29.094  30.265  1.00  0.00    -0.354 N 
ATOM     55  N   UNL A   1      44.565  26.481  29.042  1.00  0.00    -0.248 NA
ATOM     56  C   UNL A   1      45.369  24.470  28.172  1.00  0.00     0.031 C 
ATOM     57  C   UNL A   1      47.100  29.581  30.951  1.00  0.00     0.029 A 
ATOM     58  C   UNL A   1      46.342  28.614  30.312  1.00  0.00     0.049 A 
ATOM     59  H   UNL A   1      44.278  28.617  29.873  1.00  0.00     0.167 HD
ATOM     60  C   UNL A   1      45.943  26.428  29.214  1.00  0.00     0.074 A 
ATOM     61  C   UNL A   1      46.384  25.158  28.677  1.00  0.00     0.031 C 
ATOM     62  C   UNL A   1      46.768  27.350  29.769  1.00  0.00     0.037 A 
BRANCH  49  63
ATOM     63  C   UNL A   1      43.896  32.517  31.546  1.00  0.00     0.057 A 
ATOM     64  C   UNL A   1      43.720  32.728  32.919  1.00  0.00     0.134 A 
ATOM     65  C   UNL A   1      44.183  33.632  30.749  1.00  0.00     0.134 A 
ATOM     66  F   UNL A   1      43.429  31.703  33.733  1.00  0.00    -0.206 F 
ATOM     67  C   UNL A   1      43.804  34.006  33.476  1.00  0.00     0.040 A 
ATOM     68  C   UNL A   1      44.288  34.911  31.297  1.00  0.00     0.040 A 
ATOM     69  F   UNL A   1      44.363  33.496  29.426  1.00  0.00    -0.206 F 
ATOM     70  C   UNL A   1      44.093  35.101  32.664  1.00  0.00     0.006 A 
ENDBRANCH  49  63
BRANCH  50  71
ATOM     71  C   UNL A   1      42.710  23.536  27.412  1.00  0.00     0.057 A 
ATOM     72  C   UNL A   1      42.385  22.411  28.178  1.00  0.00     0.134 A 
ATOM     73  C   UNL A   1      42.897  23.353  26.037  1.00  0.00     0.134 A 
ATOM     74  F   UNL A   1      42.222  22.521  29.504  1.00  0.00    -0.206 F 
ATOM     75  C   UNL A   1      42.257  21.147  27.599  1.00  0.00     0.040 A 
ATOM     76  C   UNL A   1      42.752  22.098  25.443  1.00  0.00     0.040 A 
ATOM     77  F   UNL A   1      43.218  24.391  25.253  1.00  0.00    -0.206 F 
ATOM     78  C   UNL A   1      42.436  20.990  26.226  1.00  0.00     0.006 A 
ENDBRANCH  50  71
BRANCH  62  79
ATOM     79  C   UNL A   1      48.227  27.015  29.838  1.00  0.00     0.057 A 
ATOM     80  C   UNL A   1      49.121  27.412  28.836  1.00  0.00     0.134 A 
ATOM     81  C   UNL A   1      48.753  26.331  30.942  1.00  0.00     0.134 A 
ATOM     82  F   UNL A   1      48.676  28.058  27.747  1.00  0.00    -0.206 F 
ATOM     83  C   UNL A   1      50.485  27.131  28.924  1.00  0.00     0.040 A 
ATOM     84  C   UNL A   1      50.118  26.063  31.051  1.00  0.00     0.040 A 
ATOM     85  F   UNL A   1      47.951  25.929  31.939  1.00  0.00    -0.206 F 
ATOM     86  C   UNL A   1      50.988  26.461  30.038  1.00  0.00     0.006 A 
ENDBRANCH  62  79
ENDBRANCH  36  37
ENDBRANCH  29  31
ENDBRANCH  28  29
ENDBRANCH  27  28
ENDBRANCH  26  27
ENDBRANCH  25  26
ENDBRANCH  24  25
ENDBRANCH   1  24
TORSDOF 20
ENDMDL
MODEL 2
REMARK VINA RESULT:      -9.7      3.045      5.279
REMARK SMILES O=C(NCc1ccc(C(=O)OCCOCCOCCOC(=O)c2ccc(-c3c4nc(c(-c5c(F)cccc5F)c5ccc([nH]5)c(-c5c(F)cccc5F)c5nc(c(-c6c(F)cccc6F)c6ccc3[nH]6)C=C5)C=C4)cc2)o1)c1cccnc1
REMARK SMILES IDX 15 1 14 2 13 3 12 4 11 5 9 6 10 7 8 8 5 9 6 10 77 11 7 12
REMARK SMILES IDX 4 13 3 14 1 15 2 16 78 18 79 19 83 20 80 21 82 22 81 23
REMARK SMILES IDX 16 24 17 25 18 26 19 27 20 28 21 29 22 30 23 31 24 32 76 33
REMARK SMILES IDX 25 34 75 35 26 36 27 37 28 38 69 39 29 40 74 41 68 42 70 43
REMARK SMILES IDX 30 44 73 45 67 46 66 47 31 49 57 50 40 51 56 52 41 53 44 54
REMARK SMILES IDX 55 55 71 56 42 57 43 58 54 60 72 61 45 62 32 63 33 64 38 65
REMARK SMILES IDX 34 66 35 67 37 68 39 69 36 70 58 71 59 72 64 73 60 74 61 75
REMARK SMILES IDX 63 76 65 77 62 78 46 79 47 80 52 81 48 82 49 83 51 84 53 85
REMARK SMILES IDX 50 86
REMARK H PARENT 3 17 70 48 44 59
REMARK Flexibility Score: inf
ROOT
ATOM      1  C   UNL A   1      32.198  28.257  24.491  1.00  0.00     0.188 C 
ENDROOT
BRANCH   1   2
ATOM      2  O   UNL A   1      30.857  27.777  24.500  1.00  0.00    -0.376 OA
BRANCH   2   3
ATOM      3  C   UNL A   1      30.570  26.491  25.033  1.00  0.00     0.202 C 
BRANCH   3   4
ATOM      4  C   UNL A   1      31.771  25.670  25.502  1.00  0.00     0.261 C 
BRANCH   4   5
ATOM      5  O   UNL A   1      31.618  25.222  26.859  1.00  0.00    -0.457 OA
BRANCH   5   6
ATOM      6  C   UNL A   1      31.122  23.961  27.019  1.00  0.00     0.374 C 
ATOM      7  O   UNL A   1      29.931  23.677  27.059  1.00  0.00    -0.242 OA
BRANCH   6   8
ATOM      8  C   UNL A   1      32.209  23.009  27.021  1.00  0.00     0.211 A 
ATOM      9  C   UNL A   1      33.621  21.621  26.044  1.00  0.00     0.124 A 
ATOM     10  C   UNL A   1      34.001  21.690  27.367  1.00  0.00     0.048 A 
ATOM     11  O   UNL A   1      32.530  22.408  25.832  1.00  0.00    -0.452 OA
ATOM     12  C   UNL A   1      33.094  22.578  27.996  1.00  0.00     0.058 A 
BRANCH   9  13
ATOM     13  C   UNL A   1      34.130  20.870  24.871  1.00  0.00     0.191 C 
BRANCH  13  14
ATOM     14  N   UNL A   1      34.441  21.807  23.807  1.00  0.00    -0.345 N 
ATOM     15  O   UNL A   1      35.462  23.502  22.746  1.00  0.00    -0.269 OA
ATOM     16  C   UNL A   1      35.496  22.663  23.642  1.00  0.00     0.253 C 
ATOM     17  H   UNL A   1      33.778  21.830  23.079  1.00  0.00     0.164 HD
BRANCH  16  18
ATOM     18  C   UNL A   1      36.663  22.642  24.540  1.00  0.00     0.058 A 
ATOM     19  C   UNL A   1      37.427  21.478  24.636  1.00  0.00     0.017 A 
ATOM     20  C   UNL A   1      36.991  23.704  25.367  1.00  0.00     0.124 A 
ATOM     21  C   UNL A   1      38.523  21.448  25.495  1.00  0.00     0.021 A 
ATOM     22  N   UNL A   1      38.067  23.714  26.192  1.00  0.00    -0.264 NA
ATOM     23  C   UNL A   1      38.809  22.585  26.233  1.00  0.00     0.111 A 
ENDBRANCH  16  18
ENDBRANCH  13  14
ENDBRANCH   9  13
ENDBRANCH   6   8
ENDBRANCH   5   6
ENDBRANCH   4   5
ENDBRANCH   3   4
ENDBRANCH   2   3
ENDBRANCH   1   2
BRANCH   1  24
ATOM     24  C   UNL A   1      32.643  29.306  25.528  1.00  0.00     0.188 C 
BRANCH  24  25
ATOM     25  O   UNL A   1      33.044  28.750  26.773  1.00  0.00    -0.376 OA
BRANCH  25  26
ATOM     26  C   UNL A   1      34.284  29.216  27.287  1.00  0.00     0.202 C 
BRANCH  26  27
ATOM     27  C   UNL A   1      34.238  30.708  27.621  1.00  0.00     0.261 C 
BRANCH  27  28
ATOM     28  O   UNL A   1      35.519  31.282  27.928  1.00  0.00    -0.460 OA
BRANCH  28  29
ATOM     29  C   UNL A   1      36.005  31.060  29.170  1.00  0.00     0.338 C 
ATOM     30  O   UNL A   1      35.429  31.219  30.230  1.00  0.00    -0.246 OA
BRANCH  29  31
ATOM     31  C   UNL A   1      37.331  30.432  29.018  1.00  0.00     0.060 A 
ATOM     32  C   UNL A   1      38.099  30.181  30.158  1.00  0.00     0.016 A 
ATOM     33  C   UNL A   1      37.800  30.076  27.749  1.00  0.00     0.016 A 
ATOM     34  C   UNL A   1      39.348  29.571  30.028  1.00  0.00     0.010 A 
ATOM     35  C   UNL A   1      39.055  29.480  27.622  1.00  0.00     0.010 A 
ATOM     36  C   UNL A   1      39.840  29.236  28.759  1.00  0.00    -0.014 A 
BRANCH  36  37
ATOM     37  C   UNL A   1      41.222  28.729  28.599  1.00  0.00     0.031 A 
ATOM     38  C   UNL A   1      42.368  29.691  28.724  1.00  0.00     0.074 A 
ATOM     39  C   UNL A   1      41.454  27.436  28.318  1.00  0.00     0.049 A 
ATOM     40  N   UNL A   1      43.646  29.488  28.529  1.00  0.00    -0.248 NA
ATOM     41  C   UNL A   1      42.024  31.067  29.114  1.00  0.00     0.031 C 
ATOM     42  C   UNL A   1      40.432  26.397  28.207  1.00  0.00     0.029 A 
ATOM     43  N   UNL A   1      42.632  26.782  28.057  1.00  0.00    -0.354 N 
ATOM     44  C   UNL A   1      44.260  30.708  28.778  1.00  0.00     0.074 A 
ATOM     45  C   UNL A   1      43.213  31.652  29.109  1.00  0.00     0.031 C 
ATOM     46  C   UNL A   1      41.027  25.236  27.884  1.00  0.00     0.029 A 
ATOM     47  C   UNL A   1      42.465  25.459  27.735  1.00  0.00     0.049 A 
ATOM     48  H   UNL A   1      43.513  27.221  28.097  1.00  0.00     0.167 HD
ATOM     49  C   UNL A   1      45.578  31.012  28.739  1.00  0.00     0.037 A 
ATOM     50  C   UNL A   1      43.367  24.541  27.338  1.00  0.00     0.037 A 
ATOM     51  C   UNL A   1      46.619  30.081  28.399  1.00  0.00     0.049 A 
ATOM     52  C   UNL A   1      44.814  24.930  27.201  1.00  0.00     0.074 A 
ATOM     53  C   UNL A   1      47.987  30.291  28.356  1.00  0.00     0.029 A 
ATOM     54  N   UNL A   1      46.405  28.762  28.028  1.00  0.00    -0.354 N 
ATOM     55  N   UNL A   1      45.391  26.078  27.459  1.00  0.00    -0.248 NA
ATOM     56  C   UNL A   1      45.735  23.897  26.704  1.00  0.00     0.031 C 
ATOM     57  C   UNL A   1      48.596  29.111  27.916  1.00  0.00     0.029 A 
ATOM     58  C   UNL A   1      47.612  28.156  27.722  1.00  0.00     0.049 A 
ATOM     59  H   UNL A   1      45.525  28.323  27.988  1.00  0.00     0.167 HD
ATOM     60  C   UNL A   1      46.740  25.902  27.177  1.00  0.00     0.074 A 
ATOM     61  C   UNL A   1      46.899  24.532  26.733  1.00  0.00     0.031 C 
ATOM     62  C   UNL A   1      47.756  26.794  27.278  1.00  0.00     0.037 A 
BRANCH  49  63
ATOM     63  C   UNL A   1      45.959  32.426  29.054  1.00  0.00     0.057 A 
ATOM     64  C   UNL A   1      46.261  32.834  30.359  1.00  0.00     0.134 A 
ATOM     65  C   UNL A   1      46.032  33.388  28.039  1.00  0.00     0.134 A 
ATOM     66  F   UNL A   1      46.194  31.963  31.377  1.00  0.00    -0.206 F 
ATOM     67  C   UNL A   1      46.601  34.157  30.648  1.00  0.00     0.040 A 
ATOM     68  C   UNL A   1      46.391  34.708  28.312  1.00  0.00     0.040 A 
ATOM     69  F   UNL A   1      45.756  33.059  26.767  1.00  0.00    -0.206 F 
ATOM     70  C   UNL A   1      46.671  35.097  29.621  1.00  0.00     0.006 A 
ENDBRANCH  49  63
BRANCH  50  71
ATOM     71  C   UNL A   1      42.928  23.162  27.015  1.00  0.00     0.057 A 
ATOM     72  C   UNL A   1      42.753  22.752  25.689  1.00  0.00     0.134 A 
ATOM     73  C   UNL A   1      42.659  22.229  28.024  1.00  0.00     0.134 A 
ATOM     74  F   UNL A   1      42.969  23.612  24.683  1.00  0.00    -0.206 F 
ATOM     75  C   UNL A   1      42.318  21.464  25.375  1.00  0.00     0.040 A 
ATOM     76  C   UNL A   1      42.242  20.931  27.723  1.00  0.00     0.040 A 
ATOM     77  F   UNL A   1      42.800  22.565  29.313  1.00  0.00    -0.206 F 
ATOM     78  C   UNL A   1      42.066  20.548  26.395  1.00  0.00     0.006 A 
ENDBRANCH  50  71
BRANCH  62  79
ATOM     79  C   UNL A   1      49.130  26.316  26.918  1.00  0.00     0.057 A 
ATOM     80  C   UNL A   1      49.957  25.683  27.854  1.00  0.00     0.134 A 
ATOM     81  C   UNL A   1      49.613  26.446  25.610  1.00  0.00     0.134 A 
ATOM     82  F   UNL A   1      49.556  25.540  29.127  1.00  0.00    -0.206 F 
ATOM     83  C   UNL A   1      51.220  25.205  27.504  1.00  0.00     0.040 A 
ATOM     84  C   UNL A   1      50.867  25.954  25.243  1.00  0.00     0.040 A 
ATOM     85  F   UNL A   1      48.869  27.037  24.664  1.00  0.00    -0.206 F 
ATOM     86  C   UNL A   1      51.676  25.334  26.193  1.00  0.00     0.006 A 
ENDBRANCH  62  79
ENDBRANCH  36  37
ENDBRANCH  29  31
ENDBRANCH  28  29
ENDBRANCH  27  28
ENDBRANCH  26  27
ENDBRANCH  25  26
ENDBRANCH  24  25
ENDBRANCH   1  24
TORSDOF 20
ENDMDL
MODEL 3
REMARK VINA RESULT:      -9.6      4.524      8.732
REMARK SMILES O=C(NCc1ccc(C(=O)OCCOCCOCCOC(=O)c2ccc(-c3c4nc(c(-c5c(F)cccc5F)c5ccc([nH]5)c(-c5c(F)cccc5F)c5nc(c(-c6c(F)cccc6F)c6ccc3[nH]6)C=C5)C=C4)cc2)o1)c1cccnc1
REMARK SMILES IDX 15 1 14 2 13 3 12 4 11 5 9 6 10 7 8 8 5 9 6 10 77 11 7 12
REMARK SMILES IDX 4 13 3 14 1 15 2 16 78 18 79 19 83 20 80 21 82 22 81 23
REMARK SMILES IDX 16 24 17 25 18 26 19 27 20 28 21 29 22 30 23 31 24 32 76 33
REMARK SMILES IDX 25 34 75 35 26 36 27 37 28 38 69 39 29 40 74 41 68 42 70 43
REMARK SMILES IDX 30 44 73 45 67 46 66 47 31 49 57 50 40 51 56 52 41 53 44 54
REMARK SMILES IDX 55 55 71 56 42 57 43 58 54 60 72 61 45 62 32 63 33 64 38 65
REMARK SMILES IDX 34 66 35 67 37 68 39 69 36 70 58 71 59 72 64 73 60 74 61 75
REMARK SMILES IDX 63 76 65 77 62 78 46 79 47 80 52 81 48 82 49 83 51 84 53 85
REMARK SMILES IDX 50 86
REMARK H PARENT 3 17 70 48 44 59
REMARK Flexibility Score: inf
ROOT
ATOM      1  C   UNL A   1      35.243  33.077  27.813  1.00  0.00     0.188 C 
ENDROOT
BRANCH   1   2
ATOM      2  O   UNL A   1      35.413  31.706  28.161  1.00  0.00    -0.376 OA
BRANCH   2   3
ATOM      3  C   UNL A   1      34.366  30.777  27.911  1.00  0.00     0.202 C 
BRANCH   3   4
ATOM      4  C   UNL A   1      34.794  29.339  27.618  1.00  0.00     0.261 C 
BRANCH   4   5
ATOM      5  O   UNL A   1      34.540  28.972  26.252  1.00  0.00    -0.457 OA
BRANCH   5   6
ATOM      6  C   UNL A   1      33.529  28.075  26.054  1.00  0.00     0.374 C 
ATOM      7  O   UNL A   1      33.515  26.929  26.487  1.00  0.00    -0.242 OA
BRANCH   6   8
ATOM      8  C   UNL A   1      32.441  28.719  25.355  1.00  0.00     0.211 A 
ATOM      9  C   UNL A   1      30.850  28.802  23.827  1.00  0.00     0.124 A 
ATOM     10  C   UNL A   1      30.712  29.942  24.589  1.00  0.00     0.048 A 
ATOM     11  O   UNL A   1      31.901  28.065  24.279  1.00  0.00    -0.452 OA
ATOM     12  C   UNL A   1      31.735  29.892  25.568  1.00  0.00     0.058 A 
BRANCH   9  13
ATOM     13  C   UNL A   1      30.124  28.264  22.651  1.00  0.00     0.191 C 
BRANCH  13  14
ATOM     14  N   UNL A   1      28.728  28.075  23.000  1.00  0.00    -0.345 N 
ATOM     15  O   UNL A   1      26.608  28.612  23.508  1.00  0.00    -0.269 OA
ATOM     16  C   UNL A   1      27.673  28.946  22.994  1.00  0.00     0.253 C 
ATOM     17  H   UNL A   1      28.502  27.161  23.292  1.00  0.00     0.164 HD
BRANCH  16  18
ATOM     18  C   UNL A   1      27.786  30.301  22.429  1.00  0.00     0.058 A 
ATOM     19  C   UNL A   1      28.023  30.450  21.061  1.00  0.00     0.017 A 
ATOM     20  C   UNL A   1      27.754  31.445  23.211  1.00  0.00     0.124 A 
ATOM     21  C   UNL A   1      28.145  31.729  20.523  1.00  0.00     0.021 A 
ATOM     22  N   UNL A   1      27.842  32.702  22.712  1.00  0.00    -0.264 NA
ATOM     23  C   UNL A   1      28.033  32.813  21.378  1.00  0.00     0.111 A 
ENDBRANCH  16  18
ENDBRANCH  13  14
ENDBRANCH   9  13
ENDBRANCH   6   8
ENDBRANCH   5   6
ENDBRANCH   4   5
ENDBRANCH   3   4
ENDBRANCH   2   3
ENDBRANCH   1   2
BRANCH   1  24
ATOM     24  C   UNL A   1      35.447  34.169  28.880  1.00  0.00     0.188 C 
BRANCH  24  25
ATOM     25  O   UNL A   1      34.663  35.335  28.667  1.00  0.00    -0.376 OA
BRANCH  25  26
ATOM     26  C   UNL A   1      33.261  35.174  28.826  1.00  0.00     0.202 C 
BRANCH  26  27
ATOM     27  C   UNL A   1      32.748  35.862  30.092  1.00  0.00     0.261 C 
BRANCH  27  28
ATOM     28  O   UNL A   1      32.783  35.035  31.266  1.00  0.00    -0.460 OA
BRANCH  28  29
ATOM     29  C   UNL A   1      33.150  35.632  32.423  1.00  0.00     0.338 C 
ATOM     30  O   UNL A   1      32.513  36.440  33.074  1.00  0.00    -0.246 OA
BRANCH  29  31
ATOM     31  C   UNL A   1      34.415  35.009  32.856  1.00  0.00     0.060 A 
ATOM     32  C   UNL A   1      35.610  35.410  32.254  1.00  0.00     0.016 A 
ATOM     33  C   UNL A   1      34.415  34.046  33.870  1.00  0.00     0.016 A 
ATOM     34  C   UNL A   1      36.817  34.840  32.668  1.00  0.00     0.010 A 
ATOM     35  C   UNL A   1      35.620  33.468  34.270  1.00  0.00     0.010 A 
ATOM     36  C   UNL A   1      36.825  33.853  33.663  1.00  0.00    -0.014 A 
BRANCH  36  37
ATOM     37  C   UNL A   1      38.076  33.137  34.000  1.00  0.00     0.031 A 
ATOM     38  C   UNL A   1      38.524  32.004  33.125  1.00  0.00     0.074 A 
ATOM     39  C   UNL A   1      38.790  33.473  35.088  1.00  0.00     0.049 A 
ATOM     40  N   UNL A   1      39.529  31.180  33.282  1.00  0.00    -0.248 NA
ATOM     41  C   UNL A   1      37.726  31.762  31.912  1.00  0.00     0.031 C 
ATOM     42  C   UNL A   1      38.481  34.575  35.997  1.00  0.00     0.029 A 
ATOM     43  N   UNL A   1      39.918  32.900  35.620  1.00  0.00    -0.354 N 
ATOM     44  C   UNL A   1      39.488  30.327  32.188  1.00  0.00     0.074 A 
ATOM     45  C   UNL A   1      38.344  30.713  31.389  1.00  0.00     0.031 C 
ATOM     46  C   UNL A   1      39.392  34.589  36.986  1.00  0.00     0.029 A 
ATOM     47  C   UNL A   1      40.324  33.479  36.796  1.00  0.00     0.049 A 
ATOM     48  H   UNL A   1      40.390  32.146  35.198  1.00  0.00     0.167 HD
ATOM     49  C   UNL A   1      40.333  29.317  31.874  1.00  0.00     0.037 A 
ATOM     50  C   UNL A   1      41.318  33.133  37.636  1.00  0.00     0.037 A 
ATOM     51  C   UNL A   1      41.463  28.924  32.671  1.00  0.00     0.049 A 
ATOM     52  C   UNL A   1      42.180  31.941  37.319  1.00  0.00     0.074 A 
ATOM     53  C   UNL A   1      42.391  27.927  32.421  1.00  0.00     0.029 A 
ATOM     54  N   UNL A   1      41.812  29.501  33.882  1.00  0.00    -0.354 N 
ATOM     55  N   UNL A   1      42.151  31.153  36.273  1.00  0.00    -0.248 NA
ATOM     56  C   UNL A   1      43.207  31.583  38.309  1.00  0.00     0.031 C 
ATOM     57  C   UNL A   1      43.275  27.873  33.505  1.00  0.00     0.029 A 
ATOM     58  C   UNL A   1      42.921  28.860  34.409  1.00  0.00     0.049 A 
ATOM     59  H   UNL A   1      41.341  30.255  34.304  1.00  0.00     0.167 HD
ATOM     60  C   UNL A   1      43.163  30.221  36.466  1.00  0.00     0.074 A 
ATOM     61  C   UNL A   1      43.794  30.544  37.729  1.00  0.00     0.031 C 
ATOM     62  C   UNL A   1      43.536  29.190  35.669  1.00  0.00     0.037 A 
BRANCH  49  63
ATOM     63  C   UNL A   1      40.042  28.554  30.620  1.00  0.00     0.057 A 
ATOM     64  C   UNL A   1      40.626  28.900  29.395  1.00  0.00     0.134 A 
ATOM     65  C   UNL A   1      39.175  27.454  30.638  1.00  0.00     0.134 A 
ATOM     66  F   UNL A   1      41.454  29.952  29.309  1.00  0.00    -0.206 F 
ATOM     67  C   UNL A   1      40.340  28.193  28.226  1.00  0.00     0.040 A 
ATOM     68  C   UNL A   1      38.897  26.727  29.480  1.00  0.00     0.040 A 
ATOM     69  F   UNL A   1      38.584  27.071  31.780  1.00  0.00    -0.206 F 
ATOM     70  C   UNL A   1      39.476  27.100  28.268  1.00  0.00     0.006 A 
ENDBRANCH  49  63
BRANCH  50  71
ATOM     71  C   UNL A   1      41.544  33.912  38.877  1.00  0.00     0.057 A 
ATOM     72  C   UNL A   1      40.919  33.554  40.077  1.00  0.00     0.134 A 
ATOM     73  C   UNL A   1      42.374  35.039  38.890  1.00  0.00     0.134 A 
ATOM     74  F   UNL A   1      40.091  32.500  40.119  1.00  0.00    -0.206 F 
ATOM     75  C   UNL A   1      41.106  34.294  41.246  1.00  0.00     0.040 A 
ATOM     76  C   UNL A   1      42.585  35.776  40.056  1.00  0.00     0.040 A 
ATOM     77  F   UNL A   1      42.993  35.436  37.770  1.00  0.00    -0.206 F 
ATOM     78  C   UNL A   1      41.946  35.406  41.238  1.00  0.00     0.006 A 
ENDBRANCH  50  71
BRANCH  62  79
ATOM     79  C   UNL A   1      44.687  28.346  36.127  1.00  0.00     0.057 A 
ATOM     80  C   UNL A   1      44.490  27.171  36.862  1.00  0.00     0.134 A 
ATOM     81  C   UNL A   1      46.003  28.687  35.788  1.00  0.00     0.134 A 
ATOM     82  F   UNL A   1      43.255  26.798  37.229  1.00  0.00    -0.206 F 
ATOM     83  C   UNL A   1      45.563  26.368  37.253  1.00  0.00     0.040 A 
ATOM     84  C   UNL A   1      47.082  27.881  36.156  1.00  0.00     0.040 A 
ATOM     85  F   UNL A   1      46.259  29.796  35.080  1.00  0.00    -0.206 F 
ATOM     86  C   UNL A   1      46.863  26.719  36.893  1.00  0.00     0.006 A 
ENDBRANCH  62  79
ENDBRANCH  36  37
ENDBRANCH  29  31
ENDBRANCH  28  29
ENDBRANCH  27  28
ENDBRANCH  26  27
ENDBRANCH  25  26
ENDBRANCH  24  25
ENDBRANCH   1  24
TORSDOF 20
ENDMDL
