MODEL 1
REMARK VINA RESULT:      -9.7      0.000      0.000
REMARK SMILES CCC(CC)NC(=O)N[C@@H]1C=C[C@@H](C(=O)OCCOCCOCCOC(=O)c2ccc(-c3c4nc(c(-c5c(F)cccc5F)c5ccc([nH]5)c(-c5c(F)cccc5F)c5nc(c(-c6c(F)cccc6F)c6ccc3[nH]6)C=C5)C=C4)cc2)C1
REMARK SMILES IDX 20 1 19 2 18 3 17 4 16 5 14 6 15 7 13 8 10 9 11 10 82 11
REMARK SMILES IDX 12 12 9 13 6 14 7 15 8 17 3 19 2 20 1 21 4 22 5 23 21 24
REMARK SMILES IDX 22 25 23 26 24 27 25 28 26 29 27 30 28 31 29 32 81 33 30 34
REMARK SMILES IDX 80 35 31 36 32 37 33 38 74 39 34 40 79 41 73 42 75 43 35 44
REMARK SMILES IDX 78 45 72 46 71 47 36 49 62 50 45 51 61 52 46 53 49 54 60 55
REMARK SMILES IDX 76 56 47 57 48 58 59 60 77 61 50 62 37 63 38 64 43 65 39 66
REMARK SMILES IDX 40 67 42 68 44 69 41 70 63 71 64 72 69 73 65 74 66 75 68 76
REMARK SMILES IDX 70 77 67 78 51 79 52 80 57 81 53 82 54 83 56 84 58 85 55 86
REMARK H PARENT 6 16 9 18 75 48 49 59
REMARK Flexibility Score: inf
ROOT
ATOM      1  C   UNL A   1      40.342  22.142  26.833  1.00  0.00     0.188 C 
ENDROOT
BRANCH   1   2
ATOM      2  O   UNL A   1      39.226  21.519  26.243  1.00  0.00    -0.376 OA
BRANCH   2   3
ATOM      3  C   UNL A   1      38.097  22.332  25.943  1.00  0.00     0.202 C 
BRANCH   3   4
ATOM      4  C   UNL A   1      36.711  21.734  25.621  1.00  0.00     0.261 C 
BRANCH   4   5
ATOM      5  O   UNL A   1      36.386  21.599  24.222  1.00  0.00    -0.463 OA
BRANCH   5   6
ATOM      6  C   UNL A   1      36.088  22.783  23.624  1.00  0.00     0.312 C 
ATOM      7  O   UNL A   1      36.694  23.189  22.631  1.00  0.00    -0.252 OA
BRANCH   6   8
ATOM      8  C   UNL A   1      34.764  23.418  24.061  1.00  0.00     0.124 C 
ATOM      9  C   UNL A   1      33.149  25.273  24.116  1.00  0.00     0.107 C 
ATOM     10  C   UNL A   1      32.932  24.428  22.922  1.00  0.00    -0.006 C 
ATOM     11  C   UNL A   1      34.528  24.818  24.641  1.00  0.00     0.048 C 
ATOM     12  C   UNL A   1      33.829  23.437  22.865  1.00  0.00    -0.014 C 
BRANCH   9  13
ATOM     13  N   UNL A   1      32.004  25.293  25.040  1.00  0.00    -0.332 N 
ATOM     14  N   UNL A   1      31.467  23.337  26.319  1.00  0.00    -0.335 N 
ATOM     15  C   UNL A   1      31.295  24.604  25.936  1.00  0.00     0.315 C 
ATOM     16  H   UNL A   1      30.814  23.042  26.994  1.00  0.00     0.165 HD
ATOM     17  O   UNL A   1      30.358  25.210  26.467  1.00  0.00    -0.249 OA
ATOM     18  H   UNL A   1      31.589  26.183  24.968  1.00  0.00     0.165 HD
BRANCH  14  19
ATOM     19  C   UNL A   1      32.411  22.307  25.951  1.00  0.00     0.083 C 
BRANCH  19  20
ATOM     20  C   UNL A   1      33.162  21.759  27.173  1.00  0.00     0.021 C 
ATOM     21  C   UNL A   1      34.213  22.723  27.719  1.00  0.00     0.006 C 
ENDBRANCH  19  20
BRANCH  19  22
ATOM     22  C   UNL A   1      31.831  21.279  24.972  1.00  0.00     0.021 C 
ATOM     23  C   UNL A   1      32.814  20.263  24.419  1.00  0.00     0.006 C 
ENDBRANCH  19  22
ENDBRANCH  14  19
ENDBRANCH   9  13
ENDBRANCH   6   8
ENDBRANCH   5   6
ENDBRANCH   4   5
ENDBRANCH   3   4
ENDBRANCH   2   3
ENDBRANCH   1   2
BRANCH   1  24
ATOM     24  C   UNL A   1      41.686  21.489  26.494  1.00  0.00     0.188 C 
BRANCH  24  25
ATOM     25  O   UNL A   1      41.804  20.315  25.706  1.00  0.00    -0.376 OA
BRANCH  25  26
ATOM     26  C   UNL A   1      42.402  19.157  26.274  1.00  0.00     0.202 C 
BRANCH  26  27
ATOM     27  C   UNL A   1      43.700  18.557  25.700  1.00  0.00     0.261 C 
BRANCH  27  28
ATOM     28  O   UNL A   1      43.974  18.835  24.321  1.00  0.00    -0.460 OA
BRANCH  28  29
ATOM     29  C   UNL A   1      45.187  19.399  24.076  1.00  0.00     0.338 C 
ATOM     30  O   UNL A   1      46.111  18.927  23.443  1.00  0.00    -0.246 OA
BRANCH  29  31
ATOM     31  C   UNL A   1      45.140  20.810  24.524  1.00  0.00     0.060 A 
ATOM     32  C   UNL A   1      44.572  21.769  23.668  1.00  0.00     0.016 A 
ATOM     33  C   UNL A   1      45.626  21.177  25.775  1.00  0.00     0.016 A 
ATOM     34  C   UNL A   1      44.460  23.097  24.075  1.00  0.00     0.010 A 
ATOM     35  C   UNL A   1      45.562  22.518  26.160  1.00  0.00     0.010 A 
ATOM     36  C   UNL A   1      44.986  23.482  25.311  1.00  0.00    -0.014 A 
BRANCH  36  37
ATOM     37  C   UNL A   1      45.087  24.913  25.673  1.00  0.00     0.031 A 
ATOM     38  C   UNL A   1      46.433  25.572  25.602  1.00  0.00     0.074 A 
ATOM     39  C   UNL A   1      44.013  25.600  26.098  1.00  0.00     0.049 A 
ATOM     40  N   UNL A   1      46.809  26.740  26.050  1.00  0.00    -0.248 NA
ATOM     41  C   UNL A   1      47.498  24.802  24.940  1.00  0.00     0.031 C 
ATOM     42  C   UNL A   1      42.644  25.091  26.145  1.00  0.00     0.029 A 
ATOM     43  N   UNL A   1      43.920  26.872  26.605  1.00  0.00    -0.354 N 
ATOM     44  C   UNL A   1      48.160  26.839  25.744  1.00  0.00     0.074 A 
ATOM     45  C   UNL A   1      48.540  25.609  25.084  1.00  0.00     0.031 C 
ATOM     46  C   UNL A   1      41.851  26.031  26.690  1.00  0.00     0.029 A 
ATOM     47  C   UNL A   1      42.666  27.182  27.074  1.00  0.00     0.049 A 
ATOM     48  H   UNL A   1      44.677  27.501  26.630  1.00  0.00     0.167 HD
ATOM     49  C   UNL A   1      49.005  27.864  25.995  1.00  0.00     0.037 A 
ATOM     50  C   UNL A   1      42.243  28.249  27.779  1.00  0.00     0.037 A 
ATOM     51  C   UNL A   1      48.620  29.083  26.658  1.00  0.00     0.049 A 
ATOM     52  C   UNL A   1      43.229  29.328  28.151  1.00  0.00     0.074 A 
ATOM     53  C   UNL A   1      49.397  30.190  26.942  1.00  0.00     0.029 A 
ATOM     54  N   UNL A   1      47.350  29.344  27.150  1.00  0.00    -0.354 N 
ATOM     55  N   UNL A   1      44.502  29.427  27.850  1.00  0.00    -0.248 NA
ATOM     56  C   UNL A   1      42.722  30.438  28.972  1.00  0.00     0.031 C 
ATOM     57  C   UNL A   1      48.613  31.099  27.660  1.00  0.00     0.029 A 
ATOM     58  C   UNL A   1      47.332  30.580  27.774  1.00  0.00     0.049 A 
ATOM     59  H   UNL A   1      46.576  28.740  27.069  1.00  0.00     0.167 HD
ATOM     60  C   UNL A   1      44.941  30.613  28.426  1.00  0.00     0.074 A 
ATOM     61  C   UNL A   1      43.795  31.210  29.078  1.00  0.00     0.031 C 
ATOM     62  C   UNL A   1      46.182  31.161  28.417  1.00  0.00     0.037 A 
BRANCH  49  63
ATOM     63  C   UNL A   1      50.439  27.698  25.588  1.00  0.00     0.057 A 
ATOM     64  C   UNL A   1      50.858  27.869  24.263  1.00  0.00     0.134 A 
ATOM     65  C   UNL A   1      51.419  27.398  26.543  1.00  0.00     0.134 A 
ATOM     66  F   UNL A   1      49.969  28.141  23.296  1.00  0.00    -0.206 F 
ATOM     67  C   UNL A   1      52.199  27.729  23.899  1.00  0.00     0.040 A 
ATOM     68  C   UNL A   1      52.765  27.283  26.196  1.00  0.00     0.040 A 
ATOM     69  F   UNL A   1      51.083  27.224  27.831  1.00  0.00    -0.206 F 
ATOM     70  C   UNL A   1      53.158  27.443  24.870  1.00  0.00     0.006 A 
ENDBRANCH  49  63
BRANCH  50  71
ATOM     71  C   UNL A   1      40.831  28.335  28.232  1.00  0.00     0.057 A 
ATOM     72  C   UNL A   1      39.842  28.897  27.415  1.00  0.00     0.134 A 
ATOM     73  C   UNL A   1      40.440  27.890  29.501  1.00  0.00     0.134 A 
ATOM     74  F   UNL A   1      40.159  29.367  26.200  1.00  0.00    -0.206 F 
ATOM     75  C   UNL A   1      38.522  29.029  27.850  1.00  0.00     0.040 A 
ATOM     76  C   UNL A   1      39.118  27.990  29.938  1.00  0.00     0.040 A 
ATOM     77  F   UNL A   1      41.339  27.345  30.334  1.00  0.00    -0.206 F 
ATOM     78  C   UNL A   1      38.156  28.569  29.113  1.00  0.00     0.006 A 
ENDBRANCH  50  71
BRANCH  62  79
ATOM     79  C   UNL A   1      46.365  32.477  29.116  1.00  0.00     0.057 A 
ATOM     80  C   UNL A   1      46.794  32.551  30.446  1.00  0.00     0.134 A 
ATOM     81  C   UNL A   1      46.174  33.684  28.429  1.00  0.00     0.134 A 
ATOM     82  F   UNL A   1      46.983  31.434  31.164  1.00  0.00    -0.206 F 
ATOM     83  C   UNL A   1      47.014  33.779  31.073  1.00  0.00     0.040 A 
ATOM     84  C   UNL A   1      46.417  34.916  29.037  1.00  0.00     0.040 A 
ATOM     85  F   UNL A   1      45.773  33.682  27.149  1.00  0.00    -0.206 F 
ATOM     86  C   UNL A   1      46.835  34.965  30.365  1.00  0.00     0.006 A 
ENDBRANCH  62  79
ENDBRANCH  36  37
ENDBRANCH  29  31
ENDBRANCH  28  29
ENDBRANCH  27  28
ENDBRANCH  26  27
ENDBRANCH  25  26
ENDBRANCH  24  25
ENDBRANCH   1  24
TORSDOF 21
ENDMDL
MODEL 2
REMARK VINA RESULT:      -9.7      1.015      2.278
REMARK SMILES CCC(CC)NC(=O)N[C@@H]1C=C[C@@H](C(=O)OCCOCCOCCOC(=O)c2ccc(-c3c4nc(c(-c5c(F)cccc5F)c5ccc([nH]5)c(-c5c(F)cccc5F)c5nc(c(-c6c(F)cccc6F)c6ccc3[nH]6)C=C5)C=C4)cc2)C1
REMARK SMILES IDX 20 1 19 2 18 3 17 4 16 5 14 6 15 7 13 8 10 9 11 10 82 11
REMARK SMILES IDX 12 12 9 13 6 14 7 15 8 17 3 19 2 20 1 21 4 22 5 23 21 24
REMARK SMILES IDX 22 25 23 26 24 27 25 28 26 29 27 30 28 31 29 32 81 33 30 34
REMARK SMILES IDX 80 35 31 36 32 37 33 38 74 39 34 40 79 41 73 42 75 43 35 44
REMARK SMILES IDX 78 45 72 46 71 47 36 49 62 50 45 51 61 52 46 53 49 54 60 55
REMARK SMILES IDX 76 56 47 57 48 58 59 60 77 61 50 62 37 63 38 64 43 65 39 66
REMARK SMILES IDX 40 67 42 68 44 69 41 70 63 71 64 72 69 73 65 74 66 75 68 76
REMARK SMILES IDX 70 77 67 78 51 79 52 80 57 81 53 82 54 83 56 84 58 85 55 86
REMARK H PARENT 6 16 9 18 75 48 49 59
REMARK Flexibility Score: inf
ROOT
ATOM      1  C   UNL A   1      40.418  22.289  26.914  1.00  0.00     0.188 C 
ENDROOT
BRANCH   1   2
ATOM      2  O   UNL A   1      39.316  21.712  26.256  1.00  0.00    -0.376 OA
BRANCH   2   3
ATOM      3  C   UNL A   1      38.193  22.547  25.990  1.00  0.00     0.202 C 
BRANCH   3   4
ATOM      4  C   UNL A   1      36.811  21.974  25.611  1.00  0.00     0.261 C 
BRANCH   4   5
ATOM      5  O   UNL A   1      36.599  21.696  24.212  1.00  0.00    -0.463 OA
BRANCH   5   6
ATOM      6  C   UNL A   1      36.007  22.722  23.544  1.00  0.00     0.312 C 
ATOM      7  O   UNL A   1      36.428  23.132  22.461  1.00  0.00    -0.252 OA
BRANCH   6   8
ATOM      8  C   UNL A   1      34.620  23.118  24.059  1.00  0.00     0.124 C 
ATOM      9  C   UNL A   1      32.752  24.703  24.295  1.00  0.00     0.107 C 
ATOM     10  C   UNL A   1      32.622  23.926  23.043  1.00  0.00    -0.006 C 
ATOM     11  C   UNL A   1      34.200  24.420  24.752  1.00  0.00     0.048 C 
ATOM     12  C   UNL A   1      33.653  23.087  22.888  1.00  0.00    -0.014 C 
BRANCH   9  13
ATOM     13  N   UNL A   1      31.648  24.482  25.242  1.00  0.00    -0.332 N 
ATOM     14  N   UNL A   1      30.769  26.323  26.503  1.00  0.00    -0.335 N 
ATOM     15  C   UNL A   1      30.814  25.045  26.118  1.00  0.00     0.315 C 
ATOM     16  H   UNL A   1      30.067  26.504  27.169  1.00  0.00     0.165 HD
ATOM     17  O   UNL A   1      29.991  24.289  26.646  1.00  0.00    -0.249 OA
ATOM     18  H   UNL A   1      31.436  23.521  25.220  1.00  0.00     0.165 HD
BRANCH  14  19
ATOM     19  C   UNL A   1      31.533  27.495  26.146  1.00  0.00     0.083 C 
BRANCH  19  20
ATOM     20  C   UNL A   1      30.998  28.158  24.867  1.00  0.00     0.021 C 
ATOM     21  C   UNL A   1      31.982  28.101  23.701  1.00  0.00     0.006 C 
ENDBRANCH  19  20
BRANCH  19  22
ATOM     22  C   UNL A   1      31.819  28.416  27.339  1.00  0.00     0.021 C 
ATOM     23  C   UNL A   1      33.086  29.245  27.247  1.00  0.00     0.006 C 
ENDBRANCH  19  22
ENDBRANCH  14  19
ENDBRANCH   9  13
ENDBRANCH   6   8
ENDBRANCH   5   6
ENDBRANCH   4   5
ENDBRANCH   3   4
ENDBRANCH   2   3
ENDBRANCH   1   2
BRANCH   1  24
ATOM     24  C   UNL A   1      41.752  21.579  26.659  1.00  0.00     0.188 C 
BRANCH  24  25
ATOM     25  O   UNL A   1      41.902  20.514  25.736  1.00  0.00    -0.376 OA
BRANCH  25  26
ATOM     26  C   UNL A   1      42.344  19.247  26.206  1.00  0.00     0.202 C 
BRANCH  26  27
ATOM     27  C   UNL A   1      43.523  18.508  25.543  1.00  0.00     0.261 C 
BRANCH  27  28
ATOM     28  O   UNL A   1      43.900  18.957  24.235  1.00  0.00    -0.460 OA
BRANCH  28  29
ATOM     29  C   UNL A   1      45.162  19.457  24.138  1.00  0.00     0.338 C 
ATOM     30  O   UNL A   1      46.128  18.936  23.618  1.00  0.00    -0.246 OA
BRANCH  29  31
ATOM     31  C   UNL A   1      45.134  20.869  24.580  1.00  0.00     0.060 A 
ATOM     32  C   UNL A   1      44.644  21.843  23.694  1.00  0.00     0.016 A 
ATOM     33  C   UNL A   1      45.563  21.224  25.856  1.00  0.00     0.016 A 
ATOM     34  C   UNL A   1      44.552  23.175  24.093  1.00  0.00     0.010 A 
ATOM     35  C   UNL A   1      45.520  22.568  26.235  1.00  0.00     0.010 A 
ATOM     36  C   UNL A   1      45.022  23.547  25.355  1.00  0.00    -0.014 A 
BRANCH  36  37
ATOM     37  C   UNL A   1      45.147  24.976  25.720  1.00  0.00     0.031 A 
ATOM     38  C   UNL A   1      46.505  25.610  25.652  1.00  0.00     0.074 A 
ATOM     39  C   UNL A   1      44.086  25.680  26.147  1.00  0.00     0.049 A 
ATOM     40  N   UNL A   1      46.902  26.770  26.103  1.00  0.00    -0.248 NA
ATOM     41  C   UNL A   1      47.557  24.823  24.989  1.00  0.00     0.031 C 
ATOM     42  C   UNL A   1      42.708  25.195  26.192  1.00  0.00     0.029 A 
ATOM     43  N   UNL A   1      44.015  26.953  26.656  1.00  0.00    -0.354 N 
ATOM     44  C   UNL A   1      48.255  26.846  25.798  1.00  0.00     0.074 A 
ATOM     45  C   UNL A   1      48.613  25.611  25.135  1.00  0.00     0.031 C 
ATOM     46  C   UNL A   1      41.931  26.148  26.738  1.00  0.00     0.029 A 
ATOM     47  C   UNL A   1      42.767  27.284  27.126  1.00  0.00     0.049 A 
ATOM     48  H   UNL A   1      44.783  27.568  26.684  1.00  0.00     0.167 HD
ATOM     49  C   UNL A   1      49.117  27.856  26.052  1.00  0.00     0.037 A 
ATOM     50  C   UNL A   1      42.362  28.357  27.833  1.00  0.00     0.037 A 
ATOM     51  C   UNL A   1      48.753  29.080  26.717  1.00  0.00     0.049 A 
ATOM     52  C   UNL A   1      43.366  29.417  28.208  1.00  0.00     0.074 A 
ATOM     53  C   UNL A   1      49.549  30.173  27.005  1.00  0.00     0.029 A 
ATOM     54  N   UNL A   1      47.488  29.362  27.210  1.00  0.00    -0.354 N 
ATOM     55  N   UNL A   1      44.641  29.494  27.908  1.00  0.00    -0.248 NA
ATOM     56  C   UNL A   1      42.879  30.534  29.031  1.00  0.00     0.031 C 
ATOM     57  C   UNL A   1      48.781  31.093  27.725  1.00  0.00     0.029 A 
ATOM     58  C   UNL A   1      47.491  30.597  27.837  1.00  0.00     0.049 A 
ATOM     59  H   UNL A   1      46.704  28.772  27.127  1.00  0.00     0.167 HD
ATOM     60  C   UNL A   1      45.101  30.671  28.487  1.00  0.00     0.074 A 
ATOM     61  C   UNL A   1      43.965  31.286  29.140  1.00  0.00     0.031 C 
ATOM     62  C   UNL A   1      46.351  31.196  28.481  1.00  0.00     0.037 A 
BRANCH  49  63
ATOM     63  C   UNL A   1      50.548  27.665  25.645  1.00  0.00     0.057 A 
ATOM     64  C   UNL A   1      51.524  27.227  26.549  1.00  0.00     0.134 A 
ATOM     65  C   UNL A   1      50.947  27.889  24.321  1.00  0.00     0.134 A 
ATOM     66  F   UNL A   1      51.212  27.010  27.835  1.00  0.00    -0.206 F 
ATOM     67  C   UNL A   1      52.850  27.036  26.154  1.00  0.00     0.040 A 
ATOM     68  C   UNL A   1      52.261  27.674  23.908  1.00  0.00     0.040 A 
ATOM     69  F   UNL A   1      50.060  28.308  23.404  1.00  0.00    -0.206 F 
ATOM     70  C   UNL A   1      53.219  27.251  24.827  1.00  0.00     0.006 A 
ENDBRANCH  49  63
BRANCH  50  71
ATOM     71  C   UNL A   1      40.951  28.466  28.285  1.00  0.00     0.057 A 
ATOM     72  C   UNL A   1      40.564  28.029  29.557  1.00  0.00     0.134 A 
ATOM     73  C   UNL A   1      39.951  28.976  27.448  1.00  0.00     0.134 A 
ATOM     74  F   UNL A   1      41.470  27.505  30.395  1.00  0.00    -0.206 F 
ATOM     75  C   UNL A   1      39.233  28.079  29.974  1.00  0.00     0.040 A 
ATOM     76  C   UNL A   1      38.620  29.058  27.862  1.00  0.00     0.040 A 
ATOM     77  F   UNL A   1      40.254  29.408  26.215  1.00  0.00    -0.206 F 
ATOM     78  C   UNL A   1      38.257  28.601  29.127  1.00  0.00     0.006 A 
ENDBRANCH  50  71
BRANCH  62  79
ATOM     79  C   UNL A   1      46.557  32.507  29.182  1.00  0.00     0.057 A 
ATOM     80  C   UNL A   1      46.974  32.571  30.517  1.00  0.00     0.134 A 
ATOM     81  C   UNL A   1      46.401  33.719  28.494  1.00  0.00     0.134 A 
ATOM     82  F   UNL A   1      47.130  31.449  31.235  1.00  0.00    -0.206 F 
ATOM     83  C   UNL A   1      47.215  33.793  31.148  1.00  0.00     0.040 A 
ATOM     84  C   UNL A   1      46.666  34.945  29.106  1.00  0.00     0.040 A 
ATOM     85  F   UNL A   1      46.014  33.728  27.210  1.00  0.00    -0.206 F 
ATOM     86  C   UNL A   1      47.071  34.983  30.439  1.00  0.00     0.006 A 
ENDBRANCH  62  79
ENDBRANCH  36  37
ENDBRANCH  29  31
ENDBRANCH  28  29
ENDBRANCH  27  28
ENDBRANCH  26  27
ENDBRANCH  25  26
ENDBRANCH  24  25
ENDBRANCH   1  24
TORSDOF 21
ENDMDL
MODEL 3
REMARK VINA RESULT:      -9.7      4.763      7.174
REMARK SMILES CCC(CC)NC(=O)N[C@@H]1C=C[C@@H](C(=O)OCCOCCOCCOC(=O)c2ccc(-c3c4nc(c(-c5c(F)cccc5F)c5ccc([nH]5)c(-c5c(F)cccc5F)c5nc(c(-c6c(F)cccc6F)c6ccc3[nH]6)C=C5)C=C4)cc2)C1
REMARK SMILES IDX 20 1 19 2 18 3 17 4 16 5 14 6 15 7 13 8 10 9 11 10 82 11
REMARK SMILES IDX 12 12 9 13 6 14 7 15 8 17 3 19 2 20 1 21 4 22 5 23 21 24
REMARK SMILES IDX 22 25 23 26 24 27 25 28 26 29 27 30 28 31 29 32 81 33 30 34
REMARK SMILES IDX 80 35 31 36 32 37 33 38 74 39 34 40 79 41 73 42 75 43 35 44
REMARK SMILES IDX 78 45 72 46 71 47 36 49 62 50 45 51 61 52 46 53 49 54 60 55
REMARK SMILES IDX 76 56 47 57 48 58 59 60 77 61 50 62 37 63 38 64 43 65 39 66
REMARK SMILES IDX 40 67 42 68 44 69 41 70 63 71 64 72 69 73 65 74 66 75 68 76
REMARK SMILES IDX 70 77 67 78 51 79 52 80 57 81 53 82 54 83 56 84 58 85 55 86
REMARK H PARENT 6 16 9 18 75 48 49 59
REMARK Flexibility Score: inf
ROOT
ATOM      1  C   UNL A   1      38.899  20.197  25.596  1.00  0.00     0.188 C 
ENDROOT
BRANCH   1   2
ATOM      2  O   UNL A   1      37.999  21.172  25.124  1.00  0.00    -0.376 OA
BRANCH   2   3
ATOM      3  C   UNL A   1      38.138  22.497  25.626  1.00  0.00     0.202 C 
BRANCH   3   4
ATOM      4  C   UNL A   1      36.923  23.417  25.871  1.00  0.00     0.261 C 
BRANCH   4   5
ATOM      5  O   UNL A   1      36.172  23.804  24.701  1.00  0.00    -0.463 OA
BRANCH   5   6
ATOM      6  C   UNL A   1      34.885  23.367  24.721  1.00  0.00     0.312 C 
ATOM      7  O   UNL A   1      34.570  22.230  24.365  1.00  0.00    -0.252 OA
BRANCH   6   8
ATOM      8  C   UNL A   1      33.910  24.254  25.501  1.00  0.00     0.124 C 
ATOM      9  C   UNL A   1      31.643  25.012  26.086  1.00  0.00     0.107 C 
ATOM     10  C   UNL A   1      32.032  23.847  26.909  1.00  0.00    -0.006 C 
ATOM     11  C   UNL A   1      32.706  25.041  24.967  1.00  0.00     0.048 C 
ATOM     12  C   UNL A   1      33.249  23.405  26.573  1.00  0.00    -0.014 C 
BRANCH   9  13
ATOM     13  N   UNL A   1      31.400  26.233  26.872  1.00  0.00    -0.332 N 
ATOM     14  N   UNL A   1      31.721  28.385  25.866  1.00  0.00    -0.335 N 
ATOM     15  C   UNL A   1      31.388  27.566  26.866  1.00  0.00     0.315 C 
ATOM     16  H   UNL A   1      31.638  29.338  26.098  1.00  0.00     0.165 HD
ATOM     17  O   UNL A   1      31.037  28.110  27.919  1.00  0.00    -0.249 OA
ATOM     18  H   UNL A   1      31.136  25.947  27.776  1.00  0.00     0.165 HD
BRANCH  14  19
ATOM     19  C   UNL A   1      32.178  28.166  24.513  1.00  0.00     0.083 C 
BRANCH  19  20
ATOM     20  C   UNL A   1      31.171  28.692  23.479  1.00  0.00     0.021 C 
ATOM     21  C   UNL A   1      30.591  27.595  22.589  1.00  0.00     0.006 C 
ENDBRANCH  19  20
BRANCH  19  22
ATOM     22  C   UNL A   1      33.649  28.543  24.304  1.00  0.00     0.021 C 
ATOM     23  C   UNL A   1      34.070  28.799  22.869  1.00  0.00     0.006 C 
ENDBRANCH  19  22
ENDBRANCH  14  19
ENDBRANCH   9  13
ENDBRANCH   6   8
ENDBRANCH   5   6
ENDBRANCH   4   5
ENDBRANCH   3   4
ENDBRANCH   2   3
ENDBRANCH   1   2
BRANCH   1  24
ATOM     24  C   UNL A   1      40.134  20.764  26.305  1.00  0.00     0.188 C 
BRANCH  24  25
ATOM     25  O   UNL A   1      40.916  20.016  27.221  1.00  0.00    -0.376 OA
BRANCH  25  26
ATOM     26  C   UNL A   1      42.301  19.830  26.959  1.00  0.00     0.202 C 
BRANCH  26  27
ATOM     27  C   UNL A   1      43.073  20.764  26.007  1.00  0.00     0.261 C 
BRANCH  27  28
ATOM     28  O   UNL A   1      43.454  22.040  26.537  1.00  0.00    -0.460 OA
BRANCH  28  29
ATOM     29  C   UNL A   1      43.135  23.108  25.757  1.00  0.00     0.338 C 
ATOM     30  O   UNL A   1      43.023  23.136  24.548  1.00  0.00    -0.246 OA
BRANCH  29  31
ATOM     31  C   UNL A   1      42.718  24.218  26.643  1.00  0.00     0.060 A 
ATOM     32  C   UNL A   1      43.382  25.451  26.535  1.00  0.00     0.016 A 
ATOM     33  C   UNL A   1      41.673  24.053  27.549  1.00  0.00     0.016 A 
ATOM     34  C   UNL A   1      42.983  26.537  27.313  1.00  0.00     0.010 A 
ATOM     35  C   UNL A   1      41.310  25.126  28.365  1.00  0.00     0.010 A 
ATOM     36  C   UNL A   1      41.965  26.367  28.256  1.00  0.00    -0.014 A 
BRANCH  36  37
ATOM     37  C   UNL A   1      41.675  27.426  29.248  1.00  0.00     0.031 A 
ATOM     38  C   UNL A   1      42.467  27.445  30.521  1.00  0.00     0.074 A 
ATOM     39  C   UNL A   1      40.696  28.323  29.039  1.00  0.00     0.049 A 
ATOM     40  N   UNL A   1      42.269  28.137  31.611  1.00  0.00    -0.248 NA
ATOM     41  C   UNL A   1      43.638  26.556  30.570  1.00  0.00     0.031 C 
ATOM     42  C   UNL A   1      39.905  28.448  27.817  1.00  0.00     0.029 A 
ATOM     43  N   UNL A   1      40.182  29.282  29.876  1.00  0.00    -0.354 N 
ATOM     44  C   UNL A   1      43.277  27.754  32.485  1.00  0.00     0.074 A 
ATOM     45  C   UNL A   1      44.078  26.760  31.804  1.00  0.00     0.031 C 
ATOM     46  C   UNL A   1      38.978  29.405  27.997  1.00  0.00     0.029 A 
ATOM     47  C   UNL A   1      39.079  29.920  29.362  1.00  0.00     0.049 A 
ATOM     48  H   UNL A   1      40.565  29.492  30.758  1.00  0.00     0.167 HD
ATOM     49  C   UNL A   1      43.509  28.193  33.743  1.00  0.00     0.037 A 
ATOM     50  C   UNL A   1      38.222  30.779  29.947  1.00  0.00     0.037 A 
ATOM     51  C   UNL A   1      42.704  29.177  34.416  1.00  0.00     0.049 A 
ATOM     52  C   UNL A   1      38.432  31.165  31.390  1.00  0.00     0.074 A 
ATOM     53  C   UNL A   1      42.867  29.703  35.684  1.00  0.00     0.029 A 
ATOM     54  N   UNL A   1      41.574  29.774  33.875  1.00  0.00    -0.354 N 
ATOM     55  N   UNL A   1      39.392  30.812  32.211  1.00  0.00    -0.248 NA
ATOM     56  C   UNL A   1      37.431  32.058  31.992  1.00  0.00     0.031 C 
ATOM     57  C   UNL A   1      41.802  30.574  35.934  1.00  0.00     0.029 A 
ATOM     58  C   UNL A   1      41.006  30.633  34.801  1.00  0.00     0.049 A 
ATOM     59  H   UNL A   1      41.227  29.610  32.968  1.00  0.00     0.167 HD
ATOM     60  C   UNL A   1      39.123  31.453  33.414  1.00  0.00     0.074 A 
ATOM     61  C   UNL A   1      37.920  32.232  33.212  1.00  0.00     0.031 C 
ATOM     62  C   UNL A   1      39.808  31.402  34.583  1.00  0.00     0.037 A 
BRANCH  49  63
ATOM     63  C   UNL A   1      44.657  27.581  34.490  1.00  0.00     0.057 A 
ATOM     64  C   UNL A   1      45.936  28.152  34.483  1.00  0.00     0.134 A 
ATOM     65  C   UNL A   1      44.470  26.423  35.257  1.00  0.00     0.134 A 
ATOM     66  F   UNL A   1      46.186  29.252  33.757  1.00  0.00    -0.206 F 
ATOM     67  C   UNL A   1      46.992  27.584  35.197  1.00  0.00     0.040 A 
ATOM     68  C   UNL A   1      45.511  25.862  35.996  1.00  0.00     0.040 A 
ATOM     69  F   UNL A   1      43.269  25.827  35.308  1.00  0.00    -0.206 F 
ATOM     70  C   UNL A   1      46.778  26.439  35.964  1.00  0.00     0.006 A 
ENDBRANCH  49  63
BRANCH  50  71
ATOM     71  C   UNL A   1      37.052  31.298  29.194  1.00  0.00     0.057 A 
ATOM     72  C   UNL A   1      35.934  30.491  28.948  1.00  0.00     0.134 A 
ATOM     73  C   UNL A   1      37.034  32.598  28.673  1.00  0.00     0.134 A 
ATOM     74  F   UNL A   1      35.904  29.228  29.397  1.00  0.00    -0.206 F 
ATOM     75  C   UNL A   1      34.851  30.951  28.198  1.00  0.00     0.040 A 
ATOM     76  C   UNL A   1      35.944  33.080  27.945  1.00  0.00     0.040 A 
ATOM     77  F   UNL A   1      38.074  33.421  28.868  1.00  0.00    -0.206 F 
ATOM     78  C   UNL A   1      34.851  32.252  27.699  1.00  0.00     0.006 A 
ENDBRANCH  50  71
BRANCH  62  79
ATOM     79  C   UNL A   1      39.289  32.221  35.729  1.00  0.00     0.057 A 
ATOM     80  C   UNL A   1      38.396  31.692  36.668  1.00  0.00     0.134 A 
ATOM     81  C   UNL A   1      39.740  33.533  35.933  1.00  0.00     0.134 A 
ATOM     82  F   UNL A   1      37.917  30.447  36.525  1.00  0.00    -0.206 F 
ATOM     83  C   UNL A   1      37.959  32.442  37.762  1.00  0.00     0.040 A 
ATOM     84  C   UNL A   1      39.330  34.283  37.037  1.00  0.00     0.040 A 
ATOM     85  F   UNL A   1      40.604  34.097  35.076  1.00  0.00    -0.206 F 
ATOM     86  C   UNL A   1      38.434  33.737  37.953  1.00  0.00     0.006 A 
ENDBRANCH  62  79
ENDBRANCH  36  37
ENDBRANCH  29  31
ENDBRANCH  28  29
ENDBRANCH  27  28
ENDBRANCH  26  27
ENDBRANCH  25  26
ENDBRANCH  24  25
ENDBRANCH   1  24
TORSDOF 21
ENDMDL
