MODEL 1
REMARK VINA RESULT:      -9.5      0.000      0.000
REMARK SMILES CCOCCC(=O)Nc1cc(C(=O)OCCOCCOCCOC(=O)c2ccc(-c3c4nc(c(-c5c(F)cccc5F)c5ccc([nH]5)c(-c5c(F)cccc5F)c5nc(c(-c6c(F)cccc6F)c6ccc3[nH]6)C=C5)C=C4)cc2)ccc1Cl
REMARK SMILES IDX 17 1 16 2 15 3 14 4 12 5 13 6 11 7 9 8 10 9 82 10 81 11
REMARK SMILES IDX 83 12 80 13 8 14 6 15 7 16 5 18 4 19 3 20 2 21 1 22 18 23
REMARK SMILES IDX 19 24 20 25 21 26 22 27 23 28 24 29 25 30 26 31 27 32 79 33
REMARK SMILES IDX 28 34 78 35 29 36 30 37 31 38 72 39 32 40 77 41 71 42 73 43
REMARK SMILES IDX 33 44 76 45 70 46 69 47 34 49 60 50 43 51 59 52 44 53 47 54
REMARK SMILES IDX 58 55 74 56 45 57 46 58 57 60 75 61 48 62 35 63 36 64 41 65
REMARK SMILES IDX 37 66 38 67 40 68 42 69 39 70 61 71 62 72 67 73 63 74 64 75
REMARK SMILES IDX 66 76 68 77 65 78 49 79 50 80 55 81 51 82 52 83 54 84 56 85
REMARK SMILES IDX 53 86
REMARK H PARENT 8 17 73 48 47 59
REMARK Flexibility Score: inf
ROOT
ATOM      1  O   UNL A   1      34.784  32.445  27.660  1.00  0.00    -0.376 OA
ENDROOT
BRANCH   1   2
ATOM      2  C   UNL A   1      33.549  31.736  27.660  1.00  0.00     0.202 C 
BRANCH   2   3
ATOM      3  C   UNL A   1      33.533  30.244  27.296  1.00  0.00     0.261 C 
BRANCH   3   4
ATOM      4  O   UNL A   1      32.259  29.768  26.841  1.00  0.00    -0.460 OA
BRANCH   4   5
ATOM      5  C   UNL A   1      32.000  28.459  27.071  1.00  0.00     0.338 C 
ATOM      6  O   UNL A   1      31.332  27.974  27.969  1.00  0.00    -0.246 OA
BRANCH   5   7
ATOM      7  C   UNL A   1      32.435  27.693  25.889  1.00  0.00     0.062 A 
ATOM      8  C   UNL A   1      33.804  25.853  25.069  1.00  0.00     0.060 A 
ATOM      9  C   UNL A   1      33.431  26.731  26.091  1.00  0.00     0.043 A 
ATOM     10  C   UNL A   1      33.115  25.929  23.845  1.00  0.00     0.064 A 
ATOM     11  C   UNL A   1      32.149  26.927  23.632  1.00  0.00     0.023 A 
ATOM     12  Cl  UNL A   1      33.193  24.721  22.620  1.00  0.00    -0.082 Cl
ATOM     13  C   UNL A   1      31.807  27.813  24.652  1.00  0.00     0.017 A 
BRANCH   8  14
ATOM     14  N   UNL A   1      34.789  24.925  25.451  1.00  0.00    -0.325 N 
ATOM     15  C   UNL A   1      34.699  23.637  25.883  1.00  0.00     0.226 C 
ATOM     16  O   UNL A   1      35.756  23.007  25.998  1.00  0.00    -0.275 OA
ATOM     17  H   UNL A   1      35.710  25.269  25.396  1.00  0.00     0.169 HD
BRANCH  15  18
ATOM     18  C   UNL A   1      33.378  22.959  26.116  1.00  0.00     0.129 C 
BRANCH  18  19
ATOM     19  C   UNL A   1      33.024  22.004  24.980  1.00  0.00     0.170 C 
BRANCH  19  20
ATOM     20  O   UNL A   1      32.145  20.932  25.321  1.00  0.00    -0.381 OA
BRANCH  20  21
ATOM     21  C   UNL A   1      32.570  19.648  24.864  1.00  0.00     0.156 C 
ATOM     22  C   UNL A   1      34.077  19.653  24.718  1.00  0.00     0.035 C 
ENDBRANCH  20  21
ENDBRANCH  19  20
ENDBRANCH  18  19
ENDBRANCH  15  18
ENDBRANCH   8  14
ENDBRANCH   5   7
ENDBRANCH   4   5
ENDBRANCH   3   4
ENDBRANCH   2   3
ENDBRANCH   1   2
BRANCH   1  23
ATOM     23  C   UNL A   1      34.827  33.794  28.110  1.00  0.00     0.188 C 
BRANCH  23  24
ATOM     24  C   UNL A   1      33.597  34.423  28.798  1.00  0.00     0.188 C 
BRANCH  24  25
ATOM     25  O   UNL A   1      33.598  34.279  30.204  1.00  0.00    -0.376 OA
BRANCH  25  26
ATOM     26  C   UNL A   1      34.735  33.652  30.780  1.00  0.00     0.202 C 
BRANCH  26  27
ATOM     27  C   UNL A   1      34.614  32.981  32.163  1.00  0.00     0.261 C 
BRANCH  27  28
ATOM     28  O   UNL A   1      35.336  31.753  32.358  1.00  0.00    -0.460 OA
BRANCH  28  29
ATOM     29  C   UNL A   1      36.503  31.817  33.038  1.00  0.00     0.338 C 
ATOM     30  O   UNL A   1      36.664  32.177  34.190  1.00  0.00    -0.246 OA
BRANCH  29  31
ATOM     31  C   UNL A   1      37.559  31.222  32.192  1.00  0.00     0.060 A 
ATOM     32  C   UNL A   1      38.629  30.557  32.805  1.00  0.00     0.016 A 
ATOM     33  C   UNL A   1      37.508  31.341  30.800  1.00  0.00     0.016 A 
ATOM     34  C   UNL A   1      39.662  30.027  32.026  1.00  0.00     0.010 A 
ATOM     35  C   UNL A   1      38.551  30.824  30.024  1.00  0.00     0.010 A 
ATOM     36  C   UNL A   1      39.647  30.187  30.633  1.00  0.00    -0.014 A 
BRANCH  36  37
ATOM     37  C   UNL A   1      40.839  29.823  29.825  1.00  0.00     0.031 A 
ATOM     38  C   UNL A   1      40.929  28.437  29.247  1.00  0.00     0.074 A 
ATOM     39  C   UNL A   1      41.832  30.704  29.609  1.00  0.00     0.049 A 
ATOM     40  N   UNL A   1      41.896  27.881  28.562  1.00  0.00    -0.248 NA
ATOM     41  C   UNL A   1      39.773  27.558  29.480  1.00  0.00     0.031 C 
ATOM     42  C   UNL A   1      41.860  32.082  30.092  1.00  0.00     0.029 A 
ATOM     43  N   UNL A   1      43.021  30.557  28.936  1.00  0.00    -0.354 N 
ATOM     44  C   UNL A   1      41.471  26.588  28.289  1.00  0.00     0.074 A 
ATOM     45  C   UNL A   1      40.170  26.432  28.907  1.00  0.00     0.031 C 
ATOM     46  C   UNL A   1      43.019  32.651  29.716  1.00  0.00     0.029 A 
ATOM     47  C   UNL A   1      43.826  31.669  28.994  1.00  0.00     0.049 A 
ATOM     48  H   UNL A   1      43.272  29.734  28.459  1.00  0.00     0.167 HD
ATOM     49  C   UNL A   1      42.101  25.618  27.585  1.00  0.00     0.037 A 
ATOM     50  C   UNL A   1      45.081  31.862  28.540  1.00  0.00     0.037 A 
ATOM     51  C   UNL A   1      43.396  25.770  26.973  1.00  0.00     0.049 A 
ATOM     52  C   UNL A   1      45.789  30.749  27.811  1.00  0.00     0.074 A 
ATOM     53  C   UNL A   1      44.101  24.857  26.210  1.00  0.00     0.029 A 
ATOM     54  N   UNL A   1      44.185  26.906  27.066  1.00  0.00    -0.354 N 
ATOM     55  N   UNL A   1      45.361  29.543  27.523  1.00  0.00    -0.248 NA
ATOM     56  C   UNL A   1      47.155  31.026  27.341  1.00  0.00     0.031 C 
ATOM     57  C   UNL A   1      45.341  25.418  25.889  1.00  0.00     0.029 A 
ATOM     58  C   UNL A   1      45.385  26.704  26.403  1.00  0.00     0.049 A 
ATOM     59  H   UNL A   1      43.931  27.734  27.535  1.00  0.00     0.167 HD
ATOM     60  C   UNL A   1      46.390  28.930  26.816  1.00  0.00     0.074 A 
ATOM     61  C   UNL A   1      47.459  29.901  26.710  1.00  0.00     0.031 C 
ATOM     62  C   UNL A   1      46.443  27.677  26.300  1.00  0.00     0.037 A 
BRANCH  49  63
ATOM     63  C   UNL A   1      41.410  24.291  27.468  1.00  0.00     0.057 A 
ATOM     64  C   UNL A   1      40.332  24.087  26.597  1.00  0.00     0.134 A 
ATOM     65  C   UNL A   1      41.845  23.194  28.223  1.00  0.00     0.134 A 
ATOM     66  F   UNL A   1      39.857  25.099  25.855  1.00  0.00    -0.206 F 
ATOM     67  C   UNL A   1      39.692  22.849  26.502  1.00  0.00     0.040 A 
ATOM     68  C   UNL A   1      41.232  21.945  28.117  1.00  0.00     0.040 A 
ATOM     69  F   UNL A   1      42.875  23.318  29.074  1.00  0.00    -0.206 F 
ATOM     70  C   UNL A   1      40.148  21.772  27.260  1.00  0.00     0.006 A 
ENDBRANCH  49  63
BRANCH  50  71
ATOM     71  C   UNL A   1      45.765  33.159  28.782  1.00  0.00     0.057 A 
ATOM     72  C   UNL A   1      46.512  33.385  29.942  1.00  0.00     0.134 A 
ATOM     73  C   UNL A   1      45.667  34.211  27.863  1.00  0.00     0.134 A 
ATOM     74  F   UNL A   1      46.618  32.426  30.874  1.00  0.00    -0.206 F 
ATOM     75  C   UNL A   1      47.128  34.614  30.188  1.00  0.00     0.040 A 
ATOM     76  C   UNL A   1      46.299  35.436  28.083  1.00  0.00     0.040 A 
ATOM     77  F   UNL A   1      44.963  34.060  26.732  1.00  0.00    -0.206 F 
ATOM     78  C   UNL A   1      47.027  35.642  29.253  1.00  0.00     0.006 A 
ENDBRANCH  50  71
BRANCH  62  79
ATOM     79  C   UNL A   1      47.681  27.291  25.542  1.00  0.00     0.057 A 
ATOM     80  C   UNL A   1      47.816  27.531  24.169  1.00  0.00     0.134 A 
ATOM     81  C   UNL A   1      48.771  26.713  26.207  1.00  0.00     0.134 A 
ATOM     82  F   UNL A   1      46.806  28.072  23.470  1.00  0.00    -0.206 F 
ATOM     83  C   UNL A   1      48.983  27.190  23.480  1.00  0.00     0.040 A 
ATOM     84  C   UNL A   1      49.952  26.394  25.534  1.00  0.00     0.040 A 
ATOM     85  F   UNL A   1      48.713  26.467  27.524  1.00  0.00    -0.206 F 
ATOM     86  C   UNL A   1      50.057  26.627  24.165  1.00  0.00     0.006 A 
ENDBRANCH  62  79
ENDBRANCH  36  37
ENDBRANCH  29  31
ENDBRANCH  28  29
ENDBRANCH  27  28
ENDBRANCH  26  27
ENDBRANCH  25  26
ENDBRANCH  24  25
ENDBRANCH  23  24
ENDBRANCH   1  23
TORSDOF 22
ENDMDL
MODEL 2
REMARK VINA RESULT:      -9.5      4.168      6.841
REMARK SMILES CCOCCC(=O)Nc1cc(C(=O)OCCOCCOCCOC(=O)c2ccc(-c3c4nc(c(-c5c(F)cccc5F)c5ccc([nH]5)c(-c5c(F)cccc5F)c5nc(c(-c6c(F)cccc6F)c6ccc3[nH]6)C=C5)C=C4)cc2)ccc1Cl
REMARK SMILES IDX 17 1 16 2 15 3 14 4 12 5 13 6 11 7 9 8 10 9 82 10 81 11
REMARK SMILES IDX 83 12 80 13 8 14 6 15 7 16 5 18 4 19 3 20 2 21 1 22 18 23
REMARK SMILES IDX 19 24 20 25 21 26 22 27 23 28 24 29 25 30 26 31 27 32 79 33
REMARK SMILES IDX 28 34 78 35 29 36 30 37 31 38 72 39 32 40 77 41 71 42 73 43
REMARK SMILES IDX 33 44 76 45 70 46 69 47 34 49 60 50 43 51 59 52 44 53 47 54
REMARK SMILES IDX 58 55 74 56 45 57 46 58 57 60 75 61 48 62 35 63 36 64 41 65
REMARK SMILES IDX 37 66 38 67 40 68 42 69 39 70 61 71 62 72 67 73 63 74 64 75
REMARK SMILES IDX 66 76 68 77 65 78 49 79 50 80 55 81 51 82 52 83 54 84 56 85
REMARK SMILES IDX 53 86
REMARK H PARENT 8 17 73 48 47 59
REMARK Flexibility Score: inf
ROOT
ATOM      1  O   UNL A   1      30.689  27.967  24.891  1.00  0.00    -0.376 OA
ENDROOT
BRANCH   1   2
ATOM      2  C   UNL A   1      30.497  28.642  23.651  1.00  0.00     0.202 C 
BRANCH   2   3
ATOM      3  C   UNL A   1      30.929  27.961  22.343  1.00  0.00     0.261 C 
BRANCH   3   4
ATOM      4  O   UNL A   1      31.085  26.539  22.450  1.00  0.00    -0.460 OA
BRANCH   4   5
ATOM      5  C   UNL A   1      32.292  26.048  22.084  1.00  0.00     0.338 C 
ATOM      6  O   UNL A   1      33.212  26.645  21.550  1.00  0.00    -0.246 OA
BRANCH   5   7
ATOM      7  C   UNL A   1      32.440  24.709  22.682  1.00  0.00     0.062 A 
ATOM      8  C   UNL A   1      31.586  23.127  24.325  1.00  0.00     0.060 A 
ATOM      9  C   UNL A   1      31.628  24.415  23.783  1.00  0.00     0.043 A 
ATOM     10  C   UNL A   1      32.344  22.120  23.702  1.00  0.00     0.064 A 
ATOM     11  C   UNL A   1      33.193  22.431  22.626  1.00  0.00     0.023 A 
ATOM     12  Cl  UNL A   1      32.145  20.436  24.007  1.00  0.00    -0.082 Cl
ATOM     13  C   UNL A   1      33.245  23.725  22.113  1.00  0.00     0.017 A 
BRANCH   8  14
ATOM     14  N   UNL A   1      30.690  22.995  25.401  1.00  0.00    -0.325 N 
ATOM     15  C   UNL A   1      30.845  23.206  26.737  1.00  0.00     0.226 C 
ATOM     16  O   UNL A   1      29.826  23.161  27.435  1.00  0.00    -0.275 OA
ATOM     17  H   UNL A   1      29.789  22.696  25.141  1.00  0.00     0.169 HD
BRANCH  15  18
ATOM     18  C   UNL A   1      32.168  23.581  27.342  1.00  0.00     0.129 C 
BRANCH  18  19
ATOM     19  C   UNL A   1      33.017  22.352  27.651  1.00  0.00     0.170 C 
BRANCH  19  20
ATOM     20  O   UNL A   1      34.277  22.285  26.983  1.00  0.00    -0.381 OA
BRANCH  20  21
ATOM     21  C   UNL A   1      34.646  23.478  26.291  1.00  0.00     0.156 C 
ATOM     22  C   UNL A   1      36.107  23.389  25.904  1.00  0.00     0.035 C 
ENDBRANCH  20  21
ENDBRANCH  19  20
ENDBRANCH  18  19
ENDBRANCH  15  18
ENDBRANCH   8  14
ENDBRANCH   5   7
ENDBRANCH   4   5
ENDBRANCH   3   4
ENDBRANCH   2   3
ENDBRANCH   1   2
BRANCH   1  23
ATOM     23  C   UNL A   1      31.860  28.216  25.660  1.00  0.00     0.188 C 
BRANCH  23  24
ATOM     24  C   UNL A   1      31.843  29.280  26.778  1.00  0.00     0.188 C 
BRANCH  24  25
ATOM     25  O   UNL A   1      31.769  30.607  26.299  1.00  0.00    -0.376 OA
BRANCH  25  26
ATOM     26  C   UNL A   1      32.603  31.563  26.939  1.00  0.00     0.202 C 
BRANCH  26  27
ATOM     27  C   UNL A   1      32.023  32.937  27.332  1.00  0.00     0.261 C 
BRANCH  27  28
ATOM     28  O   UNL A   1      32.943  34.038  27.404  1.00  0.00    -0.460 OA
BRANCH  28  29
ATOM     29  C   UNL A   1      33.273  34.495  28.633  1.00  0.00     0.338 C 
ATOM     30  O   UNL A   1      32.649  35.286  29.315  1.00  0.00    -0.246 OA
BRANCH  29  31
ATOM     31  C   UNL A   1      34.464  33.749  29.093  1.00  0.00     0.060 A 
ATOM     32  C   UNL A   1      34.290  32.641  29.933  1.00  0.00     0.016 A 
ATOM     33  C   UNL A   1      35.748  34.155  28.720  1.00  0.00     0.016 A 
ATOM     34  C   UNL A   1      35.404  31.949  30.418  1.00  0.00     0.010 A 
ATOM     35  C   UNL A   1      36.862  33.471  29.219  1.00  0.00     0.010 A 
ATOM     36  C   UNL A   1      36.698  32.380  30.092  1.00  0.00    -0.014 A 
BRANCH  36  37
ATOM     37  C   UNL A   1      37.878  31.790  30.774  1.00  0.00     0.031 A 
ATOM     38  C   UNL A   1      38.665  30.719  30.068  1.00  0.00     0.074 A 
ATOM     39  C   UNL A   1      38.247  32.190  32.004  1.00  0.00     0.049 A 
ATOM     40  N   UNL A   1      39.690  30.024  30.490  1.00  0.00    -0.248 NA
ATOM     41  C   UNL A   1      38.230  30.384  28.703  1.00  0.00     0.031 C 
ATOM     42  C   UNL A   1      37.587  33.231  32.788  1.00  0.00     0.029 A 
ATOM     43  N   UNL A   1      39.266  31.750  32.815  1.00  0.00    -0.354 N 
ATOM     44  C   UNL A   1      40.018  29.165  29.449  1.00  0.00     0.074 A 
ATOM     45  C   UNL A   1      39.065  29.406  28.386  1.00  0.00     0.031 C 
ATOM     46  C   UNL A   1      38.206  33.338  33.977  1.00  0.00     0.029 A 
ATOM     47  C   UNL A   1      39.283  32.353  34.049  1.00  0.00     0.049 A 
ATOM     48  H   UNL A   1      39.919  31.068  32.537  1.00  0.00     0.167 HD
ATOM     49  C   UNL A   1      41.024  28.261  29.380  1.00  0.00     0.037 A 
ATOM     50  C   UNL A   1      40.063  32.116  35.124  1.00  0.00     0.037 A 
ATOM     51  C   UNL A   1      41.970  28.016  30.437  1.00  0.00     0.049 A 
ATOM     52  C   UNL A   1      41.138  31.063  35.047  1.00  0.00     0.074 A 
ATOM     53  C   UNL A   1      43.045  27.145  30.447  1.00  0.00     0.029 A 
ATOM     54  N   UNL A   1      41.947  28.636  31.677  1.00  0.00    -0.354 N 
ATOM     55  N   UNL A   1      41.466  30.285  34.044  1.00  0.00    -0.248 NA
ATOM     56  C   UNL A   1      41.954  30.857  36.254  1.00  0.00     0.031 C 
ATOM     57  C   UNL A   1      43.638  27.195  31.713  1.00  0.00     0.029 A 
ATOM     58  C   UNL A   1      42.968  28.141  32.472  1.00  0.00     0.049 A 
ATOM     59  H   UNL A   1      41.300  29.326  31.952  1.00  0.00     0.167 HD
ATOM     60  C   UNL A   1      42.540  29.520  34.486  1.00  0.00     0.074 A 
ATOM     61  C   UNL A   1      42.815  29.935  35.846  1.00  0.00     0.031 C 
ATOM     62  C   UNL A   1      43.236  28.563  33.824  1.00  0.00     0.037 A 
BRANCH  49  63
ATOM     63  C   UNL A   1      41.129  27.441  28.127  1.00  0.00     0.057 A 
ATOM     64  C   UNL A   1      40.454  26.223  27.974  1.00  0.00     0.134 A 
ATOM     65  C   UNL A   1      41.903  27.889  27.048  1.00  0.00     0.134 A 
ATOM     66  F   UNL A   1      39.707  25.731  28.974  1.00  0.00    -0.206 F 
ATOM     67  C   UNL A   1      40.565  25.467  26.806  1.00  0.00     0.040 A 
ATOM     68  C   UNL A   1      42.000  27.156  25.864  1.00  0.00     0.040 A 
ATOM     69  F   UNL A   1      42.573  29.049  27.124  1.00  0.00    -0.206 F 
ATOM     70  C   UNL A   1      41.336  25.937  25.745  1.00  0.00     0.006 A 
ENDBRANCH  49  63
BRANCH  50  71
ATOM     71  C   UNL A   1      39.843  32.878  36.380  1.00  0.00     0.057 A 
ATOM     72  C   UNL A   1      38.899  32.467  37.327  1.00  0.00     0.134 A 
ATOM     73  C   UNL A   1      40.561  34.049  36.653  1.00  0.00     0.134 A 
ATOM     74  F   UNL A   1      38.158  31.369  37.109  1.00  0.00    -0.206 F 
ATOM     75  C   UNL A   1      38.665  33.198  38.493  1.00  0.00     0.040 A 
ATOM     76  C   UNL A   1      40.357  34.776  37.827  1.00  0.00     0.040 A 
ATOM     77  F   UNL A   1      41.478  34.499  35.784  1.00  0.00    -0.206 F 
ATOM     78  C   UNL A   1      39.401  34.354  38.748  1.00  0.00     0.006 A 
ENDBRANCH  50  71
BRANCH  62  79
ATOM     79  C   UNL A   1      44.387  27.920  34.545  1.00  0.00     0.057 A 
ATOM     80  C   UNL A   1      45.676  28.466  34.522  1.00  0.00     0.134 A 
ATOM     81  C   UNL A   1      44.190  26.763  35.311  1.00  0.00     0.134 A 
ATOM     82  F   UNL A   1      45.936  29.566  33.799  1.00  0.00    -0.206 F 
ATOM     83  C   UNL A   1      46.733  27.872  35.217  1.00  0.00     0.040 A 
ATOM     84  C   UNL A   1      45.232  26.177  36.033  1.00  0.00     0.040 A 
ATOM     85  F   UNL A   1      42.977  26.194  35.387  1.00  0.00    -0.206 F 
ATOM     86  C   UNL A   1      46.510  26.728  35.981  1.00  0.00     0.006 A 
ENDBRANCH  62  79
ENDBRANCH  36  37
ENDBRANCH  29  31
ENDBRANCH  28  29
ENDBRANCH  27  28
ENDBRANCH  26  27
ENDBRANCH  25  26
ENDBRANCH  24  25
ENDBRANCH  23  24
ENDBRANCH   1  23
TORSDOF 22
ENDMDL
MODEL 3
REMARK VINA RESULT:      -9.4      0.619      6.050
REMARK SMILES CCOCCC(=O)Nc1cc(C(=O)OCCOCCOCCOC(=O)c2ccc(-c3c4nc(c(-c5c(F)cccc5F)c5ccc([nH]5)c(-c5c(F)cccc5F)c5nc(c(-c6c(F)cccc6F)c6ccc3[nH]6)C=C5)C=C4)cc2)ccc1Cl
REMARK SMILES IDX 17 1 16 2 15 3 14 4 12 5 13 6 11 7 9 8 10 9 82 10 81 11
REMARK SMILES IDX 83 12 80 13 8 14 6 15 7 16 5 18 4 19 3 20 2 21 1 22 18 23
REMARK SMILES IDX 19 24 20 25 21 26 22 27 23 28 24 29 25 30 26 31 27 32 79 33
REMARK SMILES IDX 28 34 78 35 29 36 30 37 31 38 72 39 32 40 77 41 71 42 73 43
REMARK SMILES IDX 33 44 76 45 70 46 69 47 34 49 60 50 43 51 59 52 44 53 47 54
REMARK SMILES IDX 58 55 74 56 45 57 46 58 57 60 75 61 48 62 35 63 36 64 41 65
REMARK SMILES IDX 37 66 38 67 40 68 42 69 39 70 61 71 62 72 67 73 63 74 64 75
REMARK SMILES IDX 66 76 68 77 65 78 49 79 50 80 55 81 51 82 52 83 54 84 56 85
REMARK SMILES IDX 53 86
REMARK H PARENT 8 17 73 48 47 59
REMARK Flexibility Score: inf
ROOT
ATOM      1  O   UNL A   1      34.581  32.493  27.486  1.00  0.00    -0.376 OA
ENDROOT
BRANCH   1   2
ATOM      2  C   UNL A   1      33.335  31.803  27.537  1.00  0.00     0.202 C 
BRANCH   2   3
ATOM      3  C   UNL A   1      33.234  30.380  26.969  1.00  0.00     0.261 C 
BRANCH   3   4
ATOM      4  O   UNL A   1      31.902  29.848  26.964  1.00  0.00    -0.460 OA
BRANCH   4   5
ATOM      5  C   UNL A   1      31.797  28.516  27.186  1.00  0.00     0.338 C 
ATOM      6  O   UNL A   1      31.227  27.953  28.105  1.00  0.00    -0.246 OA
BRANCH   5   7
ATOM      7  C   UNL A   1      32.259  27.814  25.975  1.00  0.00     0.062 A 
ATOM      8  C   UNL A   1      33.762  26.123  25.072  1.00  0.00     0.060 A 
ATOM      9  C   UNL A   1      33.346  26.945  26.124  1.00  0.00     0.043 A 
ATOM     10  C   UNL A   1      33.026  26.154  23.875  1.00  0.00     0.064 A 
ATOM     11  C   UNL A   1      31.964  27.060  23.715  1.00  0.00     0.023 A 
ATOM     12  Cl  UNL A   1      33.171  24.978  22.624  1.00  0.00    -0.082 Cl
ATOM     13  C   UNL A   1      31.578  27.894  24.763  1.00  0.00     0.017 A 
BRANCH   8  14
ATOM     14  N   UNL A   1      34.842  25.285  25.403  1.00  0.00    -0.325 N 
ATOM     15  C   UNL A   1      34.890  23.978  25.783  1.00  0.00     0.226 C 
ATOM     16  O   UNL A   1      36.007  23.454  25.857  1.00  0.00    -0.275 OA
ATOM     17  H   UNL A   1      35.722  25.722  25.349  1.00  0.00     0.169 HD
BRANCH  15  18
ATOM     18  C   UNL A   1      33.648  23.162  26.006  1.00  0.00     0.129 C 
BRANCH  18  19
ATOM     19  C   UNL A   1      33.956  21.669  26.065  1.00  0.00     0.170 C 
BRANCH  19  20
ATOM     20  O   UNL A   1      33.806  20.955  24.838  1.00  0.00    -0.381 OA
BRANCH  20  21
ATOM     21  C   UNL A   1      32.451  20.709  24.458  1.00  0.00     0.156 C 
ATOM     22  C   UNL A   1      32.059  21.693  23.377  1.00  0.00     0.035 C 
ENDBRANCH  20  21
ENDBRANCH  19  20
ENDBRANCH  18  19
ENDBRANCH  15  18
ENDBRANCH   8  14
ENDBRANCH   5   7
ENDBRANCH   4   5
ENDBRANCH   3   4
ENDBRANCH   2   3
ENDBRANCH   1   2
BRANCH   1  23
ATOM     23  C   UNL A   1      34.660  33.848  27.912  1.00  0.00     0.188 C 
BRANCH  23  24
ATOM     24  C   UNL A   1      33.425  34.541  28.526  1.00  0.00     0.188 C 
BRANCH  24  25
ATOM     25  O   UNL A   1      33.297  34.345  29.919  1.00  0.00    -0.376 OA
BRANCH  25  26
ATOM     26  C   UNL A   1      34.441  33.847  30.600  1.00  0.00     0.202 C 
BRANCH  26  27
ATOM     27  C   UNL A   1      34.307  33.368  32.060  1.00  0.00     0.261 C 
BRANCH  27  28
ATOM     28  O   UNL A   1      34.955  32.132  32.404  1.00  0.00    -0.460 OA
BRANCH  28  29
ATOM     29  C   UNL A   1      36.123  32.208  33.082  1.00  0.00     0.338 C 
ATOM     30  O   UNL A   1      36.297  32.665  34.196  1.00  0.00    -0.246 OA
BRANCH  29  31
ATOM     31  C   UNL A   1      37.153  31.493  32.299  1.00  0.00     0.060 A 
ATOM     32  C   UNL A   1      38.087  30.693  32.973  1.00  0.00     0.016 A 
ATOM     33  C   UNL A   1      37.216  31.629  30.910  1.00  0.00     0.016 A 
ATOM     34  C   UNL A   1      39.098  30.045  32.258  1.00  0.00     0.010 A 
ATOM     35  C   UNL A   1      38.238  30.992  30.198  1.00  0.00     0.010 A 
ATOM     36  C   UNL A   1      39.201  30.217  30.870  1.00  0.00    -0.014 A 
BRANCH  36  37
ATOM     37  C   UNL A   1      40.392  29.714  30.140  1.00  0.00     0.031 A 
ATOM     38  C   UNL A   1      41.552  30.645  29.913  1.00  0.00     0.074 A 
ATOM     39  C   UNL A   1      40.447  28.452  29.677  1.00  0.00     0.049 A 
ATOM     40  N   UNL A   1      42.666  30.444  29.256  1.00  0.00    -0.248 NA
ATOM     41  C   UNL A   1      41.435  31.987  30.504  1.00  0.00     0.031 C 
ATOM     42  C   UNL A   1      39.405  27.443  29.847  1.00  0.00     0.029 A 
ATOM     43  N   UNL A   1      41.424  27.811  28.953  1.00  0.00    -0.354 N 
ATOM     44  C   UNL A   1      43.377  31.633  29.346  1.00  0.00     0.074 A 
ATOM     45  C   UNL A   1      42.557  32.560  30.097  1.00  0.00     0.031 C 
ATOM     46  C   UNL A   1      39.788  26.313  29.227  1.00  0.00     0.029 A 
ATOM     47  C   UNL A   1      41.086  26.530  28.591  1.00  0.00     0.049 A 
ATOM     48  H   UNL A   1      42.282  28.231  28.716  1.00  0.00     0.167 HD
ATOM     49  C   UNL A   1      44.604  31.927  28.853  1.00  0.00     0.037 A 
ATOM     50  C   UNL A   1      41.740  25.643  27.813  1.00  0.00     0.037 A 
ATOM     51  C   UNL A   1      45.420  31.008  28.102  1.00  0.00     0.049 A 
ATOM     52  C   UNL A   1      43.077  26.012  27.224  1.00  0.00     0.074 A 
ATOM     53  C   UNL A   1      46.691  31.203  27.592  1.00  0.00     0.029 A 
ATOM     54  N   UNL A   1      45.038  29.724  27.745  1.00  0.00    -0.354 N 
ATOM     55  N   UNL A   1      43.759  27.125  27.349  1.00  0.00    -0.248 NA
ATOM     56  C   UNL A   1      43.736  24.998  26.386  1.00  0.00     0.031 C 
ATOM     57  C   UNL A   1      47.056  30.058  26.876  1.00  0.00     0.029 A 
ATOM     58  C   UNL A   1      46.035  29.127  26.990  1.00  0.00     0.049 A 
ATOM     59  H   UNL A   1      44.184  29.299  27.990  1.00  0.00     0.167 HD
ATOM     60  C   UNL A   1      44.936  26.936  26.633  1.00  0.00     0.074 A 
ATOM     61  C   UNL A   1      44.880  25.597  26.084  1.00  0.00     0.031 C 
ATOM     62  C   UNL A   1      45.971  27.793  26.450  1.00  0.00     0.037 A 
BRANCH  49  63
ATOM     63  C   UNL A   1      45.124  33.316  29.083  1.00  0.00     0.057 A 
ATOM     64  C   UNL A   1      44.747  34.396  28.274  1.00  0.00     0.134 A 
ATOM     65  C   UNL A   1      46.001  33.581  30.143  1.00  0.00     0.134 A 
ATOM     66  F   UNL A   1      43.921  34.209  27.233  1.00  0.00    -0.206 F 
ATOM     67  C   UNL A   1      45.243  35.682  28.493  1.00  0.00     0.040 A 
ATOM     68  C   UNL A   1      46.482  34.868  30.390  1.00  0.00     0.040 A 
ATOM     69  F   UNL A   1      46.401  32.595  30.960  1.00  0.00    -0.206 F 
ATOM     70  C   UNL A   1      46.108  35.921  29.558  1.00  0.00     0.006 A 
ENDBRANCH  49  63
BRANCH  50  71
ATOM     71  C   UNL A   1      41.128  24.320  27.523  1.00  0.00     0.057 A 
ATOM     72  C   UNL A   1      41.549  23.162  28.184  1.00  0.00     0.134 A 
ATOM     73  C   UNL A   1      40.119  24.183  26.562  1.00  0.00     0.134 A 
ATOM     74  F   UNL A   1      42.533  23.224  29.095  1.00  0.00    -0.206 F 
ATOM     75  C   UNL A   1      41.000  21.912  27.891  1.00  0.00     0.040 A 
ATOM     76  C   UNL A   1      39.542  22.944  26.278  1.00  0.00     0.040 A 
ATOM     77  F   UNL A   1      39.673  25.255  25.890  1.00  0.00    -0.206 F 
ATOM     78  C   UNL A   1      39.988  21.802  26.939  1.00  0.00     0.006 A 
ENDBRANCH  50  71
BRANCH  62  79
ATOM     79  C   UNL A   1      47.145  27.302  25.651  1.00  0.00     0.057 A 
ATOM     80  C   UNL A   1      47.269  27.556  24.280  1.00  0.00     0.134 A 
ATOM     81  C   UNL A   1      48.189  26.606  26.275  1.00  0.00     0.134 A 
ATOM     82  F   UNL A   1      46.300  28.208  23.618  1.00  0.00    -0.206 F 
ATOM     83  C   UNL A   1      48.378  27.115  23.553  1.00  0.00     0.040 A 
ATOM     84  C   UNL A   1      49.316  26.185  25.565  1.00  0.00     0.040 A 
ATOM     85  F   UNL A   1      48.140  26.339  27.589  1.00  0.00    -0.206 F 
ATOM     86  C   UNL A   1      49.408  26.435  24.198  1.00  0.00     0.006 A 
ENDBRANCH  62  79
ENDBRANCH  36  37
ENDBRANCH  29  31
ENDBRANCH  28  29
ENDBRANCH  27  28
ENDBRANCH  26  27
ENDBRANCH  25  26
ENDBRANCH  24  25
ENDBRANCH  23  24
ENDBRANCH   1  23
TORSDOF 22
ENDMDL
