MODEL 1
REMARK VINA RESULT:     -12.0      0.000      0.000
REMARK SMILES O=C(/C=C/c1ccc(S(=O)(=O)Nc2ccc3c(c2)OCCO3)cc1)OCCOCCOCCOC(=O)c1ccc(-c2c3nc(c(-c4c(F)cccc4F)c4ccc([nH]4)c(-c4c(F)cccc4F)c4nc(c(-c5c(F)cccc5F)c5ccc2[nH]5)C=C4)C=C3)cc1
REMARK SMILES IDX 29 1 28 2 27 3 26 4 25 5 2 6 1 7 3 8 4 9 5 10 6 11 24 12
REMARK SMILES IDX 7 13 23 14 8 15 9 16 10 17 11 18 12 19 13 21 14 22 18 23
REMARK SMILES IDX 15 24 17 25 16 26 19 27 22 28 20 29 21 30 30 31 31 32 32 33
REMARK SMILES IDX 33 34 34 35 35 36 36 37 37 38 38 39 90 40 39 41 89 42 40 43
REMARK SMILES IDX 41 44 42 45 83 46 43 47 88 48 82 49 84 50 44 51 87 52 81 53
REMARK SMILES IDX 80 54 45 56 71 57 54 58 70 59 55 60 58 61 69 62 85 63 56 64
REMARK SMILES IDX 57 65 68 67 86 68 59 69 46 70 47 71 52 72 48 73 49 74 51 75
REMARK SMILES IDX 53 76 50 77 72 78 73 79 78 80 74 81 75 82 77 83 79 84 76 85
REMARK SMILES IDX 60 86 61 87 66 88 62 89 63 90 65 91 67 92 64 93
REMARK H PARENT 12 20 84 55 58 66
REMARK Flexibility Score: inf
ROOT
ATOM      1  C   UNL A   1      45.396  18.719  25.006  1.00  0.00     0.188 C 
ENDROOT
BRANCH   1   2
ATOM      2  O   UNL A   1      44.003  18.492  25.153  1.00  0.00    -0.376 OA
BRANCH   2   3
ATOM      3  C   UNL A   1      43.197  19.556  25.666  1.00  0.00     0.202 C 
BRANCH   3   4
ATOM      4  C   UNL A   1      41.933  19.231  26.477  1.00  0.00     0.261 C 
BRANCH   4   5
ATOM      5  O   UNL A   1      40.674  19.875  26.160  1.00  0.00    -0.460 OA
BRANCH   5   6
ATOM      6  C   UNL A   1      40.249  21.012  26.755  1.00  0.00     0.330 C 
ATOM      7  O   UNL A   1      40.636  21.385  27.853  1.00  0.00    -0.247 OA
BRANCH   6   8
ATOM      8  C   UNL A   1      39.447  21.906  25.904  1.00  0.00     0.094 C 
ATOM      9  C   UNL A   1      38.111  21.872  25.935  1.00  0.00     0.015 C 
BRANCH   9  10
ATOM     10  C   UNL A   1      37.203  22.709  25.151  1.00  0.00    -0.025 A 
ATOM     11  C   UNL A   1      36.483  23.691  25.843  1.00  0.00     0.009 A 
ATOM     12  C   UNL A   1      36.917  22.472  23.801  1.00  0.00     0.009 A 
ATOM     13  C   UNL A   1      35.391  24.313  25.248  1.00  0.00     0.023 A 
ATOM     14  C   UNL A   1      35.851  23.131  23.183  1.00  0.00     0.023 A 
ATOM     15  C   UNL A   1      35.034  23.971  23.943  1.00  0.00     0.087 A 
BRANCH  15  16
ATOM     16  S   UNL A   1      33.387  24.395  23.394  1.00  0.00     0.261 S 
ATOM     17  O   UNL A   1      33.092  25.718  23.902  1.00  0.00    -0.201 OA
ATOM     18  O   UNL A   1      33.323  24.100  21.978  1.00  0.00    -0.201 OA
BRANCH  16  19
ATOM     19  N   UNL A   1      32.323  23.314  24.165  1.00  0.00    -0.279 N 
ATOM     20  H   UNL A   1      31.400  23.590  24.370  1.00  0.00     0.180 HD
BRANCH  19  21
ATOM     21  C   UNL A   1      32.775  22.004  24.513  1.00  0.00     0.053 A 
ATOM     22  C   UNL A   1      32.993  21.744  25.872  1.00  0.00     0.031 A 
ATOM     23  C   UNL A   1      32.837  20.966  23.584  1.00  0.00     0.077 A 
ATOM     24  C   UNL A   1      33.126  20.433  26.325  1.00  0.00     0.052 A 
ATOM     25  C   UNL A   1      32.914  19.651  24.041  1.00  0.00     0.163 A 
ATOM     26  C   UNL A   1      33.017  19.390  25.413  1.00  0.00     0.161 A 
ATOM     27  O   UNL A   1      32.772  18.665  23.098  1.00  0.00    -0.486 OA
ATOM     28  O   UNL A   1      32.934  18.123  25.931  1.00  0.00    -0.486 OA
ATOM     29  C   UNL A   1      32.743  17.344  23.655  1.00  0.00     0.271 C 
ATOM     30  C   UNL A   1      32.140  17.320  25.049  1.00  0.00     0.271 C 
ENDBRANCH  19  21
ENDBRANCH  16  19
ENDBRANCH  15  16
ENDBRANCH   9  10
ENDBRANCH   6   8
ENDBRANCH   5   6
ENDBRANCH   4   5
ENDBRANCH   3   4
ENDBRANCH   2   3
ENDBRANCH   1   2
BRANCH   1  31
ATOM     31  C   UNL A   1      45.805  20.083  24.447  1.00  0.00     0.188 C 
BRANCH  31  32
ATOM     32  O   UNL A   1      46.508  20.946  25.326  1.00  0.00    -0.376 OA
BRANCH  32  33
ATOM     33  C   UNL A   1      45.959  22.244  25.552  1.00  0.00     0.202 C 
BRANCH  33  34
ATOM     34  C   UNL A   1      45.799  23.183  24.350  1.00  0.00     0.261 C 
BRANCH  34  35
ATOM     35  O   UNL A   1      44.887  24.272  24.600  1.00  0.00    -0.460 OA
BRANCH  35  36
ATOM     36  C   UNL A   1      43.597  23.901  24.786  1.00  0.00     0.338 C 
ATOM     37  O   UNL A   1      43.081  22.840  24.474  1.00  0.00    -0.246 OA
BRANCH  36  38
ATOM     38  C   UNL A   1      42.848  24.922  25.537  1.00  0.00     0.060 A 
ATOM     39  C   UNL A   1      43.388  26.210  25.627  1.00  0.00     0.016 A 
ATOM     40  C   UNL A   1      41.760  24.551  26.328  1.00  0.00     0.016 A 
ATOM     41  C   UNL A   1      42.876  27.118  26.558  1.00  0.00     0.010 A 
ATOM     42  C   UNL A   1      41.252  25.459  27.264  1.00  0.00     0.010 A 
ATOM     43  C   UNL A   1      41.836  26.730  27.416  1.00  0.00    -0.014 A 
BRANCH  43  44
ATOM     44  C   UNL A   1      41.477  27.582  28.578  1.00  0.00     0.031 A 
ATOM     45  C   UNL A   1      42.273  27.463  29.852  1.00  0.00     0.074 A 
ATOM     46  C   UNL A   1      40.463  28.462  28.506  1.00  0.00     0.049 A 
ATOM     47  N   UNL A   1      42.102  28.071  30.999  1.00  0.00    -0.248 NA
ATOM     48  C   UNL A   1      43.416  26.535  29.830  1.00  0.00     0.031 C 
ATOM     49  C   UNL A   1      39.635  28.709  27.327  1.00  0.00     0.029 A 
ATOM     50  N   UNL A   1      39.956  29.311  29.458  1.00  0.00    -0.354 N 
ATOM     51  C   UNL A   1      43.104  27.594  31.836  1.00  0.00     0.074 A 
ATOM     52  C   UNL A   1      43.870  26.633  31.071  1.00  0.00     0.031 C 
ATOM     53  C   UNL A   1      38.710  29.637  27.630  1.00  0.00     0.029 A 
ATOM     54  C   UNL A   1      38.872  30.035  29.028  1.00  0.00     0.049 A 
ATOM     55  H   UNL A   1      40.334  29.394  30.362  1.00  0.00     0.167 HD
ATOM     56  C   UNL A   1      43.368  27.927  33.122  1.00  0.00     0.037 A 
ATOM     57  C   UNL A   1      38.089  30.904  29.695  1.00  0.00     0.037 A 
ATOM     58  C   UNL A   1      42.616  28.883  33.890  1.00  0.00     0.049 A 
ATOM     59  C   UNL A   1      38.369  31.216  31.138  1.00  0.00     0.074 A 
ATOM     60  C   UNL A   1      42.830  29.305  35.193  1.00  0.00     0.029 A 
ATOM     61  N   UNL A   1      41.501  29.564  33.430  1.00  0.00    -0.354 N 
ATOM     62  N   UNL A   1      39.321  30.761  31.916  1.00  0.00    -0.248 NA
ATOM     63  C   UNL A   1      37.459  32.166  31.797  1.00  0.00     0.031 C 
ATOM     64  C   UNL A   1      41.819  30.211  35.533  1.00  0.00     0.029 A 
ATOM     65  C   UNL A   1      41.003  30.385  34.428  1.00  0.00     0.049 A 
ATOM     66  H   UNL A   1      41.120  29.477  32.526  1.00  0.00     0.167 HD
ATOM     67  C   UNL A   1      39.131  31.375  33.147  1.00  0.00     0.074 A 
ATOM     68  C   UNL A   1      37.982  32.245  33.012  1.00  0.00     0.031 C 
ATOM     69  C   UNL A   1      39.849  31.233  34.288  1.00  0.00     0.037 A 
BRANCH  56  70
ATOM     70  C   UNL A   1      44.513  27.232  33.795  1.00  0.00     0.057 A 
ATOM     71  C   UNL A   1      45.804  27.773  33.801  1.00  0.00     0.134 A 
ATOM     72  C   UNL A   1      44.311  26.029  34.485  1.00  0.00     0.134 A 
ATOM     73  F   UNL A   1      46.065  28.917  33.149  1.00  0.00    -0.206 F 
ATOM     74  C   UNL A   1      46.859  27.134  34.455  1.00  0.00     0.040 A 
ATOM     75  C   UNL A   1      45.353  25.392  35.160  1.00  0.00     0.040 A 
ATOM     76  F   UNL A   1      43.095  25.462  34.522  1.00  0.00    -0.206 F 
ATOM     77  C   UNL A   1      46.632  25.943  35.143  1.00  0.00     0.006 A 
ENDBRANCH  56  70
BRANCH  57  78
ATOM     78  C   UNL A   1      36.932  31.534  29.020  1.00  0.00     0.057 A 
ATOM     79  C   UNL A   1      36.981  32.863  28.589  1.00  0.00     0.134 A 
ATOM     80  C   UNL A   1      35.734  30.836  28.843  1.00  0.00     0.134 A 
ATOM     81  F   UNL A   1      38.094  33.589  28.766  1.00  0.00    -0.206 F 
ATOM     82  C   UNL A   1      35.871  33.481  28.011  1.00  0.00     0.040 A 
ATOM     83  C   UNL A   1      34.619  31.438  28.259  1.00  0.00     0.040 A 
ATOM     84  F   UNL A   1      35.634  29.554  29.226  1.00  0.00    -0.206 F 
ATOM     85  C   UNL A   1      34.687  32.766  27.843  1.00  0.00     0.006 A 
ENDBRANCH  57  78
BRANCH  69  86
ATOM     86  C   UNL A   1      39.419  32.043  35.474  1.00  0.00     0.057 A 
ATOM     87  C   UNL A   1      39.872  33.353  35.673  1.00  0.00     0.134 A 
ATOM     88  C   UNL A   1      38.520  31.517  36.411  1.00  0.00     0.134 A 
ATOM     89  F   UNL A   1      40.746  33.907  34.819  1.00  0.00    -0.206 F 
ATOM     90  C   UNL A   1      39.459  34.106  36.773  1.00  0.00     0.040 A 
ATOM     91  C   UNL A   1      38.086  32.269  37.504  1.00  0.00     0.040 A 
ATOM     92  F   UNL A   1      38.047  30.270  36.275  1.00  0.00    -0.206 F 
ATOM     93  C   UNL A   1      38.559  33.566  37.689  1.00  0.00     0.006 A 
ENDBRANCH  69  86
ENDBRANCH  43  44
ENDBRANCH  36  38
ENDBRANCH  35  36
ENDBRANCH  34  35
ENDBRANCH  33  34
ENDBRANCH  32  33
ENDBRANCH  31  32
ENDBRANCH   1  31
TORSDOF 21
ENDMDL
MODEL 2
REMARK VINA RESULT:     -11.6      1.528      3.328
REMARK SMILES O=C(/C=C/c1ccc(S(=O)(=O)Nc2ccc3c(c2)OCCO3)cc1)OCCOCCOCCOC(=O)c1ccc(-c2c3nc(c(-c4c(F)cccc4F)c4ccc([nH]4)c(-c4c(F)cccc4F)c4nc(c(-c5c(F)cccc5F)c5ccc2[nH]5)C=C4)C=C3)cc1
REMARK SMILES IDX 29 1 28 2 27 3 26 4 25 5 2 6 1 7 3 8 4 9 5 10 6 11 24 12
REMARK SMILES IDX 7 13 23 14 8 15 9 16 10 17 11 18 12 19 13 21 14 22 18 23
REMARK SMILES IDX 15 24 17 25 16 26 19 27 22 28 20 29 21 30 30 31 31 32 32 33
REMARK SMILES IDX 33 34 34 35 35 36 36 37 37 38 38 39 90 40 39 41 89 42 40 43
REMARK SMILES IDX 41 44 42 45 83 46 43 47 88 48 82 49 84 50 44 51 87 52 81 53
REMARK SMILES IDX 80 54 45 56 71 57 54 58 70 59 55 60 58 61 69 62 85 63 56 64
REMARK SMILES IDX 57 65 68 67 86 68 59 69 46 70 47 71 52 72 48 73 49 74 51 75
REMARK SMILES IDX 53 76 50 77 72 78 73 79 78 80 74 81 75 82 77 83 79 84 76 85
REMARK SMILES IDX 60 86 61 87 66 88 62 89 63 90 65 91 67 92 64 93
REMARK H PARENT 12 20 84 55 58 66
REMARK Flexibility Score: inf
ROOT
ATOM      1  C   UNL A   1      45.292  18.808  24.710  1.00  0.00     0.188 C 
ENDROOT
BRANCH   1   2
ATOM      2  O   UNL A   1      43.912  18.558  24.933  1.00  0.00    -0.376 OA
BRANCH   2   3
ATOM      3  C   UNL A   1      43.116  19.614  25.478  1.00  0.00     0.202 C 
BRANCH   3   4
ATOM      4  C   UNL A   1      41.833  19.277  26.253  1.00  0.00     0.261 C 
BRANCH   4   5
ATOM      5  O   UNL A   1      40.597  19.978  25.965  1.00  0.00    -0.460 OA
BRANCH   5   6
ATOM      6  C   UNL A   1      40.169  21.051  26.666  1.00  0.00     0.330 C 
ATOM      7  O   UNL A   1      40.657  21.400  27.732  1.00  0.00    -0.247 OA
BRANCH   6   8
ATOM      8  C   UNL A   1      39.214  21.922  25.964  1.00  0.00     0.094 C 
ATOM      9  C   UNL A   1      37.926  21.579  25.846  1.00  0.00     0.015 C 
BRANCH   9  10
ATOM     10  C   UNL A   1      36.878  22.356  25.183  1.00  0.00    -0.025 A 
ATOM     11  C   UNL A   1      35.771  22.723  25.957  1.00  0.00     0.009 A 
ATOM     12  C   UNL A   1      36.867  22.607  23.806  1.00  0.00     0.009 A 
ATOM     13  C   UNL A   1      34.609  23.184  25.348  1.00  0.00     0.023 A 
ATOM     14  C   UNL A   1      35.718  23.118  23.195  1.00  0.00     0.023 A 
ATOM     15  C   UNL A   1      34.565  23.305  23.959  1.00  0.00     0.087 A 
BRANCH  15  16
ATOM     16  S   UNL A   1      32.957  23.414  23.185  1.00  0.00     0.261 S 
ATOM     17  O   UNL A   1      33.016  22.643  21.962  1.00  0.00    -0.201 OA
ATOM     18  O   UNL A   1      31.974  23.131  24.208  1.00  0.00    -0.201 OA
BRANCH  16  19
ATOM     19  N   UNL A   1      32.740  25.043  22.739  1.00  0.00    -0.279 N 
ATOM     20  H   UNL A   1      32.404  25.269  21.842  1.00  0.00     0.180 HD
BRANCH  19  21
ATOM     21  C   UNL A   1      33.050  26.079  23.674  1.00  0.00     0.053 A 
ATOM     22  C   UNL A   1      33.893  27.106  23.232  1.00  0.00     0.031 A 
ATOM     23  C   UNL A   1      32.418  26.177  24.913  1.00  0.00     0.077 A 
ATOM     24  C   UNL A   1      33.993  28.294  23.953  1.00  0.00     0.052 A 
ATOM     25  C   UNL A   1      32.472  27.386  25.607  1.00  0.00     0.163 A 
ATOM     26  C   UNL A   1      33.227  28.451  25.102  1.00  0.00     0.161 A 
ATOM     27  O   UNL A   1      31.674  27.490  26.717  1.00  0.00    -0.486 OA
ATOM     28  O   UNL A   1      33.189  29.707  25.652  1.00  0.00    -0.486 OA
ATOM     29  C   UNL A   1      31.691  28.796  27.310  1.00  0.00     0.271 C 
ATOM     30  C   UNL A   1      31.916  29.892  26.282  1.00  0.00     0.271 C 
ENDBRANCH  19  21
ENDBRANCH  16  19
ENDBRANCH  15  16
ENDBRANCH   9  10
ENDBRANCH   6   8
ENDBRANCH   5   6
ENDBRANCH   4   5
ENDBRANCH   3   4
ENDBRANCH   2   3
ENDBRANCH   1   2
BRANCH   1  31
ATOM     31  C   UNL A   1      45.662  20.227  24.276  1.00  0.00     0.188 C 
BRANCH  31  32
ATOM     32  O   UNL A   1      46.442  20.987  25.185  1.00  0.00    -0.376 OA
BRANCH  32  33
ATOM     33  C   UNL A   1      45.995  22.307  25.492  1.00  0.00     0.202 C 
BRANCH  33  34
ATOM     34  C   UNL A   1      45.831  23.304  24.338  1.00  0.00     0.261 C 
BRANCH  34  35
ATOM     35  O   UNL A   1      44.908  24.371  24.640  1.00  0.00    -0.460 OA
BRANCH  35  36
ATOM     36  C   UNL A   1      43.619  23.982  24.785  1.00  0.00     0.338 C 
ATOM     37  O   UNL A   1      43.119  22.928  24.427  1.00  0.00    -0.246 OA
BRANCH  36  38
ATOM     38  C   UNL A   1      42.843  24.972  25.551  1.00  0.00     0.060 A 
ATOM     39  C   UNL A   1      43.316  26.288  25.608  1.00  0.00     0.016 A 
ATOM     40  C   UNL A   1      41.805  24.554  26.384  1.00  0.00     0.016 A 
ATOM     41  C   UNL A   1      42.790  27.179  26.547  1.00  0.00     0.010 A 
ATOM     42  C   UNL A   1      41.282  25.446  27.328  1.00  0.00     0.010 A 
ATOM     43  C   UNL A   1      41.803  26.747  27.446  1.00  0.00    -0.014 A 
BRANCH  43  44
ATOM     44  C   UNL A   1      41.440  27.594  28.611  1.00  0.00     0.031 A 
ATOM     45  C   UNL A   1      42.228  27.465  29.889  1.00  0.00     0.074 A 
ATOM     46  C   UNL A   1      40.430  28.479  28.538  1.00  0.00     0.049 A 
ATOM     47  N   UNL A   1      42.052  28.067  31.038  1.00  0.00    -0.248 NA
ATOM     48  C   UNL A   1      43.368  26.533  29.867  1.00  0.00     0.031 C 
ATOM     49  C   UNL A   1      39.610  28.735  27.355  1.00  0.00     0.029 A 
ATOM     50  N   UNL A   1      39.920  29.324  29.492  1.00  0.00    -0.354 N 
ATOM     51  C   UNL A   1      43.048  27.581  31.878  1.00  0.00     0.074 A 
ATOM     52  C   UNL A   1      43.815  26.622  31.111  1.00  0.00     0.031 C 
ATOM     53  C   UNL A   1      38.686  29.665  27.659  1.00  0.00     0.029 A 
ATOM     54  C   UNL A   1      38.841  30.054  29.059  1.00  0.00     0.049 A 
ATOM     55  H   UNL A   1      40.294  29.400  30.398  1.00  0.00     0.167 HD
ATOM     56  C   UNL A   1      43.306  27.905  33.167  1.00  0.00     0.037 A 
ATOM     57  C   UNL A   1      38.058  30.922  29.727  1.00  0.00     0.037 A 
ATOM     58  C   UNL A   1      42.553  28.860  33.937  1.00  0.00     0.049 A 
ATOM     59  C   UNL A   1      38.331  31.225  31.174  1.00  0.00     0.074 A 
ATOM     60  C   UNL A   1      42.760  29.274  35.243  1.00  0.00     0.029 A 
ATOM     61  N   UNL A   1      41.443  29.547  33.474  1.00  0.00    -0.354 N 
ATOM     62  N   UNL A   1      39.276  30.761  31.954  1.00  0.00    -0.248 NA
ATOM     63  C   UNL A   1      37.420  32.174  31.833  1.00  0.00     0.031 C 
ATOM     64  C   UNL A   1      41.751  30.181  35.582  1.00  0.00     0.029 A 
ATOM     65  C   UNL A   1      40.941  30.365  34.474  1.00  0.00     0.049 A 
ATOM     66  H   UNL A   1      41.067  29.467  32.567  1.00  0.00     0.167 HD
ATOM     67  C   UNL A   1      39.081  31.369  33.188  1.00  0.00     0.074 A 
ATOM     68  C   UNL A   1      37.936  32.243  33.051  1.00  0.00     0.031 C 
ATOM     69  C   UNL A   1      39.791  31.217  34.332  1.00  0.00     0.037 A 
BRANCH  56  70
ATOM     70  C   UNL A   1      44.444  27.203  33.843  1.00  0.00     0.057 A 
ATOM     71  C   UNL A   1      44.261  26.001  34.538  1.00  0.00     0.134 A 
ATOM     72  C   UNL A   1      45.746  27.712  33.759  1.00  0.00     0.134 A 
ATOM     73  F   UNL A   1      43.036  25.467  34.663  1.00  0.00    -0.206 F 
ATOM     74  C   UNL A   1      45.332  25.337  35.140  1.00  0.00     0.040 A 
ATOM     75  C   UNL A   1      46.828  27.046  34.340  1.00  0.00     0.040 A 
ATOM     76  F   UNL A   1      45.989  28.856  33.103  1.00  0.00    -0.206 F 
ATOM     77  C   UNL A   1      46.621  25.857  35.035  1.00  0.00     0.006 A 
ENDBRANCH  56  70
BRANCH  57  78
ATOM     78  C   UNL A   1      36.908  31.560  29.048  1.00  0.00     0.057 A 
ATOM     79  C   UNL A   1      36.965  32.890  28.622  1.00  0.00     0.134 A 
ATOM     80  C   UNL A   1      35.706  30.869  28.864  1.00  0.00     0.134 A 
ATOM     81  F   UNL A   1      38.082  33.609  28.805  1.00  0.00    -0.206 F 
ATOM     82  C   UNL A   1      35.861  33.516  28.040  1.00  0.00     0.040 A 
ATOM     83  C   UNL A   1      34.597  31.478  28.278  1.00  0.00     0.040 A 
ATOM     84  F   UNL A   1      35.598  29.587  29.244  1.00  0.00    -0.206 F 
ATOM     85  C   UNL A   1      34.673  32.808  27.865  1.00  0.00     0.006 A 
ENDBRANCH  57  78
BRANCH  69  86
ATOM     86  C   UNL A   1      39.357  32.022  35.520  1.00  0.00     0.057 A 
ATOM     87  C   UNL A   1      38.466  31.508  36.470  1.00  0.00     0.134 A 
ATOM     88  C   UNL A   1      39.859  33.312  35.732  1.00  0.00     0.134 A 
ATOM     89  F   UNL A   1      37.939  30.284  36.315  1.00  0.00    -0.206 F 
ATOM     90  C   UNL A   1      38.075  32.257  37.581  1.00  0.00     0.040 A 
ATOM     91  C   UNL A   1      39.490  34.062  36.850  1.00  0.00     0.040 A 
ATOM     92  F   UNL A   1      40.719  33.860  34.861  1.00  0.00    -0.206 F 
ATOM     93  C   UNL A   1      38.593  33.536  37.776  1.00  0.00     0.006 A 
ENDBRANCH  69  86
ENDBRANCH  43  44
ENDBRANCH  36  38
ENDBRANCH  35  36
ENDBRANCH  34  35
ENDBRANCH  33  34
ENDBRANCH  32  33
ENDBRANCH  31  32
ENDBRANCH   1  31
TORSDOF 21
ENDMDL
MODEL 3
REMARK VINA RESULT:     -11.1      1.558      6.646
REMARK SMILES O=C(/C=C/c1ccc(S(=O)(=O)Nc2ccc3c(c2)OCCO3)cc1)OCCOCCOCCOC(=O)c1ccc(-c2c3nc(c(-c4c(F)cccc4F)c4ccc([nH]4)c(-c4c(F)cccc4F)c4nc(c(-c5c(F)cccc5F)c5ccc2[nH]5)C=C4)C=C3)cc1
REMARK SMILES IDX 29 1 28 2 27 3 26 4 25 5 2 6 1 7 3 8 4 9 5 10 6 11 24 12
REMARK SMILES IDX 7 13 23 14 8 15 9 16 10 17 11 18 12 19 13 21 14 22 18 23
REMARK SMILES IDX 15 24 17 25 16 26 19 27 22 28 20 29 21 30 30 31 31 32 32 33
REMARK SMILES IDX 33 34 34 35 35 36 36 37 37 38 38 39 90 40 39 41 89 42 40 43
REMARK SMILES IDX 41 44 42 45 83 46 43 47 88 48 82 49 84 50 44 51 87 52 81 53
REMARK SMILES IDX 80 54 45 56 71 57 54 58 70 59 55 60 58 61 69 62 85 63 56 64
REMARK SMILES IDX 57 65 68 67 86 68 59 69 46 70 47 71 52 72 48 73 49 74 51 75
REMARK SMILES IDX 53 76 50 77 72 78 73 79 78 80 74 81 75 82 77 83 79 84 76 85
REMARK SMILES IDX 60 86 61 87 66 88 62 89 63 90 65 91 67 92 64 93
REMARK H PARENT 12 20 84 55 58 66
REMARK Flexibility Score: inf
ROOT
ATOM      1  C   UNL A   1      45.520  19.017  24.954  1.00  0.00     0.188 C 
ENDROOT
BRANCH   1   2
ATOM      2  O   UNL A   1      44.186  18.592  25.192  1.00  0.00    -0.376 OA
BRANCH   2   3
ATOM      3  C   UNL A   1      43.215  19.583  25.536  1.00  0.00     0.202 C 
BRANCH   3   4
ATOM      4  C   UNL A   1      41.991  19.190  26.379  1.00  0.00     0.261 C 
BRANCH   4   5
ATOM      5  O   UNL A   1      40.665  19.628  25.993  1.00  0.00    -0.460 OA
BRANCH   5   6
ATOM      6  C   UNL A   1      40.146  20.825  26.342  1.00  0.00     0.330 C 
ATOM      7  O   UNL A   1      40.713  21.618  27.081  1.00  0.00    -0.247 OA
BRANCH   6   8
ATOM      8  C   UNL A   1      38.941  21.230  25.600  1.00  0.00     0.094 C 
ATOM      9  C   UNL A   1      38.265  22.335  25.933  1.00  0.00     0.015 C 
BRANCH   9  10
ATOM     10  C   UNL A   1      37.063  22.849  25.275  1.00  0.00    -0.025 A 
ATOM     11  C   UNL A   1      36.028  23.301  26.102  1.00  0.00     0.009 A 
ATOM     12  C   UNL A   1      36.852  22.766  23.894  1.00  0.00     0.009 A 
ATOM     13  C   UNL A   1      34.755  23.513  25.584  1.00  0.00     0.023 A 
ATOM     14  C   UNL A   1      35.587  23.027  23.360  1.00  0.00     0.023 A 
ATOM     15  C   UNL A   1      34.525  23.298  24.224  1.00  0.00     0.087 A 
BRANCH  15  16
ATOM     16  S   UNL A   1      32.831  23.096  23.690  1.00  0.00     0.261 S 
ATOM     17  O   UNL A   1      32.692  21.738  23.209  1.00  0.00    -0.201 OA
ATOM     18  O   UNL A   1      31.988  23.611  24.747  1.00  0.00    -0.201 OA
BRANCH  16  19
ATOM     19  N   UNL A   1      32.616  24.125  22.351  1.00  0.00    -0.279 N 
ATOM     20  H   UNL A   1      32.565  23.750  21.442  1.00  0.00     0.180 HD
BRANCH  19  21
ATOM     21  C   UNL A   1      32.510  25.535  22.553  1.00  0.00     0.053 A 
ATOM     22  C   UNL A   1      31.406  26.181  21.982  1.00  0.00     0.031 A 
ATOM     23  C   UNL A   1      33.356  26.229  23.418  1.00  0.00     0.077 A 
ATOM     24  C   UNL A   1      31.060  27.470  22.384  1.00  0.00     0.052 A 
ATOM     25  C   UNL A   1      32.979  27.496  23.863  1.00  0.00     0.163 A 
ATOM     26  C   UNL A   1      31.811  28.093  23.374  1.00  0.00     0.161 A 
ATOM     27  O   UNL A   1      33.743  28.047  24.859  1.00  0.00    -0.486 OA
ATOM     28  O   UNL A   1      31.307  29.259  23.890  1.00  0.00    -0.486 OA
ATOM     29  C   UNL A   1      33.230  29.294  25.348  1.00  0.00     0.271 C 
ATOM     30  C   UNL A   1      31.715  29.367  25.259  1.00  0.00     0.271 C 
ENDBRANCH  19  21
ENDBRANCH  16  19
ENDBRANCH  15  16
ENDBRANCH   9  10
ENDBRANCH   6   8
ENDBRANCH   5   6
ENDBRANCH   4   5
ENDBRANCH   3   4
ENDBRANCH   2   3
ENDBRANCH   1   2
BRANCH   1  31
ATOM     31  C   UNL A   1      45.712  20.500  24.635  1.00  0.00     0.188 C 
BRANCH  31  32
ATOM     32  O   UNL A   1      46.376  21.282  25.614  1.00  0.00    -0.376 OA
BRANCH  32  33
ATOM     33  C   UNL A   1      45.948  22.633  25.780  1.00  0.00     0.202 C 
BRANCH  33  34
ATOM     34  C   UNL A   1      45.792  23.503  24.526  1.00  0.00     0.261 C 
BRANCH  34  35
ATOM     35  O   UNL A   1      44.845  24.578  24.698  1.00  0.00    -0.460 OA
BRANCH  35  36
ATOM     36  C   UNL A   1      43.575  24.180  24.950  1.00  0.00     0.338 C 
ATOM     37  O   UNL A   1      43.054  23.122  24.634  1.00  0.00    -0.246 OA
BRANCH  36  38
ATOM     38  C   UNL A   1      42.861  25.163  25.783  1.00  0.00     0.060 A 
ATOM     39  C   UNL A   1      43.499  26.373  26.077  1.00  0.00     0.016 A 
ATOM     40  C   UNL A   1      41.690  24.797  26.447  1.00  0.00     0.016 A 
ATOM     41  C   UNL A   1      42.997  27.198  27.086  1.00  0.00     0.010 A 
ATOM     42  C   UNL A   1      41.192  25.622  27.462  1.00  0.00     0.010 A 
ATOM     43  C   UNL A   1      41.868  26.803  27.819  1.00  0.00    -0.014 A 
BRANCH  43  44
ATOM     44  C   UNL A   1      41.496  27.531  29.059  1.00  0.00     0.031 A 
ATOM     45  C   UNL A   1      40.316  28.467  29.037  1.00  0.00     0.074 A 
ATOM     46  C   UNL A   1      42.189  27.358  30.199  1.00  0.00     0.049 A 
ATOM     47  N   UNL A   1      39.848  29.238  29.987  1.00  0.00    -0.248 NA
ATOM     48  C   UNL A   1      39.560  28.544  27.776  1.00  0.00     0.031 C 
ATOM     49  C   UNL A   1      43.326  26.457  30.373  1.00  0.00     0.029 A 
ATOM     50  N   UNL A   1      42.032  27.946  31.429  1.00  0.00    -0.354 N 
ATOM     51  C   UNL A   1      38.755  29.897  29.438  1.00  0.00     0.074 A 
ATOM     52  C   UNL A   1      38.638  29.449  28.067  1.00  0.00     0.031 C 
ATOM     53  C   UNL A   1      43.777  26.564  31.636  1.00  0.00     0.029 A 
ATOM     54  C   UNL A   1      42.971  27.552  32.350  1.00  0.00     0.049 A 
ATOM     55  H   UNL A   1      41.316  28.588  31.632  1.00  0.00     0.167 HD
ATOM     56  C   UNL A   1      37.920  30.790  30.021  1.00  0.00     0.037 A 
ATOM     57  C   UNL A   1      43.166  27.959  33.619  1.00  0.00     0.037 A 
ATOM     58  C   UNL A   1      38.025  31.239  31.384  1.00  0.00     0.049 A 
ATOM     59  C   UNL A   1      42.259  28.993  34.226  1.00  0.00     0.074 A 
ATOM     60  C   UNL A   1      37.205  32.121  32.069  1.00  0.00     0.029 A 
ATOM     61  N   UNL A   1      39.014  30.845  32.271  1.00  0.00    -0.354 N 
ATOM     62  N   UNL A   1      41.229  29.605  33.697  1.00  0.00    -0.248 NA
ATOM     63  C   UNL A   1      42.549  29.392  35.612  1.00  0.00     0.031 C 
ATOM     64  C   UNL A   1      37.722  32.291  33.358  1.00  0.00     0.029 A 
ATOM     65  C   UNL A   1      38.839  31.483  33.488  1.00  0.00     0.049 A 
ATOM     66  H   UNL A   1      39.734  30.206  32.066  1.00  0.00     0.167 HD
ATOM     67  C   UNL A   1      40.742  30.451  34.686  1.00  0.00     0.074 A 
ATOM     68  C   UNL A   1      41.581  30.265  35.851  1.00  0.00     0.031 C 
ATOM     69  C   UNL A   1      39.690  31.303  34.634  1.00  0.00     0.037 A 
BRANCH  56  70
ATOM     70  C   UNL A   1      36.823  31.365  29.177  1.00  0.00     0.057 A 
ATOM     71  C   UNL A   1      35.682  30.625  28.846  1.00  0.00     0.134 A 
ATOM     72  C   UNL A   1      36.890  32.690  28.728  1.00  0.00     0.134 A 
ATOM     73  F   UNL A   1      35.563  29.347  29.236  1.00  0.00    -0.206 F 
ATOM     74  C   UNL A   1      34.651  31.177  28.083  1.00  0.00     0.040 A 
ATOM     75  C   UNL A   1      35.856  33.260  27.982  1.00  0.00     0.040 A 
ATOM     76  F   UNL A   1      37.954  33.454  29.016  1.00  0.00    -0.206 F 
ATOM     77  C   UNL A   1      34.734  32.502  27.655  1.00  0.00     0.006 A 
ENDBRANCH  56  70
BRANCH  57  78
ATOM     78  C   UNL A   1      44.291  27.414  34.411  1.00  0.00     0.057 A 
ATOM     79  C   UNL A   1      44.144  26.250  35.171  1.00  0.00     0.134 A 
ATOM     80  C   UNL A   1      45.520  28.079  34.469  1.00  0.00     0.134 A 
ATOM     81  F   UNL A   1      42.976  25.592  35.178  1.00  0.00    -0.206 F 
ATOM     82  C   UNL A   1      45.182  25.768  35.971  1.00  0.00     0.040 A 
ATOM     83  C   UNL A   1      46.568  27.605  35.257  1.00  0.00     0.040 A 
ATOM     84  F   UNL A   1      45.721  29.194  33.751  1.00  0.00    -0.206 F 
ATOM     85  C   UNL A   1      46.399  26.446  36.013  1.00  0.00     0.006 A 
ENDBRANCH  57  78
BRANCH  69  86
ATOM     86  C   UNL A   1      39.382  32.089  35.873  1.00  0.00     0.057 A 
ATOM     87  C   UNL A   1      40.014  33.309  36.146  1.00  0.00     0.134 A 
ATOM     88  C   UNL A   1      38.422  31.637  36.787  1.00  0.00     0.134 A 
ATOM     89  F   UNL A   1      40.954  33.788  35.317  1.00  0.00    -0.206 F 
ATOM     90  C   UNL A   1      39.714  34.042  37.296  1.00  0.00     0.040 A 
ATOM     91  C   UNL A   1      38.100  32.372  37.929  1.00  0.00     0.040 A 
ATOM     92  F   UNL A   1      37.778  30.479  36.580  1.00  0.00    -0.206 F 
ATOM     93  C   UNL A   1      38.750  33.576  38.187  1.00  0.00     0.006 A 
ENDBRANCH  69  86
ENDBRANCH  43  44
ENDBRANCH  36  38
ENDBRANCH  35  36
ENDBRANCH  34  35
ENDBRANCH  33  34
ENDBRANCH  32  33
ENDBRANCH  31  32
ENDBRANCH   1  31
TORSDOF 21
ENDMDL
