MODEL 1
REMARK VINA RESULT:     -10.2      0.000      0.000
REMARK SMILES C[C@@H](c1ccc(C(=O)OCCOCCOCCOC(=O)c2ccc(-c3c4nc(c(-c5c(F)cccc5F)c5ccc([nH]5)c(-c5c(F)cccc5F)c5nc(c(-c6c(F)cccc6F)c6ccc3[nH]6)C=C5)C=C4)cc2)o1)[N@@H+](C)Cc1ccoc1
REMARK SMILES IDX 13 1 12 2 11 3 10 4 9 5 7 6 8 7 6 8 3 9 4 10 75 11 5 12 2 13
REMARK SMILES IDX 1 14 76 15 77 16 78 18 79 19 80 20 83 21 81 22 82 23 14 24
REMARK SMILES IDX 15 25 16 26 17 27 18 28 19 29 20 30 21 31 22 32 74 33 23 34
REMARK SMILES IDX 73 35 24 36 25 37 26 38 67 39 27 40 72 41 66 42 68 43 28 44
REMARK SMILES IDX 71 45 65 46 64 47 29 49 55 50 38 51 54 52 39 53 42 54 53 55
REMARK SMILES IDX 69 56 40 57 41 58 52 60 70 61 43 62 30 63 31 64 36 65 32 66
REMARK SMILES IDX 33 67 35 68 37 69 34 70 56 71 57 72 62 73 58 74 59 75 61 76
REMARK SMILES IDX 63 77 60 78 44 79 45 80 50 81 46 82 47 83 49 84 51 85 48 86
REMARK H PARENT 76 17 68 48 42 59
REMARK Flexibility Score: inf
ROOT
ATOM      1  C   UNL A   1      34.718  33.085  28.037  1.00  0.00     0.188 C 
ENDROOT
BRANCH   1   2
ATOM      2  O   UNL A   1      34.446  31.698  28.211  1.00  0.00    -0.376 OA
BRANCH   2   3
ATOM      3  C   UNL A   1      33.442  31.055  27.445  1.00  0.00     0.202 C 
BRANCH   3   4
ATOM      4  C   UNL A   1      33.838  29.727  26.798  1.00  0.00     0.261 C 
BRANCH   4   5
ATOM      5  O   UNL A   1      33.555  28.580  27.611  1.00  0.00    -0.457 OA
BRANCH   5   6
ATOM      6  C   UNL A   1      32.385  27.933  27.331  1.00  0.00     0.374 C 
ATOM      7  O   UNL A   1      31.354  28.034  27.983  1.00  0.00    -0.242 OA
BRANCH   6   8
ATOM      8  C   UNL A   1      32.537  27.172  26.115  1.00  0.00     0.212 A 
ATOM      9  C   UNL A   1      31.939  26.506  24.091  1.00  0.00     0.162 A 
ATOM     10  C   UNL A   1      33.087  25.812  24.419  1.00  0.00     0.053 A 
ATOM     11  O   UNL A   1      31.585  27.313  25.138  1.00  0.00    -0.448 OA
ATOM     12  C   UNL A   1      33.506  26.285  25.686  1.00  0.00     0.059 A 
BRANCH   9  13
ATOM     13  C   UNL A   1      31.011  26.498  22.911  1.00  0.00     0.248 C 
ATOM     14  C   UNL A   1      31.791  26.322  21.604  1.00  0.00     0.084 C 
BRANCH  13  15
ATOM     15  N   UNL A   1      30.080  27.629  22.813  1.00  0.00    -0.325 N 
ATOM     16  C   UNL A   1      28.818  27.451  23.501  1.00  0.00     0.333 C 
ATOM     17  H   UNL A   1      29.868  27.526  21.820  1.00  0.00     0.348 HD
BRANCH  15  18
ATOM     18  C   UNL A   1      30.560  28.995  22.661  1.00  0.00     0.302 C 
BRANCH  18  19
ATOM     19  C   UNL A   1      29.516  30.066  22.595  1.00  0.00     0.044 A 
ATOM     20  C   UNL A   1      28.993  30.918  23.612  1.00  0.00     0.051 A 
ATOM     21  C   UNL A   1      28.803  30.409  21.458  1.00  0.00     0.204 A 
ATOM     22  C   UNL A   1      28.068  31.740  23.013  1.00  0.00     0.195 A 
ATOM     23  O   UNL A   1      27.944  31.429  21.700  1.00  0.00    -0.472 OA
ENDBRANCH  18  19
ENDBRANCH  15  18
ENDBRANCH  13  15
ENDBRANCH   9  13
ENDBRANCH   6   8
ENDBRANCH   5   6
ENDBRANCH   4   5
ENDBRANCH   3   4
ENDBRANCH   2   3
ENDBRANCH   1   2
BRANCH   1  24
ATOM     24  C   UNL A   1      33.867  34.163  28.731  1.00  0.00     0.188 C 
BRANCH  24  25
ATOM     25  O   UNL A   1      34.523  34.814  29.812  1.00  0.00    -0.376 OA
BRANCH  25  26
ATOM     26  C   UNL A   1      33.773  34.943  31.013  1.00  0.00     0.202 C 
BRANCH  26  27
ATOM     27  C   UNL A   1      34.299  34.026  32.120  1.00  0.00     0.261 C 
BRANCH  27  28
ATOM     28  O   UNL A   1      35.182  32.990  31.660  1.00  0.00    -0.460 OA
BRANCH  28  29
ATOM     29  C   UNL A   1      35.989  32.427  32.586  1.00  0.00     0.338 C 
ATOM     30  O   UNL A   1      35.826  32.401  33.793  1.00  0.00    -0.246 OA
BRANCH  29  31
ATOM     31  C   UNL A   1      37.049  31.687  31.879  1.00  0.00     0.060 A 
ATOM     32  C   UNL A   1      37.994  30.987  32.635  1.00  0.00     0.016 A 
ATOM     33  C   UNL A   1      37.114  31.692  30.483  1.00  0.00     0.016 A 
ATOM     34  C   UNL A   1      39.029  30.305  31.994  1.00  0.00     0.010 A 
ATOM     35  C   UNL A   1      38.158  31.021  29.844  1.00  0.00     0.010 A 
ATOM     36  C   UNL A   1      39.133  30.345  30.597  1.00  0.00    -0.014 A 
BRANCH  36  37
ATOM     37  C   UNL A   1      40.344  29.819  29.924  1.00  0.00     0.031 A 
ATOM     38  C   UNL A   1      41.503  30.748  29.698  1.00  0.00     0.074 A 
ATOM     39  C   UNL A   1      40.410  28.542  29.509  1.00  0.00     0.049 A 
ATOM     40  N   UNL A   1      42.631  30.531  29.074  1.00  0.00    -0.248 NA
ATOM     41  C   UNL A   1      41.369  32.105  30.251  1.00  0.00     0.031 C 
ATOM     42  C   UNL A   1      39.369  27.535  29.694  1.00  0.00     0.029 A 
ATOM     43  N   UNL A   1      41.402  27.883  28.828  1.00  0.00    -0.354 N 
ATOM     44  C   UNL A   1      43.340  31.722  29.154  1.00  0.00     0.074 A 
ATOM     45  C   UNL A   1      42.506  32.665  29.867  1.00  0.00     0.031 C 
ATOM     46  C   UNL A   1      39.771  26.385  29.124  1.00  0.00     0.029 A 
ATOM     47  C   UNL A   1      41.083  26.586  28.512  1.00  0.00     0.049 A 
ATOM     48  H   UNL A   1      42.262  28.301  28.590  1.00  0.00     0.167 HD
ATOM     49  C   UNL A   1      44.576  32.004  28.682  1.00  0.00     0.037 A 
ATOM     50  C   UNL A   1      41.764  25.676  27.788  1.00  0.00     0.037 A 
ATOM     51  C   UNL A   1      45.405  31.074  27.964  1.00  0.00     0.049 A 
ATOM     52  C   UNL A   1      43.107  26.037  27.209  1.00  0.00     0.074 A 
ATOM     53  C   UNL A   1      46.678  31.266  27.457  1.00  0.00     0.029 A 
ATOM     54  N   UNL A   1      45.037  29.776  27.645  1.00  0.00    -0.354 N 
ATOM     55  N   UNL A   1      43.780  27.157  27.314  1.00  0.00    -0.248 NA
ATOM     56  C   UNL A   1      43.785  25.004  26.411  1.00  0.00     0.031 C 
ATOM     57  C   UNL A   1      47.065  30.096  26.795  1.00  0.00     0.029 A 
ATOM     58  C   UNL A   1      46.050  29.162  26.928  1.00  0.00     0.049 A 
ATOM     59  H   UNL A   1      44.182  29.354  27.891  1.00  0.00     0.167 HD
ATOM     60  C   UNL A   1      44.969  26.954  26.621  1.00  0.00     0.074 A 
ATOM     61  C   UNL A   1      44.927  25.602  26.105  1.00  0.00     0.031 C 
ATOM     62  C   UNL A   1      46.002  27.811  26.432  1.00  0.00     0.037 A 
BRANCH  49  63
ATOM     63  C   UNL A   1      45.096  33.390  28.912  1.00  0.00     0.057 A 
ATOM     64  C   UNL A   1      44.760  34.453  28.064  1.00  0.00     0.134 A 
ATOM     65  C   UNL A   1      45.927  33.668  30.004  1.00  0.00     0.134 A 
ATOM     66  F   UNL A   1      43.984  34.245  26.990  1.00  0.00    -0.206 F 
ATOM     67  C   UNL A   1      45.248  35.741  28.283  1.00  0.00     0.040 A 
ATOM     68  C   UNL A   1      46.403  34.956  30.247  1.00  0.00     0.040 A 
ATOM     69  F   UNL A   1      46.284  32.693  30.854  1.00  0.00    -0.206 F 
ATOM     70  C   UNL A   1      46.067  35.996  29.382  1.00  0.00     0.006 A 
ENDBRANCH  49  63
BRANCH  50  71
ATOM     71  C   UNL A   1      41.185  24.331  27.549  1.00  0.00     0.057 A 
ATOM     72  C   UNL A   1      40.140  24.144  26.638  1.00  0.00     0.134 A 
ATOM     73  C   UNL A   1      41.642  23.208  28.249  1.00  0.00     0.134 A 
ATOM     74  F   UNL A   1      39.641  25.188  25.961  1.00  0.00    -0.206 F 
ATOM     75  C   UNL A   1      39.557  22.891  26.443  1.00  0.00     0.040 A 
ATOM     76  C   UNL A   1      41.084  21.945  28.047  1.00  0.00     0.040 A 
ATOM     77  F   UNL A   1      42.638  23.325  29.141  1.00  0.00    -0.206 F 
ATOM     78  C   UNL A   1      40.033  21.785  27.145  1.00  0.00     0.006 A 
ENDBRANCH  50  71
BRANCH  62  79
ATOM     79  C   UNL A   1      47.191  27.304  25.672  1.00  0.00     0.057 A 
ATOM     80  C   UNL A   1      47.345  27.533  24.300  1.00  0.00     0.134 A 
ATOM     81  C   UNL A   1      48.219  26.620  26.334  1.00  0.00     0.134 A 
ATOM     82  F   UNL A   1      46.390  28.172  23.606  1.00  0.00    -0.206 F 
ATOM     83  C   UNL A   1      48.473  27.088  23.608  1.00  0.00     0.040 A 
ATOM     84  C   UNL A   1      49.362  26.188  25.658  1.00  0.00     0.040 A 
ATOM     85  F   UNL A   1      48.137  26.376  27.651  1.00  0.00    -0.206 F 
ATOM     86  C   UNL A   1      49.488  26.419  24.290  1.00  0.00     0.006 A 
ENDBRANCH  62  79
ENDBRANCH  36  37
ENDBRANCH  29  31
ENDBRANCH  28  29
ENDBRANCH  27  28
ENDBRANCH  26  27
ENDBRANCH  25  26
ENDBRANCH  24  25
ENDBRANCH   1  24
TORSDOF 21
ENDMDL
MODEL 2
REMARK VINA RESULT:     -10.2      4.698      9.732
REMARK SMILES C[C@@H](c1ccc(C(=O)OCCOCCOCCOC(=O)c2ccc(-c3c4nc(c(-c5c(F)cccc5F)c5ccc([nH]5)c(-c5c(F)cccc5F)c5nc(c(-c6c(F)cccc6F)c6ccc3[nH]6)C=C5)C=C4)cc2)o1)[N@@H+](C)Cc1ccoc1
REMARK SMILES IDX 13 1 12 2 11 3 10 4 9 5 7 6 8 7 6 8 3 9 4 10 75 11 5 12 2 13
REMARK SMILES IDX 1 14 76 15 77 16 78 18 79 19 80 20 83 21 81 22 82 23 14 24
REMARK SMILES IDX 15 25 16 26 17 27 18 28 19 29 20 30 21 31 22 32 74 33 23 34
REMARK SMILES IDX 73 35 24 36 25 37 26 38 67 39 27 40 72 41 66 42 68 43 28 44
REMARK SMILES IDX 71 45 65 46 64 47 29 49 55 50 38 51 54 52 39 53 42 54 53 55
REMARK SMILES IDX 69 56 40 57 41 58 52 60 70 61 43 62 30 63 31 64 36 65 32 66
REMARK SMILES IDX 33 67 35 68 37 69 34 70 56 71 57 72 62 73 58 74 59 75 61 76
REMARK SMILES IDX 63 77 60 78 44 79 45 80 50 81 46 82 47 83 49 84 51 85 48 86
REMARK H PARENT 76 17 68 48 42 59
REMARK Flexibility Score: inf
ROOT
ATOM      1  C   UNL A   1      40.175  21.560  26.222  1.00  0.00     0.188 C 
ENDROOT
BRANCH   1   2
ATOM      2  O   UNL A   1      38.794  21.905  26.185  1.00  0.00    -0.376 OA
BRANCH   2   3
ATOM      3  C   UNL A   1      37.934  21.345  25.207  1.00  0.00     0.202 C 
BRANCH   3   4
ATOM      4  C   UNL A   1      36.441  21.628  25.384  1.00  0.00     0.261 C 
BRANCH   4   5
ATOM      5  O   UNL A   1      35.880  22.441  24.345  1.00  0.00    -0.457 OA
BRANCH   5   6
ATOM      6  C   UNL A   1      34.514  22.500  24.316  1.00  0.00     0.374 C 
ATOM      7  O   UNL A   1      33.778  21.571  24.013  1.00  0.00    -0.242 OA
BRANCH   6   8
ATOM      8  C   UNL A   1      34.082  23.802  24.761  1.00  0.00     0.212 A 
ATOM      9  C   UNL A   1      33.145  25.790  24.499  1.00  0.00     0.162 A 
ATOM     10  C   UNL A   1      33.602  25.730  25.801  1.00  0.00     0.053 A 
ATOM     11  O   UNL A   1      33.465  24.626  23.855  1.00  0.00    -0.448 OA
ATOM     12  C   UNL A   1      34.143  24.436  25.988  1.00  0.00     0.059 A 
BRANCH   9  13
ATOM     13  C   UNL A   1      32.470  26.846  23.673  1.00  0.00     0.248 C 
ATOM     14  C   UNL A   1      33.470  27.922  23.238  1.00  0.00     0.084 C 
BRANCH  13  15
ATOM     15  N   UNL A   1      31.271  27.458  24.260  1.00  0.00    -0.325 N 
ATOM     16  C   UNL A   1      31.494  28.708  24.955  1.00  0.00     0.333 C 
ATOM     17  H   UNL A   1      31.122  26.761  24.990  1.00  0.00     0.348 HD
BRANCH  15  18
ATOM     18  C   UNL A   1      29.953  27.256  23.675  1.00  0.00     0.302 C 
BRANCH  18  19
ATOM     19  C   UNL A   1      29.381  28.408  22.907  1.00  0.00     0.044 A 
ATOM     20  C   UNL A   1      28.074  28.977  22.922  1.00  0.00     0.051 A 
ATOM     21  C   UNL A   1      30.067  29.145  21.957  1.00  0.00     0.204 A 
ATOM     22  C   UNL A   1      28.084  30.035  22.045  1.00  0.00     0.195 A 
ATOM     23  O   UNL A   1      29.297  30.138  21.448  1.00  0.00    -0.472 OA
ENDBRANCH  18  19
ENDBRANCH  15  18
ENDBRANCH  13  15
ENDBRANCH   9  13
ENDBRANCH   6   8
ENDBRANCH   5   6
ENDBRANCH   4   5
ENDBRANCH   3   4
ENDBRANCH   2   3
ENDBRANCH   1   2
BRANCH   1  24
ATOM     24  C   UNL A   1      40.802  20.889  27.457  1.00  0.00     0.188 C 
BRANCH  24  25
ATOM     25  O   UNL A   1      42.189  20.604  27.322  1.00  0.00    -0.376 OA
BRANCH  25  26
ATOM     26  C   UNL A   1      42.653  20.366  25.999  1.00  0.00     0.202 C 
BRANCH  26  27
ATOM     27  C   UNL A   1      43.793  21.311  25.611  1.00  0.00     0.261 C 
BRANCH  27  28
ATOM     28  O   UNL A   1      43.868  22.505  26.407  1.00  0.00    -0.460 OA
BRANCH  28  29
ATOM     29  C   UNL A   1      43.815  23.680  25.743  1.00  0.00     0.338 C 
ATOM     30  O   UNL A   1      44.085  23.883  24.573  1.00  0.00    -0.246 OA
BRANCH  29  31
ATOM     31  C   UNL A   1      43.208  24.682  26.637  1.00  0.00     0.060 A 
ATOM     32  C   UNL A   1      43.732  25.979  26.640  1.00  0.00     0.016 A 
ATOM     33  C   UNL A   1      42.140  24.343  27.471  1.00  0.00     0.016 A 
ATOM     34  C   UNL A   1      43.201  26.940  27.500  1.00  0.00     0.010 A 
ATOM     35  C   UNL A   1      41.619  25.301  28.342  1.00  0.00     0.010 A 
ATOM     36  C   UNL A   1      42.163  26.597  28.377  1.00  0.00    -0.014 A 
BRANCH  36  37
ATOM     37  C   UNL A   1      41.746  27.536  29.444  1.00  0.00     0.031 A 
ATOM     38  C   UNL A   1      42.475  27.504  30.758  1.00  0.00     0.074 A 
ATOM     39  C   UNL A   1      40.729  28.397  29.256  1.00  0.00     0.049 A 
ATOM     40  N   UNL A   1      42.243  28.180  31.853  1.00  0.00    -0.248 NA
ATOM     41  C   UNL A   1      43.619  26.583  30.846  1.00  0.00     0.031 C 
ATOM     42  C   UNL A   1      39.963  28.548  28.022  1.00  0.00     0.029 A 
ATOM     43  N   UNL A   1      40.161  29.297  30.121  1.00  0.00    -0.354 N 
ATOM     44  C   UNL A   1      43.207  27.766  32.761  1.00  0.00     0.074 A 
ATOM     45  C   UNL A   1      44.013  26.763  32.098  1.00  0.00     0.031 C 
ATOM     46  C   UNL A   1      39.010  29.477  28.214  1.00  0.00     0.029 A 
ATOM     47  C   UNL A   1      39.084  29.963  29.591  1.00  0.00     0.049 A 
ATOM     48  H   UNL A   1      40.495  29.452  31.035  1.00  0.00     0.167 HD
ATOM     49  C   UNL A   1      43.409  28.185  34.032  1.00  0.00     0.037 A 
ATOM     50  C   UNL A   1      38.240  30.844  30.163  1.00  0.00     0.037 A 
ATOM     51  C   UNL A   1      42.605  29.173  34.699  1.00  0.00     0.049 A 
ATOM     52  C   UNL A   1      38.439  31.241  31.602  1.00  0.00     0.074 A 
ATOM     53  C   UNL A   1      42.741  29.672  35.983  1.00  0.00     0.029 A 
ATOM     54  N   UNL A   1      41.510  29.809  34.135  1.00  0.00    -0.354 N 
ATOM     55  N   UNL A   1      39.370  30.863  32.444  1.00  0.00    -0.248 NA
ATOM     56  C   UNL A   1      37.469  32.189  32.170  1.00  0.00     0.031 C 
ATOM     57  C   UNL A   1      41.702  30.581  36.210  1.00  0.00     0.029 A 
ATOM     58  C   UNL A   1      40.946  30.679  35.052  1.00  0.00     0.049 A 
ATOM     59  H   UNL A   1      41.181  29.663  33.218  1.00  0.00     0.167 HD
ATOM     60  C   UNL A   1      39.114  31.547  33.628  1.00  0.00     0.074 A 
ATOM     61  C   UNL A   1      37.945  32.366  33.394  1.00  0.00     0.031 C 
ATOM     62  C   UNL A   1      39.790  31.499  34.802  1.00  0.00     0.037 A 
BRANCH  49  63
ATOM     63  C   UNL A   1      44.535  27.553  34.790  1.00  0.00     0.057 A 
ATOM     64  C   UNL A   1      44.357  26.379  35.532  1.00  0.00     0.134 A 
ATOM     65  C   UNL A   1      45.817  28.116  34.762  1.00  0.00     0.134 A 
ATOM     66  F   UNL A   1      43.148  25.803  35.611  1.00  0.00    -0.206 F 
ATOM     67  C   UNL A   1      45.411  25.796  36.236  1.00  0.00     0.040 A 
ATOM     68  C   UNL A   1      46.884  27.530  35.445  1.00  0.00     0.040 A 
ATOM     69  F   UNL A   1      46.053  29.241  34.069  1.00  0.00    -0.206 F 
ATOM     70  C   UNL A   1      46.681  26.369  36.188  1.00  0.00     0.006 A 
ENDBRANCH  49  63
BRANCH  50  71
ATOM     71  C   UNL A   1      37.110  31.407  29.383  1.00  0.00     0.057 A 
ATOM     72  C   UNL A   1      35.964  30.650  29.121  1.00  0.00     0.134 A 
ATOM     73  C   UNL A   1      37.165  32.702  28.854  1.00  0.00     0.134 A 
ATOM     74  F   UNL A   1      35.867  29.392  29.576  1.00  0.00    -0.206 F 
ATOM     75  C   UNL A   1      34.917  31.155  28.347  1.00  0.00     0.040 A 
ATOM     76  C   UNL A   1      36.117  33.227  28.099  1.00  0.00     0.040 A 
ATOM     77  F   UNL A   1      38.242  33.474  29.066  1.00  0.00    -0.206 F 
ATOM     78  C   UNL A   1      34.990  32.449  27.838  1.00  0.00     0.006 A 
ENDBRANCH  50  71
BRANCH  62  79
ATOM     79  C   UNL A   1      39.311  32.388  35.912  1.00  0.00     0.057 A 
ATOM     80  C   UNL A   1      39.772  33.701  36.058  1.00  0.00     0.134 A 
ATOM     81  C   UNL A   1      38.338  31.938  36.814  1.00  0.00     0.134 A 
ATOM     82  F   UNL A   1      40.712  34.188  35.233  1.00  0.00    -0.206 F 
ATOM     83  C   UNL A   1      39.294  34.532  37.073  1.00  0.00     0.040 A 
ATOM     84  C   UNL A   1      37.836  32.766  37.819  1.00  0.00     0.040 A 
ATOM     85  F   UNL A   1      37.848  30.692  36.722  1.00  0.00    -0.206 F 
ATOM     86  C   UNL A   1      38.318  34.067  37.952  1.00  0.00     0.006 A 
ENDBRANCH  62  79
ENDBRANCH  36  37
ENDBRANCH  29  31
ENDBRANCH  28  29
ENDBRANCH  27  28
ENDBRANCH  26  27
ENDBRANCH  25  26
ENDBRANCH  24  25
ENDBRANCH   1  24
TORSDOF 21
ENDMDL
MODEL 3
REMARK VINA RESULT:      -9.9      1.953      3.796
REMARK SMILES C[C@@H](c1ccc(C(=O)OCCOCCOCCOC(=O)c2ccc(-c3c4nc(c(-c5c(F)cccc5F)c5ccc([nH]5)c(-c5c(F)cccc5F)c5nc(c(-c6c(F)cccc6F)c6ccc3[nH]6)C=C5)C=C4)cc2)o1)[N@@H+](C)Cc1ccoc1
REMARK SMILES IDX 13 1 12 2 11 3 10 4 9 5 7 6 8 7 6 8 3 9 4 10 75 11 5 12 2 13
REMARK SMILES IDX 1 14 76 15 77 16 78 18 79 19 80 20 83 21 81 22 82 23 14 24
REMARK SMILES IDX 15 25 16 26 17 27 18 28 19 29 20 30 21 31 22 32 74 33 23 34
REMARK SMILES IDX 73 35 24 36 25 37 26 38 67 39 27 40 72 41 66 42 68 43 28 44
REMARK SMILES IDX 71 45 65 46 64 47 29 49 55 50 38 51 54 52 39 53 42 54 53 55
REMARK SMILES IDX 69 56 40 57 41 58 52 60 70 61 43 62 30 63 31 64 36 65 32 66
REMARK SMILES IDX 33 67 35 68 37 69 34 70 56 71 57 72 62 73 58 74 59 75 61 76
REMARK SMILES IDX 63 77 60 78 44 79 45 80 50 81 46 82 47 83 49 84 51 85 48 86
REMARK H PARENT 76 17 68 48 42 59
REMARK Flexibility Score: inf
ROOT
ATOM      1  C   UNL A   1      34.745  31.822  27.629  1.00  0.00     0.188 C 
ENDROOT
BRANCH   1   2
ATOM      2  O   UNL A   1      34.131  30.568  27.346  1.00  0.00    -0.376 OA
BRANCH   2   3
ATOM      3  C   UNL A   1      32.727  30.469  27.189  1.00  0.00     0.202 C 
BRANCH   3   4
ATOM      4  C   UNL A   1      32.232  30.120  25.785  1.00  0.00     0.261 C 
BRANCH   4   5
ATOM      5  O   UNL A   1      31.713  28.788  25.669  1.00  0.00    -0.457 OA
BRANCH   5   6
ATOM      6  C   UNL A   1      31.057  28.510  24.502  1.00  0.00     0.374 C 
ATOM      7  O   UNL A   1      30.716  29.344  23.673  1.00  0.00    -0.242 OA
BRANCH   6   8
ATOM      8  C   UNL A   1      30.893  27.083  24.371  1.00  0.00     0.212 A 
ATOM      9  C   UNL A   1      31.572  24.980  24.482  1.00  0.00     0.162 A 
ATOM     10  C   UNL A   1      30.275  24.959  24.007  1.00  0.00     0.053 A 
ATOM     11  O   UNL A   1      31.960  26.277  24.675  1.00  0.00    -0.448 OA
ATOM     12  C   UNL A   1      29.819  26.299  23.998  1.00  0.00     0.059 A 
BRANCH   9  13
ATOM     13  C   UNL A   1      32.609  23.927  24.744  1.00  0.00     0.248 C 
ATOM     14  C   UNL A   1      33.719  24.467  25.652  1.00  0.00     0.084 C 
BRANCH  13  15
ATOM     15  N   UNL A   1      33.178  23.270  23.561  1.00  0.00    -0.325 N 
ATOM     16  C   UNL A   1      34.600  23.466  23.371  1.00  0.00     0.333 C 
ATOM     17  H   UNL A   1      32.725  23.861  22.863  1.00  0.00     0.348 HD
BRANCH  15  18
ATOM     18  C   UNL A   1      32.605  22.044  23.025  1.00  0.00     0.302 C 
BRANCH  18  19
ATOM     19  C   UNL A   1      32.700  20.828  23.893  1.00  0.00     0.044 A 
ATOM     20  C   UNL A   1      33.007  20.698  25.279  1.00  0.00     0.051 A 
ATOM     21  C   UNL A   1      32.530  19.525  23.454  1.00  0.00     0.204 A 
ATOM     22  C   UNL A   1      32.936  19.359  25.584  1.00  0.00     0.195 A 
ATOM     23  O   UNL A   1      32.653  18.639  24.471  1.00  0.00    -0.472 OA
ENDBRANCH  18  19
ENDBRANCH  15  18
ENDBRANCH  13  15
ENDBRANCH   9  13
ENDBRANCH   6   8
ENDBRANCH   5   6
ENDBRANCH   4   5
ENDBRANCH   3   4
ENDBRANCH   2   3
ENDBRANCH   1   2
BRANCH   1  24
ATOM     24  C   UNL A   1      33.918  33.035  28.090  1.00  0.00     0.188 C 
BRANCH  24  25
ATOM     25  O   UNL A   1      34.638  33.953  28.903  1.00  0.00    -0.376 OA
BRANCH  25  26
ATOM     26  C   UNL A   1      33.909  34.554  29.966  1.00  0.00     0.202 C 
BRANCH  26  27
ATOM     27  C   UNL A   1      34.442  34.133  31.338  1.00  0.00     0.261 C 
BRANCH  27  28
ATOM     28  O   UNL A   1      34.747  32.733  31.449  1.00  0.00    -0.460 OA
BRANCH  28  29
ATOM     29  C   UNL A   1      35.645  32.382  32.395  1.00  0.00     0.338 C 
ATOM     30  O   UNL A   1      35.540  32.514  33.602  1.00  0.00    -0.246 OA
BRANCH  29  31
ATOM     31  C   UNL A   1      36.739  31.648  31.736  1.00  0.00     0.060 A 
ATOM     32  C   UNL A   1      37.673  30.982  32.535  1.00  0.00     0.016 A 
ATOM     33  C   UNL A   1      36.848  31.627  30.343  1.00  0.00     0.016 A 
ATOM     34  C   UNL A   1      38.740  30.306  31.940  1.00  0.00     0.010 A 
ATOM     35  C   UNL A   1      37.924  30.963  29.750  1.00  0.00     0.010 A 
ATOM     36  C   UNL A   1      38.887  30.320  30.547  1.00  0.00    -0.014 A 
BRANCH  36  37
ATOM     37  C   UNL A   1      40.127  29.804  29.921  1.00  0.00     0.031 A 
ATOM     38  C   UNL A   1      41.278  30.749  29.717  1.00  0.00     0.074 A 
ATOM     39  C   UNL A   1      40.227  28.522  29.531  1.00  0.00     0.049 A 
ATOM     40  N   UNL A   1      42.429  30.540  29.133  1.00  0.00    -0.248 NA
ATOM     41  C   UNL A   1      41.103  32.112  30.242  1.00  0.00     0.031 C 
ATOM     42  C   UNL A   1      39.197  27.500  29.700  1.00  0.00     0.029 A 
ATOM     43  N   UNL A   1      41.252  27.868  28.894  1.00  0.00    -0.354 N 
ATOM     44  C   UNL A   1      43.115  31.744  29.216  1.00  0.00     0.074 A 
ATOM     45  C   UNL A   1      42.243  32.685  29.885  1.00  0.00     0.031 C 
ATOM     46  C   UNL A   1      39.636  26.348  29.163  1.00  0.00     0.029 A 
ATOM     47  C   UNL A   1      40.965  26.561  28.590  1.00  0.00     0.049 A 
ATOM     48  H   UNL A   1      42.112  28.297  28.677  1.00  0.00     0.167 HD
ATOM     49  C   UNL A   1      44.361  32.040  28.779  1.00  0.00     0.037 A 
ATOM     50  C   UNL A   1      41.683  25.651  27.904  1.00  0.00     0.037 A 
ATOM     51  C   UNL A   1      45.227  31.112  28.104  1.00  0.00     0.049 A 
ATOM     52  C   UNL A   1      43.038  26.025  27.362  1.00  0.00     0.074 A 
ATOM     53  C   UNL A   1      46.513  31.317  27.634  1.00  0.00     0.029 A 
ATOM     54  N   UNL A   1      44.891  29.803  27.795  1.00  0.00    -0.354 N 
ATOM     55  N   UNL A   1      43.689  27.158  27.469  1.00  0.00    -0.248 NA
ATOM     56  C   UNL A   1      43.758  24.990  26.604  1.00  0.00     0.031 C 
ATOM     57  C   UNL A   1      46.941  30.142  27.005  1.00  0.00     0.029 A 
ATOM     58  C   UNL A   1      45.937  29.194  27.122  1.00  0.00     0.049 A 
ATOM     59  H   UNL A   1      44.036  29.370  28.021  1.00  0.00     0.167 HD
ATOM     60  C   UNL A   1      44.903  26.963  26.818  1.00  0.00     0.074 A 
ATOM     61  C   UNL A   1      44.900  25.603  26.325  1.00  0.00     0.031 C 
ATOM     62  C   UNL A   1      45.927  27.835  26.648  1.00  0.00     0.037 A 
BRANCH  49  63
ATOM     63  C   UNL A   1      44.850  33.437  29.001  1.00  0.00     0.057 A 
ATOM     64  C   UNL A   1      45.604  33.783  30.130  1.00  0.00     0.134 A 
ATOM     65  C   UNL A   1      44.579  34.445  28.068  1.00  0.00     0.134 A 
ATOM     66  F   UNL A   1      45.880  32.866  31.069  1.00  0.00    -0.206 F 
ATOM     67  C   UNL A   1      46.056  35.088  30.331  1.00  0.00     0.040 A 
ATOM     68  C   UNL A   1      45.044  35.748  28.247  1.00  0.00     0.040 A 
ATOM     69  F   UNL A   1      43.862  34.178  26.965  1.00  0.00    -0.206 F 
ATOM     70  C   UNL A   1      45.782  36.073  29.384  1.00  0.00     0.006 A 
ENDBRANCH  49  63
BRANCH  50  71
ATOM     71  C   UNL A   1      41.134  24.292  27.670  1.00  0.00     0.057 A 
ATOM     72  C   UNL A   1      41.618  23.185  28.375  1.00  0.00     0.134 A 
ATOM     73  C   UNL A   1      40.137  24.065  26.714  1.00  0.00     0.134 A 
ATOM     74  F   UNL A   1      42.594  23.337  29.282  1.00  0.00    -0.206 F 
ATOM     75  C   UNL A   1      41.141  21.897  28.128  1.00  0.00     0.040 A 
ATOM     76  C   UNL A   1      39.635  22.786  26.473  1.00  0.00     0.040 A 
ATOM     77  F   UNL A   1      39.637  25.086  26.002  1.00  0.00    -0.206 F 
ATOM     78  C   UNL A   1      40.142  21.695  27.177  1.00  0.00     0.006 A 
ENDBRANCH  50  71
BRANCH  62  79
ATOM     79  C   UNL A   1      47.149  27.335  25.935  1.00  0.00     0.057 A 
ATOM     80  C   UNL A   1      48.158  26.631  26.603  1.00  0.00     0.134 A 
ATOM     81  C   UNL A   1      47.291  27.517  24.554  1.00  0.00     0.134 A 
ATOM     82  F   UNL A   1      48.086  26.433  27.929  1.00  0.00    -0.206 F 
ATOM     83  C   UNL A   1      49.274  26.138  25.925  1.00  0.00     0.040 A 
ATOM     84  C   UNL A   1      48.392  27.011  23.861  1.00  0.00     0.040 A 
ATOM     85  F   UNL A   1      46.355  28.175  23.854  1.00  0.00    -0.206 F 
ATOM     86  C   UNL A   1      49.389  26.322  24.548  1.00  0.00     0.006 A 
ENDBRANCH  62  79
ENDBRANCH  36  37
ENDBRANCH  29  31
ENDBRANCH  28  29
ENDBRANCH  27  28
ENDBRANCH  26  27
ENDBRANCH  25  26
ENDBRANCH  24  25
ENDBRANCH   1  24
TORSDOF 21
ENDMDL
