MODEL 1
REMARK VINA RESULT:     -10.6      0.000      0.000
REMARK SMILES O=C(OCCOCCOCCOC(=O)[C@@H](Cc1ccncc1)c1ccc(Cl)cc1)c1ccc(-c2c3nc(c(-c4c(F)cccc4F)c4ccc([nH]4)c(-c4c(F)cccc4F)c4nc(c(-c5c(F)cccc5F)c5ccc2[nH]5)C=C4)C=C3)cc1
REMARK SMILES IDX 7 1 6 2 5 3 4 4 3 5 2 6 1 7 30 8 31 9 83 10 32 11 82 12
REMARK SMILES IDX 33 13 34 14 35 15 76 16 36 17 81 18 75 19 77 20 37 21 80 22
REMARK SMILES IDX 74 23 73 24 38 26 64 27 47 28 63 29 48 30 51 31 62 32 78 33
REMARK SMILES IDX 49 34 50 35 61 37 79 38 52 39 39 40 40 41 45 42 41 43 42 44
REMARK SMILES IDX 44 45 46 46 43 47 65 48 66 49 71 50 67 51 68 52 70 53 72 54
REMARK SMILES IDX 69 55 53 56 54 57 59 58 55 59 56 60 58 61 60 62 57 63 8 64
REMARK SMILES IDX 9 65 10 66 11 67 12 68 13 69 14 70 15 71 16 72 17 73 18 74
REMARK SMILES IDX 22 75 19 76 21 77 20 78 23 79 24 80 29 81 25 82 28 83 26 84
REMARK SMILES IDX 27 85
REMARK H PARENT 77 25 51 36
REMARK Flexibility Score: inf
ROOT
ATOM      1  C   UNL A   1      35.068  20.351  24.893  1.00  0.00     0.188 C 
ENDROOT
BRANCH   1   2
ATOM      2  O   UNL A   1      35.474  21.715  24.774  1.00  0.00    -0.376 OA
BRANCH   2   3
ATOM      3  C   UNL A   1      36.438  22.148  25.730  1.00  0.00     0.202 C 
BRANCH   3   4
ATOM      4  C   UNL A   1      37.453  23.222  25.304  1.00  0.00     0.261 C 
BRANCH   4   5
ATOM      5  O   UNL A   1      37.962  24.112  26.320  1.00  0.00    -0.460 OA
BRANCH   5   6
ATOM      6  C   UNL A   1      39.193  24.352  26.818  1.00  0.00     0.338 C 
ATOM      7  O   UNL A   1      40.110  23.601  26.487  1.00  0.00    -0.246 OA
BRANCH   6   8
ATOM      8  C   UNL A   1      39.512  25.467  27.752  1.00  0.00     0.060 A 
ATOM      9  C   UNL A   1      38.920  25.636  28.994  1.00  0.00     0.016 A 
ATOM     10  C   UNL A   1      40.434  26.450  27.319  1.00  0.00     0.016 A 
ATOM     11  C   UNL A   1      39.271  26.709  29.801  1.00  0.00     0.010 A 
ATOM     12  C   UNL A   1      40.781  27.549  28.123  1.00  0.00     0.010 A 
ATOM     13  C   UNL A   1      40.205  27.669  29.384  1.00  0.00    -0.014 A 
BRANCH  13  14
ATOM     14  C   UNL A   1      40.373  28.819  30.304  1.00  0.00     0.031 A 
ATOM     15  C   UNL A   1      39.293  29.855  30.268  1.00  0.00     0.074 A 
ATOM     16  C   UNL A   1      41.245  28.760  31.329  1.00  0.00     0.049 A 
ATOM     17  N   UNL A   1      38.967  30.741  31.164  1.00  0.00    -0.248 NA
ATOM     18  C   UNL A   1      38.436  29.851  29.067  1.00  0.00     0.031 C 
ATOM     19  C   UNL A   1      42.307  27.772  31.473  1.00  0.00     0.029 A 
ATOM     20  N   UNL A   1      41.287  29.463  32.510  1.00  0.00    -0.354 N 
ATOM     21  C   UNL A   1      37.880  31.416  30.630  1.00  0.00     0.074 A 
ATOM     22  C   UNL A   1      37.559  30.795  29.366  1.00  0.00     0.031 C 
ATOM     23  C   UNL A   1      42.779  27.814  32.731  1.00  0.00     0.029 A 
ATOM     24  C   UNL A   1      42.121  28.896  33.454  1.00  0.00     0.049 A 
ATOM     25  H   UNL A   1      40.774  30.288  32.667  1.00  0.00     0.167 HD
ATOM     26  C   UNL A   1      37.251  32.504  31.128  1.00  0.00     0.037 A 
ATOM     27  C   UNL A   1      42.317  29.215  34.750  1.00  0.00     0.037 A 
ATOM     28  C   UNL A   1      37.653  33.161  32.339  1.00  0.00     0.049 A 
ATOM     29  C   UNL A   1      41.608  30.438  35.277  1.00  0.00     0.074 A 
ATOM     30  C   UNL A   1      37.236  34.376  32.847  1.00  0.00     0.029 A 
ATOM     31  N   UNL A   1      38.587  32.650  33.230  1.00  0.00    -0.354 N 
ATOM     32  N   UNL A   1      40.660  31.152  34.716  1.00  0.00    -0.248 NA
ATOM     33  C   UNL A   1      42.048  30.945  36.585  1.00  0.00     0.031 C 
ATOM     34  C   UNL A   1      37.953  34.623  34.023  1.00  0.00     0.029 A 
ATOM     35  C   UNL A   1      38.768  33.531  34.280  1.00  0.00     0.049 A 
ATOM     36  H   UNL A   1      39.053  31.788  33.129  1.00  0.00     0.167 HD
ATOM     37  C   UNL A   1      40.428  32.215  35.578  1.00  0.00     0.074 A 
ATOM     38  C   UNL A   1      41.268  32.004  36.739  1.00  0.00     0.031 C 
ATOM     39  C   UNL A   1      39.633  33.300  35.408  1.00  0.00     0.037 A 
BRANCH  26  40
ATOM     40  C   UNL A   1      36.197  33.113  30.261  1.00  0.00     0.057 A 
ATOM     41  C   UNL A   1      36.507  33.862  29.120  1.00  0.00     0.134 A 
ATOM     42  C   UNL A   1      34.850  33.010  30.626  1.00  0.00     0.134 A 
ATOM     43  F   UNL A   1      37.784  34.042  28.749  1.00  0.00    -0.206 F 
ATOM     44  C   UNL A   1      35.510  34.503  28.380  1.00  0.00     0.040 A 
ATOM     45  C   UNL A   1      33.844  33.626  29.885  1.00  0.00     0.040 A 
ATOM     46  F   UNL A   1      34.493  32.330  31.726  1.00  0.00    -0.206 F 
ATOM     47  C   UNL A   1      34.174  34.382  28.761  1.00  0.00     0.006 A 
ENDBRANCH  26  40
BRANCH  27  48
ATOM     48  C   UNL A   1      43.265  28.467  35.633  1.00  0.00     0.057 A 
ATOM     49  C   UNL A   1      44.651  28.676  35.566  1.00  0.00     0.134 A 
ATOM     50  C   UNL A   1      42.827  27.442  36.480  1.00  0.00     0.134 A 
ATOM     51  F   UNL A   1      45.155  29.609  34.743  1.00  0.00    -0.206 F 
ATOM     52  C   UNL A   1      45.556  27.883  36.279  1.00  0.00     0.040 A 
ATOM     53  C   UNL A   1      43.717  26.661  37.222  1.00  0.00     0.040 A 
ATOM     54  F   UNL A   1      41.519  27.166  36.595  1.00  0.00    -0.206 F 
ATOM     55  C   UNL A   1      45.088  26.873  37.115  1.00  0.00     0.006 A 
ENDBRANCH  27  48
BRANCH  39  56
ATOM     56  C   UNL A   1      39.669  34.341  36.486  1.00  0.00     0.057 A 
ATOM     57  C   UNL A   1      40.446  35.501  36.358  1.00  0.00     0.134 A 
ATOM     58  C   UNL A   1      38.900  34.198  37.646  1.00  0.00     0.134 A 
ATOM     59  F   UNL A   1      41.212  35.692  35.273  1.00  0.00    -0.206 F 
ATOM     60  C   UNL A   1      40.482  36.467  37.364  1.00  0.00     0.040 A 
ATOM     61  C   UNL A   1      38.905  35.172  38.645  1.00  0.00     0.040 A 
ATOM     62  F   UNL A   1      38.126  33.117  37.823  1.00  0.00    -0.206 F 
ATOM     63  C   UNL A   1      39.704  36.306  38.508  1.00  0.00     0.006 A 
ENDBRANCH  39  56
ENDBRANCH  13  14
ENDBRANCH   6   8
ENDBRANCH   5   6
ENDBRANCH   4   5
ENDBRANCH   3   4
ENDBRANCH   2   3
ENDBRANCH   1   2
BRANCH   1  64
ATOM     64  C   UNL A   1      33.643  20.175  25.422  1.00  0.00     0.188 C 
BRANCH  64  65
ATOM     65  O   UNL A   1      33.228  21.075  26.446  1.00  0.00    -0.376 OA
BRANCH  65  66
ATOM     66  C   UNL A   1      32.257  22.060  26.118  1.00  0.00     0.202 C 
BRANCH  66  67
ATOM     67  C   UNL A   1      32.317  23.378  26.887  1.00  0.00     0.261 C 
BRANCH  67  68
ATOM     68  O   UNL A   1      31.027  23.906  27.207  1.00  0.00    -0.463 OA
BRANCH  68  69
ATOM     69  C   UNL A   1      30.594  24.974  26.490  1.00  0.00     0.313 C 
ATOM     70  O   UNL A   1      29.432  25.379  26.497  1.00  0.00    -0.252 OA
BRANCH  69  71
ATOM     71  C   UNL A   1      31.704  25.621  25.658  1.00  0.00     0.133 C 
BRANCH  71  72
ATOM     72  C   UNL A   1      31.341  25.683  24.152  1.00  0.00     0.055 C 
BRANCH  72  73
ATOM     73  C   UNL A   1      30.759  26.950  23.550  1.00  0.00    -0.044 A 
ATOM     74  C   UNL A   1      29.378  27.119  23.625  1.00  0.00     0.024 A 
ATOM     75  C   UNL A   1      31.479  27.985  22.961  1.00  0.00     0.024 A 
ATOM     76  C   UNL A   1      28.770  28.255  23.121  1.00  0.00     0.111 A 
ATOM     77  C   UNL A   1      30.798  29.112  22.512  1.00  0.00     0.111 A 
ATOM     78  N   UNL A   1      29.460  29.273  22.581  1.00  0.00    -0.265 NA
ENDBRANCH  72  73
ENDBRANCH  71  72
BRANCH  71  79
ATOM     79  C   UNL A   1      32.242  26.943  26.215  1.00  0.00    -0.033 A 
ATOM     80  C   UNL A   1      33.611  27.249  26.117  1.00  0.00     0.006 A 
ATOM     81  C   UNL A   1      31.406  27.892  26.828  1.00  0.00     0.006 A 
ATOM     82  C   UNL A   1      34.100  28.500  26.499  1.00  0.00     0.021 A 
ATOM     83  C   UNL A   1      31.896  29.139  27.221  1.00  0.00     0.021 A 
ATOM     84  C   UNL A   1      33.235  29.450  27.026  1.00  0.00     0.041 A 
ATOM     85  Cl  UNL A   1      33.821  31.013  27.434  1.00  0.00    -0.084 Cl
ENDBRANCH  71  79
ENDBRANCH  69  71
ENDBRANCH  68  69
ENDBRANCH  67  68
ENDBRANCH  66  67
ENDBRANCH  65  66
ENDBRANCH  64  65
ENDBRANCH   1  64
TORSDOF 20
ENDMDL
MODEL 2
REMARK VINA RESULT:     -10.5      5.691     10.206
REMARK SMILES O=C(OCCOCCOCCOC(=O)[C@@H](Cc1ccncc1)c1ccc(Cl)cc1)c1ccc(-c2c3nc(c(-c4c(F)cccc4F)c4ccc([nH]4)c(-c4c(F)cccc4F)c4nc(c(-c5c(F)cccc5F)c5ccc2[nH]5)C=C4)C=C3)cc1
REMARK SMILES IDX 7 1 6 2 5 3 4 4 3 5 2 6 1 7 30 8 31 9 83 10 32 11 82 12
REMARK SMILES IDX 33 13 34 14 35 15 76 16 36 17 81 18 75 19 77 20 37 21 80 22
REMARK SMILES IDX 74 23 73 24 38 26 64 27 47 28 63 29 48 30 51 31 62 32 78 33
REMARK SMILES IDX 49 34 50 35 61 37 79 38 52 39 39 40 40 41 45 42 41 43 42 44
REMARK SMILES IDX 44 45 46 46 43 47 65 48 66 49 71 50 67 51 68 52 70 53 72 54
REMARK SMILES IDX 69 55 53 56 54 57 59 58 55 59 56 60 58 61 60 62 57 63 8 64
REMARK SMILES IDX 9 65 10 66 11 67 12 68 13 69 14 70 15 71 16 72 17 73 18 74
REMARK SMILES IDX 22 75 19 76 21 77 20 78 23 79 24 80 29 81 25 82 28 83 26 84
REMARK SMILES IDX 27 85
REMARK H PARENT 77 25 51 36
REMARK Flexibility Score: inf
ROOT
ATOM      1  C   UNL A   1      31.459  29.028  24.968  1.00  0.00     0.188 C 
ENDROOT
BRANCH   1   2
ATOM      2  O   UNL A   1      32.325  29.864  25.737  1.00  0.00    -0.376 OA
BRANCH   2   3
ATOM      3  C   UNL A   1      33.634  29.344  25.956  1.00  0.00     0.202 C 
BRANCH   3   4
ATOM      4  C   UNL A   1      34.163  29.294  27.398  1.00  0.00     0.261 C 
BRANCH   4   5
ATOM      5  O   UNL A   1      34.997  30.381  27.852  1.00  0.00    -0.460 OA
BRANCH   5   6
ATOM      6  C   UNL A   1      35.885  30.518  28.859  1.00  0.00     0.338 C 
ATOM      7  O   UNL A   1      35.537  31.144  29.860  1.00  0.00    -0.246 OA
BRANCH   6   8
ATOM      8  C   UNL A   1      37.268  29.965  28.832  1.00  0.00     0.060 A 
ATOM      9  C   UNL A   1      37.988  29.614  29.963  1.00  0.00     0.016 A 
ATOM     10  C   UNL A   1      37.908  29.845  27.576  1.00  0.00     0.016 A 
ATOM     11  C   UNL A   1      39.277  29.112  29.849  1.00  0.00     0.010 A 
ATOM     12  C   UNL A   1      39.219  29.354  27.454  1.00  0.00     0.010 A 
ATOM     13  C   UNL A   1      39.903  28.967  28.602  1.00  0.00    -0.014 A 
BRANCH  13  14
ATOM     14  C   UNL A   1      41.321  28.540  28.660  1.00  0.00     0.031 A 
ATOM     15  C   UNL A   1      41.603  27.134  28.232  1.00  0.00     0.074 A 
ATOM     16  C   UNL A   1      42.311  29.449  28.759  1.00  0.00     0.049 A 
ATOM     17  N   UNL A   1      42.721  26.600  27.830  1.00  0.00    -0.248 NA
ATOM     18  C   UNL A   1      40.446  26.220  28.216  1.00  0.00     0.031 C 
ATOM     19  C   UNL A   1      42.134  30.846  29.132  1.00  0.00     0.029 A 
ATOM     20  N   UNL A   1      43.640  29.364  28.418  1.00  0.00    -0.354 N 
ATOM     21  C   UNL A   1      42.409  25.283  27.531  1.00  0.00     0.074 A 
ATOM     22  C   UNL A   1      40.988  25.115  27.732  1.00  0.00     0.031 C 
ATOM     23  C   UNL A   1      43.257  31.525  28.839  1.00  0.00     0.029 A 
ATOM     24  C   UNL A   1      44.265  30.594  28.346  1.00  0.00     0.049 A 
ATOM     25  H   UNL A   1      44.101  28.512  28.244  1.00  0.00     0.167 HD
ATOM     26  C   UNL A   1      43.255  24.288  27.183  1.00  0.00     0.037 A 
ATOM     27  C   UNL A   1      45.504  30.921  27.922  1.00  0.00     0.037 A 
ATOM     28  C   UNL A   1      44.676  24.459  27.084  1.00  0.00     0.049 A 
ATOM     29  C   UNL A   1      46.428  29.788  27.546  1.00  0.00     0.074 A 
ATOM     30  C   UNL A   1      45.658  23.498  26.940  1.00  0.00     0.029 A 
ATOM     31  N   UNL A   1      45.318  25.689  27.137  1.00  0.00    -0.354 N 
ATOM     32  N   UNL A   1      46.154  28.515  27.382  1.00  0.00    -0.248 NA
ATOM     33  C   UNL A   1      47.848  30.126  27.371  1.00  0.00     0.031 C 
ATOM     34  C   UNL A   1      46.900  24.143  26.951  1.00  0.00     0.029 A 
ATOM     35  C   UNL A   1      46.686  25.511  27.038  1.00  0.00     0.049 A 
ATOM     36  H   UNL A   1      44.867  26.559  27.232  1.00  0.00     0.167 HD
ATOM     37  C   UNL A   1      47.372  27.896  27.134  1.00  0.00     0.074 A 
ATOM     38  C   UNL A   1      48.370  28.944  27.080  1.00  0.00     0.031 C 
ATOM     39  C   UNL A   1      47.654  26.576  27.013  1.00  0.00     0.037 A 
BRANCH  26  40
ATOM     40  C   UNL A   1      42.655  22.924  27.062  1.00  0.00     0.057 A 
ATOM     41  C   UNL A   1      42.304  22.158  28.180  1.00  0.00     0.134 A 
ATOM     42  C   UNL A   1      42.504  22.339  25.799  1.00  0.00     0.134 A 
ATOM     43  F   UNL A   1      42.476  22.644  29.419  1.00  0.00    -0.206 F 
ATOM     44  C   UNL A   1      41.836  20.849  28.045  1.00  0.00     0.040 A 
ATOM     45  C   UNL A   1      42.018  21.042  25.650  1.00  0.00     0.040 A 
ATOM     46  F   UNL A   1      42.850  23.012  24.692  1.00  0.00    -0.206 F 
ATOM     47  C   UNL A   1      41.689  20.290  26.776  1.00  0.00     0.006 A 
ENDBRANCH  26  40
BRANCH  27  48
ATOM     48  C   UNL A   1      46.007  32.329  27.903  1.00  0.00     0.057 A 
ATOM     49  C   UNL A   1      46.615  32.907  29.028  1.00  0.00     0.134 A 
ATOM     50  C   UNL A   1      45.790  33.172  26.806  1.00  0.00     0.134 A 
ATOM     51  F   UNL A   1      46.816  32.179  30.137  1.00  0.00    -0.206 F 
ATOM     52  C   UNL A   1      46.956  34.263  29.071  1.00  0.00     0.040 A 
ATOM     53  C   UNL A   1      46.154  34.521  26.823  1.00  0.00     0.040 A 
ATOM     54  F   UNL A   1      45.204  32.704  25.693  1.00  0.00    -0.206 F 
ATOM     55  C   UNL A   1      46.730  35.074  27.963  1.00  0.00     0.006 A 
ENDBRANCH  27  48
BRANCH  39  56
ATOM     56  C   UNL A   1      49.098  26.206  26.847  1.00  0.00     0.057 A 
ATOM     57  C   UNL A   1      49.889  25.836  27.943  1.00  0.00     0.134 A 
ATOM     58  C   UNL A   1      49.691  26.189  25.581  1.00  0.00     0.134 A 
ATOM     59  F   UNL A   1      49.380  25.841  29.184  1.00  0.00    -0.206 F 
ATOM     60  C   UNL A   1      51.233  25.495  27.788  1.00  0.00     0.040 A 
ATOM     61  C   UNL A   1      51.026  25.820  25.409  1.00  0.00     0.040 A 
ATOM     62  F   UNL A   1      48.983  26.520  24.490  1.00  0.00    -0.206 F 
ATOM     63  C   UNL A   1      51.802  25.480  26.517  1.00  0.00     0.006 A 
ENDBRANCH  39  56
ENDBRANCH  13  14
ENDBRANCH   6   8
ENDBRANCH   5   6
ENDBRANCH   4   5
ENDBRANCH   3   4
ENDBRANCH   2   3
ENDBRANCH   1   2
BRANCH   1  64
ATOM     64  C   UNL A   1      31.994  28.700  23.573  1.00  0.00     0.188 C 
BRANCH  64  65
ATOM     65  O   UNL A   1      32.164  27.319  23.264  1.00  0.00    -0.376 OA
BRANCH  65  66
ATOM     66  C   UNL A   1      31.472  26.795  22.140  1.00  0.00     0.202 C 
BRANCH  66  67
ATOM     67  C   UNL A   1      32.304  26.058  21.093  1.00  0.00     0.261 C 
BRANCH  67  68
ATOM     68  O   UNL A   1      33.499  25.479  21.623  1.00  0.00    -0.463 OA
BRANCH  68  69
ATOM     69  C   UNL A   1      33.460  24.165  21.964  1.00  0.00     0.313 C 
ATOM     70  O   UNL A   1      33.419  23.247  21.147  1.00  0.00    -0.252 OA
BRANCH  69  71
ATOM     71  C   UNL A   1      33.460  23.944  23.478  1.00  0.00     0.133 C 
BRANCH  71  72
ATOM     72  C   UNL A   1      32.358  22.947  23.920  1.00  0.00     0.055 C 
BRANCH  72  73
ATOM     73  C   UNL A   1      31.420  23.290  25.063  1.00  0.00    -0.044 A 
ATOM     74  C   UNL A   1      30.982  24.610  25.160  1.00  0.00     0.024 A 
ATOM     75  C   UNL A   1      30.919  22.401  26.010  1.00  0.00     0.024 A 
ATOM     76  C   UNL A   1      30.109  25.000  26.160  1.00  0.00     0.111 A 
ATOM     77  C   UNL A   1      30.016  22.863  26.960  1.00  0.00     0.111 A 
ATOM     78  N   UNL A   1      29.596  24.142  27.056  1.00  0.00    -0.265 NA
ENDBRANCH  72  73
ENDBRANCH  71  72
BRANCH  71  79
ATOM     79  C   UNL A   1      34.834  23.649  24.087  1.00  0.00    -0.033 A 
ATOM     80  C   UNL A   1      35.115  24.018  25.415  1.00  0.00     0.006 A 
ATOM     81  C   UNL A   1      35.850  23.001  23.364  1.00  0.00     0.006 A 
ATOM     82  C   UNL A   1      36.311  23.644  26.030  1.00  0.00     0.021 A 
ATOM     83  C   UNL A   1      37.051  22.636  23.975  1.00  0.00     0.021 A 
ATOM     84  C   UNL A   1      37.265  22.931  25.314  1.00  0.00     0.041 A 
ATOM     85  Cl  UNL A   1      38.708  22.411  26.088  1.00  0.00    -0.084 Cl
ENDBRANCH  71  79
ENDBRANCH  69  71
ENDBRANCH  68  69
ENDBRANCH  67  68
ENDBRANCH  66  67
ENDBRANCH  65  66
ENDBRANCH  64  65
ENDBRANCH   1  64
TORSDOF 20
ENDMDL
MODEL 3
REMARK VINA RESULT:     -10.3      6.561      9.247
REMARK SMILES O=C(OCCOCCOCCOC(=O)[C@@H](Cc1ccncc1)c1ccc(Cl)cc1)c1ccc(-c2c3nc(c(-c4c(F)cccc4F)c4ccc([nH]4)c(-c4c(F)cccc4F)c4nc(c(-c5c(F)cccc5F)c5ccc2[nH]5)C=C4)C=C3)cc1
REMARK SMILES IDX 7 1 6 2 5 3 4 4 3 5 2 6 1 7 30 8 31 9 83 10 32 11 82 12
REMARK SMILES IDX 33 13 34 14 35 15 76 16 36 17 81 18 75 19 77 20 37 21 80 22
REMARK SMILES IDX 74 23 73 24 38 26 64 27 47 28 63 29 48 30 51 31 62 32 78 33
REMARK SMILES IDX 49 34 50 35 61 37 79 38 52 39 39 40 40 41 45 42 41 43 42 44
REMARK SMILES IDX 44 45 46 46 43 47 65 48 66 49 71 50 67 51 68 52 70 53 72 54
REMARK SMILES IDX 69 55 53 56 54 57 59 58 55 59 56 60 58 61 60 62 57 63 8 64
REMARK SMILES IDX 9 65 10 66 11 67 12 68 13 69 14 70 15 71 16 72 17 73 18 74
REMARK SMILES IDX 22 75 19 76 21 77 20 78 23 79 24 80 29 81 25 82 28 83 26 84
REMARK SMILES IDX 27 85
REMARK H PARENT 77 25 51 36
REMARK Flexibility Score: inf
ROOT
ATOM      1  C   UNL A   1      40.758  21.166  27.487  1.00  0.00     0.188 C 
ENDROOT
BRANCH   1   2
ATOM      2  O   UNL A   1      41.989  20.703  26.930  1.00  0.00    -0.376 OA
BRANCH   2   3
ATOM      3  C   UNL A   1      41.887  19.539  26.114  1.00  0.00     0.202 C 
BRANCH   3   4
ATOM      4  C   UNL A   1      43.118  18.625  25.996  1.00  0.00     0.261 C 
BRANCH   4   5
ATOM      5  O   UNL A   1      43.898  18.693  24.783  1.00  0.00    -0.460 OA
BRANCH   5   6
ATOM      6  C   UNL A   1      44.918  19.475  24.374  1.00  0.00     0.338 C 
ATOM      7  O   UNL A   1      45.832  18.953  23.736  1.00  0.00    -0.246 OA
BRANCH   6   8
ATOM      8  C   UNL A   1      45.013  20.936  24.652  1.00  0.00     0.060 A 
ATOM      9  C   UNL A   1      44.645  21.925  23.755  1.00  0.00     0.016 A 
ATOM     10  C   UNL A   1      45.571  21.338  25.890  1.00  0.00     0.016 A 
ATOM     11  C   UNL A   1      44.773  23.265  24.093  1.00  0.00     0.010 A 
ATOM     12  C   UNL A   1      45.720  22.693  26.231  1.00  0.00     0.010 A 
ATOM     13  C   UNL A   1      45.300  23.665  25.330  1.00  0.00    -0.014 A 
BRANCH  13  14
ATOM     14  C   UNL A   1      45.490  25.127  25.485  1.00  0.00     0.031 A 
ATOM     15  C   UNL A   1      44.418  25.855  26.234  1.00  0.00     0.074 A 
ATOM     16  C   UNL A   1      46.695  25.691  25.272  1.00  0.00     0.049 A 
ATOM     17  N   UNL A   1      44.467  27.009  26.836  1.00  0.00    -0.248 NA
ATOM     18  C   UNL A   1      43.126  25.153  26.354  1.00  0.00     0.031 C 
ATOM     19  C   UNL A   1      47.812  25.053  24.587  1.00  0.00     0.029 A 
ATOM     20  N   UNL A   1      47.223  26.875  25.732  1.00  0.00    -0.354 N 
ATOM     21  C   UNL A   1      43.209  27.184  27.390  1.00  0.00     0.074 A 
ATOM     22  C   UNL A   1      42.440  25.992  27.113  1.00  0.00     0.031 C 
ATOM     23  C   UNL A   1      48.931  25.763  24.816  1.00  0.00     0.029 A 
ATOM     24  C   UNL A   1      48.593  26.956  25.583  1.00  0.00     0.049 A 
ATOM     25  H   UNL A   1      46.678  27.593  26.127  1.00  0.00     0.167 HD
ATOM     26  C   UNL A   1      42.723  28.278  28.018  1.00  0.00     0.037 A 
ATOM     27  C   UNL A   1      49.467  27.884  26.027  1.00  0.00     0.037 A 
ATOM     28  C   UNL A   1      43.477  29.486  28.194  1.00  0.00     0.049 A 
ATOM     29  C   UNL A   1      48.895  29.098  26.718  1.00  0.00     0.074 A 
ATOM     30  C   UNL A   1      43.044  30.724  28.628  1.00  0.00     0.029 A 
ATOM     31  N   UNL A   1      44.834  29.603  27.926  1.00  0.00    -0.354 N 
ATOM     32  N   UNL A   1      47.669  29.313  27.135  1.00  0.00    -0.248 NA
ATOM     33  C   UNL A   1      49.810  30.228  26.932  1.00  0.00     0.031 C 
ATOM     34  C   UNL A   1      44.130  31.604  28.578  1.00  0.00     0.029 A 
ATOM     35  C   UNL A   1      45.254  30.897  28.175  1.00  0.00     0.049 A 
ATOM     36  H   UNL A   1      45.412  28.874  27.605  1.00  0.00     0.167 HD
ATOM     37  C   UNL A   1      47.656  30.616  27.614  1.00  0.00     0.074 A 
ATOM     38  C   UNL A   1      49.015  31.110  27.519  1.00  0.00     0.031 C 
ATOM     39  C   UNL A   1      46.610  31.362  28.045  1.00  0.00     0.037 A 
BRANCH  26  40
ATOM     40  C   UNL A   1      41.274  28.240  28.386  1.00  0.00     0.057 A 
ATOM     41  C   UNL A   1      40.266  28.644  27.503  1.00  0.00     0.134 A 
ATOM     42  C   UNL A   1      40.894  27.865  29.680  1.00  0.00     0.134 A 
ATOM     43  F   UNL A   1      40.573  29.065  26.266  1.00  0.00    -0.206 F 
ATOM     44  C   UNL A   1      38.929  28.691  27.902  1.00  0.00     0.040 A 
ATOM     45  C   UNL A   1      39.561  27.887  30.084  1.00  0.00     0.040 A 
ATOM     46  F   UNL A   1      41.818  27.495  30.580  1.00  0.00    -0.206 F 
ATOM     47  C   UNL A   1      38.574  28.308  29.195  1.00  0.00     0.006 A 
ENDBRANCH  26  40
BRANCH  27  48
ATOM     48  C   UNL A   1      50.938  27.795  25.778  1.00  0.00     0.057 A 
ATOM     49  C   UNL A   1      51.500  28.181  24.551  1.00  0.00     0.134 A 
ATOM     50  C   UNL A   1      51.807  27.213  26.709  1.00  0.00     0.134 A 
ATOM     51  F   UNL A   1      50.726  28.704  23.588  1.00  0.00    -0.206 F 
ATOM     52  C   UNL A   1      52.850  27.967  24.253  1.00  0.00     0.040 A 
ATOM     53  C   UNL A   1      53.165  27.021  26.438  1.00  0.00     0.040 A 
ATOM     54  F   UNL A   1      51.352  26.804  27.902  1.00  0.00    -0.206 F 
ATOM     55  C   UNL A   1      53.689  27.389  25.202  1.00  0.00     0.006 A 
ENDBRANCH  27  48
BRANCH  39  56
ATOM     56  C   UNL A   1      46.899  32.787  28.408  1.00  0.00     0.057 A 
ATOM     57  C   UNL A   1      46.843  33.812  27.453  1.00  0.00     0.134 A 
ATOM     58  C   UNL A   1      47.205  33.143  29.726  1.00  0.00     0.134 A 
ATOM     59  F   UNL A   1      46.563  33.533  26.171  1.00  0.00    -0.206 F 
ATOM     60  C   UNL A   1      47.116  35.137  27.791  1.00  0.00     0.040 A 
ATOM     61  C   UNL A   1      47.450  34.469  30.082  1.00  0.00     0.040 A 
ATOM     62  F   UNL A   1      47.262  32.210  30.689  1.00  0.00    -0.206 F 
ATOM     63  C   UNL A   1      47.414  35.469  29.111  1.00  0.00     0.006 A 
ENDBRANCH  39  56
ENDBRANCH  13  14
ENDBRANCH   6   8
ENDBRANCH   5   6
ENDBRANCH   4   5
ENDBRANCH   3   4
ENDBRANCH   2   3
ENDBRANCH   1   2
BRANCH   1  64
ATOM     64  C   UNL A   1      40.354  22.565  27.018  1.00  0.00     0.188 C 
BRANCH  64  65
ATOM     65  O   UNL A   1      39.203  22.649  26.181  1.00  0.00    -0.376 OA
BRANCH  65  66
ATOM     66  C   UNL A   1      38.597  21.437  25.754  1.00  0.00     0.202 C 
BRANCH  66  67
ATOM     67  C   UNL A   1      37.545  21.536  24.652  1.00  0.00     0.261 C 
BRANCH  67  68
ATOM     68  O   UNL A   1      36.358  22.223  25.061  1.00  0.00    -0.463 OA
BRANCH  68  69
ATOM     69  C   UNL A   1      35.494  22.611  24.088  1.00  0.00     0.313 C 
ATOM     70  O   UNL A   1      35.766  23.441  23.222  1.00  0.00    -0.252 OA
BRANCH  69  71
ATOM     71  C   UNL A   1      34.136  21.913  24.188  1.00  0.00     0.133 C 
BRANCH  71  72
ATOM     72  C   UNL A   1      34.231  20.563  24.945  1.00  0.00     0.055 C 
BRANCH  72  73
ATOM     73  C   UNL A   1      33.826  19.267  24.266  1.00  0.00    -0.044 A 
ATOM     74  C   UNL A   1      34.636  18.153  24.479  1.00  0.00     0.024 A 
ATOM     75  C   UNL A   1      32.696  19.070  23.478  1.00  0.00     0.024 A 
ATOM     76  C   UNL A   1      34.325  16.928  23.915  1.00  0.00     0.111 A 
ATOM     77  C   UNL A   1      32.433  17.800  22.979  1.00  0.00     0.111 A 
ATOM     78  N   UNL A   1      33.220  16.722  23.181  1.00  0.00    -0.265 NA
ENDBRANCH  72  73
ENDBRANCH  71  72
BRANCH  71  79
ATOM     79  C   UNL A   1      32.986  22.805  24.664  1.00  0.00    -0.033 A 
ATOM     80  C   UNL A   1      33.027  23.393  25.941  1.00  0.00     0.006 A 
ATOM     81  C   UNL A   1      31.866  23.076  23.860  1.00  0.00     0.006 A 
ATOM     82  C   UNL A   1      32.054  24.310  26.344  1.00  0.00     0.021 A 
ATOM     83  C   UNL A   1      30.887  23.984  24.266  1.00  0.00     0.021 A 
ATOM     84  C   UNL A   1      31.001  24.622  25.494  1.00  0.00     0.041 A 
ATOM     85  Cl  UNL A   1      29.840  25.800  25.960  1.00  0.00    -0.084 Cl
ENDBRANCH  71  79
ENDBRANCH  69  71
ENDBRANCH  68  69
ENDBRANCH  67  68
ENDBRANCH  66  67
ENDBRANCH  65  66
ENDBRANCH  64  65
ENDBRANCH   1  64
TORSDOF 20
ENDMDL
