MODEL 1
REMARK VINA RESULT:     -11.3      0.000      0.000
REMARK SMILES Cc1ccccc1NC(=O)CSc1nc(C(=O)OCCOCCOCCOC(=O)c2ccc(-c3c4nc(c(-c5c(F)cccc5F)c5ccc([nH]5)c(-c5c(F)cccc5F)c5nc(c(-c6c(F)cccc6F)c6ccc3[nH]6)C=C5)C=C4)cc2)c2ccccc2n1
REMARK SMILES IDX 22 1 21 2 20 3 19 4 18 5 16 6 17 7 15 8 13 9 14 10 90 11
REMARK SMILES IDX 89 12 84 13 88 14 85 15 87 16 86 17 12 18 11 19 9 20 8 21
REMARK SMILES IDX 10 23 7 24 1 25 2 26 3 27 4 28 6 29 5 30 23 31 24 32 25 33
REMARK SMILES IDX 26 34 27 35 28 36 29 37 30 38 31 39 83 40 32 41 82 42 33 43
REMARK SMILES IDX 34 44 35 45 76 46 36 47 81 48 75 49 77 50 37 51 80 52 74 53
REMARK SMILES IDX 73 54 38 56 64 57 47 58 63 59 48 60 51 61 62 62 78 63 49 64
REMARK SMILES IDX 50 65 61 67 79 68 52 69 39 70 40 71 45 72 41 73 42 74 44 75
REMARK SMILES IDX 46 76 43 77 65 78 66 79 71 80 67 81 68 82 70 83 72 84 69 85
REMARK SMILES IDX 53 86 54 87 59 88 55 89 56 90 58 91 60 92 57 93
REMARK H PARENT 8 22 77 55 51 66
REMARK Flexibility Score: inf
ROOT
ATOM      1  C   UNL A   1      41.209  20.506  27.212  1.00  0.00     0.188 C 
ENDROOT
BRANCH   1   2
ATOM      2  O   UNL A   1      40.932  21.704  26.443  1.00  0.00    -0.376 OA
BRANCH   2   3
ATOM      3  C   UNL A   1      39.609  22.309  26.472  1.00  0.00     0.202 C 
BRANCH   3   4
ATOM      4  C   UNL A   1      38.391  21.512  25.617  1.00  0.00     0.261 C 
BRANCH   4   5
ATOM      5  O   UNL A   1      36.835  22.010  25.400  1.00  0.00    -0.458 OA
BRANCH   5   6
ATOM      6  C   UNL A   1      36.095  23.101  24.932  1.00  0.00     0.357 C 
ATOM      7  O   UNL A   1      36.004  24.217  25.425  1.00  0.00    -0.244 OA
BRANCH   6   8
ATOM      8  C   UNL A   1      35.105  22.998  23.805  1.00  0.00     0.160 A 
ATOM      9  C   UNL A   1      33.401  24.170  22.732  1.00  0.00     0.189 A 
ATOM     10  N   UNL A   1      34.662  24.166  23.207  1.00  0.00    -0.215 NA
ATOM     11  N   UNL A   1      32.587  23.105  22.795  1.00  0.00    -0.222 NA
ATOM     12  C   UNL A   1      33.023  21.999  23.407  1.00  0.00     0.076 A 
ATOM     13  C   UNL A   1      34.303  21.874  23.944  1.00  0.00     0.034 A 
ATOM     14  C   UNL A   1      32.154  20.930  23.572  1.00  0.00     0.029 A 
ATOM     15  C   UNL A   1      34.670  20.729  24.689  1.00  0.00     0.013 A 
ATOM     16  C   UNL A   1      32.515  19.789  24.298  1.00  0.00     0.002 A 
ATOM     17  C   UNL A   1      33.772  19.696  24.875  1.00  0.00     0.001 A 
BRANCH   9  18
ATOM     18  S   UNL A   1      32.799  25.425  21.601  1.00  0.00    -0.076 SA
BRANCH  18  19
ATOM     19  C   UNL A   1      33.097  27.052  22.356  1.00  0.00     0.178 C 
BRANCH  19  20
ATOM     20  C   UNL A   1      31.976  27.691  23.160  1.00  0.00     0.234 C 
ATOM     21  N   UNL A   1      31.374  27.193  24.275  1.00  0.00    -0.325 N 
ATOM     22  H   UNL A   1      30.682  27.798  24.628  1.00  0.00     0.169 HD
ATOM     23  O   UNL A   1      31.486  28.755  22.749  1.00  0.00    -0.274 OA
BRANCH  21  24
ATOM     24  C   UNL A   1      31.500  26.023  25.042  1.00  0.00     0.044 A 
ATOM     25  C   UNL A   1      33.721  26.894  26.061  1.00  0.00     0.046 C 
ATOM     26  C   UNL A   1      32.636  25.863  25.872  1.00  0.00    -0.027 A 
ATOM     27  C   UNL A   1      32.828  24.641  26.545  1.00  0.00     0.005 A 
ATOM     28  C   UNL A   1      31.885  23.621  26.464  1.00  0.00     0.000 A 
ATOM     29  C   UNL A   1      30.525  25.023  25.038  1.00  0.00     0.026 A 
ATOM     30  C   UNL A   1      30.718  23.827  25.739  1.00  0.00     0.002 A 
ENDBRANCH  21  24
ENDBRANCH  19  20
ENDBRANCH  18  19
ENDBRANCH   9  18
ENDBRANCH   6   8
ENDBRANCH   5   6
ENDBRANCH   4   5
ENDBRANCH   3   4
ENDBRANCH   2   3
ENDBRANCH   1   2
BRANCH   1  31
ATOM     31  C   UNL A   1      41.317  19.292  26.264  1.00  0.00     0.188 C 
BRANCH  31  32
ATOM     32  O   UNL A   1      42.443  19.527  25.428  1.00  0.00    -0.376 OA
BRANCH  32  33
ATOM     33  C   UNL A   1      43.458  18.542  25.400  1.00  0.00     0.202 C 
BRANCH  33  34
ATOM     34  C   UNL A   1      44.665  18.919  24.520  1.00  0.00     0.261 C 
BRANCH  34  35
ATOM     35  O   UNL A   1      44.606  20.315  24.126  1.00  0.00    -0.460 OA
BRANCH  35  36
ATOM     36  C   UNL A   1      45.636  21.135  24.519  1.00  0.00     0.338 C 
ATOM     37  O   UNL A   1      46.765  20.749  24.801  1.00  0.00    -0.246 OA
BRANCH  36  38
ATOM     38  C   UNL A   1      45.128  22.523  24.806  1.00  0.00     0.060 A 
ATOM     39  C   UNL A   1      45.836  23.733  24.773  1.00  0.00     0.016 A 
ATOM     40  C   UNL A   1      43.968  22.571  25.498  1.00  0.00     0.016 A 
ATOM     41  C   UNL A   1      45.399  24.919  25.528  1.00  0.00     0.010 A 
ATOM     42  C   UNL A   1      43.793  23.629  26.387  1.00  0.00     0.010 A 
ATOM     43  C   UNL A   1      44.332  24.892  26.425  1.00  0.00    -0.014 A 
BRANCH  43  44
ATOM     44  C   UNL A   1      43.886  25.864  27.555  1.00  0.00     0.031 A 
ATOM     45  C   UNL A   1      42.517  26.571  27.893  1.00  0.00     0.074 A 
ATOM     46  C   UNL A   1      44.792  26.063  28.537  1.00  0.00     0.049 A 
ATOM     47  N   UNL A   1      42.323  27.864  28.025  1.00  0.00    -0.248 NA
ATOM     48  C   UNL A   1      41.258  25.881  28.247  1.00  0.00     0.031 C 
ATOM     49  C   UNL A   1      44.651  26.887  29.735  1.00  0.00     0.029 A 
ATOM     50  N   UNL A   1      46.144  25.718  28.512  1.00  0.00    -0.354 N 
ATOM     51  C   UNL A   1      40.993  28.076  28.439  1.00  0.00     0.074 A 
ATOM     52  C   UNL A   1      40.336  26.828  28.358  1.00  0.00     0.031 C 
ATOM     53  C   UNL A   1      45.879  27.313  30.077  1.00  0.00     0.029 A 
ATOM     54  C   UNL A   1      46.810  26.820  29.072  1.00  0.00     0.049 A 
ATOM     55  H   UNL A   1      46.544  24.885  28.174  1.00  0.00     0.167 HD
ATOM     56  C   UNL A   1      40.491  29.179  29.063  1.00  0.00     0.037 A 
ATOM     57  C   UNL A   1      47.636  27.554  28.278  1.00  0.00     0.037 A 
ATOM     58  C   UNL A   1      41.585  29.984  29.526  1.00  0.00     0.049 A 
ATOM     59  C   UNL A   1      47.148  28.976  28.107  1.00  0.00     0.074 A 
ATOM     60  C   UNL A   1      42.283  29.955  30.722  1.00  0.00     0.029 A 
ATOM     61  N   UNL A   1      42.398  30.591  28.592  1.00  0.00    -0.354 N 
ATOM     62  N   UNL A   1      45.968  29.404  28.475  1.00  0.00    -0.248 NA
ATOM     63  C   UNL A   1      47.957  30.035  27.512  1.00  0.00     0.031 C 
ATOM     64  C   UNL A   1      43.595  30.422  30.455  1.00  0.00     0.029 A 
ATOM     65  C   UNL A   1      43.651  30.808  29.128  1.00  0.00     0.049 A 
ATOM     66  H   UNL A   1      42.125  30.835  27.678  1.00  0.00     0.167 HD
ATOM     67  C   UNL A   1      45.829  30.723  28.128  1.00  0.00     0.074 A 
ATOM     68  C   UNL A   1      47.115  31.080  27.566  1.00  0.00     0.031 C 
ATOM     69  C   UNL A   1      44.670  31.423  28.302  1.00  0.00     0.037 A 
BRANCH  56  70
ATOM     70  C   UNL A   1      39.054  29.228  29.567  1.00  0.00     0.057 A 
ATOM     71  C   UNL A   1      38.012  29.825  28.839  1.00  0.00     0.134 A 
ATOM     72  C   UNL A   1      38.671  28.734  30.834  1.00  0.00     0.134 A 
ATOM     73  F   UNL A   1      38.193  30.250  27.582  1.00  0.00    -0.206 F 
ATOM     74  C   UNL A   1      36.732  30.042  29.382  1.00  0.00     0.040 A 
ATOM     75  C   UNL A   1      37.410  28.980  31.406  1.00  0.00     0.040 A 
ATOM     76  F   UNL A   1      39.534  28.027  31.582  1.00  0.00    -0.206 F 
ATOM     77  C   UNL A   1      36.439  29.660  30.685  1.00  0.00     0.006 A 
ENDBRANCH  56  70
BRANCH  57  78
ATOM     78  C   UNL A   1      48.399  26.712  27.295  1.00  0.00     0.057 A 
ATOM     79  C   UNL A   1      48.140  26.904  25.916  1.00  0.00     0.134 A 
ATOM     80  C   UNL A   1      49.548  25.982  27.601  1.00  0.00     0.134 A 
ATOM     81  F   UNL A   1      47.050  27.586  25.526  1.00  0.00    -0.206 F 
ATOM     82  C   UNL A   1      49.036  26.521  24.913  1.00  0.00     0.040 A 
ATOM     83  C   UNL A   1      50.439  25.555  26.596  1.00  0.00     0.040 A 
ATOM     84  F   UNL A   1      49.913  25.775  28.874  1.00  0.00    -0.206 F 
ATOM     85  C   UNL A   1      50.209  25.866  25.255  1.00  0.00     0.006 A 
ENDBRANCH  57  78
BRANCH  69  86
ATOM     86  C   UNL A   1      44.368  32.783  27.726  1.00  0.00     0.057 A 
ATOM     87  C   UNL A   1      44.592  33.984  28.407  1.00  0.00     0.134 A 
ATOM     88  C   UNL A   1      44.015  32.915  26.362  1.00  0.00     0.134 A 
ATOM     89  F   UNL A   1      45.028  34.001  29.674  1.00  0.00    -0.206 F 
ATOM     90  C   UNL A   1      44.427  35.231  27.793  1.00  0.00     0.040 A 
ATOM     91  C   UNL A   1      43.912  34.152  25.723  1.00  0.00     0.040 A 
ATOM     92  F   UNL A   1      43.787  31.845  25.584  1.00  0.00    -0.206 F 
ATOM     93  C   UNL A   1      44.104  35.319  26.445  1.00  0.00     0.006 A 
ENDBRANCH  69  86
ENDBRANCH  43  44
ENDBRANCH  36  38
ENDBRANCH  35  36
ENDBRANCH  34  35
ENDBRANCH  33  34
ENDBRANCH  32  33
ENDBRANCH  31  32
ENDBRANCH   1  31
TORSDOF 21
ENDMDL
MODEL 2
REMARK VINA RESULT:     -10.7      3.803      8.416
REMARK SMILES Cc1ccccc1NC(=O)CSc1nc(C(=O)OCCOCCOCCOC(=O)c2ccc(-c3c4nc(c(-c5c(F)cccc5F)c5ccc([nH]5)c(-c5c(F)cccc5F)c5nc(c(-c6c(F)cccc6F)c6ccc3[nH]6)C=C5)C=C4)cc2)c2ccccc2n1
REMARK SMILES IDX 22 1 21 2 20 3 19 4 18 5 16 6 17 7 15 8 13 9 14 10 90 11
REMARK SMILES IDX 89 12 84 13 88 14 85 15 87 16 86 17 12 18 11 19 9 20 8 21
REMARK SMILES IDX 10 23 7 24 1 25 2 26 3 27 4 28 6 29 5 30 23 31 24 32 25 33
REMARK SMILES IDX 26 34 27 35 28 36 29 37 30 38 31 39 83 40 32 41 82 42 33 43
REMARK SMILES IDX 34 44 35 45 76 46 36 47 81 48 75 49 77 50 37 51 80 52 74 53
REMARK SMILES IDX 73 54 38 56 64 57 47 58 63 59 48 60 51 61 62 62 78 63 49 64
REMARK SMILES IDX 50 65 61 67 79 68 52 69 39 70 40 71 45 72 41 73 42 74 44 75
REMARK SMILES IDX 46 76 43 77 65 78 66 79 71 80 67 81 68 82 70 83 72 84 69 85
REMARK SMILES IDX 53 86 54 87 59 88 55 89 56 90 58 91 60 92 57 93
REMARK H PARENT 8 22 77 55 51 66
REMARK Flexibility Score: inf
ROOT
ATOM      1  C   UNL A   1      40.065  22.023  27.156  1.00  0.00     0.188 C 
ENDROOT
BRANCH   1   2
ATOM      2  O   UNL A   1      39.863  23.197  26.328  1.00  0.00    -0.376 OA
BRANCH   2   3
ATOM      3  C   UNL A   1      38.781  24.125  26.617  1.00  0.00     0.202 C 
BRANCH   3   4
ATOM      4  C   UNL A   1      37.226  23.642  26.168  1.00  0.00     0.261 C 
BRANCH   4   5
ATOM      5  O   UNL A   1      36.455  23.958  24.746  1.00  0.00    -0.458 OA
BRANCH   5   6
ATOM      6  C   UNL A   1      36.082  23.340  23.547  1.00  0.00     0.357 C 
ATOM      7  O   UNL A   1      36.811  22.870  22.684  1.00  0.00    -0.244 OA
BRANCH   6   8
ATOM      8  C   UNL A   1      34.669  23.333  23.032  1.00  0.00     0.160 A 
ATOM      9  C   UNL A   1      32.893  24.742  22.497  1.00  0.00     0.189 A 
ATOM     10  N   UNL A   1      34.204  24.456  22.369  1.00  0.00    -0.215 NA
ATOM     11  N   UNL A   1      32.041  23.987  23.207  1.00  0.00    -0.222 NA
ATOM     12  C   UNL A   1      32.518  22.927  23.867  1.00  0.00     0.076 A 
ATOM     13  C   UNL A   1      33.853  22.532  23.819  1.00  0.00     0.034 A 
ATOM     14  C   UNL A   1      31.666  22.203  24.688  1.00  0.00     0.029 A 
ATOM     15  C   UNL A   1      34.329  21.478  24.634  1.00  0.00     0.013 A 
ATOM     16  C   UNL A   1      32.129  21.150  25.488  1.00  0.00     0.002 A 
ATOM     17  C   UNL A   1      33.470  20.799  25.475  1.00  0.00     0.001 A 
BRANCH   9  18
ATOM     18  S   UNL A   1      32.048  25.901  21.420  1.00  0.00    -0.076 SA
BRANCH  18  19
ATOM     19  C   UNL A   1      32.105  27.541  22.203  1.00  0.00     0.178 C 
BRANCH  19  20
ATOM     20  C   UNL A   1      33.459  28.101  22.608  1.00  0.00     0.234 C 
ATOM     21  N   UNL A   1      33.832  28.543  23.841  1.00  0.00    -0.325 N 
ATOM     22  H   UNL A   1      34.769  28.847  23.861  1.00  0.00     0.169 HD
ATOM     23  O   UNL A   1      34.325  28.246  21.731  1.00  0.00    -0.274 OA
BRANCH  21  24
ATOM     24  C   UNL A   1      33.204  28.673  25.090  1.00  0.00     0.044 A 
ATOM     25  C   UNL A   1      33.828  26.227  25.692  1.00  0.00     0.046 C 
ATOM     26  C   UNL A   1      33.172  27.558  25.963  1.00  0.00    -0.027 A 
ATOM     27  C   UNL A   1      32.436  27.646  27.161  1.00  0.00     0.005 A 
ATOM     28  C   UNL A   1      31.804  28.828  27.530  1.00  0.00     0.000 A 
ATOM     29  C   UNL A   1      32.634  29.875  25.515  1.00  0.00     0.026 A 
ATOM     30  C   UNL A   1      31.934  29.952  26.723  1.00  0.00     0.002 A 
ENDBRANCH  21  24
ENDBRANCH  19  20
ENDBRANCH  18  19
ENDBRANCH   9  18
ENDBRANCH   6   8
ENDBRANCH   5   6
ENDBRANCH   4   5
ENDBRANCH   3   4
ENDBRANCH   2   3
ENDBRANCH   1   2
BRANCH   1  31
ATOM     31  C   UNL A   1      39.786  20.749  26.329  1.00  0.00     0.188 C 
BRANCH  31  32
ATOM     32  O   UNL A   1      40.934  20.532  25.518  1.00  0.00    -0.376 OA
BRANCH  32  33
ATOM     33  C   UNL A   1      42.066  19.941  26.127  1.00  0.00     0.202 C 
BRANCH  33  34
ATOM     34  C   UNL A   1      43.395  20.633  25.771  1.00  0.00     0.261 C 
BRANCH  34  35
ATOM     35  O   UNL A   1      43.203  22.059  25.574  1.00  0.00    -0.460 OA
BRANCH  35  36
ATOM     36  C   UNL A   1      43.906  22.666  24.562  1.00  0.00     0.338 C 
ATOM     37  O   UNL A   1      44.067  22.191  23.444  1.00  0.00    -0.246 OA
BRANCH  36  38
ATOM     38  C   UNL A   1      44.665  23.856  25.086  1.00  0.00     0.060 A 
ATOM     39  C   UNL A   1      44.259  25.199  25.127  1.00  0.00     0.016 A 
ATOM     40  C   UNL A   1      45.998  23.670  25.212  1.00  0.00     0.016 A 
ATOM     41  C   UNL A   1      45.224  26.309  25.186  1.00  0.00     0.010 A 
ATOM     42  C   UNL A   1      46.824  24.767  24.982  1.00  0.00     0.010 A 
ATOM     43  C   UNL A   1      46.601  26.119  25.077  1.00  0.00    -0.014 A 
BRANCH  43  44
ATOM     44  C   UNL A   1      47.775  27.096  24.784  1.00  0.00     0.031 A 
ATOM     45  C   UNL A   1      48.673  27.354  23.513  1.00  0.00     0.074 A 
ATOM     46  C   UNL A   1      48.016  28.014  25.745  1.00  0.00     0.049 A 
ATOM     47  N   UNL A   1      49.984  27.291  23.464  1.00  0.00    -0.248 NA
ATOM     48  C   UNL A   1      48.190  27.840  22.203  1.00  0.00     0.031 C 
ATOM     49  C   UNL A   1      49.021  29.075  25.742  1.00  0.00     0.029 A 
ATOM     50  N   UNL A   1      47.523  28.010  27.050  1.00  0.00    -0.354 N 
ATOM     51  C   UNL A   1      50.403  27.699  22.182  1.00  0.00     0.074 A 
ATOM     52  C   UNL A   1      49.239  27.826  21.392  1.00  0.00     0.031 C 
ATOM     53  C   UNL A   1      49.354  29.318  27.020  1.00  0.00     0.029 A 
ATOM     54  C   UNL A   1      48.614  28.379  27.852  1.00  0.00     0.049 A 
ATOM     55  H   UNL A   1      46.609  27.794  27.345  1.00  0.00     0.167 HD
ATOM     56  C   UNL A   1      51.637  28.159  21.826  1.00  0.00     0.037 A 
ATOM     57  C   UNL A   1      49.125  27.462  28.719  1.00  0.00     0.037 A 
ATOM     58  C   UNL A   1      52.375  28.467  23.018  1.00  0.00     0.049 A 
ATOM     59  C   UNL A   1      50.551  27.087  28.379  1.00  0.00     0.074 A 
ATOM     60  C   UNL A   1      52.447  29.636  23.756  1.00  0.00     0.029 A 
ATOM     61  N   UNL A   1      52.741  27.431  23.852  1.00  0.00    -0.354 N 
ATOM     62  N   UNL A   1      51.158  27.413  27.268  1.00  0.00    -0.248 NA
ATOM     63  C   UNL A   1      51.411  26.318  29.272  1.00  0.00     0.031 C 
ATOM     64  C   UNL A   1      52.719  29.270  25.098  1.00  0.00     0.029 A 
ATOM     65  C   UNL A   1      52.894  27.898  25.142  1.00  0.00     0.049 A 
ATOM     66  H   UNL A   1      52.874  26.498  23.570  1.00  0.00     0.167 HD
ATOM     67  C   UNL A   1      52.417  26.871  27.256  1.00  0.00     0.074 A 
ATOM     68  C   UNL A   1      52.541  26.231  28.549  1.00  0.00     0.031 C 
ATOM     69  C   UNL A   1      53.261  26.964  26.187  1.00  0.00     0.037 A 
BRANCH  56  70
ATOM     70  C   UNL A   1      51.921  28.683  20.424  1.00  0.00     0.057 A 
ATOM     71  C   UNL A   1      52.422  27.870  19.394  1.00  0.00     0.134 A 
ATOM     72  C   UNL A   1      51.763  30.042  20.069  1.00  0.00     0.134 A 
ATOM     73  F   UNL A   1      52.533  26.544  19.544  1.00  0.00    -0.206 F 
ATOM     74  C   UNL A   1      52.864  28.389  18.163  1.00  0.00     0.040 A 
ATOM     75  C   UNL A   1      52.239  30.581  18.861  1.00  0.00     0.040 A 
ATOM     76  F   UNL A   1      51.175  30.905  20.913  1.00  0.00    -0.206 F 
ATOM     77  C   UNL A   1      52.816  29.753  17.908  1.00  0.00     0.006 A 
ENDBRANCH  56  70
BRANCH  57  78
ATOM     78  C   UNL A   1      48.065  26.602  29.348  1.00  0.00     0.057 A 
ATOM     79  C   UNL A   1      47.295  27.160  30.397  1.00  0.00     0.134 A 
ATOM     80  C   UNL A   1      47.570  25.421  28.793  1.00  0.00     0.134 A 
ATOM     81  F   UNL A   1      47.700  28.291  31.000  1.00  0.00    -0.206 F 
ATOM     82  C   UNL A   1      46.045  26.659  30.773  1.00  0.00     0.040 A 
ATOM     83  C   UNL A   1      46.330  24.884  29.191  1.00  0.00     0.040 A 
ATOM     84  F   UNL A   1      48.195  24.829  27.766  1.00  0.00    -0.206 F 
ATOM     85  C   UNL A   1      45.543  25.528  30.147  1.00  0.00     0.006 A 
ENDBRANCH  57  78
BRANCH  69  86
ATOM     86  C   UNL A   1      54.544  26.193  26.008  1.00  0.00     0.057 A 
ATOM     87  C   UNL A   1      55.815  26.741  26.210  1.00  0.00     0.134 A 
ATOM     88  C   UNL A   1      54.511  24.792  25.810  1.00  0.00     0.134 A 
ATOM     89  F   UNL A   1      55.981  28.037  26.508  1.00  0.00    -0.206 F 
ATOM     90  C   UNL A   1      56.978  25.963  26.168  1.00  0.00     0.040 A 
ATOM     91  C   UNL A   1      55.659  23.998  25.831  1.00  0.00     0.040 A 
ATOM     92  F   UNL A   1      53.358  24.133  25.620  1.00  0.00    -0.206 F 
ATOM     93  C   UNL A   1      56.902  24.586  25.995  1.00  0.00     0.006 A 
ENDBRANCH  69  86
ENDBRANCH  43  44
ENDBRANCH  36  38
ENDBRANCH  35  36
ENDBRANCH  34  35
ENDBRANCH  33  34
ENDBRANCH  32  33
ENDBRANCH  31  32
ENDBRANCH   1  31
TORSDOF 21
ENDMDL
MODEL 3
REMARK VINA RESULT:     -10.3      2.317      3.659
REMARK SMILES Cc1ccccc1NC(=O)CSc1nc(C(=O)OCCOCCOCCOC(=O)c2ccc(-c3c4nc(c(-c5c(F)cccc5F)c5ccc([nH]5)c(-c5c(F)cccc5F)c5nc(c(-c6c(F)cccc6F)c6ccc3[nH]6)C=C5)C=C4)cc2)c2ccccc2n1
REMARK SMILES IDX 22 1 21 2 20 3 19 4 18 5 16 6 17 7 15 8 13 9 14 10 90 11
REMARK SMILES IDX 89 12 84 13 88 14 85 15 87 16 86 17 12 18 11 19 9 20 8 21
REMARK SMILES IDX 10 23 7 24 1 25 2 26 3 27 4 28 6 29 5 30 23 31 24 32 25 33
REMARK SMILES IDX 26 34 27 35 28 36 29 37 30 38 31 39 83 40 32 41 82 42 33 43
REMARK SMILES IDX 34 44 35 45 76 46 36 47 81 48 75 49 77 50 37 51 80 52 74 53
REMARK SMILES IDX 73 54 38 56 64 57 47 58 63 59 48 60 51 61 62 62 78 63 49 64
REMARK SMILES IDX 50 65 61 67 79 68 52 69 39 70 40 71 45 72 41 73 42 74 44 75
REMARK SMILES IDX 46 76 43 77 65 78 66 79 71 80 67 81 68 82 70 83 72 84 69 85
REMARK SMILES IDX 53 86 54 87 59 88 55 89 56 90 58 91 60 92 57 93
REMARK H PARENT 8 22 77 55 51 66
REMARK Flexibility Score: inf
ROOT
ATOM      1  C   UNL A   1      40.425  22.629  27.547  1.00  0.00     0.188 C 
ENDROOT
BRANCH   1   2
ATOM      2  O   UNL A   1      40.103  23.586  26.506  1.00  0.00    -0.376 OA
BRANCH   2   3
ATOM      3  C   UNL A   1      38.842  24.310  26.534  1.00  0.00     0.202 C 
BRANCH   3   4
ATOM      4  C   UNL A   1      37.463  23.449  26.075  1.00  0.00     0.261 C 
BRANCH   4   5
ATOM      5  O   UNL A   1      36.421  23.815  24.852  1.00  0.00    -0.458 OA
BRANCH   5   6
ATOM      6  C   UNL A   1      36.030  23.371  23.583  1.00  0.00     0.357 C 
ATOM      7  O   UNL A   1      36.745  23.048  22.645  1.00  0.00    -0.244 OA
BRANCH   6   8
ATOM      8  C   UNL A   1      34.605  23.412  23.102  1.00  0.00     0.160 A 
ATOM      9  C   UNL A   1      32.811  24.860  22.768  1.00  0.00     0.189 A 
ATOM     10  N   UNL A   1      34.120  24.599  22.580  1.00  0.00    -0.215 NA
ATOM     11  N   UNL A   1      31.978  24.024  23.408  1.00  0.00    -0.222 NA
ATOM     12  C   UNL A   1      32.475  22.900  23.935  1.00  0.00     0.076 A 
ATOM     13  C   UNL A   1      33.811  22.523  23.813  1.00  0.00     0.034 A 
ATOM     14  C   UNL A   1      31.647  22.083  24.689  1.00  0.00     0.029 A 
ATOM     15  C   UNL A   1      34.311  21.388  24.494  1.00  0.00     0.013 A 
ATOM     16  C   UNL A   1      32.132  20.951  25.356  1.00  0.00     0.002 A 
ATOM     17  C   UNL A   1      33.474  20.613  25.273  1.00  0.00     0.001 A 
BRANCH   9  18
ATOM     18  S   UNL A   1      31.936  26.125  21.847  1.00  0.00    -0.076 SA
BRANCH  18  19
ATOM     19  C   UNL A   1      31.632  27.526  22.965  1.00  0.00     0.178 C 
BRANCH  19  20
ATOM     20  C   UNL A   1      30.864  27.270  24.252  1.00  0.00     0.234 C 
ATOM     21  N   UNL A   1      31.168  27.728  25.497  1.00  0.00    -0.325 N 
ATOM     22  H   UNL A   1      30.510  27.441  26.172  1.00  0.00     0.169 HD
ATOM     23  O   UNL A   1      29.882  26.512  24.213  1.00  0.00    -0.274 OA
BRANCH  21  24
ATOM     24  C   UNL A   1      32.194  28.509  26.053  1.00  0.00     0.044 A 
ATOM     25  C   UNL A   1      33.836  26.505  25.918  1.00  0.00     0.046 C 
ATOM     26  C   UNL A   1      33.460  27.919  26.286  1.00  0.00    -0.027 A 
ATOM     27  C   UNL A   1      34.451  28.662  26.957  1.00  0.00     0.005 A 
ATOM     28  C   UNL A   1      34.229  29.983  27.328  1.00  0.00     0.000 A 
ATOM     29  C   UNL A   1      32.018  29.861  26.358  1.00  0.00     0.026 A 
ATOM     30  C   UNL A   1      33.025  30.592  26.997  1.00  0.00     0.002 A 
ENDBRANCH  21  24
ENDBRANCH  19  20
ENDBRANCH  18  19
ENDBRANCH   9  18
ENDBRANCH   6   8
ENDBRANCH   5   6
ENDBRANCH   4   5
ENDBRANCH   3   4
ENDBRANCH   2   3
ENDBRANCH   1   2
BRANCH   1  31
ATOM     31  C   UNL A   1      40.852  21.289  26.909  1.00  0.00     0.188 C 
BRANCH  31  32
ATOM     32  O   UNL A   1      41.535  21.613  25.704  1.00  0.00    -0.376 OA
BRANCH  32  33
ATOM     33  C   UNL A   1      42.933  21.819  25.777  1.00  0.00     0.202 C 
BRANCH  33  34
ATOM     34  C   UNL A   1      43.460  22.855  24.766  1.00  0.00     0.261 C 
BRANCH  34  35
ATOM     35  O   UNL A   1      43.107  24.204  25.171  1.00  0.00    -0.460 OA
BRANCH  35  36
ATOM     36  C   UNL A   1      44.129  25.082  25.436  1.00  0.00     0.338 C 
ATOM     37  O   UNL A   1      45.116  25.238  24.724  1.00  0.00    -0.246 OA
BRANCH  36  38
ATOM     38  C   UNL A   1      44.009  25.629  26.833  1.00  0.00     0.060 A 
ATOM     39  C   UNL A   1      43.170  25.193  27.870  1.00  0.00     0.016 A 
ATOM     40  C   UNL A   1      44.502  26.876  27.000  1.00  0.00     0.016 A 
ATOM     41  C   UNL A   1      42.776  26.071  28.984  1.00  0.00     0.010 A 
ATOM     42  C   UNL A   1      43.860  27.705  27.917  1.00  0.00     0.010 A 
ATOM     43  C   UNL A   1      43.099  27.427  29.026  1.00  0.00    -0.014 A 
BRANCH  43  44
ATOM     44  C   UNL A   1      42.551  28.610  29.875  1.00  0.00     0.031 A 
ATOM     45  C   UNL A   1      41.190  29.407  29.866  1.00  0.00     0.074 A 
ATOM     46  C   UNL A   1      43.317  28.967  30.929  1.00  0.00     0.049 A 
ATOM     47  N   UNL A   1      41.052  30.706  29.725  1.00  0.00    -0.248 NA
ATOM     48  C   UNL A   1      39.856  28.834  30.147  1.00  0.00     0.031 C 
ATOM     49  C   UNL A   1      43.053  30.008  31.919  1.00  0.00     0.029 A 
ATOM     50  N   UNL A   1      44.637  28.586  31.173  1.00  0.00    -0.354 N 
ATOM     51  C   UNL A   1      39.691  31.030  29.887  1.00  0.00     0.074 A 
ATOM     52  C   UNL A   1      38.982  29.810  29.940  1.00  0.00     0.031 C 
ATOM     53  C   UNL A   1      44.241  30.458  32.358  1.00  0.00     0.029 A 
ATOM     54  C   UNL A   1      45.277  29.755  31.614  1.00  0.00     0.049 A 
ATOM     55  H   UNL A   1      45.033  27.692  31.059  1.00  0.00     0.167 HD
ATOM     56  C   UNL A   1      39.167  32.247  30.214  1.00  0.00     0.037 A 
ATOM     57  C   UNL A   1      46.248  30.300  30.832  1.00  0.00     0.037 A 
ATOM     58  C   UNL A   1      40.228  33.094  30.680  1.00  0.00     0.049 A 
ATOM     59  C   UNL A   1      45.870  31.677  30.329  1.00  0.00     0.074 A 
ATOM     60  C   UNL A   1      40.744  33.275  31.952  1.00  0.00     0.029 A 
ATOM     61  N   UNL A   1      41.199  33.488  29.783  1.00  0.00    -0.354 N 
ATOM     62  N   UNL A   1      44.676  32.200  30.429  1.00  0.00    -0.248 NA
ATOM     63  C   UNL A   1      46.815  32.579  29.678  1.00  0.00     0.031 C 
ATOM     64  C   UNL A   1      42.105  33.644  31.805  1.00  0.00     0.029 A 
ATOM     65  C   UNL A   1      42.373  33.768  30.453  1.00  0.00     0.049 A 
ATOM     66  H   UNL A   1      41.073  33.561  28.810  1.00  0.00     0.167 HD
ATOM     67  C   UNL A   1      44.662  33.432  29.827  1.00  0.00     0.074 A 
ATOM     68  C   UNL A   1      46.034  33.638  29.410  1.00  0.00     0.031 C 
ATOM     69  C   UNL A   1      43.532  34.185  29.692  1.00  0.00     0.037 A 
BRANCH  56  70
ATOM     70  C   UNL A   1      37.678  32.431  30.477  1.00  0.00     0.057 A 
ATOM     71  C   UNL A   1      37.087  32.168  31.723  1.00  0.00     0.134 A 
ATOM     72  C   UNL A   1      36.766  32.818  29.469  1.00  0.00     0.134 A 
ATOM     73  F   UNL A   1      37.829  31.889  32.802  1.00  0.00    -0.206 F 
ATOM     74  C   UNL A   1      35.693  32.152  31.915  1.00  0.00     0.040 A 
ATOM     75  C   UNL A   1      35.370  32.765  29.634  1.00  0.00     0.040 A 
ATOM     76  F   UNL A   1      37.206  33.222  28.266  1.00  0.00    -0.206 F 
ATOM     77  C   UNL A   1      34.827  32.406  30.859  1.00  0.00     0.006 A 
ENDBRANCH  56  70
BRANCH  57  78
ATOM     78  C   UNL A   1      47.096  29.264  30.148  1.00  0.00     0.057 A 
ATOM     79  C   UNL A   1      47.032  29.183  28.736  1.00  0.00     0.134 A 
ATOM     80  C   UNL A   1      48.158  28.587  30.749  1.00  0.00     0.134 A 
ATOM     81  F   UNL A   1      46.037  29.795  28.071  1.00  0.00    -0.206 F 
ATOM     82  C   UNL A   1      48.035  28.591  27.962  1.00  0.00     0.040 A 
ATOM     83  C   UNL A   1      49.154  27.952  29.981  1.00  0.00     0.040 A 
ATOM     84  F   UNL A   1      48.340  28.631  32.076  1.00  0.00    -0.206 F 
ATOM     85  C   UNL A   1      49.120  27.994  28.586  1.00  0.00     0.006 A 
ENDBRANCH  57  78
BRANCH  69  86
ATOM     86  C   UNL A   1      43.393  35.417  28.835  1.00  0.00     0.057 A 
ATOM     87  C   UNL A   1      43.223  35.384  27.447  1.00  0.00     0.134 A 
ATOM     88  C   UNL A   1      43.230  36.688  29.436  1.00  0.00     0.134 A 
ATOM     89  F   UNL A   1      43.250  34.231  26.763  1.00  0.00    -0.206 F 
ATOM     90  C   UNL A   1      42.961  36.538  26.699  1.00  0.00     0.040 A 
ATOM     91  C   UNL A   1      42.905  37.833  28.708  1.00  0.00     0.040 A 
ATOM     92  F   UNL A   1      43.349  36.862  30.761  1.00  0.00    -0.206 F 
ATOM     93  C   UNL A   1      42.784  37.764  27.330  1.00  0.00     0.006 A 
ENDBRANCH  69  86
ENDBRANCH  43  44
ENDBRANCH  36  38
ENDBRANCH  35  36
ENDBRANCH  34  35
ENDBRANCH  33  34
ENDBRANCH  32  33
ENDBRANCH  31  32
ENDBRANCH   1  31
TORSDOF 21
ENDMDL
