MODEL 1
REMARK VINA RESULT:     -11.5      0.000      0.000
REMARK SMILES CCc1cc(S(F)(F)(F)(F)F)cc2c1O[C@@H](C(F)(F)F)C(C(=O)OCCOCCOCCOC(=O)c1ccc(-c3c4nc(c(-c5c(F)cccc5F)c5ccc([nH]5)c(-c5c(F)cccc5F)c5nc(c(-c6c(F)cccc6F)c6ccc3[nH]6)C=C5)C=C4)cc1)=C2
REMARK SMILES IDX 29 1 28 2 27 3 26 4 25 5 24 6 22 7 23 8 21 9 3 10 4 11 14 12
REMARK SMILES IDX 5 13 13 14 15 15 12 16 90 17 16 18 2 19 1 20 6 21 7 22 8 23
REMARK SMILES IDX 9 24 10 25 11 26 17 27 18 28 19 29 20 30 30 31 31 32 32 33
REMARK SMILES IDX 33 34 34 35 35 36 36 37 37 38 89 39 38 40 88 41 39 42 40 43
REMARK SMILES IDX 41 44 82 45 42 46 87 47 81 48 83 49 43 50 86 51 80 52 79 53
REMARK SMILES IDX 44 55 70 56 53 57 69 58 54 59 57 60 68 61 84 62 55 63 56 64
REMARK SMILES IDX 67 66 85 67 58 68 45 69 46 70 51 71 47 72 48 73 50 74 52 75
REMARK SMILES IDX 49 76 71 77 72 78 77 79 73 80 74 81 76 82 78 83 75 84 59 85
REMARK SMILES IDX 60 86 65 87 61 88 62 89 64 90 66 91 63 92
REMARK H PARENT 83 54 57 65
REMARK Flexibility Score: inf
ROOT
ATOM      1  C   UNL A   1      44.718  19.439  24.019  1.00  0.00     0.188 C 
ENDROOT
BRANCH   1   2
ATOM      2  C   UNL A   1      44.020  18.892  25.254  1.00  0.00     0.188 C 
BRANCH   2   3
ATOM      3  O   UNL A   1      42.737  19.487  25.375  1.00  0.00    -0.376 OA
BRANCH   3   4
ATOM      4  C   UNL A   1      42.472  19.766  26.742  1.00  0.00     0.202 C 
BRANCH   4   5
ATOM      5  C   UNL A   1      40.975  19.680  26.996  1.00  0.00     0.261 C 
BRANCH   5   6
ATOM      6  O   UNL A   1      40.474  20.971  27.307  1.00  0.00    -0.460 OA
BRANCH   6   7
ATOM      7  C   UNL A   1      40.151  21.879  26.263  1.00  0.00     0.338 C 
ATOM      8  O   UNL A   1      41.078  22.410  25.575  1.00  0.00    -0.246 OA
BRANCH   7   9
ATOM      9  C   UNL A   1      38.698  22.216  25.970  1.00  0.00     0.087 C 
ATOM     10  C   UNL A   1      34.651  23.202  25.668  1.00  0.00    -0.004 A 
ATOM     11  C   UNL A   1      33.737  22.250  25.254  1.00  0.00     0.032 A 
ATOM     12  C   UNL A   1      35.967  22.837  25.811  1.00  0.00     0.131 A 
ATOM     13  C   UNL A   1      34.130  20.964  24.992  1.00  0.00     0.108 A 
ATOM     14  C   UNL A   1      36.404  21.553  25.538  1.00  0.00     0.019 A 
ATOM     15  O   UNL A   1      36.841  23.761  26.330  1.00  0.00    -0.475 OA
ATOM     16  C   UNL A   1      35.459  20.618  25.128  1.00  0.00     0.036 A 
ATOM     17  C   UNL A   1      37.809  21.254  25.755  1.00  0.00     0.027 C 
ATOM     18  C   UNL A   1      38.232  23.665  25.915  1.00  0.00     0.316 C 
BRANCH  10  19
ATOM     19  C   UNL A   1      34.173  24.620  25.937  1.00  0.00     0.036 C 
ATOM     20  C   UNL A   1      32.673  24.611  26.188  1.00  0.00     0.009 C 
ENDBRANCH  10  19
BRANCH  13  21
ATOM     21  S   UNL A   1      32.916  19.726  24.475  1.00  0.00     0.310 S 
ATOM     22  F   UNL A   1      34.058  18.736  23.998  1.00  0.00    -0.094 F 
ATOM     23  F   UNL A   1      32.969  20.373  23.039  1.00  0.00    -0.094 F 
ATOM     24  F   UNL A   1      31.883  18.669  23.991  1.00  0.00    -0.094 F 
ATOM     25  F   UNL A   1      32.981  19.007  25.880  1.00  0.00    -0.094 F 
ATOM     26  F   UNL A   1      34.048  20.722  24.949  1.00  0.00    -0.094 F 
ENDBRANCH  13  21
BRANCH  18  27
ATOM     27  C   UNL A   1      39.088  24.498  26.855  1.00  0.00     0.430 C 
ATOM     28  F   UNL A   1      39.522  23.734  27.854  1.00  0.00    -0.167 F 
ATOM     29  F   UNL A   1      40.130  24.989  26.188  1.00  0.00    -0.167 F 
ATOM     30  F   UNL A   1      38.363  25.500  27.345  1.00  0.00    -0.167 F 
ENDBRANCH  18  27
ENDBRANCH   7   9
ENDBRANCH   6   7
ENDBRANCH   5   6
ENDBRANCH   4   5
ENDBRANCH   3   4
ENDBRANCH   2   3
ENDBRANCH   1   2
BRANCH   1  31
ATOM     31  O   UNL A   1      44.713  20.858  24.063  1.00  0.00    -0.376 OA
BRANCH  31  32
ATOM     32  C   UNL A   1      45.760  21.309  24.909  1.00  0.00     0.202 C 
BRANCH  32  33
ATOM     33  C   UNL A   1      46.011  22.787  24.660  1.00  0.00     0.261 C 
BRANCH  33  34
ATOM     34  O   UNL A   1      45.432  23.550  25.707  1.00  0.00    -0.460 OA
BRANCH  34  35
ATOM     35  C   UNL A   1      44.165  24.165  25.520  1.00  0.00     0.338 C 
ATOM     36  O   UNL A   1      43.513  23.964  24.449  1.00  0.00    -0.246 OA
BRANCH  35  37
ATOM     37  C   UNL A   1      43.591  25.066  26.603  1.00  0.00     0.060 A 
ATOM     38  C   UNL A   1      43.893  26.418  26.594  1.00  0.00     0.016 A 
ATOM     39  C   UNL A   1      42.811  24.540  27.540  1.00  0.00     0.016 A 
ATOM     40  C   UNL A   1      43.555  27.089  27.792  1.00  0.00     0.010 A 
ATOM     41  C   UNL A   1      42.406  25.294  28.615  1.00  0.00     0.010 A 
ATOM     42  C   UNL A   1      42.718  26.622  28.700  1.00  0.00    -0.014 A 
BRANCH  42  43
ATOM     43  C   UNL A   1      42.133  27.514  29.784  1.00  0.00     0.031 A 
ATOM     44  C   UNL A   1      41.022  28.304  29.487  1.00  0.00     0.074 A 
ATOM     45  C   UNL A   1      42.761  27.493  31.019  1.00  0.00     0.049 A 
ATOM     46  N   UNL A   1      40.363  29.123  30.307  1.00  0.00    -0.248 NA
ATOM     47  C   UNL A   1      40.375  28.352  28.167  1.00  0.00     0.031 C 
ATOM     48  C   UNL A   1      43.877  26.693  31.329  1.00  0.00     0.029 A 
ATOM     49  N   UNL A   1      42.436  28.219  32.143  1.00  0.00    -0.354 N 
ATOM     50  C   UNL A   1      39.341  29.694  29.666  1.00  0.00     0.074 A 
ATOM     51  C   UNL A   1      39.337  29.211  28.279  1.00  0.00     0.031 C 
ATOM     52  C   UNL A   1      44.228  26.941  32.618  1.00  0.00     0.029 A 
ATOM     53  C   UNL A   1      43.336  27.900  33.136  1.00  0.00     0.049 A 
ATOM     54  H   UNL A   1      41.690  28.856  32.224  1.00  0.00     0.167 HD
ATOM     55  C   UNL A   1      38.410  30.595  30.184  1.00  0.00     0.037 A 
ATOM     56  C   UNL A   1      43.394  28.407  34.424  1.00  0.00     0.037 A 
ATOM     57  C   UNL A   1      38.442  31.069  31.486  1.00  0.00     0.049 A 
ATOM     58  C   UNL A   1      42.497  29.354  34.926  1.00  0.00     0.074 A 
ATOM     59  C   UNL A   1      37.507  31.973  32.027  1.00  0.00     0.029 A 
ATOM     60  N   UNL A   1      39.357  30.769  32.471  1.00  0.00    -0.354 N 
ATOM     61  N   UNL A   1      41.453  29.893  34.297  1.00  0.00    -0.248 NA
ATOM     62  C   UNL A   1      42.569  29.922  36.279  1.00  0.00     0.031 C 
ATOM     63  C   UNL A   1      37.858  32.221  33.317  1.00  0.00     0.029 A 
ATOM     64  C   UNL A   1      39.019  31.477  33.603  1.00  0.00     0.049 A 
ATOM     65  H   UNL A   1      40.120  30.154  32.381  1.00  0.00     0.167 HD
ATOM     66  C   UNL A   1      40.819  30.745  35.105  1.00  0.00     0.074 A 
ATOM     67  C   UNL A   1      41.532  30.781  36.389  1.00  0.00     0.031 C 
ATOM     68  C   UNL A   1      39.673  31.491  34.825  1.00  0.00     0.037 A 
BRANCH  55  69
ATOM     69  C   UNL A   1      37.299  31.085  29.269  1.00  0.00     0.057 A 
ATOM     70  C   UNL A   1      37.374  32.353  28.718  1.00  0.00     0.134 A 
ATOM     71  C   UNL A   1      36.289  30.270  28.989  1.00  0.00     0.134 A 
ATOM     72  F   UNL A   1      38.473  33.100  28.762  1.00  0.00    -0.206 F 
ATOM     73  C   UNL A   1      36.175  32.781  28.101  1.00  0.00     0.040 A 
ATOM     74  C   UNL A   1      35.209  30.716  28.265  1.00  0.00     0.040 A 
ATOM     75  F   UNL A   1      36.322  29.009  29.413  1.00  0.00    -0.206 F 
ATOM     76  C   UNL A   1      35.190  31.979  27.739  1.00  0.00     0.006 A 
ENDBRANCH  55  69
BRANCH  56  77
ATOM     77  C   UNL A   1      44.495  27.904  35.343  1.00  0.00     0.057 A 
ATOM     78  C   UNL A   1      44.271  26.790  36.135  1.00  0.00     0.134 A 
ATOM     79  C   UNL A   1      45.645  28.566  35.395  1.00  0.00     0.134 A 
ATOM     80  F   UNL A   1      43.254  25.955  35.942  1.00  0.00    -0.206 F 
ATOM     81  C   UNL A   1      45.223  26.620  37.169  1.00  0.00     0.040 A 
ATOM     82  C   UNL A   1      46.588  28.257  36.346  1.00  0.00     0.040 A 
ATOM     83  F   UNL A   1      45.887  29.537  34.519  1.00  0.00    -0.206 F 
ATOM     84  C   UNL A   1      46.406  27.205  37.200  1.00  0.00     0.006 A 
ENDBRANCH  56  77
BRANCH  68  85
ATOM     85  C   UNL A   1      39.106  32.370  35.928  1.00  0.00     0.057 A 
ATOM     86  C   UNL A   1      39.460  33.707  35.988  1.00  0.00     0.134 A 
ATOM     87  C   UNL A   1      38.278  31.836  36.819  1.00  0.00     0.134 A 
ATOM     88  F   UNL A   1      40.072  34.341  34.992  1.00  0.00    -0.206 F 
ATOM     89  C   UNL A   1      39.110  34.340  37.205  1.00  0.00     0.040 A 
ATOM     90  C   UNL A   1      37.869  32.558  37.914  1.00  0.00     0.040 A 
ATOM     91  F   UNL A   1      37.840  30.592  36.647  1.00  0.00    -0.206 F 
ATOM     92  C   UNL A   1      38.229  33.868  38.067  1.00  0.00     0.006 A 
ENDBRANCH  68  85
ENDBRANCH  42  43
ENDBRANCH  35  37
ENDBRANCH  34  35
ENDBRANCH  33  34
ENDBRANCH  32  33
ENDBRANCH  31  32
ENDBRANCH   1  31
TORSDOF 20
ENDMDL
MODEL 2
REMARK VINA RESULT:     -11.4      2.214      7.132
REMARK SMILES CCc1cc(S(F)(F)(F)(F)F)cc2c1O[C@@H](C(F)(F)F)C(C(=O)OCCOCCOCCOC(=O)c1ccc(-c3c4nc(c(-c5c(F)cccc5F)c5ccc([nH]5)c(-c5c(F)cccc5F)c5nc(c(-c6c(F)cccc6F)c6ccc3[nH]6)C=C5)C=C4)cc1)=C2
REMARK SMILES IDX 29 1 28 2 27 3 26 4 25 5 24 6 22 7 23 8 21 9 3 10 4 11 14 12
REMARK SMILES IDX 5 13 13 14 15 15 12 16 90 17 16 18 2 19 1 20 6 21 7 22 8 23
REMARK SMILES IDX 9 24 10 25 11 26 17 27 18 28 19 29 20 30 30 31 31 32 32 33
REMARK SMILES IDX 33 34 34 35 35 36 36 37 37 38 89 39 38 40 88 41 39 42 40 43
REMARK SMILES IDX 41 44 82 45 42 46 87 47 81 48 83 49 43 50 86 51 80 52 79 53
REMARK SMILES IDX 44 55 70 56 53 57 69 58 54 59 57 60 68 61 84 62 55 63 56 64
REMARK SMILES IDX 67 66 85 67 58 68 45 69 46 70 51 71 47 72 48 73 50 74 52 75
REMARK SMILES IDX 49 76 71 77 72 78 77 79 73 80 74 81 76 82 78 83 75 84 59 85
REMARK SMILES IDX 60 86 65 87 61 88 62 89 64 90 66 91 63 92
REMARK H PARENT 83 54 57 65
REMARK Flexibility Score: inf
ROOT
ATOM      1  C   UNL A   1      41.520  19.681  26.277  1.00  0.00     0.188 C 
ENDROOT
BRANCH   1   2
ATOM      2  C   UNL A   1      40.604  20.886  26.420  1.00  0.00     0.188 C 
BRANCH   2   3
ATOM      3  O   UNL A   1      39.386  20.639  25.733  1.00  0.00    -0.376 OA
BRANCH   3   4
ATOM      4  C   UNL A   1      38.586  21.812  25.754  1.00  0.00     0.202 C 
BRANCH   4   5
ATOM      5  C   UNL A   1      37.307  21.567  24.968  1.00  0.00     0.261 C 
BRANCH   5   6
ATOM      6  O   UNL A   1      36.445  22.686  25.108  1.00  0.00    -0.460 OA
BRANCH   6   7
ATOM      7  C   UNL A   1      35.239  22.567  25.849  1.00  0.00     0.338 C 
ATOM      8  O   UNL A   1      35.119  21.654  26.724  1.00  0.00    -0.246 OA
BRANCH   7   9
ATOM      9  C   UNL A   1      34.092  23.531  25.594  1.00  0.00     0.087 C 
ATOM     10  C   UNL A   1      31.068  26.154  24.401  1.00  0.00    -0.004 A 
ATOM     11  C   UNL A   1      31.116  27.482  24.783  1.00  0.00     0.032 A 
ATOM     12  C   UNL A   1      32.102  25.325  24.761  1.00  0.00     0.131 A 
ATOM     13  C   UNL A   1      32.174  27.970  25.504  1.00  0.00     0.108 A 
ATOM     14  C   UNL A   1      33.177  25.778  25.505  1.00  0.00     0.019 A 
ATOM     15  O   UNL A   1      32.096  24.039  24.280  1.00  0.00    -0.475 OA
ATOM     16  C   UNL A   1      33.197  27.119  25.869  1.00  0.00     0.036 A 
ATOM     17  C   UNL A   1      34.240  24.833  25.804  1.00  0.00     0.027 C 
ATOM     18  C   UNL A   1      32.746  23.023  25.094  1.00  0.00     0.316 C 
BRANCH  10  19
ATOM     19  C   UNL A   1      29.870  25.653  23.611  1.00  0.00     0.036 C 
ATOM     20  C   UNL A   1      28.672  26.549  23.883  1.00  0.00     0.009 C 
ENDBRANCH  10  19
BRANCH  13  21
ATOM     21  S   UNL A   1      32.230  29.717  25.973  1.00  0.00     0.310 S 
ATOM     22  F   UNL A   1      30.912  30.029  25.149  1.00  0.00    -0.094 F 
ATOM     23  F   UNL A   1      33.040  29.976  24.646  1.00  0.00    -0.094 F 
ATOM     24  F   UNL A   1      32.287  31.228  26.337  1.00  0.00    -0.094 F 
ATOM     25  F   UNL A   1      31.300  29.459  27.223  1.00  0.00    -0.094 F 
ATOM     26  F   UNL A   1      32.068  28.200  25.559  1.00  0.00    -0.094 F 
ENDBRANCH  13  21
BRANCH  18  27
ATOM     27  C   UNL A   1      32.968  21.778  24.250  1.00  0.00     0.430 C 
ATOM     28  F   UNL A   1      32.839  20.696  25.012  1.00  0.00    -0.167 F 
ATOM     29  F   UNL A   1      32.068  21.741  23.270  1.00  0.00    -0.167 F 
ATOM     30  F   UNL A   1      34.191  21.809  23.727  1.00  0.00    -0.167 F 
ENDBRANCH  18  27
ENDBRANCH   7   9
ENDBRANCH   6   7
ENDBRANCH   5   6
ENDBRANCH   4   5
ENDBRANCH   3   4
ENDBRANCH   2   3
ENDBRANCH   1   2
BRANCH   1  31
ATOM     31  O   UNL A   1      42.837  20.121  25.980  1.00  0.00    -0.376 OA
BRANCH  31  32
ATOM     32  C   UNL A   1      42.917  21.528  26.158  1.00  0.00     0.202 C 
BRANCH  32  33
ATOM     33  C   UNL A   1      43.699  22.140  25.007  1.00  0.00     0.261 C 
BRANCH  33  34
ATOM     34  O   UNL A   1      43.216  23.449  24.750  1.00  0.00    -0.460 OA
BRANCH  34  35
ATOM     35  C   UNL A   1      43.947  24.578  25.208  1.00  0.00     0.338 C 
ATOM     36  O   UNL A   1      45.025  24.915  24.627  1.00  0.00    -0.246 OA
BRANCH  35  37
ATOM     37  C   UNL A   1      43.439  25.382  26.394  1.00  0.00     0.060 A 
ATOM     38  C   UNL A   1      42.503  24.819  27.246  1.00  0.00     0.016 A 
ATOM     39  C   UNL A   1      43.898  26.612  26.592  1.00  0.00     0.016 A 
ATOM     40  C   UNL A   1      41.894  25.747  28.123  1.00  0.00     0.010 A 
ATOM     41  C   UNL A   1      43.346  27.417  27.559  1.00  0.00     0.010 A 
ATOM     42  C   UNL A   1      42.377  26.945  28.398  1.00  0.00    -0.014 A 
BRANCH  42  43
ATOM     43  C   UNL A   1      41.880  27.755  29.584  1.00  0.00     0.031 A 
ATOM     44  C   UNL A   1      42.539  27.640  30.809  1.00  0.00     0.074 A 
ATOM     45  C   UNL A   1      40.775  28.564  29.373  1.00  0.00     0.049 A 
ATOM     46  N   UNL A   1      42.264  28.284  31.945  1.00  0.00    -0.248 NA
ATOM     47  C   UNL A   1      43.690  26.757  31.046  1.00  0.00     0.031 C 
ATOM     48  C   UNL A   1      40.110  28.692  28.138  1.00  0.00     0.029 A 
ATOM     49  N   UNL A   1      40.132  29.371  30.285  1.00  0.00    -0.354 N 
ATOM     50  C   UNL A   1      43.127  27.925  32.898  1.00  0.00     0.074 A 
ATOM     51  C   UNL A   1      44.053  26.933  32.335  1.00  0.00     0.031 C 
ATOM     52  C   UNL A   1      39.073  29.554  28.305  1.00  0.00     0.029 A 
ATOM     53  C   UNL A   1      39.073  29.980  29.648  1.00  0.00     0.049 A 
ATOM     54  H   UNL A   1      40.384  29.490  31.229  1.00  0.00     0.167 HD
ATOM     55  C   UNL A   1      43.179  28.388  34.214  1.00  0.00     0.037 A 
ATOM     56  C   UNL A   1      38.148  30.859  30.190  1.00  0.00     0.037 A 
ATOM     57  C   UNL A   1      42.280  29.300  34.743  1.00  0.00     0.049 A 
ATOM     58  C   UNL A   1      38.166  31.277  31.522  1.00  0.00     0.074 A 
ATOM     59  C   UNL A   1      42.324  29.782  36.065  1.00  0.00     0.029 A 
ATOM     60  N   UNL A   1      41.207  29.890  34.114  1.00  0.00    -0.354 N 
ATOM     61  N   UNL A   1      39.051  30.949  32.463  1.00  0.00    -0.248 NA
ATOM     62  C   UNL A   1      37.172  32.182  32.116  1.00  0.00     0.031 C 
ATOM     63  C   UNL A   1      41.286  30.645  36.234  1.00  0.00     0.029 A 
ATOM     64  C   UNL A   1      40.578  30.715  35.019  1.00  0.00     0.049 A 
ATOM     65  H   UNL A   1      40.938  29.748  33.178  1.00  0.00     0.167 HD
ATOM     66  C   UNL A   1      38.751  31.561  33.611  1.00  0.00     0.074 A 
ATOM     67  C   UNL A   1      37.534  32.357  33.406  1.00  0.00     0.031 C 
ATOM     68  C   UNL A   1      39.446  31.490  34.820  1.00  0.00     0.037 A 
BRANCH  55  69
ATOM     69  C   UNL A   1      44.284  27.862  35.116  1.00  0.00     0.057 A 
ATOM     70  C   UNL A   1      44.088  26.692  35.831  1.00  0.00     0.134 A 
ATOM     71  C   UNL A   1      45.436  28.520  35.175  1.00  0.00     0.134 A 
ATOM     72  F   UNL A   1      43.064  25.872  35.612  1.00  0.00    -0.206 F 
ATOM     73  C   UNL A   1      45.075  26.449  36.814  1.00  0.00     0.040 A 
ATOM     74  C   UNL A   1      46.412  28.145  36.067  1.00  0.00     0.040 A 
ATOM     75  F   UNL A   1      45.647  29.553  34.364  1.00  0.00    -0.206 F 
ATOM     76  C   UNL A   1      46.259  27.032  36.848  1.00  0.00     0.006 A 
ENDBRANCH  55  69
BRANCH  56  77
ATOM     77  C   UNL A   1      37.054  31.397  29.283  1.00  0.00     0.057 A 
ATOM     78  C   UNL A   1      37.168  32.672  28.753  1.00  0.00     0.134 A 
ATOM     79  C   UNL A   1      35.988  30.643  29.041  1.00  0.00     0.134 A 
ATOM     80  F   UNL A   1      38.307  33.358  28.755  1.00  0.00    -0.206 F 
ATOM     81  C   UNL A   1      35.963  33.177  28.211  1.00  0.00     0.040 A 
ATOM     82  C   UNL A   1      34.898  31.163  28.384  1.00  0.00     0.040 A 
ATOM     83  F   UNL A   1      35.975  29.374  29.435  1.00  0.00    -0.206 F 
ATOM     84  C   UNL A   1      34.919  32.437  27.887  1.00  0.00     0.006 A 
ENDBRANCH  56  77
BRANCH  68  85
ATOM     85  C   UNL A   1      38.930  32.315  35.988  1.00  0.00     0.057 A 
ATOM     86  C   UNL A   1      39.278  33.651  36.089  1.00  0.00     0.134 A 
ATOM     87  C   UNL A   1      38.151  31.735  36.894  1.00  0.00     0.134 A 
ATOM     88  F   UNL A   1      39.835  34.334  35.093  1.00  0.00    -0.206 F 
ATOM     89  C   UNL A   1      38.986  34.227  37.349  1.00  0.00     0.040 A 
ATOM     90  C   UNL A   1      37.794  32.404  38.040  1.00  0.00     0.040 A 
ATOM     91  F   UNL A   1      37.713  30.496  36.690  1.00  0.00    -0.206 F 
ATOM     92  C   UNL A   1      38.153  33.709  38.233  1.00  0.00     0.006 A 
ENDBRANCH  68  85
ENDBRANCH  42  43
ENDBRANCH  35  37
ENDBRANCH  34  35
ENDBRANCH  33  34
ENDBRANCH  32  33
ENDBRANCH  31  32
ENDBRANCH   1  31
TORSDOF 20
ENDMDL
MODEL 3
REMARK VINA RESULT:     -11.4      2.098      4.171
REMARK SMILES CCc1cc(S(F)(F)(F)(F)F)cc2c1O[C@@H](C(F)(F)F)C(C(=O)OCCOCCOCCOC(=O)c1ccc(-c3c4nc(c(-c5c(F)cccc5F)c5ccc([nH]5)c(-c5c(F)cccc5F)c5nc(c(-c6c(F)cccc6F)c6ccc3[nH]6)C=C5)C=C4)cc1)=C2
REMARK SMILES IDX 29 1 28 2 27 3 26 4 25 5 24 6 22 7 23 8 21 9 3 10 4 11 14 12
REMARK SMILES IDX 5 13 13 14 15 15 12 16 90 17 16 18 2 19 1 20 6 21 7 22 8 23
REMARK SMILES IDX 9 24 10 25 11 26 17 27 18 28 19 29 20 30 30 31 31 32 32 33
REMARK SMILES IDX 33 34 34 35 35 36 36 37 37 38 89 39 38 40 88 41 39 42 40 43
REMARK SMILES IDX 41 44 82 45 42 46 87 47 81 48 83 49 43 50 86 51 80 52 79 53
REMARK SMILES IDX 44 55 70 56 53 57 69 58 54 59 57 60 68 61 84 62 55 63 56 64
REMARK SMILES IDX 67 66 85 67 58 68 45 69 46 70 51 71 47 72 48 73 50 74 52 75
REMARK SMILES IDX 49 76 71 77 72 78 77 79 73 80 74 81 76 82 78 83 75 84 59 85
REMARK SMILES IDX 60 86 65 87 61 88 62 89 64 90 66 91 63 92
REMARK H PARENT 83 54 57 65
REMARK Flexibility Score: inf
ROOT
ATOM      1  C   UNL A   1      41.085  21.510  27.476  1.00  0.00     0.188 C 
ENDROOT
BRANCH   1   2
ATOM      2  C   UNL A   1      40.407  21.818  26.151  1.00  0.00     0.188 C 
BRANCH   2   3
ATOM      3  O   UNL A   1      39.158  21.145  26.092  1.00  0.00    -0.376 OA
BRANCH   3   4
ATOM      4  C   UNL A   1      38.149  22.057  25.681  1.00  0.00     0.202 C 
BRANCH   4   5
ATOM      5  C   UNL A   1      37.097  21.317  24.870  1.00  0.00     0.261 C 
BRANCH   5   6
ATOM      6  O   UNL A   1      36.003  22.184  24.613  1.00  0.00    -0.460 OA
BRANCH   6   7
ATOM      7  C   UNL A   1      34.886  22.201  25.490  1.00  0.00     0.338 C 
ATOM      8  O   UNL A   1      34.797  21.338  26.420  1.00  0.00    -0.246 OA
BRANCH   7   9
ATOM      9  C   UNL A   1      33.799  23.248  25.318  1.00  0.00     0.087 C 
ATOM     10  C   UNL A   1      30.993  26.195  24.374  1.00  0.00    -0.004 A 
ATOM     11  C   UNL A   1      31.032  27.418  25.020  1.00  0.00     0.032 A 
ATOM     12  C   UNL A   1      31.960  25.263  24.664  1.00  0.00     0.131 A 
ATOM     13  C   UNL A   1      32.015  27.702  25.930  1.00  0.00     0.108 A 
ATOM     14  C   UNL A   1      32.957  25.509  25.591  1.00  0.00     0.019 A 
ATOM     15  O   UNL A   1      31.975  24.100  23.934  1.00  0.00    -0.475 OA
ATOM     16  C   UNL A   1      32.970  26.749  26.219  1.00  0.00     0.036 A 
ATOM     17  C   UNL A   1      33.956  24.475  25.801  1.00  0.00     0.027 C 
ATOM     18  C   UNL A   1      32.504  22.913  24.589  1.00  0.00     0.316 C 
BRANCH  10  19
ATOM     19  C   UNL A   1      29.878  25.917  23.379  1.00  0.00     0.036 C 
ATOM     20  C   UNL A   1      28.552  26.385  23.959  1.00  0.00     0.009 C 
ENDBRANCH  10  19
BRANCH  13  21
ATOM     21  S   UNL A   1      32.063  29.317  26.746  1.00  0.00     0.310 S 
ATOM     22  F   UNL A   1      33.349  28.910  27.579  1.00  0.00    -0.094 F 
ATOM     23  F   UNL A   1      31.198  28.683  27.900  1.00  0.00    -0.094 F 
ATOM     24  F   UNL A   1      32.094  30.686  27.483  1.00  0.00    -0.094 F 
ATOM     25  F   UNL A   1      33.044  29.893  25.650  1.00  0.00    -0.094 F 
ATOM     26  F   UNL A   1      32.134  27.903  26.043  1.00  0.00    -0.094 F 
ENDBRANCH  13  21
BRANCH  18  27
ATOM     27  C   UNL A   1      32.787  21.852  23.539  1.00  0.00     0.430 C 
ATOM     28  F   UNL A   1      33.131  20.715  24.137  1.00  0.00    -0.167 F 
ATOM     29  F   UNL A   1      31.696  21.654  22.803  1.00  0.00    -0.167 F 
ATOM     30  F   UNL A   1      33.782  22.259  22.754  1.00  0.00    -0.167 F 
ENDBRANCH  18  27
ENDBRANCH   7   9
ENDBRANCH   6   7
ENDBRANCH   5   6
ENDBRANCH   4   5
ENDBRANCH   3   4
ENDBRANCH   2   3
ENDBRANCH   1   2
BRANCH   1  31
ATOM     31  O   UNL A   1      42.468  21.276  27.257  1.00  0.00    -0.376 OA
BRANCH  31  32
ATOM     32  C   UNL A   1      42.711  21.147  25.864  1.00  0.00     0.202 C 
BRANCH  32  33
ATOM     33  C   UNL A   1      43.863  22.053  25.464  1.00  0.00     0.261 C 
BRANCH  33  34
ATOM     34  O   UNL A   1      43.352  23.297  25.012  1.00  0.00    -0.460 OA
BRANCH  34  35
ATOM     35  C   UNL A   1      44.009  24.506  25.367  1.00  0.00     0.338 C 
ATOM     36  O   UNL A   1      45.046  24.876  24.732  1.00  0.00    -0.246 OA
BRANCH  35  37
ATOM     37  C   UNL A   1      43.472  25.356  26.507  1.00  0.00     0.060 A 
ATOM     38  C   UNL A   1      42.535  24.817  27.373  1.00  0.00     0.016 A 
ATOM     39  C   UNL A   1      43.908  26.602  26.652  1.00  0.00     0.016 A 
ATOM     40  C   UNL A   1      41.899  25.775  28.197  1.00  0.00     0.010 A 
ATOM     41  C   UNL A   1      43.330  27.442  27.572  1.00  0.00     0.010 A 
ATOM     42  C   UNL A   1      42.357  26.993  28.421  1.00  0.00    -0.014 A 
BRANCH  42  43
ATOM     43  C   UNL A   1      41.832  27.849  29.561  1.00  0.00     0.031 A 
ATOM     44  C   UNL A   1      40.741  28.689  29.333  1.00  0.00     0.074 A 
ATOM     45  C   UNL A   1      42.490  27.748  30.776  1.00  0.00     0.049 A 
ATOM     46  N   UNL A   1      40.132  29.489  30.209  1.00  0.00    -0.248 NA
ATOM     47  C   UNL A   1      40.063  28.824  28.035  1.00  0.00     0.031 C 
ATOM     48  C   UNL A   1      43.585  26.897  31.018  1.00  0.00     0.029 A 
ATOM     49  N   UNL A   1      42.219  28.428  31.943  1.00  0.00    -0.354 N 
ATOM     50  C   UNL A   1      39.114  30.124  29.624  1.00  0.00     0.074 A 
ATOM     51  C   UNL A   1      39.059  29.710  28.216  1.00  0.00     0.031 C 
ATOM     52  C   UNL A   1      43.977  27.069  32.307  1.00  0.00     0.029 A 
ATOM     53  C   UNL A   1      43.133  28.031  32.894  1.00  0.00     0.049 A 
ATOM     54  H   UNL A   1      41.497  29.085  32.074  1.00  0.00     0.167 HD
ATOM     55  C   UNL A   1      38.229  31.030  30.210  1.00  0.00     0.037 A 
ATOM     56  C   UNL A   1      43.241  28.473  34.204  1.00  0.00     0.037 A 
ATOM     57  C   UNL A   1      38.311  31.438  31.532  1.00  0.00     0.049 A 
ATOM     58  C   UNL A   1      42.390  29.423  34.774  1.00  0.00     0.074 A 
ATOM     59  C   UNL A   1      37.421  32.345  32.140  1.00  0.00     0.029 A 
ATOM     60  N   UNL A   1      39.239  31.060  32.476  1.00  0.00    -0.354 N 
ATOM     61  N   UNL A   1      41.349  30.026  34.200  1.00  0.00    -0.248 NA
ATOM     62  C   UNL A   1      42.516  29.921  36.150  1.00  0.00     0.031 C 
ATOM     63  C   UNL A   1      37.813  32.518  33.431  1.00  0.00     0.029 A 
ATOM     64  C   UNL A   1      38.954  31.723  33.649  1.00  0.00     0.049 A 
ATOM     65  H   UNL A   1      39.978  30.425  32.336  1.00  0.00     0.167 HD
ATOM     66  C   UNL A   1      40.766  30.859  35.066  1.00  0.00     0.074 A 
ATOM     67  C   UNL A   1      41.512  30.808  36.330  1.00  0.00     0.031 C 
ATOM     68  C   UNL A   1      39.639  31.655  34.853  1.00  0.00     0.037 A 
BRANCH  55  69
ATOM     69  C   UNL A   1      37.112  31.600  29.350  1.00  0.00     0.057 A 
ATOM     70  C   UNL A   1      37.257  32.855  28.782  1.00  0.00     0.134 A 
ATOM     71  C   UNL A   1      36.028  30.867  29.132  1.00  0.00     0.134 A 
ATOM     72  F   UNL A   1      38.413  33.513  28.760  1.00  0.00    -0.206 F 
ATOM     73  C   UNL A   1      36.065  33.373  28.225  1.00  0.00     0.040 A 
ATOM     74  C   UNL A   1      34.949  31.393  28.462  1.00  0.00     0.040 A 
ATOM     75  F   UNL A   1      35.984  29.610  29.567  1.00  0.00    -0.206 F 
ATOM     76  C   UNL A   1      35.001  32.649  27.925  1.00  0.00     0.006 A 
ENDBRANCH  55  69
BRANCH  56  77
ATOM     77  C   UNL A   1      44.347  27.889  35.067  1.00  0.00     0.057 A 
ATOM     78  C   UNL A   1      44.111  26.735  35.796  1.00  0.00     0.134 A 
ATOM     79  C   UNL A   1      45.514  28.519  35.134  1.00  0.00     0.134 A 
ATOM     80  F   UNL A   1      43.069  25.938  35.574  1.00  0.00    -0.206 F 
ATOM     81  C   UNL A   1      45.078  26.480  36.797  1.00  0.00     0.040 A 
ATOM     82  C   UNL A   1      46.467  28.130  36.044  1.00  0.00     0.040 A 
ATOM     83  F   UNL A   1      45.763  29.534  34.312  1.00  0.00    -0.206 F 
ATOM     84  C   UNL A   1      46.276  27.034  36.838  1.00  0.00     0.006 A 
ENDBRANCH  56  77
BRANCH  68  85
ATOM     85  C   UNL A   1      39.132  32.498  36.012  1.00  0.00     0.057 A 
ATOM     86  C   UNL A   1      39.547  33.813  36.136  1.00  0.00     0.134 A 
ATOM     87  C   UNL A   1      38.295  31.954  36.888  1.00  0.00     0.134 A 
ATOM     88  F   UNL A   1      40.171  34.471  35.163  1.00  0.00    -0.206 F 
ATOM     89  C   UNL A   1      39.247  34.393  37.391  1.00  0.00     0.040 A 
ATOM     90  C   UNL A   1      37.938  32.633  38.028  1.00  0.00     0.040 A 
ATOM     91  F   UNL A   1      37.798  30.741  36.659  1.00  0.00    -0.206 F 
ATOM     92  C   UNL A   1      38.359  33.915  38.244  1.00  0.00     0.006 A 
ENDBRANCH  68  85
ENDBRANCH  42  43
ENDBRANCH  35  37
ENDBRANCH  34  35
ENDBRANCH  33  34
ENDBRANCH  32  33
ENDBRANCH  31  32
ENDBRANCH   1  31
TORSDOF 20
ENDMDL
