MODEL 1
REMARK VINA RESULT:     -12.5      0.000      0.000
REMARK SMILES COc1c[nH]c(C[N@H+]2CCC[C@@H](c3ccc(C(=O)OCCOCCOCCOC(=O)c4ccc(-c5c6nc(c(-c7c(F)cccc7F)c7ccc([nH]7)c(-c7c(F)cccc7F)c7nc(c(-c8c(F)cccc8F)c8ccc5[nH]8)C=C7)C=C6)cc4)cc3)C2)cc1=O
REMARK SMILES IDX 23 1 22 2 21 3 20 4 19 5 17 6 18 7 16 8 13 9 14 10 86 11
REMARK SMILES IDX 15 12 85 13 12 14 8 15 9 16 87 17 10 19 11 20 7 21 6 22 3 23
REMARK SMILES IDX 4 24 89 25 5 26 88 27 90 28 2 30 1 31 24 32 25 33 26 34
REMARK SMILES IDX 27 35 28 36 29 37 30 38 31 39 32 40 84 41 33 42 83 43 34 44
REMARK SMILES IDX 35 45 36 46 77 47 37 48 82 49 76 50 78 51 38 52 81 53 75 54
REMARK SMILES IDX 74 55 39 57 65 58 48 59 64 60 49 61 52 62 63 63 79 64 50 65
REMARK SMILES IDX 51 66 62 68 80 69 53 70 40 71 41 72 46 73 42 74 43 75 45 76
REMARK SMILES IDX 47 77 44 78 66 79 67 80 72 81 68 82 69 83 71 84 73 85 70 86
REMARK SMILES IDX 54 87 55 88 60 89 56 90 57 91 59 92 61 93 58 94
REMARK H PARENT 8 18 5 29 78 56 52 67
REMARK Flexibility Score: inf
ROOT
ATOM      1  C   UNL A   1      44.725  19.379  24.454  1.00  0.00     0.188 C 
ENDROOT
BRANCH   1   2
ATOM      2  O   UNL A   1      43.480  19.813  24.978  1.00  0.00    -0.376 OA
BRANCH   2   3
ATOM      3  C   UNL A   1      42.786  18.999  25.915  1.00  0.00     0.202 C 
BRANCH   3   4
ATOM      4  C   UNL A   1      41.716  19.618  26.823  1.00  0.00     0.261 C 
BRANCH   4   5
ATOM      5  O   UNL A   1      40.670  20.289  26.105  1.00  0.00    -0.460 OA
BRANCH   5   6
ATOM      6  C   UNL A   1      40.053  21.281  26.790  1.00  0.00     0.338 C 
ATOM      7  O   UNL A   1      40.442  21.826  27.810  1.00  0.00    -0.246 OA
BRANCH   6   8
ATOM      8  C   UNL A   1      38.899  21.788  26.022  1.00  0.00     0.060 A 
ATOM      9  C   UNL A   1      36.581  22.806  24.822  1.00  0.00    -0.039 A 
ATOM     10  C   UNL A   1      37.387  23.628  25.628  1.00  0.00     0.005 A 
ATOM     11  C   UNL A   1      37.018  21.501  24.536  1.00  0.00     0.005 A 
ATOM     12  C   UNL A   1      38.519  23.113  26.249  1.00  0.00     0.016 A 
ATOM     13  C   UNL A   1      38.183  20.993  25.125  1.00  0.00     0.016 A 
BRANCH   9  14
ATOM     14  C   UNL A   1      35.165  23.241  24.450  1.00  0.00     0.074 C 
ATOM     15  N   UNL A   1      32.781  22.399  24.719  1.00  0.00    -0.329 N 
ATOM     16  C   UNL A   1      32.391  23.681  25.320  1.00  0.00     0.262 C 
ATOM     17  C   UNL A   1      34.205  22.124  24.923  1.00  0.00     0.270 C 
ATOM     18  H   UNL A   1      32.630  22.484  23.713  1.00  0.00     0.348 HD
ATOM     19  C   UNL A   1      33.253  24.834  24.793  1.00  0.00     0.062 C 
ATOM     20  C   UNL A   1      34.743  24.590  25.048  1.00  0.00     0.020 C 
BRANCH  15  21
ATOM     21  C   UNL A   1      31.927  21.277  25.173  1.00  0.00     0.317 C 
BRANCH  21  22
ATOM     22  C   UNL A   1      32.401  19.860  24.850  1.00  0.00     0.074 A 
ATOM     23  C   UNL A   1      33.117  17.111  24.501  1.00  0.00     0.182 A 
ATOM     24  C   UNL A   1      33.104  17.713  25.698  1.00  0.00     0.133 A 
ATOM     25  C   UNL A   1      32.809  17.986  23.315  1.00  0.00     0.223 A 
ATOM     26  N   UNL A   1      32.833  19.041  25.880  1.00  0.00    -0.357 N 
ATOM     27  C   UNL A   1      32.406  19.399  23.585  1.00  0.00     0.083 A 
ATOM     28  O   UNL A   1      32.857  17.586  22.156  1.00  0.00    -0.286 OA
ATOM     29  H   UNL A   1      32.948  19.430  26.777  1.00  0.00     0.166 HD
BRANCH  23  30
ATOM     30  O   UNL A   1      33.326  15.749  24.400  1.00  0.00    -0.491 OA
ATOM     31  C   UNL A   1      32.692  15.015  25.442  1.00  0.00     0.278 C 
ENDBRANCH  23  30
ENDBRANCH  21  22
ENDBRANCH  15  21
ENDBRANCH   9  14
ENDBRANCH   6   8
ENDBRANCH   5   6
ENDBRANCH   4   5
ENDBRANCH   3   4
ENDBRANCH   2   3
ENDBRANCH   1   2
BRANCH   1  32
ATOM     32  C   UNL A   1      45.981  20.269  24.578  1.00  0.00     0.188 C 
BRANCH  32  33
ATOM     33  O   UNL A   1      46.033  21.160  25.664  1.00  0.00    -0.376 OA
BRANCH  33  34
ATOM     34  C   UNL A   1      46.321  22.535  25.481  1.00  0.00     0.202 C 
BRANCH  34  35
ATOM     35  C   UNL A   1      45.809  23.438  24.343  1.00  0.00     0.261 C 
BRANCH  35  36
ATOM     36  O   UNL A   1      44.874  24.465  24.660  1.00  0.00    -0.460 OA
BRANCH  36  37
ATOM     37  C   UNL A   1      43.595  24.052  24.838  1.00  0.00     0.338 C 
ATOM     38  O   UNL A   1      43.079  23.030  24.427  1.00  0.00    -0.246 OA
BRANCH  37  39
ATOM     39  C   UNL A   1      42.931  24.981  25.770  1.00  0.00     0.060 A 
ATOM     40  C   UNL A   1      43.372  26.308  25.817  1.00  0.00     0.016 A 
ATOM     41  C   UNL A   1      41.917  24.532  26.618  1.00  0.00     0.016 A 
ATOM     42  C   UNL A   1      42.816  27.191  26.742  1.00  0.00     0.010 A 
ATOM     43  C   UNL A   1      41.373  25.414  27.556  1.00  0.00     0.010 A 
ATOM     44  C   UNL A   1      41.842  26.737  27.642  1.00  0.00    -0.014 A 
BRANCH  44  45
ATOM     45  C   UNL A   1      41.437  27.595  28.780  1.00  0.00     0.031 A 
ATOM     46  C   UNL A   1      42.214  27.504  30.063  1.00  0.00     0.074 A 
ATOM     47  C   UNL A   1      40.406  28.451  28.673  1.00  0.00     0.049 A 
ATOM     48  N   UNL A   1      42.022  28.126  31.197  1.00  0.00    -0.248 NA
ATOM     49  C   UNL A   1      43.364  26.585  30.066  1.00  0.00     0.031 C 
ATOM     50  C   UNL A   1      39.596  28.657  27.474  1.00  0.00     0.029 A 
ATOM     51  N   UNL A   1      39.861  29.303  29.600  1.00  0.00    -0.354 N 
ATOM     52  C   UNL A   1      43.022  27.674  32.049  1.00  0.00     0.074 A 
ATOM     53  C   UNL A   1      43.802  26.704  31.311  1.00  0.00     0.031 C 
ATOM     54  C   UNL A   1      38.647  29.570  27.743  1.00  0.00     0.029 A 
ATOM     55  C   UNL A   1      38.765  29.989  29.138  1.00  0.00     0.049 A 
ATOM     56  H   UNL A   1      40.221  29.412  30.510  1.00  0.00     0.167 HD
ATOM     57  C   UNL A   1      43.275  28.041  33.327  1.00  0.00     0.037 A 
ATOM     58  C   UNL A   1      37.942  30.842  29.779  1.00  0.00     0.037 A 
ATOM     59  C   UNL A   1      42.495  28.999  34.065  1.00  0.00     0.049 A 
ATOM     60  C   UNL A   1      38.199  31.177  31.226  1.00  0.00     0.074 A 
ATOM     61  C   UNL A   1      42.681  29.447  35.361  1.00  0.00     0.029 A 
ATOM     62  N   UNL A   1      41.375  29.651  33.572  1.00  0.00    -0.354 N 
ATOM     63  N   UNL A   1      39.162  30.765  32.013  1.00  0.00    -0.248 NA
ATOM     64  C   UNL A   1      37.250  32.097  31.871  1.00  0.00     0.031 C 
ATOM     65  C   UNL A   1      41.645  30.334  35.670  1.00  0.00     0.029 A 
ATOM     66  C   UNL A   1      40.844  30.478  34.548  1.00  0.00     0.049 A 
ATOM     67  H   UNL A   1      41.012  29.542  32.664  1.00  0.00     0.167 HD
ATOM     68  C   UNL A   1      38.956  31.400  33.233  1.00  0.00     0.074 A 
ATOM     69  C   UNL A   1      37.779  32.229  33.079  1.00  0.00     0.031 C 
ATOM     70  C   UNL A   1      39.676  31.305  34.378  1.00  0.00     0.037 A 
BRANCH  57  71
ATOM     71  C   UNL A   1      44.431  27.378  34.015  1.00  0.00     0.057 A 
ATOM     72  C   UNL A   1      44.279  26.185  34.733  1.00  0.00     0.134 A 
ATOM     73  C   UNL A   1      45.717  27.927  33.937  1.00  0.00     0.134 A 
ATOM     74  F   UNL A   1      43.070  25.617  34.860  1.00  0.00    -0.206 F 
ATOM     75  C   UNL A   1      45.361  25.575  35.369  1.00  0.00     0.040 A 
ATOM     76  C   UNL A   1      46.811  27.313  34.547  1.00  0.00     0.040 A 
ATOM     77  F   UNL A   1      45.931  29.067  33.263  1.00  0.00    -0.206 F 
ATOM     78  C   UNL A   1      46.633  26.135  35.271  1.00  0.00     0.006 A 
ENDBRANCH  57  71
BRANCH  58  79
ATOM     79  C   UNL A   1      36.784  31.435  29.065  1.00  0.00     0.057 A 
ATOM     80  C   UNL A   1      35.649  30.673  28.764  1.00  0.00     0.134 A 
ATOM     81  C   UNL A   1      36.797  32.768  28.639  1.00  0.00     0.134 A 
ATOM     82  F   UNL A   1      35.590  29.382  29.118  1.00  0.00    -0.206 F 
ATOM     83  C   UNL A   1      34.576  31.211  28.051  1.00  0.00     0.040 A 
ATOM     84  C   UNL A   1      35.721  33.326  27.946  1.00  0.00     0.040 A 
ATOM     85  F   UNL A   1      37.856  33.551  28.894  1.00  0.00    -0.206 F 
ATOM     86  C   UNL A   1      34.609  32.543  27.643  1.00  0.00     0.006 A 
ENDBRANCH  58  79
BRANCH  70  87
ATOM     87  C   UNL A   1      39.240  32.148  35.541  1.00  0.00     0.057 A 
ATOM     88  C   UNL A   1      38.491  31.621  36.600  1.00  0.00     0.134 A 
ATOM     89  C   UNL A   1      39.613  33.496  35.622  1.00  0.00     0.134 A 
ATOM     90  F   UNL A   1      38.093  30.340  36.579  1.00  0.00    -0.206 F 
ATOM     91  C   UNL A   1      38.110  32.410  37.687  1.00  0.00     0.040 A 
ATOM     92  C   UNL A   1      39.260  34.287  36.716  1.00  0.00     0.040 A 
ATOM     93  F   UNL A   1      40.340  34.062  34.647  1.00  0.00    -0.206 F 
ATOM     94  C   UNL A   1      38.501  33.746  37.750  1.00  0.00     0.006 A 
ENDBRANCH  70  87
ENDBRANCH  44  45
ENDBRANCH  37  39
ENDBRANCH  36  37
ENDBRANCH  35  36
ENDBRANCH  34  35
ENDBRANCH  33  34
ENDBRANCH  32  33
ENDBRANCH   1  32
TORSDOF 21
ENDMDL
MODEL 2
REMARK VINA RESULT:     -12.0      0.814      5.860
REMARK SMILES COc1c[nH]c(C[N@H+]2CCC[C@@H](c3ccc(C(=O)OCCOCCOCCOC(=O)c4ccc(-c5c6nc(c(-c7c(F)cccc7F)c7ccc([nH]7)c(-c7c(F)cccc7F)c7nc(c(-c8c(F)cccc8F)c8ccc5[nH]8)C=C7)C=C6)cc4)cc3)C2)cc1=O
REMARK SMILES IDX 23 1 22 2 21 3 20 4 19 5 17 6 18 7 16 8 13 9 14 10 86 11
REMARK SMILES IDX 15 12 85 13 12 14 8 15 9 16 87 17 10 19 11 20 7 21 6 22 3 23
REMARK SMILES IDX 4 24 89 25 5 26 88 27 90 28 2 30 1 31 24 32 25 33 26 34
REMARK SMILES IDX 27 35 28 36 29 37 30 38 31 39 32 40 84 41 33 42 83 43 34 44
REMARK SMILES IDX 35 45 36 46 77 47 37 48 82 49 76 50 78 51 38 52 81 53 75 54
REMARK SMILES IDX 74 55 39 57 65 58 48 59 64 60 49 61 52 62 63 63 79 64 50 65
REMARK SMILES IDX 51 66 62 68 80 69 53 70 40 71 41 72 46 73 42 74 43 75 45 76
REMARK SMILES IDX 47 77 44 78 66 79 67 80 72 81 68 82 69 83 71 84 73 85 70 86
REMARK SMILES IDX 54 87 55 88 60 89 56 90 57 91 59 92 61 93 58 94
REMARK H PARENT 8 18 5 29 78 56 52 67
REMARK Flexibility Score: inf
ROOT
ATOM      1  C   UNL A   1      45.036  19.175  24.111  1.00  0.00     0.188 C 
ENDROOT
BRANCH   1   2
ATOM      2  O   UNL A   1      43.681  19.376  24.482  1.00  0.00    -0.376 OA
BRANCH   2   3
ATOM      3  C   UNL A   1      43.189  18.817  25.694  1.00  0.00     0.202 C 
BRANCH   3   4
ATOM      4  C   UNL A   1      41.948  19.416  26.366  1.00  0.00     0.261 C 
BRANCH   4   5
ATOM      5  O   UNL A   1      41.487  20.626  25.748  1.00  0.00    -0.460 OA
BRANCH   5   6
ATOM      6  C   UNL A   1      41.082  21.588  26.610  1.00  0.00     0.338 C 
ATOM      7  O   UNL A   1      41.775  22.215  27.396  1.00  0.00    -0.246 OA
BRANCH   6   8
ATOM      8  C   UNL A   1      39.675  21.949  26.346  1.00  0.00     0.060 A 
ATOM      9  C   UNL A   1      37.056  22.568  25.564  1.00  0.00    -0.039 A 
ATOM     10  C   UNL A   1      37.555  21.262  25.417  1.00  0.00     0.005 A 
ATOM     11  C   UNL A   1      37.853  23.527  26.214  1.00  0.00     0.005 A 
ATOM     12  C   UNL A   1      38.865  20.964  25.776  1.00  0.00     0.016 A 
ATOM     13  C   UNL A   1      39.158  23.217  26.616  1.00  0.00     0.016 A 
BRANCH   9  14
ATOM     14  C   UNL A   1      35.779  22.991  24.842  1.00  0.00     0.074 C 
ATOM     15  N   UNL A   1      33.333  22.304  24.738  1.00  0.00    -0.329 N 
ATOM     16  C   UNL A   1      32.928  23.683  25.036  1.00  0.00     0.262 C 
ATOM     17  C   UNL A   1      34.664  22.010  25.274  1.00  0.00     0.270 C 
ATOM     18  H   UNL A   1      33.391  22.224  23.723  1.00  0.00     0.348 HD
ATOM     19  C   UNL A   1      33.961  24.695  24.526  1.00  0.00     0.062 C 
ATOM     20  C   UNL A   1      35.348  24.437  25.120  1.00  0.00     0.020 C 
BRANCH  15  21
ATOM     21  C   UNL A   1      32.325  21.311  25.175  1.00  0.00     0.317 C 
BRANCH  21  22
ATOM     22  C   UNL A   1      32.615  19.839  24.875  1.00  0.00     0.074 A 
ATOM     23  C   UNL A   1      32.958  17.016  24.558  1.00  0.00     0.182 A 
ATOM     24  C   UNL A   1      32.952  17.618  25.755  1.00  0.00     0.133 A 
ATOM     25  C   UNL A   1      32.854  17.922  23.359  1.00  0.00     0.223 A 
ATOM     26  N   UNL A   1      32.859  18.972  25.927  1.00  0.00    -0.357 N 
ATOM     27  C   UNL A   1      32.637  19.378  23.610  1.00  0.00     0.083 A 
ATOM     28  O   UNL A   1      32.922  17.515  22.204  1.00  0.00    -0.286 OA
ATOM     29  H   UNL A   1      32.970  19.344  26.831  1.00  0.00     0.166 HD
BRANCH  23  30
ATOM     30  O   UNL A   1      32.980  15.638  24.463  1.00  0.00    -0.491 OA
ATOM     31  C   UNL A   1      32.556  14.996  25.661  1.00  0.00     0.278 C 
ENDBRANCH  23  30
ENDBRANCH  21  22
ENDBRANCH  15  21
ENDBRANCH   9  14
ENDBRANCH   6   8
ENDBRANCH   5   6
ENDBRANCH   4   5
ENDBRANCH   3   4
ENDBRANCH   2   3
ENDBRANCH   1   2
BRANCH   1  32
ATOM     32  C   UNL A   1      46.177  19.801  24.943  1.00  0.00     0.188 C 
BRANCH  32  33
ATOM     33  O   UNL A   1      46.298  21.200  24.919  1.00  0.00    -0.376 OA
BRANCH  33  34
ATOM     34  C   UNL A   1      45.232  22.043  25.319  1.00  0.00     0.202 C 
BRANCH  34  35
ATOM     35  C   UNL A   1      44.294  22.842  24.393  1.00  0.00     0.261 C 
BRANCH  35  36
ATOM     36  O   UNL A   1      43.546  23.919  24.950  1.00  0.00    -0.460 OA
BRANCH  36  37
ATOM     37  C   UNL A   1      44.259  25.036  25.235  1.00  0.00     0.338 C 
ATOM     38  O   UNL A   1      45.268  25.436  24.683  1.00  0.00    -0.246 OA
BRANCH  37  39
ATOM     39  C   UNL A   1      43.525  25.812  26.249  1.00  0.00     0.060 A 
ATOM     40  C   UNL A   1      43.892  27.146  26.464  1.00  0.00     0.016 A 
ATOM     41  C   UNL A   1      42.518  25.215  27.010  1.00  0.00     0.016 A 
ATOM     42  C   UNL A   1      43.268  27.884  27.469  1.00  0.00     0.010 A 
ATOM     43  C   UNL A   1      41.906  25.950  28.029  1.00  0.00     0.010 A 
ATOM     44  C   UNL A   1      42.301  27.277  28.282  1.00  0.00    -0.014 A 
BRANCH  44  45
ATOM     45  C   UNL A   1      41.824  27.972  29.501  1.00  0.00     0.031 A 
ATOM     46  C   UNL A   1      40.594  28.831  29.408  1.00  0.00     0.074 A 
ATOM     47  C   UNL A   1      42.464  27.831  30.675  1.00  0.00     0.049 A 
ATOM     48  N   UNL A   1      40.017  29.559  30.328  1.00  0.00    -0.248 NA
ATOM     49  C   UNL A   1      39.927  28.874  28.097  1.00  0.00     0.031 C 
ATOM     50  C   UNL A   1      43.645  27.002  30.903  1.00  0.00     0.029 A 
ATOM     51  N   UNL A   1      42.206  28.398  31.898  1.00  0.00    -0.354 N 
ATOM     52  C   UNL A   1      38.922  30.148  29.709  1.00  0.00     0.074 A 
ATOM     53  C   UNL A   1      38.931  29.716  28.329  1.00  0.00     0.031 C 
ATOM     54  C   UNL A   1      44.018  27.123  32.189  1.00  0.00     0.029 A 
ATOM     55  C   UNL A   1      43.122  28.059  32.864  1.00  0.00     0.049 A 
ATOM     56  H   UNL A   1      41.439  28.991  32.067  1.00  0.00     0.167 HD
ATOM     57  C   UNL A   1      37.987  30.967  30.246  1.00  0.00     0.037 A 
ATOM     58  C   UNL A   1      43.231  28.477  34.140  1.00  0.00     0.037 A 
ATOM     59  C   UNL A   1      37.982  31.404  31.616  1.00  0.00     0.049 A 
ATOM     60  C   UNL A   1      42.221  29.449  34.693  1.00  0.00     0.074 A 
ATOM     61  C   UNL A   1      37.068  32.223  32.256  1.00  0.00     0.029 A 
ATOM     62  N   UNL A   1      38.942  31.063  32.556  1.00  0.00    -0.354 N 
ATOM     63  N   UNL A   1      41.175  29.979  34.109  1.00  0.00    -0.248 NA
ATOM     64  C   UNL A   1      42.411  29.880  36.086  1.00  0.00     0.031 C 
ATOM     65  C   UNL A   1      37.502  32.417  33.572  1.00  0.00     0.029 A 
ATOM     66  C   UNL A   1      38.658  31.676  33.765  1.00  0.00     0.049 A 
ATOM     67  H   UNL A   1      39.712  30.472  32.389  1.00  0.00     0.167 HD
ATOM     68  C   UNL A   1      40.564  30.777  35.069  1.00  0.00     0.074 A 
ATOM     69  C   UNL A   1      41.354  30.657  36.276  1.00  0.00     0.031 C 
ATOM     70  C   UNL A   1      39.448  31.541  34.961  1.00  0.00     0.037 A 
BRANCH  57  71
ATOM     71  C   UNL A   1      36.906  31.464  29.333  1.00  0.00     0.057 A 
ATOM     72  C   UNL A   1      35.785  30.685  29.021  1.00  0.00     0.134 A 
ATOM     73  C   UNL A   1      36.975  32.749  28.779  1.00  0.00     0.134 A 
ATOM     74  F   UNL A   1      35.667  29.438  29.505  1.00  0.00    -0.206 F 
ATOM     75  C   UNL A   1      34.783  31.156  28.171  1.00  0.00     0.040 A 
ATOM     76  C   UNL A   1      35.967  33.241  27.949  1.00  0.00     0.040 A 
ATOM     77  F   UNL A   1      38.020  33.547  29.040  1.00  0.00    -0.206 F 
ATOM     78  C   UNL A   1      34.869  32.440  27.638  1.00  0.00     0.006 A 
ENDBRANCH  57  71
BRANCH  58  79
ATOM     79  C   UNL A   1      44.347  27.990  34.989  1.00  0.00     0.057 A 
ATOM     80  C   UNL A   1      44.193  26.877  35.823  1.00  0.00     0.134 A 
ATOM     81  C   UNL A   1      45.585  28.644  35.010  1.00  0.00     0.134 A 
ATOM     82  F   UNL A   1      43.021  26.227  35.870  1.00  0.00    -0.206 F 
ATOM     83  C   UNL A   1      45.222  26.442  36.660  1.00  0.00     0.040 A 
ATOM     84  C   UNL A   1      46.631  28.205  35.824  1.00  0.00     0.040 A 
ATOM     85  F   UNL A   1      45.796  29.719  34.236  1.00  0.00    -0.206 F 
ATOM     86  C   UNL A   1      46.447  27.105  36.659  1.00  0.00     0.006 A 
ENDBRANCH  58  79
BRANCH  70  87
ATOM     87  C   UNL A   1      38.991  32.273  36.189  1.00  0.00     0.057 A 
ATOM     88  C   UNL A   1      38.142  31.681  37.133  1.00  0.00     0.134 A 
ATOM     89  C   UNL A   1      39.442  33.573  36.452  1.00  0.00     0.134 A 
ATOM     90  F   UNL A   1      37.666  30.442  36.937  1.00  0.00    -0.206 F 
ATOM     91  C   UNL A   1      37.741  32.364  38.283  1.00  0.00     0.040 A 
ATOM     92  C   UNL A   1      39.069  34.255  37.611  1.00  0.00     0.040 A 
ATOM     93  F   UNL A   1      40.266  34.195  35.595  1.00  0.00    -0.206 F 
ATOM     94  C   UNL A   1      38.211  33.653  38.528  1.00  0.00     0.006 A 
ENDBRANCH  70  87
ENDBRANCH  44  45
ENDBRANCH  37  39
ENDBRANCH  36  37
ENDBRANCH  35  36
ENDBRANCH  34  35
ENDBRANCH  33  34
ENDBRANCH  32  33
ENDBRANCH   1  32
TORSDOF 21
ENDMDL
MODEL 3
REMARK VINA RESULT:     -11.4      5.997     11.392
REMARK SMILES COc1c[nH]c(C[N@H+]2CCC[C@@H](c3ccc(C(=O)OCCOCCOCCOC(=O)c4ccc(-c5c6nc(c(-c7c(F)cccc7F)c7ccc([nH]7)c(-c7c(F)cccc7F)c7nc(c(-c8c(F)cccc8F)c8ccc5[nH]8)C=C7)C=C6)cc4)cc3)C2)cc1=O
REMARK SMILES IDX 23 1 22 2 21 3 20 4 19 5 17 6 18 7 16 8 13 9 14 10 86 11
REMARK SMILES IDX 15 12 85 13 12 14 8 15 9 16 87 17 10 19 11 20 7 21 6 22 3 23
REMARK SMILES IDX 4 24 89 25 5 26 88 27 90 28 2 30 1 31 24 32 25 33 26 34
REMARK SMILES IDX 27 35 28 36 29 37 30 38 31 39 32 40 84 41 33 42 83 43 34 44
REMARK SMILES IDX 35 45 36 46 77 47 37 48 82 49 76 50 78 51 38 52 81 53 75 54
REMARK SMILES IDX 74 55 39 57 65 58 48 59 64 60 49 61 52 62 63 63 79 64 50 65
REMARK SMILES IDX 51 66 62 68 80 69 53 70 40 71 41 72 46 73 42 74 43 75 45 76
REMARK SMILES IDX 47 77 44 78 66 79 67 80 72 81 68 82 69 83 71 84 73 85 70 86
REMARK SMILES IDX 54 87 55 88 60 89 56 90 57 91 59 92 61 93 58 94
REMARK H PARENT 8 18 5 29 78 56 52 67
REMARK Flexibility Score: inf
ROOT
ATOM      1  C   UNL A   1      33.742  35.225  31.216  1.00  0.00     0.188 C 
ENDROOT
BRANCH   1   2
ATOM      2  O   UNL A   1      32.614  35.336  30.362  1.00  0.00    -0.376 OA
BRANCH   2   3
ATOM      3  C   UNL A   1      32.797  35.635  28.984  1.00  0.00     0.202 C 
BRANCH   3   4
ATOM      4  C   UNL A   1      33.739  34.775  28.132  1.00  0.00     0.261 C 
BRANCH   4   5
ATOM      5  O   UNL A   1      33.321  33.406  28.016  1.00  0.00    -0.460 OA
BRANCH   5   6
ATOM      6  C   UNL A   1      34.291  32.545  27.628  1.00  0.00     0.338 C 
ATOM      7  O   UNL A   1      35.495  32.743  27.620  1.00  0.00    -0.246 OA
BRANCH   6   8
ATOM      8  C   UNL A   1      33.715  31.207  27.388  1.00  0.00     0.060 A 
ATOM      9  C   UNL A   1      32.837  28.627  26.735  1.00  0.00    -0.039 A 
ATOM     10  C   UNL A   1      34.105  28.825  27.310  1.00  0.00     0.005 A 
ATOM     11  C   UNL A   1      31.976  29.729  26.600  1.00  0.00     0.005 A 
ATOM     12  C   UNL A   1      34.552  30.109  27.603  1.00  0.00     0.016 A 
ATOM     13  C   UNL A   1      32.408  31.018  26.936  1.00  0.00     0.016 A 
BRANCH   9  14
ATOM     14  C   UNL A   1      32.491  27.295  26.073  1.00  0.00     0.074 C 
ATOM     15  N   UNL A   1      30.861  26.396  24.342  1.00  0.00    -0.329 N 
ATOM     16  C   UNL A   1      31.977  25.817  23.584  1.00  0.00     0.262 C 
ATOM     17  C   UNL A   1      31.292  27.551  25.130  1.00  0.00     0.270 C 
ATOM     18  H   UNL A   1      30.546  25.681  24.999  1.00  0.00     0.348 HD
ATOM     19  C   UNL A   1      33.148  25.448  24.502  1.00  0.00     0.062 C 
ATOM     20  C   UNL A   1      33.650  26.659  25.294  1.00  0.00     0.020 C 
BRANCH  15  21
ATOM     21  C   UNL A   1      29.696  26.711  23.483  1.00  0.00     0.317 C 
BRANCH  21  22
ATOM     22  C   UNL A   1      29.479  28.177  23.106  1.00  0.00     0.074 A 
ATOM     23  C   UNL A   1      29.170  30.839  22.101  1.00  0.00     0.182 A 
ATOM     24  C   UNL A   1      30.225  30.068  21.806  1.00  0.00     0.133 A 
ATOM     25  C   UNL A   1      28.174  30.257  23.070  1.00  0.00     0.223 A 
ATOM     26  N   UNL A   1      30.428  28.821  22.329  1.00  0.00    -0.357 N 
ATOM     27  C   UNL A   1      28.386  28.847  23.516  1.00  0.00     0.083 A 
ATOM     28  O   UNL A   1      27.201  30.879  23.486  1.00  0.00    -0.286 OA
ATOM     29  H   UNL A   1      31.280  28.363  22.146  1.00  0.00     0.166 HD
BRANCH  23  30
ATOM     30  O   UNL A   1      28.992  32.059  21.478  1.00  0.00    -0.491 OA
ATOM     31  C   UNL A   1      27.998  32.018  20.460  1.00  0.00     0.278 C 
ENDBRANCH  23  30
ENDBRANCH  21  22
ENDBRANCH  15  21
ENDBRANCH   9  14
ENDBRANCH   6   8
ENDBRANCH   5   6
ENDBRANCH   4   5
ENDBRANCH   3   4
ENDBRANCH   2   3
ENDBRANCH   1   2
BRANCH   1  32
ATOM     32  C   UNL A   1      33.730  35.870  32.618  1.00  0.00     0.188 C 
BRANCH  32  33
ATOM     33  O   UNL A   1      34.935  35.862  33.341  1.00  0.00    -0.376 OA
BRANCH  33  34
ATOM     34  C   UNL A   1      35.153  34.954  34.407  1.00  0.00     0.202 C 
BRANCH  34  35
ATOM     35  C   UNL A   1      35.269  33.422  34.300  1.00  0.00     0.261 C 
BRANCH  35  36
ATOM     36  O   UNL A   1      36.177  32.874  33.348  1.00  0.00    -0.460 OA
BRANCH  36  37
ATOM     37  C   UNL A   1      35.613  32.108  32.382  1.00  0.00     0.338 C 
ATOM     38  O   UNL A   1      34.454  32.112  32.010  1.00  0.00    -0.246 OA
BRANCH  37  39
ATOM     39  C   UNL A   1      36.680  31.343  31.712  1.00  0.00     0.060 A 
ATOM     40  C   UNL A   1      37.694  30.783  32.498  1.00  0.00     0.016 A 
ATOM     41  C   UNL A   1      36.701  31.222  30.321  1.00  0.00     0.016 A 
ATOM     42  C   UNL A   1      38.757  30.120  31.887  1.00  0.00     0.010 A 
ATOM     43  C   UNL A   1      37.776  30.572  29.710  1.00  0.00     0.010 A 
ATOM     44  C   UNL A   1      38.824  30.046  30.489  1.00  0.00    -0.014 A 
BRANCH  44  45
ATOM     45  C   UNL A   1      40.066  29.571  29.836  1.00  0.00     0.031 A 
ATOM     46  C   UNL A   1      41.204  30.537  29.661  1.00  0.00     0.074 A 
ATOM     47  C   UNL A   1      40.190  28.298  29.419  1.00  0.00     0.049 A 
ATOM     48  N   UNL A   1      42.366  30.359  29.089  1.00  0.00    -0.248 NA
ATOM     49  C   UNL A   1      41.000  31.890  30.205  1.00  0.00     0.031 C 
ATOM     50  C   UNL A   1      39.174  27.258  29.562  1.00  0.00     0.029 A 
ATOM     51  N   UNL A   1      41.229  27.672  28.780  1.00  0.00    -0.354 N 
ATOM     52  C   UNL A   1      43.030  31.573  29.201  1.00  0.00     0.074 A 
ATOM     53  C   UNL A   1      42.132  32.489  29.869  1.00  0.00     0.031 C 
ATOM     54  C   UNL A   1      39.637  26.121  29.013  1.00  0.00     0.029 A 
ATOM     55  C   UNL A   1      40.967  26.364  28.456  1.00  0.00     0.049 A 
ATOM     56  H   UNL A   1      42.082  28.118  28.572  1.00  0.00     0.167 HD
ATOM     57  C   UNL A   1      44.281  31.893  28.793  1.00  0.00     0.037 A 
ATOM     58  C   UNL A   1      41.710  25.474  27.770  1.00  0.00     0.037 A 
ATOM     59  C   UNL A   1      45.172  30.986  28.121  1.00  0.00     0.049 A 
ATOM     60  C   UNL A   1      43.069  25.878  27.258  1.00  0.00     0.074 A 
ATOM     61  C   UNL A   1      46.464  31.214  27.681  1.00  0.00     0.029 A 
ATOM     62  N   UNL A   1      44.859  29.678  27.785  1.00  0.00    -0.354 N 
ATOM     63  N   UNL A   1      43.699  27.019  27.392  1.00  0.00    -0.248 NA
ATOM     64  C   UNL A   1      43.818  24.866  26.499  1.00  0.00     0.031 C 
ATOM     65  C   UNL A   1      46.916  30.058  27.035  1.00  0.00     0.029 A 
ATOM     66  C   UNL A   1      45.924  29.094  27.119  1.00  0.00     0.049 A 
ATOM     67  H   UNL A   1      44.007  29.230  27.989  1.00  0.00     0.167 HD
ATOM     68  C   UNL A   1      44.929  26.852  26.766  1.00  0.00     0.074 A 
ATOM     69  C   UNL A   1      44.958  25.497  26.257  1.00  0.00     0.031 C 
ATOM     70  C   UNL A   1      45.943  27.741  26.625  1.00  0.00     0.037 A 
BRANCH  57  71
ATOM     71  C   UNL A   1      44.745  33.298  29.041  1.00  0.00     0.057 A 
ATOM     72  C   UNL A   1      44.496  34.331  28.129  1.00  0.00     0.134 A 
ATOM     73  C   UNL A   1      45.427  33.625  30.220  1.00  0.00     0.134 A 
ATOM     74  F   UNL A   1      43.861  34.080  26.973  1.00  0.00    -0.206 F 
ATOM     75  C   UNL A   1      44.930  35.636  28.370  1.00  0.00     0.040 A 
ATOM     76  C   UNL A   1      45.844  34.931  30.483  1.00  0.00     0.040 A 
ATOM     77  F   UNL A   1      45.696  32.683  31.135  1.00  0.00    -0.206 F 
ATOM     78  C   UNL A   1      45.600  35.940  29.553  1.00  0.00     0.006 A 
ENDBRANCH  57  71
BRANCH  58  79
ATOM     79  C   UNL A   1      41.185  24.110  27.510  1.00  0.00     0.057 A 
ATOM     80  C   UNL A   1      40.177  23.887  26.565  1.00  0.00     0.134 A 
ATOM     81  C   UNL A   1      41.655  23.001  28.224  1.00  0.00     0.134 A 
ATOM     82  F   UNL A   1      39.664  24.914  25.873  1.00  0.00    -0.206 F 
ATOM     83  C   UNL A   1      39.644  22.615  26.350  1.00  0.00     0.040 A 
ATOM     84  C   UNL A   1      41.149  21.719  28.002  1.00  0.00     0.040 A 
ATOM     85  F   UNL A   1      42.619  23.148  29.146  1.00  0.00    -0.206 F 
ATOM     86  C   UNL A   1      40.134  21.525  27.067  1.00  0.00     0.006 A 
ENDBRANCH  58  79
BRANCH  70  87
ATOM     87  C   UNL A   1      47.186  27.266  25.930  1.00  0.00     0.057 A 
ATOM     88  C   UNL A   1      48.213  26.605  26.615  1.00  0.00     0.134 A 
ATOM     89  C   UNL A   1      47.337  27.435  24.548  1.00  0.00     0.134 A 
ATOM     90  F   UNL A   1      48.136  26.420  27.942  1.00  0.00    -0.206 F 
ATOM     91  C   UNL A   1      49.355  26.148  25.954  1.00  0.00     0.040 A 
ATOM     92  C   UNL A   1      48.461  26.960  23.872  1.00  0.00     0.040 A 
ATOM     93  F   UNL A   1      46.386  28.051  23.829  1.00  0.00    -0.206 F 
ATOM     94  C   UNL A   1      49.478  26.319  24.576  1.00  0.00     0.006 A 
ENDBRANCH  70  87
ENDBRANCH  44  45
ENDBRANCH  37  39
ENDBRANCH  36  37
ENDBRANCH  35  36
ENDBRANCH  34  35
ENDBRANCH  33  34
ENDBRANCH  32  33
ENDBRANCH   1  32
TORSDOF 21
ENDMDL
