MODEL 1
REMARK VINA RESULT:     -12.0      0.000      0.000
REMARK SMILES O=C(OCCOCCOCCOC(=O)c1ccc(-c2c3nc(c(-c4c(F)cccc4F)c4ccc([nH]4)c(-c4c(F)cccc4F)c4nc(c(-c5c(F)cccc5F)c5ccc2[nH]5)C=C4)C=C3)cc1)C1=Cc2cc(S(F)(F)(F)(F)F)ccc2O[C@@H]1C(F)(F)F
REMARK SMILES IDX 8 1 7 2 6 3 5 4 4 5 3 6 2 7 1 8 69 9 70 10 84 11 71 12 83 13
REMARK SMILES IDX 72 14 82 15 73 16 81 17 80 18 85 19 86 20 87 21 88 22 74 23
REMARK SMILES IDX 75 24 76 25 77 26 78 27 79 28 9 29 10 30 11 31 12 32 13 33
REMARK SMILES IDX 14 34 15 35 16 36 68 37 17 38 67 39 18 40 19 41 20 42 61 43
REMARK SMILES IDX 21 44 66 45 60 46 62 47 22 48 65 49 59 50 58 51 23 53 49 54
REMARK SMILES IDX 32 55 48 56 33 57 36 58 47 59 63 60 34 61 35 62 46 64 64 65
REMARK SMILES IDX 37 66 24 67 25 68 30 69 26 70 27 71 29 72 31 73 28 74 50 75
REMARK SMILES IDX 51 76 56 77 52 78 53 79 55 80 57 81 54 82 38 83 39 84 44 85
REMARK SMILES IDX 40 86 41 87 43 88 45 89 42 90
REMARK H PARENT 62 52 36 63
REMARK Flexibility Score: inf
ROOT
ATOM      1  C   UNL A   1      40.584  21.607  26.886  1.00  0.00     0.188 C 
ENDROOT
BRANCH   1   2
ATOM      2  C   UNL A   1      39.255  22.214  26.467  1.00  0.00     0.188 C 
BRANCH   2   3
ATOM      3  O   UNL A   1      38.512  21.261  25.721  1.00  0.00    -0.376 OA
BRANCH   3   4
ATOM      4  C   UNL A   1      37.615  21.935  24.851  1.00  0.00     0.202 C 
BRANCH   4   5
ATOM      5  C   UNL A   1      37.206  23.260  25.472  1.00  0.00     0.261 C 
BRANCH   5   6
ATOM      6  O   UNL A   1      36.371  23.968  24.569  1.00  0.00    -0.460 OA
BRANCH   6   7
ATOM      7  C   UNL A   1      35.377  23.275  23.828  1.00  0.00     0.338 C 
ATOM      8  O   UNL A   1      35.533  23.080  22.582  1.00  0.00    -0.246 OA
BRANCH   7   9
ATOM      9  C   UNL A   1      34.127  22.764  24.527  1.00  0.00     0.087 C 
ATOM     10  C   UNL A   1      33.197  23.644  24.984  1.00  0.00     0.027 C 
ATOM     11  C   UNL A   1      33.918  21.270  24.714  1.00  0.00     0.316 C 
ATOM     12  C   UNL A   1      33.406  25.138  24.797  1.00  0.00     0.019 A 
ATOM     13  O   UNL A   1      34.204  24.679  22.606  1.00  0.00    -0.475 OA
ATOM     14  C   UNL A   1      33.172  25.996  25.859  1.00  0.00     0.036 A 
ATOM     15  C   UNL A   1      33.820  25.594  23.621  1.00  0.00     0.128 A 
ATOM     16  C   UNL A   1      33.127  27.362  25.493  1.00  0.00     0.107 A 
ATOM     17  C   UNL A   1      33.881  26.945  23.377  1.00  0.00     0.048 A 
ATOM     18  C   UNL A   1      33.606  27.852  24.364  1.00  0.00     0.028 A 
BRANCH  11  19
ATOM     19  C   UNL A   1      32.637  20.847  24.014  1.00  0.00     0.430 C 
ATOM     20  F   UNL A   1      32.793  19.629  23.501  1.00  0.00    -0.167 F 
ATOM     21  F   UNL A   1      31.636  20.834  24.889  1.00  0.00    -0.167 F 
ATOM     22  F   UNL A   1      32.361  21.706  23.037  1.00  0.00    -0.167 F 
ENDBRANCH  11  19
BRANCH  16  23
ATOM     23  S   UNL A   1      32.360  28.520  26.654  1.00  0.00     0.310 S 
ATOM     24  F   UNL A   1      31.538  27.364  27.362  1.00  0.00    -0.094 F 
ATOM     25  F   UNL A   1      31.150  28.676  25.657  1.00  0.00    -0.094 F 
ATOM     26  F   UNL A   1      31.703  29.514  27.652  1.00  0.00    -0.094 F 
ATOM     27  F   UNL A   1      33.511  28.244  27.700  1.00  0.00    -0.094 F 
ATOM     28  F   UNL A   1      32.983  27.423  25.701  1.00  0.00    -0.094 F 
ENDBRANCH  16  23
ENDBRANCH   7   9
ENDBRANCH   6   7
ENDBRANCH   5   6
ENDBRANCH   4   5
ENDBRANCH   3   4
ENDBRANCH   2   3
ENDBRANCH   1   2
BRANCH   1  29
ATOM     29  O   UNL A   1      41.427  21.484  25.749  1.00  0.00    -0.376 OA
BRANCH  29  30
ATOM     30  C   UNL A   1      42.748  21.176  26.170  1.00  0.00     0.202 C 
BRANCH  30  31
ATOM     31  C   UNL A   1      43.744  21.923  25.298  1.00  0.00     0.261 C 
BRANCH  31  32
ATOM     32  O   UNL A   1      43.193  23.175  24.916  1.00  0.00    -0.460 OA
BRANCH  32  33
ATOM     33  C   UNL A   1      43.866  24.379  25.253  1.00  0.00     0.338 C 
ATOM     34  O   UNL A   1      44.890  24.741  24.592  1.00  0.00    -0.246 OA
BRANCH  33  35
ATOM     35  C   UNL A   1      43.363  25.236  26.403  1.00  0.00     0.060 A 
ATOM     36  C   UNL A   1      42.458  24.701  27.306  1.00  0.00     0.016 A 
ATOM     37  C   UNL A   1      43.786  26.490  26.513  1.00  0.00     0.016 A 
ATOM     38  C   UNL A   1      41.831  25.667  28.129  1.00  0.00     0.010 A 
ATOM     39  C   UNL A   1      43.221  27.341  27.432  1.00  0.00     0.010 A 
ATOM     40  C   UNL A   1      42.278  26.895  28.316  1.00  0.00    -0.014 A 
BRANCH  40  41
ATOM     41  C   UNL A   1      41.772  27.766  29.454  1.00  0.00     0.031 A 
ATOM     42  C   UNL A   1      40.661  28.577  29.213  1.00  0.00     0.074 A 
ATOM     43  C   UNL A   1      42.429  27.696  30.670  1.00  0.00     0.049 A 
ATOM     44  N   UNL A   1      40.032  29.374  30.078  1.00  0.00    -0.248 NA
ATOM     45  C   UNL A   1      39.982  28.679  27.913  1.00  0.00     0.031 C 
ATOM     46  C   UNL A   1      43.545  26.874  30.924  1.00  0.00     0.029 A 
ATOM     47  N   UNL A   1      42.141  28.384  31.828  1.00  0.00    -0.354 N 
ATOM     48  C   UNL A   1      38.999  29.976  29.484  1.00  0.00     0.074 A 
ATOM     49  C   UNL A   1      38.957  29.542  28.081  1.00  0.00     0.031 C 
ATOM     50  C   UNL A   1      43.930  27.073  32.212  1.00  0.00     0.029 A 
ATOM     51  C   UNL A   1      43.063  28.021  32.785  1.00  0.00     0.049 A 
ATOM     52  H   UNL A   1      41.404  29.025  31.950  1.00  0.00     0.167 HD
ATOM     53  C   UNL A   1      38.092  30.868  30.058  1.00  0.00     0.037 A 
ATOM     54  C   UNL A   1      43.158  28.482  34.089  1.00  0.00     0.037 A 
ATOM     55  C   UNL A   1      38.162  31.295  31.374  1.00  0.00     0.049 A 
ATOM     56  C   UNL A   1      42.284  29.419  34.647  1.00  0.00     0.074 A 
ATOM     57  C   UNL A   1      37.251  32.188  31.970  1.00  0.00     0.029 A 
ATOM     58  N   UNL A   1      39.098  30.951  32.324  1.00  0.00    -0.354 N 
ATOM     59  N   UNL A   1      41.229  29.991  34.064  1.00  0.00    -0.248 NA
ATOM     60  C   UNL A   1      42.395  29.938  36.016  1.00  0.00     0.031 C 
ATOM     61  C   UNL A   1      37.637  32.386  33.258  1.00  0.00     0.029 A 
ATOM     62  C   UNL A   1      38.796  31.622  33.488  1.00  0.00     0.049 A 
ATOM     63  H   UNL A   1      39.853  30.332  32.193  1.00  0.00     0.167 HD
ATOM     64  C   UNL A   1      40.626  30.819  34.918  1.00  0.00     0.074 A 
ATOM     65  C   UNL A   1      41.371  30.803  36.184  1.00  0.00     0.031 C 
ATOM     66  C   UNL A   1      39.480  31.585  34.693  1.00  0.00     0.037 A 
BRANCH  53  67
ATOM     67  C   UNL A   1      36.964  31.400  29.189  1.00  0.00     0.057 A 
ATOM     68  C   UNL A   1      37.049  32.666  28.634  1.00  0.00     0.134 A 
ATOM     69  C   UNL A   1      35.913  30.620  28.965  1.00  0.00     0.134 A 
ATOM     70  F   UNL A   1      38.174  33.377  28.619  1.00  0.00    -0.206 F 
ATOM     71  C   UNL A   1      35.833  33.134  28.084  1.00  0.00     0.040 A 
ATOM     72  C   UNL A   1      34.812  31.102  28.302  1.00  0.00     0.040 A 
ATOM     73  F   UNL A   1      35.928  29.358  29.387  1.00  0.00    -0.206 F 
ATOM     74  C   UNL A   1      34.804  32.365  27.777  1.00  0.00     0.006 A 
ENDBRANCH  53  67
BRANCH  54  75
ATOM     75  C   UNL A   1      44.277  27.936  34.962  1.00  0.00     0.057 A 
ATOM     76  C   UNL A   1      44.092  26.777  35.697  1.00  0.00     0.134 A 
ATOM     77  C   UNL A   1      45.428  28.596  34.993  1.00  0.00     0.134 A 
ATOM     78  F   UNL A   1      43.066  25.953  35.507  1.00  0.00    -0.206 F 
ATOM     79  C   UNL A   1      45.096  26.548  36.668  1.00  0.00     0.040 A 
ATOM     80  C   UNL A   1      46.418  28.234  35.874  1.00  0.00     0.040 A 
ATOM     81  F   UNL A   1      45.625  29.618  34.165  1.00  0.00    -0.206 F 
ATOM     82  C   UNL A   1      46.280  27.133  36.673  1.00  0.00     0.006 A 
ENDBRANCH  54  75
BRANCH  66  83
ATOM     83  C   UNL A   1      38.951  32.431  35.840  1.00  0.00     0.057 A 
ATOM     84  C   UNL A   1      39.264  33.779  35.893  1.00  0.00     0.134 A 
ATOM     85  C   UNL A   1      38.210  31.859  36.782  1.00  0.00     0.134 A 
ATOM     86  F   UNL A   1      39.779  34.445  34.864  1.00  0.00    -0.206 F 
ATOM     87  C   UNL A   1      38.987  34.384  37.141  1.00  0.00     0.040 A 
ATOM     88  C   UNL A   1      37.860  32.552  37.915  1.00  0.00     0.040 A 
ATOM     89  F   UNL A   1      37.802  30.602  36.626  1.00  0.00    -0.206 F 
ATOM     90  C   UNL A   1      38.187  33.872  38.060  1.00  0.00     0.006 A 
ENDBRANCH  66  83
ENDBRANCH  40  41
ENDBRANCH  33  35
ENDBRANCH  32  33
ENDBRANCH  31  32
ENDBRANCH  30  31
ENDBRANCH  29  30
ENDBRANCH   1  29
TORSDOF 19
ENDMDL
MODEL 2
REMARK VINA RESULT:     -11.8      0.291      5.943
REMARK SMILES O=C(OCCOCCOCCOC(=O)c1ccc(-c2c3nc(c(-c4c(F)cccc4F)c4ccc([nH]4)c(-c4c(F)cccc4F)c4nc(c(-c5c(F)cccc5F)c5ccc2[nH]5)C=C4)C=C3)cc1)C1=Cc2cc(S(F)(F)(F)(F)F)ccc2O[C@@H]1C(F)(F)F
REMARK SMILES IDX 8 1 7 2 6 3 5 4 4 5 3 6 2 7 1 8 69 9 70 10 84 11 71 12 83 13
REMARK SMILES IDX 72 14 82 15 73 16 81 17 80 18 85 19 86 20 87 21 88 22 74 23
REMARK SMILES IDX 75 24 76 25 77 26 78 27 79 28 9 29 10 30 11 31 12 32 13 33
REMARK SMILES IDX 14 34 15 35 16 36 68 37 17 38 67 39 18 40 19 41 20 42 61 43
REMARK SMILES IDX 21 44 66 45 60 46 62 47 22 48 65 49 59 50 58 51 23 53 49 54
REMARK SMILES IDX 32 55 48 56 33 57 36 58 47 59 63 60 34 61 35 62 46 64 64 65
REMARK SMILES IDX 37 66 24 67 25 68 30 69 26 70 27 71 29 72 31 73 28 74 50 75
REMARK SMILES IDX 51 76 56 77 52 78 53 79 55 80 57 81 54 82 38 83 39 84 44 85
REMARK SMILES IDX 40 86 41 87 43 88 45 89 42 90
REMARK H PARENT 62 52 36 63
REMARK Flexibility Score: inf
ROOT
ATOM      1  C   UNL A   1      40.896  21.511  27.048  1.00  0.00     0.188 C 
ENDROOT
BRANCH   1   2
ATOM      2  C   UNL A   1      39.666  22.370  26.796  1.00  0.00     0.188 C 
BRANCH   2   3
ATOM      3  O   UNL A   1      39.234  22.196  25.455  1.00  0.00    -0.376 OA
BRANCH   3   4
ATOM      4  C   UNL A   1      37.818  22.093  25.423  1.00  0.00     0.202 C 
BRANCH   4   5
ATOM      5  C   UNL A   1      37.204  23.416  25.847  1.00  0.00     0.261 C 
BRANCH   5   6
ATOM      6  O   UNL A   1      36.520  23.995  24.745  1.00  0.00    -0.460 OA
BRANCH   6   7
ATOM      7  C   UNL A   1      35.561  23.232  24.026  1.00  0.00     0.338 C 
ATOM      8  O   UNL A   1      35.738  22.993  22.790  1.00  0.00    -0.246 OA
BRANCH   7   9
ATOM      9  C   UNL A   1      34.325  22.704  24.733  1.00  0.00     0.087 C 
ATOM     10  C   UNL A   1      33.356  23.565  25.145  1.00  0.00     0.027 C 
ATOM     11  C   UNL A   1      34.170  21.211  24.980  1.00  0.00     0.316 C 
ATOM     12  C   UNL A   1      33.510  25.056  24.899  1.00  0.00     0.019 A 
ATOM     13  O   UNL A   1      34.348  24.539  22.736  1.00  0.00    -0.475 OA
ATOM     14  C   UNL A   1      33.233  25.947  25.922  1.00  0.00     0.036 A 
ATOM     15  C   UNL A   1      33.920  25.480  23.709  1.00  0.00     0.128 A 
ATOM     16  C   UNL A   1      33.140  27.295  25.500  1.00  0.00     0.107 A 
ATOM     17  C   UNL A   1      33.932  26.821  23.410  1.00  0.00     0.048 A 
ATOM     18  C   UNL A   1      33.612  27.756  24.356  1.00  0.00     0.028 A 
BRANCH  11  19
ATOM     19  C   UNL A   1      32.914  20.710  24.286  1.00  0.00     0.430 C 
ATOM     20  F   UNL A   1      32.725  21.396  23.162  1.00  0.00    -0.167 F 
ATOM     21  F   UNL A   1      33.050  19.419  24.000  1.00  0.00    -0.167 F 
ATOM     22  F   UNL A   1      31.867  20.879  25.089  1.00  0.00    -0.167 F 
ENDBRANCH  11  19
BRANCH  16  23
ATOM     23  S   UNL A   1      32.317  28.469  26.605  1.00  0.00     0.310 S 
ATOM     24  F   UNL A   1      31.465  27.322  27.292  1.00  0.00    -0.094 F 
ATOM     25  F   UNL A   1      31.155  28.606  25.550  1.00  0.00    -0.094 F 
ATOM     26  F   UNL A   1      31.612  29.477  27.555  1.00  0.00    -0.094 F 
ATOM     27  F   UNL A   1      33.418  28.212  27.708  1.00  0.00    -0.094 F 
ATOM     28  F   UNL A   1      32.986  27.359  25.700  1.00  0.00    -0.094 F 
ENDBRANCH  16  23
ENDBRANCH   7   9
ENDBRANCH   6   7
ENDBRANCH   5   6
ENDBRANCH   4   5
ENDBRANCH   3   4
ENDBRANCH   2   3
ENDBRANCH   1   2
BRANCH   1  29
ATOM     29  O   UNL A   1      41.618  21.352  25.835  1.00  0.00    -0.376 OA
BRANCH  29  30
ATOM     30  C   UNL A   1      43.011  21.425  26.100  1.00  0.00     0.202 C 
BRANCH  30  31
ATOM     31  C   UNL A   1      43.702  22.169  24.969  1.00  0.00     0.261 C 
BRANCH  31  32
ATOM     32  O   UNL A   1      43.088  23.437  24.791  1.00  0.00    -0.460 OA
BRANCH  32  33
ATOM     33  C   UNL A   1      43.773  24.619  25.182  1.00  0.00     0.338 C 
ATOM     34  O   UNL A   1      44.837  24.965  24.579  1.00  0.00    -0.246 OA
BRANCH  33  35
ATOM     35  C   UNL A   1      43.234  25.468  26.321  1.00  0.00     0.060 A 
ATOM     36  C   UNL A   1      43.637  26.788  26.437  1.00  0.00     0.016 A 
ATOM     37  C   UNL A   1      42.397  24.924  27.197  1.00  0.00     0.016 A 
ATOM     38  C   UNL A   1      43.328  27.374  27.688  1.00  0.00     0.010 A 
ATOM     39  C   UNL A   1      42.030  25.608  28.331  1.00  0.00     0.010 A 
ATOM     40  C   UNL A   1      42.441  26.895  28.541  1.00  0.00    -0.014 A 
BRANCH  40  41
ATOM     41  C   UNL A   1      41.906  27.730  29.692  1.00  0.00     0.031 A 
ATOM     42  C   UNL A   1      42.572  27.658  30.917  1.00  0.00     0.074 A 
ATOM     43  C   UNL A   1      40.799  28.528  29.458  1.00  0.00     0.049 A 
ATOM     44  N   UNL A   1      42.300  28.338  32.032  1.00  0.00    -0.248 NA
ATOM     45  C   UNL A   1      43.726  26.787  31.177  1.00  0.00     0.031 C 
ATOM     46  C   UNL A   1      40.126  28.613  28.223  1.00  0.00     0.029 A 
ATOM     47  N   UNL A   1      40.156  29.363  30.346  1.00  0.00    -0.354 N 
ATOM     48  C   UNL A   1      43.168  28.015  32.993  1.00  0.00     0.074 A 
ATOM     49  C   UNL A   1      44.094  27.008  32.458  1.00  0.00     0.031 C 
ATOM     50  C   UNL A   1      39.088  29.476  28.367  1.00  0.00     0.029 A 
ATOM     51  C   UNL A   1      39.092  29.947  29.694  1.00  0.00     0.049 A 
ATOM     52  H   UNL A   1      40.412  29.514  31.284  1.00  0.00     0.167 HD
ATOM     53  C   UNL A   1      43.224  28.522  34.292  1.00  0.00     0.037 A 
ATOM     54  C   UNL A   1      38.167  30.840  30.210  1.00  0.00     0.037 A 
ATOM     55  C   UNL A   1      42.325  29.448  34.795  1.00  0.00     0.049 A 
ATOM     56  C   UNL A   1      38.189  31.304  31.528  1.00  0.00     0.074 A 
ATOM     57  C   UNL A   1      42.372  29.975  36.100  1.00  0.00     0.029 A 
ATOM     58  N   UNL A   1      41.247  30.014  34.151  1.00  0.00    -0.354 N 
ATOM     59  N   UNL A   1      39.080  31.010  32.476  1.00  0.00    -0.248 NA
ATOM     60  C   UNL A   1      37.195  32.224  32.096  1.00  0.00     0.031 C 
ATOM     61  C   UNL A   1      41.333  30.839  36.244  1.00  0.00     0.029 A 
ATOM     62  C   UNL A   1      40.619  30.866  35.031  1.00  0.00     0.049 A 
ATOM     63  H   UNL A   1      40.974  29.839  33.221  1.00  0.00     0.167 HD
ATOM     64  C   UNL A   1      38.783  31.658  33.604  1.00  0.00     0.074 A 
ATOM     65  C   UNL A   1      37.561  32.444  33.378  1.00  0.00     0.031 C 
ATOM     66  C   UNL A   1      39.483  31.631  34.811  1.00  0.00     0.037 A 
BRANCH  53  67
ATOM     67  C   UNL A   1      44.335  28.030  35.206  1.00  0.00     0.057 A 
ATOM     68  C   UNL A   1      44.169  26.870  35.943  1.00  0.00     0.134 A 
ATOM     69  C   UNL A   1      45.465  28.726  35.263  1.00  0.00     0.134 A 
ATOM     70  F   UNL A   1      43.173  26.013  35.732  1.00  0.00    -0.206 F 
ATOM     71  C   UNL A   1      45.153  26.679  36.941  1.00  0.00     0.040 A 
ATOM     72  C   UNL A   1      46.442  28.401  36.171  1.00  0.00     0.040 A 
ATOM     73  F   UNL A   1      45.651  29.749  34.433  1.00  0.00    -0.206 F 
ATOM     74  C   UNL A   1      46.318  27.300  36.973  1.00  0.00     0.006 A 
ENDBRANCH  53  67
BRANCH  54  75
ATOM     75  C   UNL A   1      37.066  31.344  29.291  1.00  0.00     0.057 A 
ATOM     76  C   UNL A   1      37.167  32.589  28.692  1.00  0.00     0.134 A 
ATOM     77  C   UNL A   1      36.018  30.559  29.077  1.00  0.00     0.134 A 
ATOM     78  F   UNL A   1      38.293  33.295  28.670  1.00  0.00    -0.206 F 
ATOM     79  C   UNL A   1      35.962  33.041  28.104  1.00  0.00     0.040 A 
ATOM     80  C   UNL A   1      34.929  31.020  28.377  1.00  0.00     0.040 A 
ATOM     81  F   UNL A   1      36.020  29.314  29.544  1.00  0.00    -0.206 F 
ATOM     82  C   UNL A   1      34.936  32.263  27.807  1.00  0.00     0.006 A 
ENDBRANCH  54  75
BRANCH  66  83
ATOM     83  C   UNL A   1      38.971  32.492  35.953  1.00  0.00     0.057 A 
ATOM     84  C   UNL A   1      39.314  33.833  36.003  1.00  0.00     0.134 A 
ATOM     85  C   UNL A   1      38.214  31.941  36.895  1.00  0.00     0.134 A 
ATOM     86  F   UNL A   1      39.848  34.483  34.973  1.00  0.00    -0.206 F 
ATOM     87  C   UNL A   1      39.048  34.448  37.249  1.00  0.00     0.040 A 
ATOM     88  C   UNL A   1      37.876  32.645  38.025  1.00  0.00     0.040 A 
ATOM     89  F   UNL A   1      37.777  30.693  36.741  1.00  0.00    -0.206 F 
ATOM     90  C   UNL A   1      38.234  33.957  38.167  1.00  0.00     0.006 A 
ENDBRANCH  66  83
ENDBRANCH  40  41
ENDBRANCH  33  35
ENDBRANCH  32  33
ENDBRANCH  31  32
ENDBRANCH  30  31
ENDBRANCH  29  30
ENDBRANCH   1  29
TORSDOF 19
ENDMDL
MODEL 3
REMARK VINA RESULT:     -11.6      4.689      9.818
REMARK SMILES O=C(OCCOCCOCCOC(=O)c1ccc(-c2c3nc(c(-c4c(F)cccc4F)c4ccc([nH]4)c(-c4c(F)cccc4F)c4nc(c(-c5c(F)cccc5F)c5ccc2[nH]5)C=C4)C=C3)cc1)C1=Cc2cc(S(F)(F)(F)(F)F)ccc2O[C@@H]1C(F)(F)F
REMARK SMILES IDX 8 1 7 2 6 3 5 4 4 5 3 6 2 7 1 8 69 9 70 10 84 11 71 12 83 13
REMARK SMILES IDX 72 14 82 15 73 16 81 17 80 18 85 19 86 20 87 21 88 22 74 23
REMARK SMILES IDX 75 24 76 25 77 26 78 27 79 28 9 29 10 30 11 31 12 32 13 33
REMARK SMILES IDX 14 34 15 35 16 36 68 37 17 38 67 39 18 40 19 41 20 42 61 43
REMARK SMILES IDX 21 44 66 45 60 46 62 47 22 48 65 49 59 50 58 51 23 53 49 54
REMARK SMILES IDX 32 55 48 56 33 57 36 58 47 59 63 60 34 61 35 62 46 64 64 65
REMARK SMILES IDX 37 66 24 67 25 68 30 69 26 70 27 71 29 72 31 73 28 74 50 75
REMARK SMILES IDX 51 76 56 77 52 78 53 79 55 80 57 81 54 82 38 83 39 84 44 85
REMARK SMILES IDX 40 86 41 87 43 88 45 89 42 90
REMARK H PARENT 62 52 36 63
REMARK Flexibility Score: inf
ROOT
ATOM      1  C   UNL A   1      33.752  33.546  28.065  1.00  0.00     0.188 C 
ENDROOT
BRANCH   1   2
ATOM      2  C   UNL A   1      34.725  32.388  27.909  1.00  0.00     0.188 C 
BRANCH   2   3
ATOM      3  O   UNL A   1      34.124  31.196  28.394  1.00  0.00    -0.376 OA
BRANCH   3   4
ATOM      4  C   UNL A   1      33.431  30.551  27.335  1.00  0.00     0.202 C 
BRANCH   4   5
ATOM      5  C   UNL A   1      34.180  29.291  26.933  1.00  0.00     0.261 C 
BRANCH   5   6
ATOM      6  O   UNL A   1      33.387  28.153  27.237  1.00  0.00    -0.460 OA
BRANCH   6   7
ATOM      7  C   UNL A   1      32.129  27.973  26.603  1.00  0.00     0.338 C 
ATOM      8  O   UNL A   1      31.076  27.848  27.304  1.00  0.00    -0.246 OA
BRANCH   7   9
ATOM      9  C   UNL A   1      32.042  27.931  25.087  1.00  0.00     0.087 C 
ATOM     10  C   UNL A   1      32.530  26.859  24.407  1.00  0.00     0.027 C 
ATOM     11  C   UNL A   1      31.409  29.087  24.329  1.00  0.00     0.316 C 
ATOM     12  C   UNL A   1      33.163  25.704  25.163  1.00  0.00     0.019 A 
ATOM     13  O   UNL A   1      31.422  25.896  26.770  1.00  0.00    -0.475 OA
ATOM     14  C   UNL A   1      34.362  25.173  24.716  1.00  0.00     0.036 A 
ATOM     15  C   UNL A   1      32.562  25.229  26.248  1.00  0.00     0.128 A 
ATOM     16  C   UNL A   1      34.705  23.940  25.322  1.00  0.00     0.107 A 
ATOM     17  C   UNL A   1      33.031  24.097  26.869  1.00  0.00     0.048 A 
ATOM     18  C   UNL A   1      34.178  23.484  26.444  1.00  0.00     0.028 A 
BRANCH  11  19
ATOM     19  C   UNL A   1      30.214  28.581  23.537  1.00  0.00     0.430 C 
ATOM     20  F   UNL A   1      29.586  27.640  24.236  1.00  0.00    -0.167 F 
ATOM     21  F   UNL A   1      29.380  29.589  23.299  1.00  0.00    -0.167 F 
ATOM     22  F   UNL A   1      30.634  28.070  22.382  1.00  0.00    -0.167 F 
ENDBRANCH  11  19
BRANCH  16  23
ATOM     23  S   UNL A   1      35.952  22.918  24.501  1.00  0.00     0.310 S 
ATOM     24  F   UNL A   1      35.931  23.824  23.201  1.00  0.00    -0.094 F 
ATOM     25  F   UNL A   1      34.792  22.074  23.848  1.00  0.00    -0.094 F 
ATOM     26  F   UNL A   1      37.025  22.039  23.798  1.00  0.00    -0.094 F 
ATOM     27  F   UNL A   1      37.095  23.858  25.052  1.00  0.00    -0.094 F 
ATOM     28  F   UNL A   1      34.872  23.885  25.131  1.00  0.00    -0.094 F 
ENDBRANCH  16  23
ENDBRANCH   7   9
ENDBRANCH   6   7
ENDBRANCH   5   6
ENDBRANCH   4   5
ENDBRANCH   3   4
ENDBRANCH   2   3
ENDBRANCH   1   2
BRANCH   1  29
ATOM     29  O   UNL A   1      33.409  33.694  29.435  1.00  0.00    -0.376 OA
BRANCH  29  30
ATOM     30  C   UNL A   1      34.551  34.113  30.167  1.00  0.00     0.202 C 
BRANCH  30  31
ATOM     31  C   UNL A   1      34.406  33.687  31.619  1.00  0.00     0.261 C 
BRANCH  31  32
ATOM     32  O   UNL A   1      34.794  32.327  31.754  1.00  0.00    -0.460 OA
BRANCH  32  33
ATOM     33  C   UNL A   1      35.965  31.992  32.484  1.00  0.00     0.338 C 
ATOM     34  O   UNL A   1      35.972  32.088  33.752  1.00  0.00    -0.246 OA
BRANCH  33  35
ATOM     35  C   UNL A   1      37.209  31.519  31.751  1.00  0.00     0.060 A 
ATOM     36  C   UNL A   1      37.320  31.735  30.387  1.00  0.00     0.016 A 
ATOM     37  C   UNL A   1      38.163  30.891  32.428  1.00  0.00     0.016 A 
ATOM     38  C   UNL A   1      38.351  30.987  29.770  1.00  0.00     0.010 A 
ATOM     39  C   UNL A   1      39.214  30.300  31.770  1.00  0.00     0.010 A 
ATOM     40  C   UNL A   1      39.354  30.421  30.415  1.00  0.00    -0.014 A 
BRANCH  40  41
ATOM     41  C   UNL A   1      40.597  29.932  29.691  1.00  0.00     0.031 A 
ATOM     42  C   UNL A   1      41.636  30.842  29.487  1.00  0.00     0.074 A 
ATOM     43  C   UNL A   1      40.638  28.608  29.288  1.00  0.00     0.049 A 
ATOM     44  N   UNL A   1      42.822  30.610  28.921  1.00  0.00    -0.248 NA
ATOM     45  C   UNL A   1      41.581  32.257  29.883  1.00  0.00     0.031 C 
ATOM     46  C   UNL A   1      39.597  27.681  29.497  1.00  0.00     0.029 A 
ATOM     47  N   UNL A   1      41.656  27.956  28.628  1.00  0.00    -0.354 N 
ATOM     48  C   UNL A   1      43.559  31.723  28.921  1.00  0.00     0.074 A 
ATOM     49  C   UNL A   1      42.768  32.800  29.534  1.00  0.00     0.031 C 
ATOM     50  C   UNL A   1      39.979  26.492  28.962  1.00  0.00     0.029 A 
ATOM     51  C   UNL A   1      41.263  26.654  28.409  1.00  0.00     0.049 A 
ATOM     52  H   UNL A   1      42.516  28.353  28.359  1.00  0.00     0.167 HD
ATOM     53  C   UNL A   1      44.857  31.881  28.436  1.00  0.00     0.037 A 
ATOM     54  C   UNL A   1      41.969  25.652  27.764  1.00  0.00     0.037 A 
ATOM     55  C   UNL A   1      45.580  30.867  27.829  1.00  0.00     0.049 A 
ATOM     56  C   UNL A   1      43.247  25.826  27.226  1.00  0.00     0.074 A 
ATOM     57  C   UNL A   1      46.893  31.008  27.341  1.00  0.00     0.029 A 
ATOM     58  N   UNL A   1      45.178  29.572  27.589  1.00  0.00    -0.354 N 
ATOM     59  N   UNL A   1      43.998  26.928  27.261  1.00  0.00    -0.248 NA
ATOM     60  C   UNL A   1      43.991  24.780  26.513  1.00  0.00     0.031 C 
ATOM     61  C   UNL A   1      47.274  29.818  26.806  1.00  0.00     0.029 A 
ATOM     62  C   UNL A   1      46.205  28.914  26.950  1.00  0.00     0.049 A 
ATOM     63  H   UNL A   1      44.306  29.184  27.832  1.00  0.00     0.167 HD
ATOM     64  C   UNL A   1      45.167  26.706  26.658  1.00  0.00     0.074 A 
ATOM     65  C   UNL A   1      45.177  25.323  26.161  1.00  0.00     0.031 C 
ATOM     66  C   UNL A   1      46.228  27.600  26.507  1.00  0.00     0.037 A 
BRANCH  53  67
ATOM     67  C   UNL A   1      45.515  33.244  28.580  1.00  0.00     0.057 A 
ATOM     68  C   UNL A   1      45.365  34.200  27.588  1.00  0.00     0.134 A 
ATOM     69  C   UNL A   1      46.216  33.498  29.679  1.00  0.00     0.134 A 
ATOM     70  F   UNL A   1      44.478  34.088  26.603  1.00  0.00    -0.206 F 
ATOM     71  C   UNL A   1      46.239  35.305  27.719  1.00  0.00     0.040 A 
ATOM     72  C   UNL A   1      46.939  34.659  29.796  1.00  0.00     0.040 A 
ATOM     73  F   UNL A   1      46.217  32.618  30.677  1.00  0.00    -0.206 F 
ATOM     74  C   UNL A   1      46.883  35.623  28.827  1.00  0.00     0.006 A 
ENDBRANCH  53  67
BRANCH  54  75
ATOM     75  C   UNL A   1      41.317  24.284  27.635  1.00  0.00     0.057 A 
ATOM     76  C   UNL A   1      41.731  23.231  28.433  1.00  0.00     0.134 A 
ATOM     77  C   UNL A   1      40.343  24.134  26.746  1.00  0.00     0.134 A 
ATOM     78  F   UNL A   1      42.512  23.390  29.498  1.00  0.00    -0.206 F 
ATOM     79  C   UNL A   1      41.246  21.969  28.014  1.00  0.00     0.040 A 
ATOM     80  C   UNL A   1      39.821  22.891  26.483  1.00  0.00     0.040 A 
ATOM     81  F   UNL A   1      39.867  25.197  26.103  1.00  0.00    -0.206 F 
ATOM     82  C   UNL A   1      40.226  21.795  27.194  1.00  0.00     0.006 A 
ENDBRANCH  54  75
BRANCH  66  83
ATOM     83  C   UNL A   1      47.486  27.104  25.813  1.00  0.00     0.057 A 
ATOM     84  C   UNL A   1      47.588  27.201  24.435  1.00  0.00     0.134 A 
ATOM     85  C   UNL A   1      48.462  26.570  26.539  1.00  0.00     0.134 A 
ATOM     86  F   UNL A   1      46.767  27.944  23.698  1.00  0.00    -0.206 F 
ATOM     87  C   UNL A   1      48.644  26.439  23.882  1.00  0.00     0.040 A 
ATOM     88  C   UNL A   1      49.533  25.960  25.932  1.00  0.00     0.040 A 
ATOM     89  F   UNL A   1      48.401  26.627  27.867  1.00  0.00    -0.206 F 
ATOM     90  C   UNL A   1      49.667  25.967  24.572  1.00  0.00     0.006 A 
ENDBRANCH  66  83
ENDBRANCH  40  41
ENDBRANCH  33  35
ENDBRANCH  32  33
ENDBRANCH  31  32
ENDBRANCH  30  31
ENDBRANCH  29  30
ENDBRANCH   1  29
TORSDOF 19
ENDMDL
