MODEL 1
REMARK VINA RESULT:      -9.7      0.000      0.000
REMARK SMILES CC(C)[C@@H](CC(=O)OCCOCCOCCOC(=O)c1ccc(-c2c3nc(c(-c4c(F)cccc4F)c4ccc([nH]4)c(-c4c(F)cccc4F)c4nc(c(-c5c(F)cccc5F)c5ccc2[nH]5)C=C4)C=C3)cc1)NC(=O)OCc1ccccc1
REMARK SMILES IDX 11 1 10 2 9 3 8 4 6 5 7 6 5 7 4 8 2 9 1 10 3 11 74 12 75 13
REMARK SMILES IDX 76 15 77 16 78 17 79 18 80 19 84 20 81 21 83 22 82 23 12 24
REMARK SMILES IDX 13 25 14 26 15 27 16 28 17 29 18 30 19 31 20 32 21 33 73 34
REMARK SMILES IDX 22 35 72 36 23 37 24 38 25 39 66 40 26 41 71 42 65 43 67 44
REMARK SMILES IDX 27 45 70 46 64 47 63 48 28 50 54 51 37 52 53 53 38 54 41 55
REMARK SMILES IDX 52 56 68 57 39 58 40 59 51 61 69 62 42 63 29 64 30 65 35 66
REMARK SMILES IDX 31 67 32 68 34 69 36 70 33 71 55 72 56 73 61 74 57 75 58 76
REMARK SMILES IDX 60 77 62 78 59 79 43 80 44 81 49 82 45 83 46 84 48 85 50 86
REMARK SMILES IDX 47 87
REMARK H PARENT 74 14 67 49 41 60
REMARK Flexibility Score: inf
ROOT
ATOM      1  O   UNL A   1      37.214  22.153  26.054  1.00  0.00    -0.376 OA
ENDROOT
BRANCH   1   2
ATOM      2  C   UNL A   1      36.468  21.377  25.114  1.00  0.00     0.202 C 
BRANCH   2   3
ATOM      3  C   UNL A   1      35.363  22.102  24.318  1.00  0.00     0.261 C 
BRANCH   3   4
ATOM      4  O   UNL A   1      34.030  21.964  24.890  1.00  0.00    -0.463 OA
BRANCH   4   5
ATOM      5  C   UNL A   1      33.076  21.441  24.083  1.00  0.00     0.307 C 
ATOM      6  O   UNL A   1      32.931  20.233  23.909  1.00  0.00    -0.252 OA
BRANCH   5   7
ATOM      7  C   UNL A   1      32.074  22.430  23.481  1.00  0.00     0.148 C 
BRANCH   7   8
ATOM      8  C   UNL A   1      32.049  23.955  23.742  1.00  0.00     0.099 C 
BRANCH   8   9
ATOM      9  C   UNL A   1      31.358  24.414  25.052  1.00  0.00     0.006 C 
ATOM     10  C   UNL A   1      30.262  25.445  24.785  1.00  0.00     0.009 C 
ATOM     11  C   UNL A   1      30.749  23.224  25.815  1.00  0.00     0.009 C 
ENDBRANCH   8   9
BRANCH   8  12
ATOM     12  N   UNL A   1      31.517  24.726  22.607  1.00  0.00    -0.318 N 
ATOM     13  C   UNL A   1      32.024  25.832  21.981  1.00  0.00     0.407 C 
ATOM     14  H   UNL A   1      30.665  24.396  22.243  1.00  0.00     0.167 HD
ATOM     15  O   UNL A   1      31.305  26.478  21.225  1.00  0.00    -0.225 OA
BRANCH  13  16
ATOM     16  O   UNL A   1      33.324  26.117  22.238  1.00  0.00    -0.445 OA
BRANCH  16  17
ATOM     17  C   UNL A   1      33.572  27.467  22.709  1.00  0.00     0.270 C 
BRANCH  17  18
ATOM     18  C   UNL A   1      33.104  27.776  24.121  1.00  0.00    -0.011 A 
ATOM     19  C   UNL A   1      33.730  27.234  25.243  1.00  0.00     0.007 A 
ATOM     20  C   UNL A   1      32.071  28.706  24.337  1.00  0.00     0.007 A 
ATOM     21  C   UNL A   1      33.333  27.588  26.538  1.00  0.00     0.000 A 
ATOM     22  C   UNL A   1      31.674  29.062  25.634  1.00  0.00     0.000 A 
ATOM     23  C   UNL A   1      32.309  28.504  26.736  1.00  0.00     0.000 A 
ENDBRANCH  17  18
ENDBRANCH  16  17
ENDBRANCH  13  16
ENDBRANCH   8  12
ENDBRANCH   7   8
ENDBRANCH   5   7
ENDBRANCH   4   5
ENDBRANCH   3   4
ENDBRANCH   2   3
ENDBRANCH   1   2
BRANCH   1  24
ATOM     24  C   UNL A   1      38.604  22.292  25.818  1.00  0.00     0.188 C 
BRANCH  24  25
ATOM     25  C   UNL A   1      39.460  21.028  25.914  1.00  0.00     0.188 C 
BRANCH  25  26
ATOM     26  O   UNL A   1      40.179  20.872  27.120  1.00  0.00    -0.376 OA
BRANCH  26  27
ATOM     27  C   UNL A   1      41.543  20.472  27.042  1.00  0.00     0.202 C 
BRANCH  27  28
ATOM     28  C   UNL A   1      42.372  21.148  25.934  1.00  0.00     0.261 C 
BRANCH  28  29
ATOM     29  O   UNL A   1      43.341  22.114  26.392  1.00  0.00    -0.460 OA
BRANCH  29  30
ATOM     30  C   UNL A   1      43.423  23.272  25.697  1.00  0.00     0.338 C 
ATOM     31  O   UNL A   1      43.740  23.397  24.523  1.00  0.00    -0.246 OA
BRANCH  30  32
ATOM     32  C   UNL A   1      42.809  24.331  26.530  1.00  0.00     0.060 A 
ATOM     33  C   UNL A   1      43.397  25.599  26.546  1.00  0.00     0.016 A 
ATOM     34  C   UNL A   1      41.630  24.108  27.238  1.00  0.00     0.016 A 
ATOM     35  C   UNL A   1      42.815  26.641  27.263  1.00  0.00     0.010 A 
ATOM     36  C   UNL A   1      41.087  25.141  28.018  1.00  0.00     0.010 A 
ATOM     37  C   UNL A   1      41.701  26.407  28.071  1.00  0.00    -0.014 A 
BRANCH  37  38
ATOM     38  C   UNL A   1      41.336  27.401  29.122  1.00  0.00     0.031 A 
ATOM     39  C   UNL A   1      42.178  27.464  30.374  1.00  0.00     0.074 A 
ATOM     40  C   UNL A   1      40.370  28.324  28.948  1.00  0.00     0.049 A 
ATOM     41  N   UNL A   1      41.984  28.139  31.480  1.00  0.00    -0.248 NA
ATOM     42  C   UNL A   1      43.418  26.670  30.368  1.00  0.00     0.031 C 
ATOM     43  C   UNL A   1      39.573  28.507  27.738  1.00  0.00     0.029 A 
ATOM     44  N   UNL A   1      39.905  29.296  29.805  1.00  0.00    -0.354 N 
ATOM     45  C   UNL A   1      43.042  27.804  32.317  1.00  0.00     0.074 A 
ATOM     46  C   UNL A   1      43.880  26.876  31.592  1.00  0.00     0.031 C 
ATOM     47  C   UNL A   1      38.718  29.528  27.927  1.00  0.00     0.029 A 
ATOM     48  C   UNL A   1      38.851  30.019  29.298  1.00  0.00     0.049 A 
ATOM     49  H   UNL A   1      40.289  29.457  30.696  1.00  0.00     0.167 HD
ATOM     50  C   UNL A   1      43.294  28.230  33.578  1.00  0.00     0.037 A 
ATOM     51  C   UNL A   1      38.053  30.935  29.883  1.00  0.00     0.037 A 
ATOM     52  C   UNL A   1      42.495  29.195  34.286  1.00  0.00     0.049 A 
ATOM     53  C   UNL A   1      38.275  31.304  31.328  1.00  0.00     0.074 A 
ATOM     54  C   UNL A   1      42.673  29.683  35.569  1.00  0.00     0.029 A 
ATOM     55  N   UNL A   1      41.377  29.828  33.769  1.00  0.00    -0.354 N 
ATOM     56  N   UNL A   1      39.224  30.921  32.146  1.00  0.00    -0.248 NA
ATOM     57  C   UNL A   1      37.300  32.224  31.935  1.00  0.00     0.031 C 
ATOM     58  C   UNL A   1      41.629  30.570  35.848  1.00  0.00     0.029 A 
ATOM     59  C   UNL A   1      40.837  30.681  34.718  1.00  0.00     0.049 A 
ATOM     60  H   UNL A   1      41.019  29.692  32.862  1.00  0.00     0.167 HD
ATOM     61  C   UNL A   1      38.977  31.570  33.350  1.00  0.00     0.074 A 
ATOM     62  C   UNL A   1      37.797  32.384  33.154  1.00  0.00     0.031 C 
ATOM     63  C   UNL A   1      39.668  31.497  34.515  1.00  0.00     0.037 A 
BRANCH  50  64
ATOM     64  C   UNL A   1      44.452  27.609  34.303  1.00  0.00     0.057 A 
ATOM     65  C   UNL A   1      45.725  28.188  34.325  1.00  0.00     0.134 A 
ATOM     66  C   UNL A   1      44.266  26.426  35.032  1.00  0.00     0.134 A 
ATOM     67  F   UNL A   1      45.973  29.313  33.637  1.00  0.00    -0.206 F 
ATOM     68  C   UNL A   1      46.779  27.602  35.031  1.00  0.00     0.040 A 
ATOM     69  C   UNL A   1      45.303  25.847  35.764  1.00  0.00     0.040 A 
ATOM     70  F   UNL A   1      43.067  25.822  35.056  1.00  0.00    -0.206 F 
ATOM     71  C   UNL A   1      46.566  26.433  35.761  1.00  0.00     0.006 A 
ENDBRANCH  50  64
BRANCH  51  72
ATOM     72  C   UNL A   1      36.912  31.523  29.130  1.00  0.00     0.057 A 
ATOM     73  C   UNL A   1      36.948  32.840  28.657  1.00  0.00     0.134 A 
ATOM     74  C   UNL A   1      35.737  30.793  28.907  1.00  0.00     0.134 A 
ATOM     75  F   UNL A   1      38.029  33.605  28.871  1.00  0.00    -0.206 F 
ATOM     76  C   UNL A   1      35.855  33.413  28.001  1.00  0.00     0.040 A 
ATOM     77  C   UNL A   1      34.650  31.342  28.226  1.00  0.00     0.040 A 
ATOM     78  F   UNL A   1      35.630  29.530  29.347  1.00  0.00    -0.206 F 
ATOM     79  C   UNL A   1      34.705  32.659  27.778  1.00  0.00     0.006 A 
ENDBRANCH  51  72
BRANCH  63  80
ATOM     80  C   UNL A   1      39.198  32.351  35.658  1.00  0.00     0.057 A 
ATOM     81  C   UNL A   1      39.591  33.689  35.797  1.00  0.00     0.134 A 
ATOM     82  C   UNL A   1      38.309  31.840  36.612  1.00  0.00     0.134 A 
ATOM     83  F   UNL A   1      40.449  34.239  34.925  1.00  0.00    -0.206 F 
ATOM     84  C   UNL A   1      39.137  34.478  36.856  1.00  0.00     0.040 A 
ATOM     85  C   UNL A   1      37.825  32.625  37.659  1.00  0.00     0.040 A 
ATOM     86  F   UNL A   1      37.881  30.570  36.533  1.00  0.00    -0.206 F 
ATOM     87  C   UNL A   1      38.245  33.948  37.787  1.00  0.00     0.006 A 
ENDBRANCH  63  80
ENDBRANCH  37  38
ENDBRANCH  30  32
ENDBRANCH  29  30
ENDBRANCH  28  29
ENDBRANCH  27  28
ENDBRANCH  26  27
ENDBRANCH  25  26
ENDBRANCH  24  25
ENDBRANCH   1  24
TORSDOF 23
ENDMDL
MODEL 2
REMARK VINA RESULT:      -9.7      1.389      2.387
REMARK SMILES CC(C)[C@@H](CC(=O)OCCOCCOCCOC(=O)c1ccc(-c2c3nc(c(-c4c(F)cccc4F)c4ccc([nH]4)c(-c4c(F)cccc4F)c4nc(c(-c5c(F)cccc5F)c5ccc2[nH]5)C=C4)C=C3)cc1)NC(=O)OCc1ccccc1
REMARK SMILES IDX 11 1 10 2 9 3 8 4 6 5 7 6 5 7 4 8 2 9 1 10 3 11 74 12 75 13
REMARK SMILES IDX 76 15 77 16 78 17 79 18 80 19 84 20 81 21 83 22 82 23 12 24
REMARK SMILES IDX 13 25 14 26 15 27 16 28 17 29 18 30 19 31 20 32 21 33 73 34
REMARK SMILES IDX 22 35 72 36 23 37 24 38 25 39 66 40 26 41 71 42 65 43 67 44
REMARK SMILES IDX 27 45 70 46 64 47 63 48 28 50 54 51 37 52 53 53 38 54 41 55
REMARK SMILES IDX 52 56 68 57 39 58 40 59 51 61 69 62 42 63 29 64 30 65 35 66
REMARK SMILES IDX 31 67 32 68 34 69 36 70 33 71 55 72 56 73 61 74 57 75 58 76
REMARK SMILES IDX 60 77 62 78 59 79 43 80 44 81 49 82 45 83 46 84 48 85 50 86
REMARK SMILES IDX 47 87
REMARK H PARENT 74 14 67 49 41 60
REMARK Flexibility Score: inf
ROOT
ATOM      1  O   UNL A   1      39.599  22.629  26.538  1.00  0.00    -0.376 OA
ENDROOT
BRANCH   1   2
ATOM      2  C   UNL A   1      38.594  21.841  25.896  1.00  0.00     0.202 C 
BRANCH   2   3
ATOM      3  C   UNL A   1      37.251  22.531  25.579  1.00  0.00     0.261 C 
BRANCH   3   4
ATOM      4  O   UNL A   1      36.463  21.855  24.556  1.00  0.00    -0.463 OA
BRANCH   4   5
ATOM      5  C   UNL A   1      35.546  22.608  23.902  1.00  0.00     0.307 C 
ATOM      6  O   UNL A   1      35.725  23.053  22.770  1.00  0.00    -0.252 OA
BRANCH   5   7
ATOM      7  C   UNL A   1      34.189  22.781  24.591  1.00  0.00     0.148 C 
BRANCH   7   8
ATOM      8  C   UNL A   1      33.285  21.633  25.097  1.00  0.00     0.099 C 
BRANCH   8   9
ATOM      9  C   UNL A   1      32.376  20.959  24.035  1.00  0.00     0.006 C 
ATOM     10  C   UNL A   1      32.342  21.754  22.731  1.00  0.00     0.009 C 
ATOM     11  C   UNL A   1      32.836  19.521  23.731  1.00  0.00     0.009 C 
ENDBRANCH   8   9
BRANCH   8  12
ATOM     12  N   UNL A   1      32.480  22.005  26.270  1.00  0.00    -0.318 N 
ATOM     13  C   UNL A   1      31.722  23.120  26.499  1.00  0.00     0.407 C 
ATOM     14  H   UNL A   1      32.488  21.350  27.005  1.00  0.00     0.167 HD
ATOM     15  O   UNL A   1      31.336  23.362  27.639  1.00  0.00    -0.225 OA
BRANCH  13  16
ATOM     16  O   UNL A   1      31.432  23.875  25.412  1.00  0.00    -0.445 OA
BRANCH  16  17
ATOM     17  C   UNL A   1      30.805  25.151  25.703  1.00  0.00     0.270 C 
BRANCH  17  18
ATOM     18  C   UNL A   1      31.746  26.288  26.064  1.00  0.00    -0.011 A 
ATOM     19  C   UNL A   1      31.384  27.290  26.964  1.00  0.00     0.007 A 
ATOM     20  C   UNL A   1      33.061  26.306  25.564  1.00  0.00     0.007 A 
ATOM     21  C   UNL A   1      32.290  28.288  27.342  1.00  0.00     0.000 A 
ATOM     22  C   UNL A   1      33.968  27.305  25.944  1.00  0.00     0.000 A 
ATOM     23  C   UNL A   1      33.582  28.296  26.838  1.00  0.00     0.000 A 
ENDBRANCH  17  18
ENDBRANCH  16  17
ENDBRANCH  13  16
ENDBRANCH   8  12
ENDBRANCH   7   8
ENDBRANCH   5   7
ENDBRANCH   4   5
ENDBRANCH   3   4
ENDBRANCH   2   3
ENDBRANCH   1   2
BRANCH   1  24
ATOM     24  C   UNL A   1      40.334  22.012  27.580  1.00  0.00     0.188 C 
BRANCH  24  25
ATOM     25  C   UNL A   1      41.178  20.789  27.213  1.00  0.00     0.188 C 
BRANCH  25  26
ATOM     26  O   UNL A   1      42.537  21.053  26.930  1.00  0.00    -0.376 OA
BRANCH  26  27
ATOM     27  C   UNL A   1      43.001  20.836  25.601  1.00  0.00     0.202 C 
BRANCH  27  28
ATOM     28  C   UNL A   1      44.012  21.871  25.075  1.00  0.00     0.261 C 
BRANCH  28  29
ATOM     29  O   UNL A   1      43.490  23.202  24.883  1.00  0.00    -0.460 OA
BRANCH  29  30
ATOM     30  C   UNL A   1      44.297  24.231  25.230  1.00  0.00     0.338 C 
ATOM     31  O   UNL A   1      45.358  24.534  24.703  1.00  0.00    -0.246 OA
BRANCH  30  32
ATOM     32  C   UNL A   1      43.547  25.079  26.182  1.00  0.00     0.060 A 
ATOM     33  C   UNL A   1      43.568  26.466  26.008  1.00  0.00     0.016 A 
ATOM     34  C   UNL A   1      42.771  24.523  27.197  1.00  0.00     0.016 A 
ATOM     35  C   UNL A   1      42.823  27.296  26.841  1.00  0.00     0.010 A 
ATOM     36  C   UNL A   1      42.080  25.368  28.079  1.00  0.00     0.010 A 
ATOM     37  C   UNL A   1      42.134  26.767  27.934  1.00  0.00    -0.014 A 
BRANCH  37  38
ATOM     38  C   UNL A   1      41.683  27.678  29.027  1.00  0.00     0.031 A 
ATOM     39  C   UNL A   1      42.495  27.729  30.300  1.00  0.00     0.074 A 
ATOM     40  C   UNL A   1      40.662  28.543  28.879  1.00  0.00     0.049 A 
ATOM     41  N   UNL A   1      42.234  28.329  31.434  1.00  0.00    -0.248 NA
ATOM     42  C   UNL A   1      43.785  27.019  30.280  1.00  0.00     0.031 C 
ATOM     43  C   UNL A   1      39.879  28.738  27.662  1.00  0.00     0.029 A 
ATOM     44  N   UNL A   1      40.116  29.435  29.774  1.00  0.00    -0.354 N 
ATOM     45  C   UNL A   1      43.296  28.020  32.277  1.00  0.00     0.074 A 
ATOM     46  C   UNL A   1      44.208  27.189  31.524  1.00  0.00     0.031 C 
ATOM     47  C   UNL A   1      38.953  29.689  27.884  1.00  0.00     0.029 A 
ATOM     48  C   UNL A   1      39.027  30.114  29.281  1.00  0.00     0.049 A 
ATOM     49  H   UNL A   1      40.471  29.574  30.681  1.00  0.00     0.167 HD
ATOM     50  C   UNL A   1      43.494  28.394  33.564  1.00  0.00     0.037 A 
ATOM     51  C   UNL A   1      38.157  30.943  29.894  1.00  0.00     0.037 A 
ATOM     52  C   UNL A   1      42.619  29.265  34.303  1.00  0.00     0.049 A 
ATOM     53  C   UNL A   1      38.326  31.248  31.361  1.00  0.00     0.074 A 
ATOM     54  C   UNL A   1      42.738  29.694  35.613  1.00  0.00     0.029 A 
ATOM     55  N   UNL A   1      41.472  29.850  33.794  1.00  0.00    -0.354 N 
ATOM     56  N   UNL A   1      39.283  30.884  32.180  1.00  0.00    -0.248 NA
ATOM     57  C   UNL A   1      37.280  32.068  31.993  1.00  0.00     0.031 C 
ATOM     58  C   UNL A   1      41.632  30.495  35.914  1.00  0.00     0.029 A 
ATOM     59  C   UNL A   1      40.857  30.614  34.773  1.00  0.00     0.049 A 
ATOM     60  H   UNL A   1      41.141  29.740  32.873  1.00  0.00     0.167 HD
ATOM     61  C   UNL A   1      38.969  31.451  33.411  1.00  0.00     0.074 A 
ATOM     62  C   UNL A   1      37.741  32.194  33.230  1.00  0.00     0.031 C 
ATOM     63  C   UNL A   1      39.640  31.361  34.585  1.00  0.00     0.037 A 
BRANCH  50  64
ATOM     64  C   UNL A   1      44.676  27.812  34.282  1.00  0.00     0.057 A 
ATOM     65  C   UNL A   1      44.676  26.512  34.800  1.00  0.00     0.134 A 
ATOM     66  C   UNL A   1      45.852  28.562  34.415  1.00  0.00     0.134 A 
ATOM     67  F   UNL A   1      43.578  25.746  34.719  1.00  0.00    -0.206 F 
ATOM     68  C   UNL A   1      45.800  25.985  35.441  1.00  0.00     0.040 A 
ATOM     69  C   UNL A   1      46.991  28.036  35.027  1.00  0.00     0.040 A 
ATOM     70  F   UNL A   1      45.919  29.814  33.936  1.00  0.00    -0.206 F 
ATOM     71  C   UNL A   1      46.965  26.745  35.547  1.00  0.00     0.006 A 
ENDBRANCH  50  64
BRANCH  51  72
ATOM     72  C   UNL A   1      36.995  31.494  29.147  1.00  0.00     0.057 A 
ATOM     73  C   UNL A   1      36.987  32.812  28.674  1.00  0.00     0.134 A 
ATOM     74  C   UNL A   1      35.842  30.728  28.930  1.00  0.00     0.134 A 
ATOM     75  F   UNL A   1      38.044  33.610  28.882  1.00  0.00    -0.206 F 
ATOM     76  C   UNL A   1      35.874  33.349  28.023  1.00  0.00     0.040 A 
ATOM     77  C   UNL A   1      34.735  31.242  28.254  1.00  0.00     0.040 A 
ATOM     78  F   UNL A   1      35.778  29.462  29.371  1.00  0.00    -0.206 F 
ATOM     79  C   UNL A   1      34.746  32.559  27.805  1.00  0.00     0.006 A 
ENDBRANCH  51  72
BRANCH  63  80
ATOM     80  C   UNL A   1      39.092  32.120  35.760  1.00  0.00     0.057 A 
ATOM     81  C   UNL A   1      38.233  31.527  36.694  1.00  0.00     0.134 A 
ATOM     82  C   UNL A   1      39.461  33.454  35.982  1.00  0.00     0.134 A 
ATOM     83  F   UNL A   1      37.832  30.257  36.537  1.00  0.00    -0.206 F 
ATOM     84  C   UNL A   1      37.741  32.239  37.791  1.00  0.00     0.040 A 
ATOM     85  C   UNL A   1      39.000  34.168  37.089  1.00  0.00     0.040 A 
ATOM     86  F   UNL A   1      40.290  34.081  35.134  1.00  0.00    -0.206 F 
ATOM     87  C   UNL A   1      38.131  33.562  37.994  1.00  0.00     0.006 A 
ENDBRANCH  63  80
ENDBRANCH  37  38
ENDBRANCH  30  32
ENDBRANCH  29  30
ENDBRANCH  28  29
ENDBRANCH  27  28
ENDBRANCH  26  27
ENDBRANCH  25  26
ENDBRANCH  24  25
ENDBRANCH   1  24
TORSDOF 23
ENDMDL
MODEL 3
REMARK VINA RESULT:      -9.5      3.836      7.802
REMARK SMILES CC(C)[C@@H](CC(=O)OCCOCCOCCOC(=O)c1ccc(-c2c3nc(c(-c4c(F)cccc4F)c4ccc([nH]4)c(-c4c(F)cccc4F)c4nc(c(-c5c(F)cccc5F)c5ccc2[nH]5)C=C4)C=C3)cc1)NC(=O)OCc1ccccc1
REMARK SMILES IDX 11 1 10 2 9 3 8 4 6 5 7 6 5 7 4 8 2 9 1 10 3 11 74 12 75 13
REMARK SMILES IDX 76 15 77 16 78 17 79 18 80 19 84 20 81 21 83 22 82 23 12 24
REMARK SMILES IDX 13 25 14 26 15 27 16 28 17 29 18 30 19 31 20 32 21 33 73 34
REMARK SMILES IDX 22 35 72 36 23 37 24 38 25 39 66 40 26 41 71 42 65 43 67 44
REMARK SMILES IDX 27 45 70 46 64 47 63 48 28 50 54 51 37 52 53 53 38 54 41 55
REMARK SMILES IDX 52 56 68 57 39 58 40 59 51 61 69 62 42 63 29 64 30 65 35 66
REMARK SMILES IDX 31 67 32 68 34 69 36 70 33 71 55 72 56 73 61 74 57 75 58 76
REMARK SMILES IDX 60 77 62 78 59 79 43 80 44 81 49 82 45 83 46 84 48 85 50 86
REMARK SMILES IDX 47 87
REMARK H PARENT 74 14 67 49 41 60
REMARK Flexibility Score: inf
ROOT
ATOM      1  O   UNL A   1      32.726  20.696  24.386  1.00  0.00    -0.376 OA
ENDROOT
BRANCH   1   2
ATOM      2  C   UNL A   1      31.894  21.588  25.131  1.00  0.00     0.202 C 
BRANCH   2   3
ATOM      3  C   UNL A   1      31.694  23.009  24.563  1.00  0.00     0.261 C 
BRANCH   3   4
ATOM      4  O   UNL A   1      30.558  23.723  25.133  1.00  0.00    -0.463 OA
BRANCH   4   5
ATOM      5  C   UNL A   1      30.815  24.513  26.203  1.00  0.00     0.307 C 
ATOM      6  O   UNL A   1      31.250  24.080  27.269  1.00  0.00    -0.252 OA
BRANCH   5   7
ATOM      7  C   UNL A   1      30.663  26.021  25.990  1.00  0.00     0.148 C 
BRANCH   7   8
ATOM      8  C   UNL A   1      31.777  26.977  25.502  1.00  0.00     0.099 C 
BRANCH   8   9
ATOM      9  C   UNL A   1      33.235  26.531  25.787  1.00  0.00     0.006 C 
ATOM     10  C   UNL A   1      33.901  25.941  24.544  1.00  0.00     0.009 C 
ATOM     11  C   UNL A   1      34.092  27.701  26.305  1.00  0.00     0.009 C 
ENDBRANCH   8   9
BRANCH   8  12
ATOM     12  N   UNL A   1      31.588  28.364  25.954  1.00  0.00    -0.318 N 
ATOM     13  C   UNL A   1      31.478  29.519  25.229  1.00  0.00     0.407 C 
ATOM     14  H   UNL A   1      31.533  28.479  26.930  1.00  0.00     0.167 HD
ATOM     15  O   UNL A   1      31.584  30.601  25.800  1.00  0.00    -0.225 OA
BRANCH  13  16
ATOM     16  O   UNL A   1      31.232  29.367  23.905  1.00  0.00    -0.445 OA
BRANCH  16  17
ATOM     17  C   UNL A   1      29.832  29.202  23.559  1.00  0.00     0.270 C 
BRANCH  17  18
ATOM     18  C   UNL A   1      29.166  30.396  22.896  1.00  0.00    -0.011 A 
ATOM     19  C   UNL A   1      29.040  31.626  23.543  1.00  0.00     0.007 A 
ATOM     20  C   UNL A   1      28.736  30.317  21.559  1.00  0.00     0.007 A 
ATOM     21  C   UNL A   1      28.490  32.736  22.891  1.00  0.00     0.000 A 
ATOM     22  C   UNL A   1      28.187  31.430  20.907  1.00  0.00     0.000 A 
ATOM     23  C   UNL A   1      28.067  32.642  21.573  1.00  0.00     0.000 A 
ENDBRANCH  17  18
ENDBRANCH  16  17
ENDBRANCH  13  16
ENDBRANCH   8  12
ENDBRANCH   7   8
ENDBRANCH   5   7
ENDBRANCH   4   5
ENDBRANCH   3   4
ENDBRANCH   2   3
ENDBRANCH   1   2
BRANCH   1  24
ATOM     24  C   UNL A   1      33.909  20.240  25.017  1.00  0.00     0.188 C 
BRANCH  24  25
ATOM     25  C   UNL A   1      34.790  21.290  25.698  1.00  0.00     0.188 C 
BRANCH  25  26
ATOM     26  O   UNL A   1      36.169  21.207  25.404  1.00  0.00    -0.376 OA
BRANCH  26  27
ATOM     27  C   UNL A   1      36.672  19.984  24.877  1.00  0.00     0.202 C 
BRANCH  27  28
ATOM     28  C   UNL A   1      38.206  19.876  24.797  1.00  0.00     0.261 C 
BRANCH  28  29
ATOM     29  O   UNL A   1      38.925  20.500  25.881  1.00  0.00    -0.460 OA
BRANCH  29  30
ATOM     30  C   UNL A   1      40.206  20.108  26.069  1.00  0.00     0.338 C 
ATOM     31  O   UNL A   1      40.709  19.057  25.699  1.00  0.00    -0.246 OA
BRANCH  30  32
ATOM     32  C   UNL A   1      40.958  21.283  26.566  1.00  0.00     0.060 A 
ATOM     33  C   UNL A   1      41.006  21.515  27.944  1.00  0.00     0.016 A 
ATOM     34  C   UNL A   1      41.668  22.112  25.701  1.00  0.00     0.016 A 
ATOM     35  C   UNL A   1      41.756  22.569  28.458  1.00  0.00     0.010 A 
ATOM     36  C   UNL A   1      42.363  23.216  26.218  1.00  0.00     0.010 A 
ATOM     37  C   UNL A   1      42.378  23.480  27.601  1.00  0.00    -0.014 A 
BRANCH  37  38
ATOM     38  C   UNL A   1      42.828  24.799  28.134  1.00  0.00     0.031 A 
ATOM     39  C   UNL A   1      41.782  25.843  28.442  1.00  0.00     0.074 A 
ATOM     40  C   UNL A   1      44.108  25.051  28.469  1.00  0.00     0.049 A 
ATOM     41  N   UNL A   1      41.929  27.100  28.778  1.00  0.00    -0.248 NA
ATOM     42  C   UNL A   1      40.379  25.401  28.377  1.00  0.00     0.031 C 
ATOM     43  C   UNL A   1      45.214  24.100  28.390  1.00  0.00     0.029 A 
ATOM     44  N   UNL A   1      44.689  26.198  28.958  1.00  0.00    -0.354 N 
ATOM     45  C   UNL A   1      40.641  27.610  28.906  1.00  0.00     0.074 A 
ATOM     46  C   UNL A   1      39.726  26.527  28.622  1.00  0.00     0.031 C 
ATOM     47  C   UNL A   1      46.339  24.701  28.815  1.00  0.00     0.029 A 
ATOM     48  C   UNL A   1      46.051  26.100  29.122  1.00  0.00     0.049 A 
ATOM     49  H   UNL A   1      44.179  27.013  29.170  1.00  0.00     0.167 HD
ATOM     50  C   UNL A   1      40.254  28.867  29.230  1.00  0.00     0.037 A 
ATOM     51  C   UNL A   1      46.968  27.039  29.434  1.00  0.00     0.037 A 
ATOM     52  C   UNL A   1      41.158  29.935  29.568  1.00  0.00     0.049 A 
ATOM     53  C   UNL A   1      46.528  28.462  29.670  1.00  0.00     0.074 A 
ATOM     54  C   UNL A   1      40.855  31.243  29.905  1.00  0.00     0.029 A 
ATOM     55  N   UNL A   1      42.537  29.817  29.623  1.00  0.00    -0.354 N 
ATOM     56  N   UNL A   1      45.316  28.961  29.705  1.00  0.00    -0.248 NA
ATOM     57  C   UNL A   1      47.589  29.456  29.894  1.00  0.00     0.031 C 
ATOM     58  C   UNL A   1      42.056  31.931  30.110  1.00  0.00     0.029 A 
ATOM     59  C   UNL A   1      43.101  31.036  29.961  1.00  0.00     0.049 A 
ATOM     60  H   UNL A   1      43.041  28.989  29.448  1.00  0.00     0.167 HD
ATOM     61  C   UNL A   1      45.468  30.316  29.981  1.00  0.00     0.074 A 
ATOM     62  C   UNL A   1      46.888  30.560  30.117  1.00  0.00     0.031 C 
ATOM     63  C   UNL A   1      44.515  31.271  30.107  1.00  0.00     0.037 A 
BRANCH  50  64
ATOM     64  C   UNL A   1      38.788  29.178  29.177  1.00  0.00     0.057 A 
ATOM     65  C   UNL A   1      37.963  29.117  30.306  1.00  0.00     0.134 A 
ATOM     66  C   UNL A   1      38.205  29.592  27.971  1.00  0.00     0.134 A 
ATOM     67  F   UNL A   1      38.455  28.715  31.487  1.00  0.00    -0.206 F 
ATOM     68  C   UNL A   1      36.606  29.439  30.233  1.00  0.00     0.040 A 
ATOM     69  C   UNL A   1      36.857  29.944  27.893  1.00  0.00     0.040 A 
ATOM     70  F   UNL A   1      38.942  29.677  26.852  1.00  0.00    -0.206 F 
ATOM     71  C   UNL A   1      36.052  29.862  29.026  1.00  0.00     0.006 A 
ENDBRANCH  50  64
BRANCH  51  72
ATOM     72  C   UNL A   1      48.413  26.690  29.471  1.00  0.00     0.057 A 
ATOM     73  C   UNL A   1      49.237  26.865  28.353  1.00  0.00     0.134 A 
ATOM     74  C   UNL A   1      48.995  26.129  30.615  1.00  0.00     0.134 A 
ATOM     75  F   UNL A   1      48.733  27.362  27.213  1.00  0.00    -0.206 F 
ATOM     76  C   UNL A   1      50.582  26.484  28.367  1.00  0.00     0.040 A 
ATOM     77  C   UNL A   1      50.344  25.773  30.654  1.00  0.00     0.040 A 
ATOM     78  F   UNL A   1      48.258  25.920  31.717  1.00  0.00    -0.206 F 
ATOM     79  C   UNL A   1      51.139  25.943  29.524  1.00  0.00     0.006 A 
ENDBRANCH  51  72
BRANCH  63  80
ATOM     80  C   UNL A   1      44.965  32.662  30.456  1.00  0.00     0.057 A 
ATOM     81  C   UNL A   1      45.204  33.633  29.475  1.00  0.00     0.134 A 
ATOM     82  C   UNL A   1      45.123  33.046  31.794  1.00  0.00     0.134 A 
ATOM     83  F   UNL A   1      45.082  33.331  28.175  1.00  0.00    -0.206 F 
ATOM     84  C   UNL A   1      45.608  34.928  29.813  1.00  0.00     0.040 A 
ATOM     85  C   UNL A   1      45.498  34.343  32.146  1.00  0.00     0.040 A 
ATOM     86  F   UNL A   1      44.898  32.169  32.785  1.00  0.00    -0.206 F 
ATOM     87  C   UNL A   1      45.749  35.287  31.153  1.00  0.00     0.006 A 
ENDBRANCH  63  80
ENDBRANCH  37  38
ENDBRANCH  30  32
ENDBRANCH  29  30
ENDBRANCH  28  29
ENDBRANCH  27  28
ENDBRANCH  26  27
ENDBRANCH  25  26
ENDBRANCH  24  25
ENDBRANCH   1  24
TORSDOF 23
ENDMDL
