MODEL 1
REMARK VINA RESULT:      -9.7      0.000      0.000
REMARK SMILES C[N@H+]1CCO[C@](C)(C(=O)OCCOCCOCCOC(=O)c2ccc(-c3c4nc(c(-c5c(F)cccc5F)c5ccc([nH]5)c(-c5c(F)cccc5F)c5nc(c(-c6c(F)cccc6F)c6ccc3[nH]6)C=C5)C=C4)cc2)C1
REMARK SMILES IDX 15 1 14 2 13 3 12 4 11 5 10 6 8 7 9 8 6 9 1 10 2 11 3 12
REMARK SMILES IDX 76 13 4 15 5 16 7 17 16 18 17 19 18 20 19 21 20 22 21 23
REMARK SMILES IDX 22 24 23 25 75 26 24 27 74 28 25 29 26 30 27 31 68 32 28 33
REMARK SMILES IDX 73 34 67 35 69 36 29 37 72 38 66 39 65 40 30 42 56 43 39 44
REMARK SMILES IDX 55 45 40 46 43 47 54 48 70 49 41 50 42 51 53 53 71 54 44 55
REMARK SMILES IDX 31 56 32 57 37 58 33 59 34 60 36 61 38 62 35 63 57 64 58 65
REMARK SMILES IDX 63 66 59 67 60 68 62 69 64 70 61 71 45 72 46 73 51 74 47 75
REMARK SMILES IDX 48 76 50 77 52 78 49 79
REMARK H PARENT 2 14 69 41 43 52
REMARK Flexibility Score: inf
ROOT
ATOM      1  C   UNL A   1      33.748  31.588  27.635  1.00  0.00     0.188 C 
ENDROOT
BRANCH   1   2
ATOM      2  C   UNL A   1      32.762  30.493  27.215  1.00  0.00     0.188 C 
BRANCH   2   3
ATOM      3  O   UNL A   1      32.358  30.426  25.857  1.00  0.00    -0.376 OA
BRANCH   3   4
ATOM      4  C   UNL A   1      32.768  29.304  25.082  1.00  0.00     0.202 C 
BRANCH   4   5
ATOM      5  C   UNL A   1      31.711  28.314  24.552  1.00  0.00     0.261 C 
BRANCH   5   6
ATOM      6  O   UNL A   1      31.127  28.597  23.256  1.00  0.00    -0.461 OA
BRANCH   6   7
ATOM      7  C   UNL A   1      29.773  28.475  23.191  1.00  0.00     0.344 C 
ATOM      8  O   UNL A   1      29.182  27.437  23.493  1.00  0.00    -0.249 OA
BRANCH   7   9
ATOM      9  C   UNL A   1      29.005  29.742  22.726  1.00  0.00     0.211 C 
ATOM     10  C   UNL A   1      27.698  31.888  20.557  1.00  0.00     0.332 C 
ATOM     11  N   UNL A   1      29.018  31.810  21.169  1.00  0.00    -0.333 N 
ATOM     12  C   UNL A   1      29.107  32.625  22.395  1.00  0.00     0.290 C 
ATOM     13  C   UNL A   1      29.499  30.426  21.423  1.00  0.00     0.310 C 
ATOM     14  H   UNL A   1      29.647  32.201  20.467  1.00  0.00     0.348 HD
ATOM     15  C   UNL A   1      28.559  31.931  23.648  1.00  0.00     0.223 C 
ATOM     16  O   UNL A   1      29.151  30.648  23.851  1.00  0.00    -0.353 OA
ATOM     17  C   UNL A   1      27.550  29.269  22.573  1.00  0.00     0.061 C 
ENDBRANCH   7   9
ENDBRANCH   6   7
ENDBRANCH   5   6
ENDBRANCH   4   5
ENDBRANCH   3   4
ENDBRANCH   2   3
ENDBRANCH   1   2
BRANCH   1  18
ATOM     18  O   UNL A   1      33.187  32.875  27.766  1.00  0.00    -0.376 OA
BRANCH  18  19
ATOM     19  C   UNL A   1      33.995  33.940  28.245  1.00  0.00     0.202 C 
BRANCH  19  20
ATOM     20  C   UNL A   1      34.083  34.195  29.767  1.00  0.00     0.261 C 
BRANCH  20  21
ATOM     21  O   UNL A   1      35.323  33.857  30.420  1.00  0.00    -0.460 OA
BRANCH  21  22
ATOM     22  C   UNL A   1      35.344  32.730  31.173  1.00  0.00     0.338 C 
ATOM     23  O   UNL A   1      34.445  32.316  31.888  1.00  0.00    -0.246 OA
BRANCH  22  24
ATOM     24  C   UNL A   1      36.521  31.923  30.747  1.00  0.00     0.060 A 
ATOM     25  C   UNL A   1      37.252  31.237  31.731  1.00  0.00     0.016 A 
ATOM     26  C   UNL A   1      36.854  31.769  29.401  1.00  0.00     0.016 A 
ATOM     27  C   UNL A   1      38.332  30.425  31.374  1.00  0.00     0.010 A 
ATOM     28  C   UNL A   1      37.955  30.977  29.046  1.00  0.00     0.010 A 
ATOM     29  C   UNL A   1      38.719  30.324  30.031  1.00  0.00    -0.014 A 
BRANCH  29  30
ATOM     30  C   UNL A   1      40.026  29.707  29.677  1.00  0.00     0.031 A 
ATOM     31  C   UNL A   1      41.260  30.572  29.730  1.00  0.00     0.074 A 
ATOM     32  C   UNL A   1      40.140  28.410  29.334  1.00  0.00     0.049 A 
ATOM     33  N   UNL A   1      42.496  30.283  29.414  1.00  0.00    -0.248 NA
ATOM     34  C   UNL A   1      41.066  31.951  30.206  1.00  0.00     0.031 C 
ATOM     35  C   UNL A   1      39.045  27.445  29.283  1.00  0.00     0.029 A 
ATOM     36  N   UNL A   1      41.245  27.686  28.950  1.00  0.00    -0.354 N 
ATOM     37  C   UNL A   1      43.224  31.446  29.641  1.00  0.00     0.074 A 
ATOM     38  C   UNL A   1      42.287  32.450  30.094  1.00  0.00     0.031 C 
ATOM     39  C   UNL A   1      39.530  26.258  28.873  1.00  0.00     0.029 A 
ATOM     40  C   UNL A   1      40.961  26.388  28.601  1.00  0.00     0.049 A 
ATOM     41  H   UNL A   1      42.154  28.064  28.927  1.00  0.00     0.167 HD
ATOM     42  C   UNL A   1      44.553  31.658  29.495  1.00  0.00     0.037 A 
ATOM     43  C   UNL A   1      41.759  25.425  28.095  1.00  0.00     0.037 A 
ATOM     44  C   UNL A   1      45.492  30.665  29.044  1.00  0.00     0.049 A 
ATOM     45  C   UNL A   1      43.223  25.711  27.862  1.00  0.00     0.074 A 
ATOM     46  C   UNL A   1      46.861  30.784  28.885  1.00  0.00     0.029 A 
ATOM     47  N   UNL A   1      45.158  29.373  28.669  1.00  0.00    -0.354 N 
ATOM     48  N   UNL A   1      43.906  26.802  28.108  1.00  0.00    -0.248 NA
ATOM     49  C   UNL A   1      44.027  24.623  27.282  1.00  0.00     0.031 C 
ATOM     50  C   UNL A   1      47.349  29.584  28.356  1.00  0.00     0.029 A 
ATOM     51  C   UNL A   1      46.292  28.696  28.248  1.00  0.00     0.049 A 
ATOM     52  H   UNL A   1      44.250  28.993  28.696  1.00  0.00     0.167 HD
ATOM     53  C   UNL A   1      45.220  26.523  27.744  1.00  0.00     0.074 A 
ATOM     54  C   UNL A   1      45.242  25.154  27.278  1.00  0.00     0.031 C 
ATOM     55  C   UNL A   1      46.309  27.329  27.792  1.00  0.00     0.037 A 
BRANCH  42  56
ATOM     56  C   UNL A   1      45.072  33.033  29.797  1.00  0.00     0.057 A 
ATOM     57  C   UNL A   1      45.519  33.395  31.075  1.00  0.00     0.134 A 
ATOM     58  C   UNL A   1      45.168  33.997  28.784  1.00  0.00     0.134 A 
ATOM     59  F   UNL A   1      45.442  32.525  32.094  1.00  0.00    -0.206 F 
ATOM     60  C   UNL A   1      46.023  34.670  31.339  1.00  0.00     0.040 A 
ATOM     61  C   UNL A   1      45.696  35.265  29.028  1.00  0.00     0.040 A 
ATOM     62  F   UNL A   1      44.762  33.715  27.537  1.00  0.00    -0.206 F 
ATOM     63  C   UNL A   1      46.121  35.606  30.311  1.00  0.00     0.006 A 
ENDBRANCH  42  56
BRANCH  43  64
ATOM     64  C   UNL A   1      41.197  24.093  27.741  1.00  0.00     0.057 A 
ATOM     65  C   UNL A   1      41.504  22.949  28.488  1.00  0.00     0.134 A 
ATOM     66  C   UNL A   1      40.385  23.923  26.613  1.00  0.00     0.134 A 
ATOM     67  F   UNL A   1      42.304  23.039  29.561  1.00  0.00    -0.206 F 
ATOM     68  C   UNL A   1      41.045  21.684  28.116  1.00  0.00     0.040 A 
ATOM     69  C   UNL A   1      39.894  22.669  26.245  1.00  0.00     0.040 A 
ATOM     70  F   UNL A   1      40.061  24.975  25.847  1.00  0.00    -0.206 F 
ATOM     71  C   UNL A   1      40.232  21.543  26.993  1.00  0.00     0.006 A 
ENDBRANCH  43  64
BRANCH  55  72
ATOM     72  C   UNL A   1      47.629  26.742  27.371  1.00  0.00     0.057 A 
ATOM     73  C   UNL A   1      48.156  26.937  26.087  1.00  0.00     0.134 A 
ATOM     74  C   UNL A   1      48.398  25.997  28.275  1.00  0.00     0.134 A 
ATOM     75  F   UNL A   1      47.469  27.632  25.169  1.00  0.00    -0.206 F 
ATOM     76  C   UNL A   1      49.382  26.386  25.709  1.00  0.00     0.040 A 
ATOM     77  C   UNL A   1      49.640  25.468  27.918  1.00  0.00     0.040 A 
ATOM     78  F   UNL A   1      47.962  25.782  29.526  1.00  0.00    -0.206 F 
ATOM     79  C   UNL A   1      50.131  25.654  26.629  1.00  0.00     0.006 A 
ENDBRANCH  55  72
ENDBRANCH  29  30
ENDBRANCH  22  24
ENDBRANCH  21  22
ENDBRANCH  20  21
ENDBRANCH  19  20
ENDBRANCH  18  19
ENDBRANCH   1  18
TORSDOF 17
ENDMDL
MODEL 2
REMARK VINA RESULT:      -9.7      4.883      9.558
REMARK SMILES C[N@H+]1CCO[C@](C)(C(=O)OCCOCCOCCOC(=O)c2ccc(-c3c4nc(c(-c5c(F)cccc5F)c5ccc([nH]5)c(-c5c(F)cccc5F)c5nc(c(-c6c(F)cccc6F)c6ccc3[nH]6)C=C5)C=C4)cc2)C1
REMARK SMILES IDX 15 1 14 2 13 3 12 4 11 5 10 6 8 7 9 8 6 9 1 10 2 11 3 12
REMARK SMILES IDX 76 13 4 15 5 16 7 17 16 18 17 19 18 20 19 21 20 22 21 23
REMARK SMILES IDX 22 24 23 25 75 26 24 27 74 28 25 29 26 30 27 31 68 32 28 33
REMARK SMILES IDX 73 34 67 35 69 36 29 37 72 38 66 39 65 40 30 42 56 43 39 44
REMARK SMILES IDX 55 45 40 46 43 47 54 48 70 49 41 50 42 51 53 53 71 54 44 55
REMARK SMILES IDX 31 56 32 57 37 58 33 59 34 60 36 61 38 62 35 63 57 64 58 65
REMARK SMILES IDX 63 66 59 67 60 68 62 69 64 70 61 71 45 72 46 73 51 74 47 75
REMARK SMILES IDX 48 76 50 77 52 78 49 79
REMARK H PARENT 2 14 69 41 43 52
REMARK Flexibility Score: inf
ROOT
ATOM      1  C   UNL A   1      36.736  22.710  25.026  1.00  0.00     0.188 C 
ENDROOT
BRANCH   1   2
ATOM      2  C   UNL A   1      36.353  22.794  23.545  1.00  0.00     0.188 C 
BRANCH   2   3
ATOM      3  O   UNL A   1      35.350  23.718  23.154  1.00  0.00    -0.376 OA
BRANCH   3   4
ATOM      4  C   UNL A   1      34.049  23.222  22.856  1.00  0.00     0.202 C 
BRANCH   4   5
ATOM      5  C   UNL A   1      33.304  22.357  23.893  1.00  0.00     0.261 C 
BRANCH   5   6
ATOM      6  O   UNL A   1      33.635  20.946  23.940  1.00  0.00    -0.461 OA
BRANCH   6   7
ATOM      7  C   UNL A   1      32.749  20.165  24.617  1.00  0.00     0.344 C 
ATOM      8  O   UNL A   1      31.769  20.626  25.205  1.00  0.00    -0.249 OA
BRANCH   7   9
ATOM      9  C   UNL A   1      33.038  18.641  24.589  1.00  0.00     0.211 C 
ATOM     10  C   UNL A   1      32.538  15.431  25.274  1.00  0.00     0.332 C 
ATOM     11  N   UNL A   1      33.269  16.473  25.985  1.00  0.00    -0.333 N 
ATOM     12  C   UNL A   1      34.697  16.493  25.621  1.00  0.00     0.290 C 
ATOM     13  C   UNL A   1      32.678  17.832  25.864  1.00  0.00     0.310 C 
ATOM     14  H   UNL A   1      33.184  16.217  26.969  1.00  0.00     0.348 HD
ATOM     15  C   UNL A   1      35.002  17.257  24.326  1.00  0.00     0.223 C 
ATOM     16  O   UNL A   1      34.469  18.580  24.349  1.00  0.00    -0.353 OA
ATOM     17  C   UNL A   1      32.245  18.126  23.377  1.00  0.00     0.061 C 
ENDBRANCH   7   9
ENDBRANCH   6   7
ENDBRANCH   5   6
ENDBRANCH   4   5
ENDBRANCH   3   4
ENDBRANCH   2   3
ENDBRANCH   1   2
BRANCH   1  18
ATOM     18  O   UNL A   1      36.744  21.408  25.565  1.00  0.00    -0.376 OA
BRANCH  18  19
ATOM     19  C   UNL A   1      37.521  20.399  24.934  1.00  0.00     0.202 C 
BRANCH  19  20
ATOM     20  C   UNL A   1      39.059  20.431  25.077  1.00  0.00     0.261 C 
BRANCH  20  21
ATOM     21  O   UNL A   1      39.647  19.552  26.056  1.00  0.00    -0.460 OA
BRANCH  21  22
ATOM     22  C   UNL A   1      41.000  19.514  26.127  1.00  0.00     0.338 C 
ATOM     23  O   UNL A   1      41.730  18.656  25.657  1.00  0.00    -0.246 OA
BRANCH  22  24
ATOM     24  C   UNL A   1      41.465  20.846  26.606  1.00  0.00     0.060 A 
ATOM     25  C   UNL A   1      41.390  21.126  27.980  1.00  0.00     0.016 A 
ATOM     26  C   UNL A   1      42.044  21.773  25.739  1.00  0.00     0.016 A 
ATOM     27  C   UNL A   1      41.863  22.342  28.483  1.00  0.00     0.010 A 
ATOM     28  C   UNL A   1      42.493  23.003  26.240  1.00  0.00     0.010 A 
ATOM     29  C   UNL A   1      42.379  23.308  27.609  1.00  0.00    -0.014 A 
BRANCH  29  30
ATOM     30  C   UNL A   1      42.609  24.698  28.089  1.00  0.00     0.031 A 
ATOM     31  C   UNL A   1      44.009  25.095  28.479  1.00  0.00     0.074 A 
ATOM     32  C   UNL A   1      41.617  25.605  28.165  1.00  0.00     0.049 A 
ATOM     33  N   UNL A   1      44.450  26.221  28.978  1.00  0.00    -0.248 NA
ATOM     34  C   UNL A   1      45.053  24.077  28.277  1.00  0.00     0.031 C 
ATOM     35  C   UNL A   1      40.226  25.379  27.780  1.00  0.00     0.029 A 
ATOM     36  N   UNL A   1      41.636  26.907  28.609  1.00  0.00    -0.354 N 
ATOM     37  C   UNL A   1      45.816  26.043  29.161  1.00  0.00     0.074 A 
ATOM     38  C   UNL A   1      46.127  24.693  28.745  1.00  0.00     0.031 C 
ATOM     39  C   UNL A   1      39.521  26.499  28.021  1.00  0.00     0.029 A 
ATOM     40  C   UNL A   1      40.401  27.509  28.608  1.00  0.00     0.049 A 
ATOM     41  H   UNL A   1      42.458  27.364  28.902  1.00  0.00     0.167 HD
ATOM     42  C   UNL A   1      46.734  26.925  29.623  1.00  0.00     0.037 A 
ATOM     43  C   UNL A   1      40.021  28.725  29.053  1.00  0.00     0.037 A 
ATOM     44  C   UNL A   1      46.433  28.270  30.039  1.00  0.00     0.049 A 
ATOM     45  C   UNL A   1      41.049  29.661  29.642  1.00  0.00     0.074 A 
ATOM     46  C   UNL A   1      47.302  29.242  30.502  1.00  0.00     0.029 A 
ATOM     47  N   UNL A   1      45.165  28.829  30.053  1.00  0.00    -0.354 N 
ATOM     48  N   UNL A   1      42.341  29.495  29.781  1.00  0.00    -0.248 NA
ATOM     49  C   UNL A   1      40.559  30.960  30.133  1.00  0.00     0.031 C 
ATOM     50  C   UNL A   1      46.553  30.369  30.854  1.00  0.00     0.029 A 
ATOM     51  C   UNL A   1      45.225  30.122  30.548  1.00  0.00     0.049 A 
ATOM     52  H   UNL A   1      44.343  28.375  29.757  1.00  0.00     0.167 HD
ATOM     53  C   UNL A   1      42.822  30.674  30.345  1.00  0.00     0.074 A 
ATOM     54  C   UNL A   1      41.685  31.554  30.504  1.00  0.00     0.031 C 
ATOM     55  C   UNL A   1      44.091  30.997  30.697  1.00  0.00     0.037 A 
BRANCH  42  56
ATOM     56  C   UNL A   1      48.154  26.453  29.734  1.00  0.00     0.057 A 
ATOM     57  C   UNL A   1      49.083  26.641  28.703  1.00  0.00     0.134 A 
ATOM     58  C   UNL A   1      48.610  25.840  30.908  1.00  0.00     0.134 A 
ATOM     59  F   UNL A   1      48.709  27.209  27.545  1.00  0.00    -0.206 F 
ATOM     60  C   UNL A   1      50.408  26.220  28.827  1.00  0.00     0.040 A 
ATOM     61  C   UNL A   1      49.938  25.440  31.056  1.00  0.00     0.040 A 
ATOM     62  F   UNL A   1      47.774  25.633  31.937  1.00  0.00    -0.206 F 
ATOM     63  C   UNL A   1      50.841  25.626  30.011  1.00  0.00     0.006 A 
ENDBRANCH  42  56
BRANCH  43  64
ATOM     64  C   UNL A   1      38.592  29.135  28.991  1.00  0.00     0.057 A 
ATOM     65  C   UNL A   1      38.035  29.666  27.821  1.00  0.00     0.134 A 
ATOM     66  C   UNL A   1      37.763  29.059  30.118  1.00  0.00     0.134 A 
ATOM     67  F   UNL A   1      38.785  29.798  26.717  1.00  0.00    -0.206 F 
ATOM     68  C   UNL A   1      36.717  30.126  27.779  1.00  0.00     0.040 A 
ATOM     69  C   UNL A   1      36.435  29.487  30.082  1.00  0.00     0.040 A 
ATOM     70  F   UNL A   1      38.237  28.569  31.274  1.00  0.00    -0.206 F 
ATOM     71  C   UNL A   1      35.911  30.032  28.912  1.00  0.00     0.006 A 
ENDBRANCH  43  64
BRANCH  55  72
ATOM     72  C   UNL A   1      44.330  32.376  31.250  1.00  0.00     0.057 A 
ATOM     73  C   UNL A   1      44.308  32.641  32.626  1.00  0.00     0.134 A 
ATOM     74  C   UNL A   1      44.616  33.448  30.393  1.00  0.00     0.134 A 
ATOM     75  F   UNL A   1      44.033  31.664  33.503  1.00  0.00    -0.206 F 
ATOM     76  C   UNL A   1      44.532  33.925  33.126  1.00  0.00     0.040 A 
ATOM     77  C   UNL A   1      44.872  34.729  30.884  1.00  0.00     0.040 A 
ATOM     78  F   UNL A   1      44.666  33.264  29.065  1.00  0.00    -0.206 F 
ATOM     79  C   UNL A   1      44.821  34.973  32.254  1.00  0.00     0.006 A 
ENDBRANCH  55  72
ENDBRANCH  29  30
ENDBRANCH  22  24
ENDBRANCH  21  22
ENDBRANCH  20  21
ENDBRANCH  19  20
ENDBRANCH  18  19
ENDBRANCH   1  18
TORSDOF 17
ENDMDL
MODEL 3
REMARK VINA RESULT:      -9.6      4.888      9.824
REMARK SMILES C[N@H+]1CCO[C@](C)(C(=O)OCCOCCOCCOC(=O)c2ccc(-c3c4nc(c(-c5c(F)cccc5F)c5ccc([nH]5)c(-c5c(F)cccc5F)c5nc(c(-c6c(F)cccc6F)c6ccc3[nH]6)C=C5)C=C4)cc2)C1
REMARK SMILES IDX 15 1 14 2 13 3 12 4 11 5 10 6 8 7 9 8 6 9 1 10 2 11 3 12
REMARK SMILES IDX 76 13 4 15 5 16 7 17 16 18 17 19 18 20 19 21 20 22 21 23
REMARK SMILES IDX 22 24 23 25 75 26 24 27 74 28 25 29 26 30 27 31 68 32 28 33
REMARK SMILES IDX 73 34 67 35 69 36 29 37 72 38 66 39 65 40 30 42 56 43 39 44
REMARK SMILES IDX 55 45 40 46 43 47 54 48 70 49 41 50 42 51 53 53 71 54 44 55
REMARK SMILES IDX 31 56 32 57 37 58 33 59 34 60 36 61 38 62 35 63 57 64 58 65
REMARK SMILES IDX 63 66 59 67 60 68 62 69 64 70 61 71 45 72 46 73 51 74 47 75
REMARK SMILES IDX 48 76 50 77 52 78 49 79
REMARK H PARENT 2 14 69 41 43 52
REMARK Flexibility Score: inf
ROOT
ATOM      1  C   UNL A   1      38.185  23.164  26.108  1.00  0.00     0.188 C 
ENDROOT
BRANCH   1   2
ATOM      2  C   UNL A   1      36.760  22.947  25.591  1.00  0.00     0.188 C 
BRANCH   2   3
ATOM      3  O   UNL A   1      35.715  23.747  26.122  1.00  0.00    -0.376 OA
BRANCH   3   4
ATOM      4  C   UNL A   1      34.374  23.292  25.981  1.00  0.00     0.202 C 
BRANCH   4   5
ATOM      5  C   UNL A   1      34.031  21.817  26.272  1.00  0.00     0.261 C 
BRANCH   5   6
ATOM      6  O   UNL A   1      34.018  20.905  25.145  1.00  0.00    -0.461 OA
BRANCH   6   7
ATOM      7  C   UNL A   1      32.886  20.160  25.015  1.00  0.00     0.344 C 
ATOM      8  O   UNL A   1      31.758  20.654  25.037  1.00  0.00    -0.249 OA
BRANCH   7   9
ATOM      9  C   UNL A   1      33.103  18.636  24.815  1.00  0.00     0.211 C 
ATOM     10  C   UNL A   1      32.526  15.395  25.241  1.00  0.00     0.332 C 
ATOM     11  N   UNL A   1      33.366  16.335  25.972  1.00  0.00    -0.333 N 
ATOM     12  C   UNL A   1      34.754  16.340  25.472  1.00  0.00     0.290 C 
ATOM     13  C   UNL A   1      32.828  17.719  26.038  1.00  0.00     0.310 C 
ATOM     14  H   UNL A   1      33.363  15.987  26.931  1.00  0.00     0.348 HD
ATOM     15  C   UNL A   1      34.968  17.216  24.231  1.00  0.00     0.223 C 
ATOM     16  O   UNL A   1      34.500  18.549  24.430  1.00  0.00    -0.353 OA
ATOM     17  C   UNL A   1      32.176  18.271  23.644  1.00  0.00     0.061 C 
ENDBRANCH   7   9
ENDBRANCH   6   7
ENDBRANCH   5   6
ENDBRANCH   4   5
ENDBRANCH   3   4
ENDBRANCH   2   3
ENDBRANCH   1   2
BRANCH   1  18
ATOM     18  O   UNL A   1      39.046  22.057  25.965  1.00  0.00    -0.376 OA
BRANCH  18  19
ATOM     19  C   UNL A   1      38.507  20.807  25.557  1.00  0.00     0.202 C 
BRANCH  19  20
ATOM     20  C   UNL A   1      39.469  19.667  25.151  1.00  0.00     0.261 C 
BRANCH  20  21
ATOM     21  O   UNL A   1      40.441  19.247  26.128  1.00  0.00    -0.460 OA
BRANCH  21  22
ATOM     22  C   UNL A   1      41.734  19.589  25.907  1.00  0.00     0.338 C 
ATOM     23  O   UNL A   1      42.516  19.031  25.155  1.00  0.00    -0.246 OA
BRANCH  22  24
ATOM     24  C   UNL A   1      41.952  20.939  26.499  1.00  0.00     0.060 A 
ATOM     25  C   UNL A   1      42.340  21.987  25.649  1.00  0.00     0.016 A 
ATOM     26  C   UNL A   1      41.700  21.195  27.848  1.00  0.00     0.016 A 
ATOM     27  C   UNL A   1      42.506  23.282  26.150  1.00  0.00     0.010 A 
ATOM     28  C   UNL A   1      41.894  22.488  28.354  1.00  0.00     0.010 A 
ATOM     29  C   UNL A   1      42.327  23.533  27.516  1.00  0.00    -0.014 A 
BRANCH  29  30
ATOM     30  C   UNL A   1      42.780  24.823  28.102  1.00  0.00     0.031 A 
ATOM     31  C   UNL A   1      41.750  25.894  28.353  1.00  0.00     0.074 A 
ATOM     32  C   UNL A   1      44.067  25.052  28.427  1.00  0.00     0.049 A 
ATOM     33  N   UNL A   1      41.905  27.115  28.797  1.00  0.00    -0.248 NA
ATOM     34  C   UNL A   1      40.354  25.533  28.060  1.00  0.00     0.031 C 
ATOM     35  C   UNL A   1      45.163  24.098  28.284  1.00  0.00     0.029 A 
ATOM     36  N   UNL A   1      44.667  26.179  28.939  1.00  0.00    -0.354 N 
ATOM     37  C   UNL A   1      40.631  27.669  28.826  1.00  0.00     0.074 A 
ATOM     38  C   UNL A   1      39.719  26.663  28.329  1.00  0.00     0.031 C 
ATOM     39  C   UNL A   1      46.306  24.685  28.682  1.00  0.00     0.029 A 
ATOM     40  C   UNL A   1      46.030  26.066  29.077  1.00  0.00     0.049 A 
ATOM     41  H   UNL A   1      44.166  26.991  29.184  1.00  0.00     0.167 HD
ATOM     42  C   UNL A   1      40.250  28.902  29.238  1.00  0.00     0.037 A 
ATOM     43  C   UNL A   1      46.949  26.979  29.452  1.00  0.00     0.037 A 
ATOM     44  C   UNL A   1      41.150  29.909  29.733  1.00  0.00     0.049 A 
ATOM     45  C   UNL A   1      46.509  28.374  29.827  1.00  0.00     0.074 A 
ATOM     46  C   UNL A   1      40.851  31.180  30.192  1.00  0.00     0.029 A 
ATOM     47  N   UNL A   1      42.526  29.766  29.824  1.00  0.00    -0.354 N 
ATOM     48  N   UNL A   1      45.300  28.878  29.880  1.00  0.00    -0.248 NA
ATOM     49  C   UNL A   1      47.568  29.326  30.199  1.00  0.00     0.031 C 
ATOM     50  C   UNL A   1      42.051  31.828  30.504  1.00  0.00     0.029 A 
ATOM     51  C   UNL A   1      43.092  30.937  30.302  1.00  0.00     0.049 A 
ATOM     52  H   UNL A   1      43.026  28.953  29.584  1.00  0.00     0.167 HD
ATOM     53  C   UNL A   1      45.450  30.190  30.318  1.00  0.00     0.074 A 
ATOM     54  C   UNL A   1      46.866  30.399  30.536  1.00  0.00     0.031 C 
ATOM     55  C   UNL A   1      44.501  31.136  30.524  1.00  0.00     0.037 A 
BRANCH  42  56
ATOM     56  C   UNL A   1      38.792  29.245  29.141  1.00  0.00     0.057 A 
ATOM     57  C   UNL A   1      38.198  29.629  27.932  1.00  0.00     0.134 A 
ATOM     58  C   UNL A   1      37.961  29.145  30.264  1.00  0.00     0.134 A 
ATOM     59  F   UNL A   1      38.939  29.759  26.820  1.00  0.00    -0.206 F 
ATOM     60  C   UNL A   1      36.836  29.922  27.848  1.00  0.00     0.040 A 
ATOM     61  C   UNL A   1      36.593  29.407  30.188  1.00  0.00     0.040 A 
ATOM     62  F   UNL A   1      38.464  28.779  31.452  1.00  0.00    -0.206 F 
ATOM     63  C   UNL A   1      36.027  29.801  28.976  1.00  0.00     0.006 A 
ENDBRANCH  42  56
BRANCH  43  64
ATOM     64  C   UNL A   1      48.394  26.626  29.470  1.00  0.00     0.057 A 
ATOM     65  C   UNL A   1      49.210  26.829  28.350  1.00  0.00     0.134 A 
ATOM     66  C   UNL A   1      48.982  26.024  30.590  1.00  0.00     0.134 A 
ATOM     67  F   UNL A   1      48.699  27.370  27.234  1.00  0.00    -0.206 F 
ATOM     68  C   UNL A   1      50.547  26.427  28.333  1.00  0.00     0.040 A 
ATOM     69  C   UNL A   1      50.326  25.645  30.599  1.00  0.00     0.040 A 
ATOM     70  F   UNL A   1      48.255  25.793  31.693  1.00  0.00    -0.206 F 
ATOM     71  C   UNL A   1      51.110  25.838  29.463  1.00  0.00     0.006 A 
ENDBRANCH  43  64
BRANCH  55  72
ATOM     72  C   UNL A   1      44.951  32.472  31.049  1.00  0.00     0.057 A 
ATOM     73  C   UNL A   1      45.289  33.533  30.198  1.00  0.00     0.134 A 
ATOM     74  C   UNL A   1      45.019  32.709  32.429  1.00  0.00     0.134 A 
ATOM     75  F   UNL A   1      45.255  33.374  28.867  1.00  0.00    -0.206 F 
ATOM     76  C   UNL A   1      45.705  34.768  30.699  1.00  0.00     0.040 A 
ATOM     77  C   UNL A   1      45.403  33.950  32.942  1.00  0.00     0.040 A 
ATOM     78  F   UNL A   1      44.697  31.743  33.303  1.00  0.00    -0.206 F 
ATOM     79  C   UNL A   1      45.757  34.981  32.076  1.00  0.00     0.006 A 
ENDBRANCH  55  72
ENDBRANCH  29  30
ENDBRANCH  22  24
ENDBRANCH  21  22
ENDBRANCH  20  21
ENDBRANCH  19  20
ENDBRANCH  18  19
ENDBRANCH   1  18
TORSDOF 17
ENDMDL
