MODEL 1
REMARK VINA RESULT:     -10.4      0.000      0.000
REMARK SMILES COc1cc(OC)cc(-c2ccc([C@@H](C)C(=O)OCCOCCOCCOC(=O)c3ccc(-c4c5nc(c(-c6c(F)cccc6F)c6ccc([nH]6)c(-c6c(F)cccc6F)c6nc(c(-c7c(F)cccc7F)c7ccc4[nH]7)C=C6)C=C5)cc3)cc2F)c1
REMARK SMILES IDX 22 1 21 2 20 3 19 4 18 5 16 6 17 7 14 8 15 9 13 10 10 11
REMARK SMILES IDX 11 12 85 13 12 14 84 15 86 16 9 17 3 18 4 19 87 20 5 21 8 22
REMARK SMILES IDX 2 23 1 24 6 25 7 26 23 27 24 28 25 29 26 30 27 31 28 32
REMARK SMILES IDX 29 33 30 34 31 35 83 36 32 37 82 38 33 39 34 40 35 41 76 42
REMARK SMILES IDX 36 43 81 44 75 45 77 46 37 47 80 48 74 49 73 50 38 52 64 53
REMARK SMILES IDX 47 54 63 55 48 56 51 57 62 58 78 59 49 60 50 61 61 63 79 64
REMARK SMILES IDX 52 65 39 66 40 67 45 68 41 69 42 70 44 71 46 72 43 73 65 74
REMARK SMILES IDX 66 75 71 76 67 77 68 78 70 79 72 80 69 81 53 82 54 83 59 84
REMARK SMILES IDX 55 85 56 86 58 87 60 88 57 89
REMARK H PARENT 77 51 51 62
REMARK Flexibility Score: inf
ROOT
ATOM      1  C   UNL A   1      45.022  21.056  24.537  1.00  0.00     0.188 C 
ENDROOT
BRANCH   1   2
ATOM      2  O   UNL A   1      44.263  19.944  24.076  1.00  0.00    -0.376 OA
BRANCH   2   3
ATOM      3  C   UNL A   1      44.085  18.819  24.929  1.00  0.00     0.202 C 
BRANCH   3   4
ATOM      4  C   UNL A   1      42.917  18.832  25.930  1.00  0.00     0.261 C 
BRANCH   4   5
ATOM      5  O   UNL A   1      41.808  19.699  25.594  1.00  0.00    -0.463 OA
BRANCH   5   6
ATOM      6  C   UNL A   1      41.130  20.250  26.633  1.00  0.00     0.313 C 
ATOM      7  O   UNL A   1      40.777  19.609  27.622  1.00  0.00    -0.252 OA
BRANCH   6   8
ATOM      8  C   UNL A   1      40.833  21.751  26.534  1.00  0.00     0.126 C 
ATOM      9  C   UNL A   1      41.429  22.453  27.754  1.00  0.00     0.025 C 
BRANCH   8  10
ATOM     10  C   UNL A   1      39.420  22.266  26.260  1.00  0.00    -0.031 A 
ATOM     11  C   UNL A   1      36.736  23.119  25.701  1.00  0.00     0.018 A 
ATOM     12  C   UNL A   1      37.666  23.965  26.335  1.00  0.00     0.012 A 
ATOM     13  C   UNL A   1      37.178  21.838  25.363  1.00  0.00     0.131 A 
ATOM     14  C   UNL A   1      38.986  23.553  26.601  1.00  0.00     0.005 A 
ATOM     15  C   UNL A   1      38.491  21.419  25.622  1.00  0.00     0.044 A 
ATOM     16  F   UNL A   1      36.354  20.975  24.748  1.00  0.00    -0.206 F 
BRANCH  11  17
ATOM     17  C   UNL A   1      35.403  23.617  25.302  1.00  0.00    -0.008 A 
ATOM     18  C   UNL A   1      33.053  24.108  25.724  1.00  0.00     0.123 A 
ATOM     19  C   UNL A   1      32.883  24.467  24.387  1.00  0.00     0.092 A 
ATOM     20  C   UNL A   1      34.304  23.672  26.181  1.00  0.00     0.055 A 
ATOM     21  C   UNL A   1      33.952  24.416  23.498  1.00  0.00     0.123 A 
ATOM     22  C   UNL A   1      35.203  24.007  23.962  1.00  0.00     0.055 A 
BRANCH  18  23
ATOM     23  O   UNL A   1      31.909  24.130  26.477  1.00  0.00    -0.497 OA
ATOM     24  C   UNL A   1      30.944  23.141  26.134  1.00  0.00     0.278 C 
ENDBRANCH  18  23
BRANCH  21  25
ATOM     25  O   UNL A   1      33.661  24.780  22.212  1.00  0.00    -0.497 OA
ATOM     26  C   UNL A   1      33.317  26.146  22.004  1.00  0.00     0.278 C 
ENDBRANCH  21  25
ENDBRANCH  11  17
ENDBRANCH   8  10
ENDBRANCH   6   8
ENDBRANCH   5   6
ENDBRANCH   4   5
ENDBRANCH   3   4
ENDBRANCH   2   3
ENDBRANCH   1   2
BRANCH   1  27
ATOM     27  C   UNL A   1      44.902  22.399  23.805  1.00  0.00     0.188 C 
BRANCH  27  28
ATOM     28  O   UNL A   1      45.647  23.447  24.378  1.00  0.00    -0.376 OA
BRANCH  28  29
ATOM     29  C   UNL A   1      44.929  24.495  24.996  1.00  0.00     0.202 C 
BRANCH  29  30
ATOM     30  C   UNL A   1      43.398  24.385  24.958  1.00  0.00     0.261 C 
BRANCH  30  31
ATOM     31  O   UNL A   1      42.696  24.859  26.123  1.00  0.00    -0.460 OA
BRANCH  31  32
ATOM     32  C   UNL A   1      41.877  25.927  25.964  1.00  0.00     0.338 C 
ATOM     33  O   UNL A   1      41.178  26.177  25.003  1.00  0.00    -0.246 OA
BRANCH  32  34
ATOM     34  C   UNL A   1      41.810  26.632  27.269  1.00  0.00     0.060 A 
ATOM     35  C   UNL A   1      41.037  26.085  28.305  1.00  0.00     0.016 A 
ATOM     36  C   UNL A   1      42.517  27.819  27.474  1.00  0.00     0.016 A 
ATOM     37  C   UNL A   1      40.949  26.740  29.537  1.00  0.00     0.010 A 
ATOM     38  C   UNL A   1      42.408  28.485  28.699  1.00  0.00     0.010 A 
ATOM     39  C   UNL A   1      41.600  27.966  29.728  1.00  0.00    -0.014 A 
BRANCH  39  40
ATOM     40  C   UNL A   1      41.289  28.809  30.911  1.00  0.00     0.031 A 
ATOM     41  C   UNL A   1      40.143  29.780  30.817  1.00  0.00     0.074 A 
ATOM     42  C   UNL A   1      42.003  28.730  32.049  1.00  0.00     0.049 A 
ATOM     43  N   UNL A   1      39.737  30.682  31.674  1.00  0.00    -0.248 NA
ATOM     44  C   UNL A   1      39.352  29.727  29.577  1.00  0.00     0.031 C 
ATOM     45  C   UNL A   1      43.104  27.804  32.296  1.00  0.00     0.029 A 
ATOM     46  N   UNL A   1      41.907  29.459  33.210  1.00  0.00    -0.354 N 
ATOM     47  C   UNL A   1      38.650  31.307  31.075  1.00  0.00     0.074 A 
ATOM     48  C   UNL A   1      38.486  30.710  29.768  1.00  0.00     0.031 C 
ATOM     49  C   UNL A   1      43.591  28.027  33.531  1.00  0.00     0.029 A 
ATOM     50  C   UNL A   1      42.861  29.137  34.144  1.00  0.00     0.049 A 
ATOM     51  H   UNL A   1      41.218  30.147  33.358  1.00  0.00     0.167 HD
ATOM     52  C   UNL A   1      37.854  32.285  31.570  1.00  0.00     0.037 A 
ATOM     53  C   UNL A   1      43.129  29.692  35.343  1.00  0.00     0.037 A 
ATOM     54  C   UNL A   1      38.023  32.890  32.865  1.00  0.00     0.049 A 
ATOM     55  C   UNL A   1      42.294  30.848  35.834  1.00  0.00     0.074 A 
ATOM     56  C   UNL A   1      37.266  33.885  33.459  1.00  0.00     0.029 A 
ATOM     57  N   UNL A   1      39.029  32.564  33.764  1.00  0.00    -0.354 N 
ATOM     58  N   UNL A   1      41.260  31.425  35.269  1.00  0.00    -0.248 NA
ATOM     59  C   UNL A   1      42.667  31.433  37.131  1.00  0.00     0.031 C 
ATOM     60  C   UNL A   1      37.847  34.201  34.691  1.00  0.00     0.029 A 
ATOM     61  C   UNL A   1      38.928  33.358  34.895  1.00  0.00     0.049 A 
ATOM     62  H   UNL A   1      39.713  31.871  33.619  1.00  0.00     0.167 HD
ATOM     63  C   UNL A   1      40.837  32.409  36.156  1.00  0.00     0.074 A 
ATOM     64  C   UNL A   1      41.723  32.347  37.300  1.00  0.00     0.031 C 
ATOM     65  C   UNL A   1      39.807  33.283  36.035  1.00  0.00     0.037 A 
BRANCH  52  66
ATOM     66  C   UNL A   1      36.748  32.783  30.684  1.00  0.00     0.057 A 
ATOM     67  C   UNL A   1      36.965  33.758  29.701  1.00  0.00     0.134 A 
ATOM     68  C   UNL A   1      35.449  32.276  30.812  1.00  0.00     0.134 A 
ATOM     69  F   UNL A   1      38.183  34.297  29.534  1.00  0.00    -0.206 F 
ATOM     70  C   UNL A   1      35.924  34.236  28.903  1.00  0.00     0.040 A 
ATOM     71  C   UNL A   1      34.406  32.722  29.999  1.00  0.00     0.040 A 
ATOM     72  F   UNL A   1      35.171  31.337  31.730  1.00  0.00    -0.206 F 
ATOM     73  C   UNL A   1      34.640  33.713  29.047  1.00  0.00     0.006 A 
ENDBRANCH  52  66
BRANCH  53  74
ATOM     74  C   UNL A   1      44.245  29.169  36.175  1.00  0.00     0.057 A 
ATOM     75  C   UNL A   1      45.507  29.773  36.153  1.00  0.00     0.134 A 
ATOM     76  C   UNL A   1      44.087  28.038  36.986  1.00  0.00     0.134 A 
ATOM     77  F   UNL A   1      45.730  30.842  35.374  1.00  0.00    -0.206 F 
ATOM     78  C   UNL A   1      46.575  29.265  36.894  1.00  0.00     0.040 A 
ATOM     79  C   UNL A   1      45.139  27.535  37.753  1.00  0.00     0.040 A 
ATOM     80  F   UNL A   1      42.905  27.408  37.048  1.00  0.00    -0.206 F 
ATOM     81  C   UNL A   1      46.391  28.146  37.703  1.00  0.00     0.006 A 
ENDBRANCH  53  74
BRANCH  65  82
ATOM     82  C   UNL A   1      39.542  34.210  37.189  1.00  0.00     0.057 A 
ATOM     83  C   UNL A   1      39.969  35.544  37.189  1.00  0.00     0.134 A 
ATOM     84  C   UNL A   1      38.809  33.770  38.300  1.00  0.00     0.134 A 
ATOM     85  F   UNL A   1      40.684  36.030  36.162  1.00  0.00    -0.206 F 
ATOM     86  C   UNL A   1      39.701  36.398  38.262  1.00  0.00     0.040 A 
ATOM     87  C   UNL A   1      38.508  34.622  39.364  1.00  0.00     0.040 A 
ATOM     88  F   UNL A   1      38.358  32.508  38.362  1.00  0.00    -0.206 F 
ATOM     89  C   UNL A   1      38.961  35.938  39.350  1.00  0.00     0.006 A 
ENDBRANCH  65  82
ENDBRANCH  39  40
ENDBRANCH  32  34
ENDBRANCH  31  32
ENDBRANCH  30  31
ENDBRANCH  29  30
ENDBRANCH  28  29
ENDBRANCH  27  28
ENDBRANCH   1  27
TORSDOF 21
ENDMDL
MODEL 2
REMARK VINA RESULT:     -10.4      1.344      2.041
REMARK SMILES COc1cc(OC)cc(-c2ccc([C@@H](C)C(=O)OCCOCCOCCOC(=O)c3ccc(-c4c5nc(c(-c6c(F)cccc6F)c6ccc([nH]6)c(-c6c(F)cccc6F)c6nc(c(-c7c(F)cccc7F)c7ccc4[nH]7)C=C6)C=C5)cc3)cc2F)c1
REMARK SMILES IDX 22 1 21 2 20 3 19 4 18 5 16 6 17 7 14 8 15 9 13 10 10 11
REMARK SMILES IDX 11 12 85 13 12 14 84 15 86 16 9 17 3 18 4 19 87 20 5 21 8 22
REMARK SMILES IDX 2 23 1 24 6 25 7 26 23 27 24 28 25 29 26 30 27 31 28 32
REMARK SMILES IDX 29 33 30 34 31 35 83 36 32 37 82 38 33 39 34 40 35 41 76 42
REMARK SMILES IDX 36 43 81 44 75 45 77 46 37 47 80 48 74 49 73 50 38 52 64 53
REMARK SMILES IDX 47 54 63 55 48 56 51 57 62 58 78 59 49 60 50 61 61 63 79 64
REMARK SMILES IDX 52 65 39 66 40 67 45 68 41 69 42 70 44 71 46 72 43 73 65 74
REMARK SMILES IDX 66 75 71 76 67 77 68 78 70 79 72 80 69 81 53 82 54 83 59 84
REMARK SMILES IDX 55 85 56 86 58 87 60 88 57 89
REMARK H PARENT 77 51 51 62
REMARK Flexibility Score: inf
ROOT
ATOM      1  C   UNL A   1      46.009  20.736  24.647  1.00  0.00     0.188 C 
ENDROOT
BRANCH   1   2
ATOM      2  O   UNL A   1      44.965  20.119  23.903  1.00  0.00    -0.376 OA
BRANCH   2   3
ATOM      3  C   UNL A   1      44.392  18.906  24.379  1.00  0.00     0.202 C 
BRANCH   3   4
ATOM      4  C   UNL A   1      43.362  18.977  25.520  1.00  0.00     0.261 C 
BRANCH   4   5
ATOM      5  O   UNL A   1      42.391  20.047  25.427  1.00  0.00    -0.463 OA
BRANCH   5   6
ATOM      6  C   UNL A   1      41.646  20.289  26.535  1.00  0.00     0.313 C 
ATOM      7  O   UNL A   1      41.677  19.575  27.537  1.00  0.00    -0.252 OA
BRANCH   6   8
ATOM      8  C   UNL A   1      40.755  21.536  26.499  1.00  0.00     0.126 C 
ATOM      9  C   UNL A   1      40.800  22.214  27.867  1.00  0.00     0.025 C 
BRANCH   8  10
ATOM     10  C   UNL A   1      39.317  21.472  25.982  1.00  0.00    -0.031 A 
ATOM     11  C   UNL A   1      36.605  21.473  25.041  1.00  0.00     0.018 A 
ATOM     12  C   UNL A   1      37.437  20.347  24.901  1.00  0.00     0.012 A 
ATOM     13  C   UNL A   1      37.164  22.598  25.653  1.00  0.00     0.131 A 
ATOM     14  C   UNL A   1      38.765  20.339  25.371  1.00  0.00     0.005 A 
ATOM     15  C   UNL A   1      38.484  22.601  26.125  1.00  0.00     0.044 A 
ATOM     16  F   UNL A   1      36.432  23.709  25.830  1.00  0.00    -0.206 F 
BRANCH  11  17
ATOM     17  C   UNL A   1      35.174  21.413  24.673  1.00  0.00    -0.008 A 
ATOM     18  C   UNL A   1      33.156  22.320  23.651  1.00  0.00     0.123 A 
ATOM     19  C   UNL A   1      32.417  21.244  24.144  1.00  0.00     0.092 A 
ATOM     20  C   UNL A   1      34.527  22.414  23.923  1.00  0.00     0.055 A 
ATOM     21  C   UNL A   1      33.033  20.245  24.891  1.00  0.00     0.123 A 
ATOM     22  C   UNL A   1      34.404  20.328  25.138  1.00  0.00     0.055 A 
BRANCH  18  23
ATOM     23  O   UNL A   1      32.420  23.272  22.996  1.00  0.00    -0.497 OA
ATOM     24  C   UNL A   1      33.184  24.294  22.365  1.00  0.00     0.278 C 
ENDBRANCH  18  23
BRANCH  21  25
ATOM     25  O   UNL A   1      32.205  19.249  25.330  1.00  0.00    -0.497 OA
ATOM     26  C   UNL A   1      32.592  17.917  25.006  1.00  0.00     0.278 C 
ENDBRANCH  21  25
ENDBRANCH  11  17
ENDBRANCH   8  10
ENDBRANCH   6   8
ENDBRANCH   5   6
ENDBRANCH   4   5
ENDBRANCH   3   4
ENDBRANCH   2   3
ENDBRANCH   1   2
BRANCH   1  27
ATOM     27  C   UNL A   1      45.812  22.165  25.170  1.00  0.00     0.188 C 
BRANCH  27  28
ATOM     28  O   UNL A   1      45.389  22.245  26.510  1.00  0.00    -0.376 OA
BRANCH  28  29
ATOM     29  C   UNL A   1      44.357  23.161  26.814  1.00  0.00     0.202 C 
BRANCH  29  30
ATOM     30  C   UNL A   1      43.669  23.833  25.617  1.00  0.00     0.261 C 
BRANCH  30  31
ATOM     31  O   UNL A   1      42.420  24.495  25.888  1.00  0.00    -0.460 OA
BRANCH  31  32
ATOM     32  C   UNL A   1      42.370  25.835  25.689  1.00  0.00     0.338 C 
ATOM     33  O   UNL A   1      42.283  26.414  24.626  1.00  0.00    -0.246 OA
BRANCH  32  34
ATOM     34  C   UNL A   1      42.214  26.475  27.020  1.00  0.00     0.060 A 
ATOM     35  C   UNL A   1      41.202  26.027  27.883  1.00  0.00     0.016 A 
ATOM     36  C   UNL A   1      43.071  27.502  27.420  1.00  0.00     0.016 A 
ATOM     37  C   UNL A   1      41.028  26.625  29.135  1.00  0.00     0.010 A 
ATOM     38  C   UNL A   1      42.881  28.115  28.663  1.00  0.00     0.010 A 
ATOM     39  C   UNL A   1      41.841  27.701  29.515  1.00  0.00    -0.014 A 
BRANCH  39  40
ATOM     40  C   UNL A   1      41.492  28.527  30.701  1.00  0.00     0.031 A 
ATOM     41  C   UNL A   1      40.361  29.513  30.578  1.00  0.00     0.074 A 
ATOM     42  C   UNL A   1      42.158  28.420  31.864  1.00  0.00     0.049 A 
ATOM     43  N   UNL A   1      39.931  30.404  31.434  1.00  0.00    -0.248 NA
ATOM     44  C   UNL A   1      39.620  29.491  29.306  1.00  0.00     0.031 C 
ATOM     45  C   UNL A   1      43.238  27.477  32.139  1.00  0.00     0.029 A 
ATOM     46  N   UNL A   1      42.023  29.129  33.033  1.00  0.00    -0.354 N 
ATOM     47  C   UNL A   1      38.876  31.052  30.803  1.00  0.00     0.074 A 
ATOM     48  C   UNL A   1      38.757  30.480  29.479  1.00  0.00     0.031 C 
ATOM     49  C   UNL A   1      43.677  27.672  33.396  1.00  0.00     0.029 A 
ATOM     50  C   UNL A   1      42.935  28.780  33.999  1.00  0.00     0.049 A 
ATOM     51  H   UNL A   1      41.337  29.822  33.166  1.00  0.00     0.167 HD
ATOM     52  C   UNL A   1      38.071  32.031  31.283  1.00  0.00     0.037 A 
ATOM     53  C   UNL A   1      43.161  29.310  35.218  1.00  0.00     0.037 A 
ATOM     54  C   UNL A   1      38.194  32.611  32.595  1.00  0.00     0.049 A 
ATOM     55  C   UNL A   1      42.320  30.468  35.695  1.00  0.00     0.074 A 
ATOM     56  C   UNL A   1      37.424  33.604  33.175  1.00  0.00     0.029 A 
ATOM     57  N   UNL A   1      39.159  32.258  33.527  1.00  0.00    -0.354 N 
ATOM     58  N   UNL A   1      41.316  31.066  35.099  1.00  0.00    -0.248 NA
ATOM     59  C   UNL A   1      42.646  31.026  37.016  1.00  0.00     0.031 C 
ATOM     60  C   UNL A   1      37.959  33.891  34.435  1.00  0.00     0.029 A 
ATOM     61  C   UNL A   1      39.021  33.033  34.667  1.00  0.00     0.049 A 
ATOM     62  H   UNL A   1      39.841  31.559  33.397  1.00  0.00     0.167 HD
ATOM     63  C   UNL A   1      40.868  32.040  35.986  1.00  0.00     0.074 A 
ATOM     64  C   UNL A   1      41.706  31.947  37.163  1.00  0.00     0.031 C 
ATOM     65  C   UNL A   1      39.853  32.927  35.840  1.00  0.00     0.037 A 
BRANCH  52  66
ATOM     66  C   UNL A   1      37.006  32.557  30.363  1.00  0.00     0.057 A 
ATOM     67  C   UNL A   1      35.679  32.111  30.432  1.00  0.00     0.134 A 
ATOM     68  C   UNL A   1      37.311  33.526  29.399  1.00  0.00     0.134 A 
ATOM     69  F   UNL A   1      35.322  31.173  31.322  1.00  0.00    -0.206 F 
ATOM     70  C   UNL A   1      34.703  32.584  29.553  1.00  0.00     0.040 A 
ATOM     71  C   UNL A   1      36.337  34.031  28.537  1.00  0.00     0.040 A 
ATOM     72  F   UNL A   1      38.560  34.001  29.281  1.00  0.00    -0.206 F 
ATOM     73  C   UNL A   1      35.030  33.552  28.605  1.00  0.00     0.006 A 
ENDBRANCH  52  66
BRANCH  53  74
ATOM     74  C   UNL A   1      44.236  28.761  36.084  1.00  0.00     0.057 A 
ATOM     75  C   UNL A   1      45.542  29.258  36.018  1.00  0.00     0.134 A 
ATOM     76  C   UNL A   1      43.993  27.706  36.974  1.00  0.00     0.134 A 
ATOM     77  F   UNL A   1      45.846  30.247  35.164  1.00  0.00    -0.206 F 
ATOM     78  C   UNL A   1      46.572  28.720  36.793  1.00  0.00     0.040 A 
ATOM     79  C   UNL A   1      45.007  27.177  37.775  1.00  0.00     0.040 A 
ATOM     80  F   UNL A   1      42.765  27.179  37.082  1.00  0.00    -0.206 F 
ATOM     81  C   UNL A   1      46.303  27.679  37.680  1.00  0.00     0.006 A 
ENDBRANCH  53  74
BRANCH  65  82
ATOM     82  C   UNL A   1      39.552  33.837  36.999  1.00  0.00     0.057 A 
ATOM     83  C   UNL A   1      40.014  35.158  37.051  1.00  0.00     0.134 A 
ATOM     84  C   UNL A   1      38.749  33.395  38.060  1.00  0.00     0.134 A 
ATOM     85  F   UNL A   1      40.795  35.645  36.075  1.00  0.00    -0.206 F 
ATOM     86  C   UNL A   1      39.712  35.997  38.127  1.00  0.00     0.040 A 
ATOM     87  C   UNL A   1      38.415  34.232  39.125  1.00  0.00     0.040 A 
ATOM     88  F   UNL A   1      38.262  32.144  38.070  1.00  0.00    -0.206 F 
ATOM     89  C   UNL A   1      38.903  35.535  39.164  1.00  0.00     0.006 A 
ENDBRANCH  65  82
ENDBRANCH  39  40
ENDBRANCH  32  34
ENDBRANCH  31  32
ENDBRANCH  30  31
ENDBRANCH  29  30
ENDBRANCH  28  29
ENDBRANCH  27  28
ENDBRANCH   1  27
TORSDOF 21
ENDMDL
MODEL 3
REMARK VINA RESULT:      -9.9      2.926      8.642
REMARK SMILES COc1cc(OC)cc(-c2ccc([C@@H](C)C(=O)OCCOCCOCCOC(=O)c3ccc(-c4c5nc(c(-c6c(F)cccc6F)c6ccc([nH]6)c(-c6c(F)cccc6F)c6nc(c(-c7c(F)cccc7F)c7ccc4[nH]7)C=C6)C=C5)cc3)cc2F)c1
REMARK SMILES IDX 22 1 21 2 20 3 19 4 18 5 16 6 17 7 14 8 15 9 13 10 10 11
REMARK SMILES IDX 11 12 85 13 12 14 84 15 86 16 9 17 3 18 4 19 87 20 5 21 8 22
REMARK SMILES IDX 2 23 1 24 6 25 7 26 23 27 24 28 25 29 26 30 27 31 28 32
REMARK SMILES IDX 29 33 30 34 31 35 83 36 32 37 82 38 33 39 34 40 35 41 76 42
REMARK SMILES IDX 36 43 81 44 75 45 77 46 37 47 80 48 74 49 73 50 38 52 64 53
REMARK SMILES IDX 47 54 63 55 48 56 51 57 62 58 78 59 49 60 50 61 61 63 79 64
REMARK SMILES IDX 52 65 39 66 40 67 45 68 41 69 42 70 44 71 46 72 43 73 65 74
REMARK SMILES IDX 66 75 71 76 67 77 68 78 70 79 72 80 69 81 53 82 54 83 59 84
REMARK SMILES IDX 55 85 56 86 58 87 60 88 57 89
REMARK H PARENT 77 51 51 62
REMARK Flexibility Score: inf
ROOT
ATOM      1  C   UNL A   1      33.542  28.189  22.213  1.00  0.00     0.188 C 
ENDROOT
BRANCH   1   2
ATOM      2  O   UNL A   1      33.718  26.857  21.744  1.00  0.00    -0.376 OA
BRANCH   2   3
ATOM      3  C   UNL A   1      32.584  26.007  21.614  1.00  0.00     0.202 C 
BRANCH   3   4
ATOM      4  C   UNL A   1      31.232  26.495  22.162  1.00  0.00     0.261 C 
BRANCH   4   5
ATOM      5  O   UNL A   1      30.458  25.516  22.894  1.00  0.00    -0.463 OA
BRANCH   5   6
ATOM      6  C   UNL A   1      29.901  25.930  24.060  1.00  0.00     0.313 C 
ATOM      7  O   UNL A   1      29.021  26.787  24.119  1.00  0.00    -0.252 OA
BRANCH   6   8
ATOM      8  C   UNL A   1      30.409  25.251  25.338  1.00  0.00     0.126 C 
ATOM      9  C   UNL A   1      30.882  26.327  26.313  1.00  0.00     0.025 C 
BRANCH   8  10
ATOM     10  C   UNL A   1      31.415  24.101  25.282  1.00  0.00    -0.031 A 
ATOM     11  C   UNL A   1      33.398  22.028  25.168  1.00  0.00     0.018 A 
ATOM     12  C   UNL A   1      32.034  21.739  25.354  1.00  0.00     0.012 A 
ATOM     13  C   UNL A   1      33.746  23.376  25.051  1.00  0.00     0.131 A 
ATOM     14  C   UNL A   1      31.057  22.753  25.399  1.00  0.00     0.005 A 
ATOM     15  C   UNL A   1      32.783  24.393  25.093  1.00  0.00     0.044 A 
ATOM     16  F   UNL A   1      35.027  23.732  24.864  1.00  0.00    -0.206 F 
BRANCH  11  17
ATOM     17  C   UNL A   1      34.388  20.946  24.980  1.00  0.00    -0.008 A 
ATOM     18  C   UNL A   1      35.018  18.618  24.626  1.00  0.00     0.123 A 
ATOM     19  C   UNL A   1      36.364  18.957  24.765  1.00  0.00     0.092 A 
ATOM     20  C   UNL A   1      34.030  19.604  24.745  1.00  0.00     0.055 A 
ATOM     21  C   UNL A   1      36.743  20.275  25.002  1.00  0.00     0.123 A 
ATOM     22  C   UNL A   1      35.757  21.259  25.094  1.00  0.00     0.055 A 
BRANCH  18  23
ATOM     23  O   UNL A   1      34.774  17.279  24.471  1.00  0.00    -0.497 OA
ATOM     24  C   UNL A   1      33.688  16.962  23.607  1.00  0.00     0.278 C 
ENDBRANCH  18  23
BRANCH  21  25
ATOM     25  O   UNL A   1      38.089  20.482  25.131  1.00  0.00    -0.497 OA
ATOM     26  C   UNL A   1      38.483  21.708  25.739  1.00  0.00     0.278 C 
ENDBRANCH  21  25
ENDBRANCH  11  17
ENDBRANCH   8  10
ENDBRANCH   6   8
ENDBRANCH   5   6
ENDBRANCH   4   5
ENDBRANCH   3   4
ENDBRANCH   2   3
ENDBRANCH   1   2
BRANCH   1  27
ATOM     27  C   UNL A   1      34.040  28.560  23.616  1.00  0.00     0.188 C 
BRANCH  27  28
ATOM     28  O   UNL A   1      33.045  28.556  24.612  1.00  0.00    -0.376 OA
BRANCH  28  29
ATOM     29  C   UNL A   1      31.862  29.284  24.354  1.00  0.00     0.202 C 
BRANCH  29  30
ATOM     30  C   UNL A   1      31.451  30.311  25.419  1.00  0.00     0.261 C 
BRANCH  30  31
ATOM     31  O   UNL A   1      32.204  30.293  26.646  1.00  0.00    -0.460 OA
BRANCH  31  32
ATOM     32  C   UNL A   1      32.709  31.473  27.083  1.00  0.00     0.338 C 
ATOM     33  O   UNL A   1      32.123  32.533  27.170  1.00  0.00    -0.246 OA
BRANCH  32  34
ATOM     34  C   UNL A   1      34.051  31.195  27.654  1.00  0.00     0.060 A 
ATOM     35  C   UNL A   1      34.459  29.865  27.835  1.00  0.00     0.016 A 
ATOM     36  C   UNL A   1      34.909  32.244  27.996  1.00  0.00     0.016 A 
ATOM     37  C   UNL A   1      35.713  29.582  28.385  1.00  0.00     0.010 A 
ATOM     38  C   UNL A   1      36.153  31.959  28.567  1.00  0.00     0.010 A 
ATOM     39  C   UNL A   1      36.551  30.628  28.793  1.00  0.00    -0.014 A 
BRANCH  39  40
ATOM     40  C   UNL A   1      37.747  30.353  29.631  1.00  0.00     0.031 A 
ATOM     41  C   UNL A   1      38.808  29.435  29.085  1.00  0.00     0.074 A 
ATOM     42  C   UNL A   1      37.899  30.895  30.853  1.00  0.00     0.049 A 
ATOM     43  N   UNL A   1      39.889  28.972  29.658  1.00  0.00    -0.248 NA
ATOM     44  C   UNL A   1      38.612  28.972  27.702  1.00  0.00     0.031 C 
ATOM     45  C   UNL A   1      36.979  31.835  31.485  1.00  0.00     0.029 A 
ATOM     46  N   UNL A   1      38.891  30.713  31.787  1.00  0.00    -0.354 N 
ATOM     47  C   UNL A   1      40.498  28.159  28.710  1.00  0.00     0.074 A 
ATOM     48  C   UNL A   1      39.645  28.161  27.541  1.00  0.00     0.031 C 
ATOM     49  C   UNL A   1      37.443  32.143  32.709  1.00  0.00     0.029 A 
ATOM     50  C   UNL A   1      38.673  31.390  32.962  1.00  0.00     0.049 A 
ATOM     51  H   UNL A   1      39.684  30.152  31.629  1.00  0.00     0.167 HD
ATOM     52  C   UNL A   1      41.665  27.477  28.798  1.00  0.00     0.037 A 
ATOM     53  C   UNL A   1      39.370  31.382  34.116  1.00  0.00     0.037 A 
ATOM     54  C   UNL A   1      42.509  27.464  29.964  1.00  0.00     0.049 A 
ATOM     55  C   UNL A   1      40.614  30.537  34.229  1.00  0.00     0.074 A 
ATOM     56  C   UNL A   1      43.714  26.808  30.151  1.00  0.00     0.029 A 
ATOM     57  N   UNL A   1      42.230  28.129  31.149  1.00  0.00    -0.354 N 
ATOM     58  N   UNL A   1      41.191  29.782  33.325  1.00  0.00    -0.248 NA
ATOM     59  C   UNL A   1      41.304  30.541  35.529  1.00  0.00     0.031 C 
ATOM     60  C   UNL A   1      44.134  27.030  31.466  1.00  0.00     0.029 A 
ATOM     61  C   UNL A   1      43.225  27.877  32.079  1.00  0.00     0.049 A 
ATOM     62  H   UNL A   1      41.441  28.697  31.306  1.00  0.00     0.167 HD
ATOM     63  C   UNL A   1      42.327  29.256  33.931  1.00  0.00     0.074 A 
ATOM     64  C   UNL A   1      42.362  29.784  35.279  1.00  0.00     0.031 C 
ATOM     65  C   UNL A   1      43.258  28.415  33.417  1.00  0.00     0.037 A 
BRANCH  52  66
ATOM     66  C   UNL A   1      42.076  26.661  27.606  1.00  0.00     0.057 A 
ATOM     67  C   UNL A   1      42.789  27.219  26.535  1.00  0.00     0.134 A 
ATOM     68  C   UNL A   1      41.760  25.299  27.530  1.00  0.00     0.134 A 
ATOM     69  F   UNL A   1      43.111  28.521  26.536  1.00  0.00    -0.206 F 
ATOM     70  C   UNL A   1      43.140  26.459  25.418  1.00  0.00     0.040 A 
ATOM     71  C   UNL A   1      42.134  24.522  26.433  1.00  0.00     0.040 A 
ATOM     72  F   UNL A   1      41.084  24.700  28.522  1.00  0.00    -0.206 F 
ATOM     73  C   UNL A   1      42.817  25.104  25.367  1.00  0.00     0.006 A 
ENDBRANCH  52  66
BRANCH  53  74
ATOM     74  C   UNL A   1      38.913  32.198  35.271  1.00  0.00     0.057 A 
ATOM     75  C   UNL A   1      39.239  33.555  35.371  1.00  0.00     0.134 A 
ATOM     76  C   UNL A   1      38.169  31.636  36.316  1.00  0.00     0.134 A 
ATOM     77  F   UNL A   1      39.975  34.145  34.418  1.00  0.00    -0.206 F 
ATOM     78  C   UNL A   1      38.855  34.322  36.473  1.00  0.00     0.040 A 
ATOM     79  C   UNL A   1      37.755  32.397  37.411  1.00  0.00     0.040 A 
ATOM     80  F   UNL A   1      37.828  30.340  36.286  1.00  0.00    -0.206 F 
ATOM     81  C   UNL A   1      38.105  33.744  37.495  1.00  0.00     0.006 A 
ENDBRANCH  53  74
BRANCH  65  82
ATOM     82  C   UNL A   1      44.426  28.051  34.292  1.00  0.00     0.057 A 
ATOM     83  C   UNL A   1      44.436  26.895  35.082  1.00  0.00     0.134 A 
ATOM     84  C   UNL A   1      45.577  28.851  34.309  1.00  0.00     0.134 A 
ATOM     85  F   UNL A   1      43.365  26.088  35.121  1.00  0.00    -0.206 F 
ATOM     86  C   UNL A   1      45.536  26.562  35.877  1.00  0.00     0.040 A 
ATOM     87  C   UNL A   1      46.694  28.513  35.075  1.00  0.00     0.040 A 
ATOM     88  F   UNL A   1      45.642  29.968  33.567  1.00  0.00    -0.206 F 
ATOM     89  C   UNL A   1      46.672  27.369  35.868  1.00  0.00     0.006 A 
ENDBRANCH  65  82
ENDBRANCH  39  40
ENDBRANCH  32  34
ENDBRANCH  31  32
ENDBRANCH  30  31
ENDBRANCH  29  30
ENDBRANCH  28  29
ENDBRANCH  27  28
ENDBRANCH   1  27
TORSDOF 21
ENDMDL
