MODEL 1
REMARK VINA RESULT:      -8.5      0.000      0.000
REMARK SMILES COCc1cccc(O[C@@H](C)c2ccc(C(=O)OCCOCCOCCOC(=O)c3ccc(-c4c5nc(c(-c6c(F)cccc6F)c6ccc([nH]6)c(-c6c(F)cccc6F)c6nc(c(-c7c(F)cccc7F)c7ccc4[nH]7)C=C6)C=C5)cc3)o2)c1
REMARK SMILES IDX 21 1 20 2 19 3 18 4 16 5 17 6 15 7 12 8 13 9 84 10 14 11
REMARK SMILES IDX 10 12 11 13 9 14 8 15 4 16 5 17 85 18 6 19 7 20 3 21 2 22
REMARK SMILES IDX 1 23 22 24 23 25 24 26 25 27 26 28 27 29 28 30 29 31 30 32
REMARK SMILES IDX 31 33 83 34 32 35 82 36 33 37 34 38 35 39 76 40 36 41 81 42
REMARK SMILES IDX 75 43 77 44 37 45 80 46 74 47 73 48 38 50 64 51 47 52 63 53
REMARK SMILES IDX 48 54 51 55 62 56 78 57 49 58 50 59 61 61 79 62 52 63 39 64
REMARK SMILES IDX 40 65 45 66 41 67 42 68 44 69 46 70 43 71 65 72 66 73 71 74
REMARK SMILES IDX 67 75 68 76 70 77 72 78 69 79 53 80 54 81 59 82 55 83 56 84
REMARK SMILES IDX 58 85 60 86 57 87
REMARK H PARENT 77 49 51 60
REMARK Flexibility Score: inf
ROOT
ATOM      1  O   UNL A   1      33.078  35.537  32.343  1.00  0.00    -0.376 OA
ENDROOT
BRANCH   1   2
ATOM      2  C   UNL A   1      34.374  34.959  32.408  1.00  0.00     0.202 C 
BRANCH   2   3
ATOM      3  C   UNL A   1      35.128  35.012  33.744  1.00  0.00     0.261 C 
BRANCH   3   4
ATOM      4  O   UNL A   1      36.409  34.359  33.716  1.00  0.00    -0.457 OA
BRANCH   4   5
ATOM      5  C   UNL A   1      36.605  33.388  34.664  1.00  0.00     0.374 C 
ATOM      6  O   UNL A   1      36.179  33.435  35.806  1.00  0.00    -0.242 OA
BRANCH   5   7
ATOM      7  C   UNL A   1      37.268  32.250  34.060  1.00  0.00     0.211 A 
ATOM      8  C   UNL A   1      38.916  30.776  33.907  1.00  0.00     0.145 A 
ATOM      9  C   UNL A   1      37.935  30.365  33.027  1.00  0.00     0.050 A 
ATOM     10  O   UNL A   1      38.528  31.943  34.502  1.00  0.00    -0.450 OA
ATOM     11  C   UNL A   1      36.871  31.297  33.140  1.00  0.00     0.058 A 
BRANCH   8  12
ATOM     12  C   UNL A   1      40.264  30.255  34.302  1.00  0.00     0.236 C 
ATOM     13  C   UNL A   1      41.258  31.318  34.767  1.00  0.00     0.062 C 
BRANCH  12  14
ATOM     14  O   UNL A   1      40.766  29.351  33.299  1.00  0.00    -0.483 OA
BRANCH  14  15
ATOM     15  C   UNL A   1      41.750  28.451  33.583  1.00  0.00     0.120 A 
ATOM     16  C   UNL A   1      42.676  26.428  34.568  1.00  0.00    -0.019 A 
ATOM     17  C   UNL A   1      43.944  26.785  34.092  1.00  0.00     0.006 A 
ATOM     18  C   UNL A   1      41.587  27.286  34.328  1.00  0.00     0.052 A 
ATOM     19  C   UNL A   1      44.120  27.970  33.379  1.00  0.00     0.004 A 
ATOM     20  C   UNL A   1      43.025  28.799  33.130  1.00  0.00     0.046 A 
BRANCH  16  21
ATOM     21  C   UNL A   1      42.473  25.141  35.329  1.00  0.00     0.195 C 
BRANCH  21  22
ATOM     22  O   UNL A   1      43.160  24.047  34.730  1.00  0.00    -0.380 OA
ATOM     23  C   UNL A   1      44.165  23.489  35.568  1.00  0.00     0.195 C 
ENDBRANCH  21  22
ENDBRANCH  16  21
ENDBRANCH  14  15
ENDBRANCH  12  14
ENDBRANCH   8  12
ENDBRANCH   5   7
ENDBRANCH   4   5
ENDBRANCH   3   4
ENDBRANCH   2   3
ENDBRANCH   1   2
BRANCH   1  24
ATOM     24  C   UNL A   1      32.616  36.086  31.115  1.00  0.00     0.188 C 
BRANCH  24  25
ATOM     25  C   UNL A   1      33.249  35.647  29.776  1.00  0.00     0.188 C 
BRANCH  25  26
ATOM     26  O   UNL A   1      32.672  34.488  29.192  1.00  0.00    -0.376 OA
BRANCH  26  27
ATOM     27  C   UNL A   1      33.363  33.982  28.052  1.00  0.00     0.202 C 
BRANCH  27  28
ATOM     28  C   UNL A   1      34.718  33.324  28.338  1.00  0.00     0.261 C 
BRANCH  28  29
ATOM     29  O   UNL A   1      34.585  32.038  28.971  1.00  0.00    -0.460 OA
BRANCH  29  30
ATOM     30  C   UNL A   1      34.663  30.934  28.203  1.00  0.00     0.338 C 
ATOM     31  O   UNL A   1      33.800  30.461  27.489  1.00  0.00    -0.246 OA
BRANCH  30  32
ATOM     32  C   UNL A   1      35.976  30.304  28.459  1.00  0.00     0.060 A 
ATOM     33  C   UNL A   1      36.278  29.714  29.691  1.00  0.00     0.016 A 
ATOM     34  C   UNL A   1      36.930  30.325  27.443  1.00  0.00     0.016 A 
ATOM     35  C   UNL A   1      37.528  29.128  29.904  1.00  0.00     0.010 A 
ATOM     36  C   UNL A   1      38.186  29.755  27.666  1.00  0.00     0.010 A 
ATOM     37  C   UNL A   1      38.502  29.169  28.904  1.00  0.00    -0.014 A 
BRANCH  37  38
ATOM     38  C   UNL A   1      39.900  28.743  29.164  1.00  0.00     0.031 A 
ATOM     39  C   UNL A   1      40.870  29.759  29.693  1.00  0.00     0.074 A 
ATOM     40  C   UNL A   1      40.322  27.495  28.895  1.00  0.00     0.049 A 
ATOM     41  N   UNL A   1      42.176  29.728  29.726  1.00  0.00    -0.248 NA
ATOM     42  C   UNL A   1      40.279  30.984  30.259  1.00  0.00     0.031 C 
ATOM     43  C   UNL A   1      39.474  26.380  28.483  1.00  0.00     0.029 A 
ATOM     44  N   UNL A   1      41.593  26.972  28.899  1.00  0.00    -0.354 N 
ATOM     45  C   UNL A   1      42.567  30.945  30.269  1.00  0.00     0.074 A 
ATOM     46  C   UNL A   1      41.359  31.689  30.560  1.00  0.00     0.031 C 
ATOM     47  C   UNL A   1      40.252  25.312  28.236  1.00  0.00     0.029 A 
ATOM     48  C   UNL A   1      41.653  25.690  28.404  1.00  0.00     0.049 A 
ATOM     49  H   UNL A   1      42.381  27.465  29.222  1.00  0.00     0.167 HD
ATOM     50  C   UNL A   1      43.822  31.403  30.490  1.00  0.00     0.037 A 
ATOM     51  C   UNL A   1      42.718  24.936  28.067  1.00  0.00     0.037 A 
ATOM     52  C   UNL A   1      45.016  30.649  30.209  1.00  0.00     0.049 A 
ATOM     53  C   UNL A   1      44.107  25.499  28.223  1.00  0.00     0.074 A 
ATOM     54  C   UNL A   1      46.336  31.025  30.389  1.00  0.00     0.029 A 
ATOM     55  N   UNL A   1      45.033  29.365  29.689  1.00  0.00    -0.354 N 
ATOM     56  N   UNL A   1      44.479  26.668  28.685  1.00  0.00    -0.248 NA
ATOM     57  C   UNL A   1      45.224  24.644  27.795  1.00  0.00     0.031 C 
ATOM     58  C   UNL A   1      47.152  29.985  29.936  1.00  0.00     0.029 A 
ATOM     59  C   UNL A   1      46.341  28.939  29.526  1.00  0.00     0.049 A 
ATOM     60  H   UNL A   1      44.234  28.833  29.467  1.00  0.00     0.167 HD
ATOM     61  C   UNL A   1      45.870  26.673  28.640  1.00  0.00     0.074 A 
ATOM     62  C   UNL A   1      46.276  25.392  28.101  1.00  0.00     0.031 C 
ATOM     63  C   UNL A   1      46.730  27.650  29.016  1.00  0.00     0.037 A 
BRANCH  50  64
ATOM     64  C   UNL A   1      43.970  32.800  31.014  1.00  0.00     0.057 A 
ATOM     65  C   UNL A   1      44.080  33.075  32.382  1.00  0.00     0.134 A 
ATOM     66  C   UNL A   1      44.037  33.883  30.128  1.00  0.00     0.134 A 
ATOM     67  F   UNL A   1      44.004  32.085  33.284  1.00  0.00    -0.206 F 
ATOM     68  C   UNL A   1      44.236  34.381  32.852  1.00  0.00     0.040 A 
ATOM     69  C   UNL A   1      44.220  35.189  30.584  1.00  0.00     0.040 A 
ATOM     70  F   UNL A   1      43.941  33.687  28.804  1.00  0.00    -0.206 F 
ATOM     71  C   UNL A   1      44.314  35.440  31.950  1.00  0.00     0.006 A 
ENDBRANCH  50  64
BRANCH  51  72
ATOM     72  C   UNL A   1      42.516  23.581  27.493  1.00  0.00     0.057 A 
ATOM     73  C   UNL A   1      42.479  23.378  26.109  1.00  0.00     0.134 A 
ATOM     74  C   UNL A   1      42.335  22.459  28.313  1.00  0.00     0.134 A 
ATOM     75  F   UNL A   1      42.615  24.417  25.272  1.00  0.00    -0.206 F 
ATOM     76  C   UNL A   1      42.260  22.113  25.560  1.00  0.00     0.040 A 
ATOM     77  C   UNL A   1      42.143  21.185  27.779  1.00  0.00     0.040 A 
ATOM     78  F   UNL A   1      42.350  22.587  29.648  1.00  0.00    -0.206 F 
ATOM     79  C   UNL A   1      42.098  21.011  26.397  1.00  0.00     0.006 A 
ENDBRANCH  51  72
BRANCH  63  80
ATOM     80  C   UNL A   1      48.200  27.355  28.934  1.00  0.00     0.057 A 
ATOM     81  C   UNL A   1      48.969  27.706  27.819  1.00  0.00     0.134 A 
ATOM     82  C   UNL A   1      48.865  26.777  30.024  1.00  0.00     0.134 A 
ATOM     83  F   UNL A   1      48.392  28.253  26.739  1.00  0.00    -0.206 F 
ATOM     84  C   UNL A   1      50.348  27.483  27.786  1.00  0.00     0.040 A 
ATOM     85  C   UNL A   1      50.244  26.571  30.013  1.00  0.00     0.040 A 
ATOM     86  F   UNL A   1      48.186  26.427  31.127  1.00  0.00    -0.206 F 
ATOM     87  C   UNL A   1      50.990  26.923  28.890  1.00  0.00     0.006 A 
ENDBRANCH  63  80
ENDBRANCH  37  38
ENDBRANCH  30  32
ENDBRANCH  29  30
ENDBRANCH  28  29
ENDBRANCH  27  28
ENDBRANCH  26  27
ENDBRANCH  25  26
ENDBRANCH  24  25
ENDBRANCH   1  24
TORSDOF 22
ENDMDL
MODEL 2
REMARK VINA RESULT:      -8.3      4.971     11.842
REMARK SMILES COCc1cccc(O[C@@H](C)c2ccc(C(=O)OCCOCCOCCOC(=O)c3ccc(-c4c5nc(c(-c6c(F)cccc6F)c6ccc([nH]6)c(-c6c(F)cccc6F)c6nc(c(-c7c(F)cccc7F)c7ccc4[nH]7)C=C6)C=C5)cc3)o2)c1
REMARK SMILES IDX 21 1 20 2 19 3 18 4 16 5 17 6 15 7 12 8 13 9 84 10 14 11
REMARK SMILES IDX 10 12 11 13 9 14 8 15 4 16 5 17 85 18 6 19 7 20 3 21 2 22
REMARK SMILES IDX 1 23 22 24 23 25 24 26 25 27 26 28 27 29 28 30 29 31 30 32
REMARK SMILES IDX 31 33 83 34 32 35 82 36 33 37 34 38 35 39 76 40 36 41 81 42
REMARK SMILES IDX 75 43 77 44 37 45 80 46 74 47 73 48 38 50 64 51 47 52 63 53
REMARK SMILES IDX 48 54 51 55 62 56 78 57 49 58 50 59 61 61 79 62 52 63 39 64
REMARK SMILES IDX 40 65 45 66 41 67 42 68 44 69 46 70 43 71 65 72 66 73 71 74
REMARK SMILES IDX 67 75 68 76 70 77 72 78 69 79 53 80 54 81 59 82 55 83 56 84
REMARK SMILES IDX 58 85 60 86 57 87
REMARK H PARENT 77 49 51 60
REMARK Flexibility Score: inf
ROOT
ATOM      1  O   UNL A   1      40.624  21.001  27.011  1.00  0.00    -0.376 OA
ENDROOT
BRANCH   1   2
ATOM      2  C   UNL A   1      39.892  21.827  26.116  1.00  0.00     0.202 C 
BRANCH   2   3
ATOM      3  C   UNL A   1      38.481  21.382  25.705  1.00  0.00     0.261 C 
BRANCH   3   4
ATOM      4  O   UNL A   1      37.764  22.360  24.934  1.00  0.00    -0.457 OA
BRANCH   4   5
ATOM      5  C   UNL A   1      36.917  23.175  25.640  1.00  0.00     0.374 C 
ATOM      6  O   UNL A   1      37.275  24.090  26.362  1.00  0.00    -0.242 OA
BRANCH   5   7
ATOM      7  C   UNL A   1      35.546  22.870  25.285  1.00  0.00     0.211 A 
ATOM      8  C   UNL A   1      33.413  23.402  25.006  1.00  0.00     0.145 A 
ATOM      9  C   UNL A   1      33.574  22.133  24.489  1.00  0.00     0.050 A 
ATOM     10  O   UNL A   1      34.600  23.832  25.528  1.00  0.00    -0.450 OA
ATOM     11  C   UNL A   1      34.945  21.800  24.648  1.00  0.00     0.058 A 
BRANCH   8  12
ATOM     12  C   UNL A   1      32.258  24.347  25.141  1.00  0.00     0.236 C 
ATOM     13  C   UNL A   1      31.067  23.806  25.932  1.00  0.00     0.062 C 
BRANCH  12  14
ATOM     14  O   UNL A   1      31.928  24.921  23.862  1.00  0.00    -0.483 OA
BRANCH  14  15
ATOM     15  C   UNL A   1      32.072  26.256  23.624  1.00  0.00     0.120 A 
ATOM     16  C   UNL A   1      31.294  28.513  23.156  1.00  0.00    -0.019 A 
ATOM     17  C   UNL A   1      32.623  28.951  23.092  1.00  0.00     0.006 A 
ATOM     18  C   UNL A   1      31.031  27.153  23.399  1.00  0.00     0.052 A 
ATOM     19  C   UNL A   1      33.671  28.049  23.278  1.00  0.00     0.004 A 
ATOM     20  C   UNL A   1      33.392  26.707  23.541  1.00  0.00     0.046 A 
BRANCH  16  21
ATOM     21  C   UNL A   1      30.154  29.484  22.970  1.00  0.00     0.195 C 
BRANCH  21  22
ATOM     22  O   UNL A   1      29.138  28.964  22.118  1.00  0.00    -0.380 OA
ATOM     23  C   UNL A   1      27.842  29.000  22.704  1.00  0.00     0.195 C 
ENDBRANCH  21  22
ENDBRANCH  16  21
ENDBRANCH  14  15
ENDBRANCH  12  14
ENDBRANCH   8  12
ENDBRANCH   5   7
ENDBRANCH   4   5
ENDBRANCH   3   4
ENDBRANCH   2   3
ENDBRANCH   1   2
BRANCH   1  24
ATOM     24  C   UNL A   1      41.322  19.869  26.508  1.00  0.00     0.188 C 
BRANCH  24  25
ATOM     25  C   UNL A   1      42.823  19.970  26.152  1.00  0.00     0.188 C 
BRANCH  25  26
ATOM     26  O   UNL A   1      43.126  20.852  25.081  1.00  0.00    -0.376 OA
BRANCH  26  27
ATOM     27  C   UNL A   1      43.673  22.109  25.475  1.00  0.00     0.202 C 
BRANCH  27  28
ATOM     28  C   UNL A   1      44.003  23.074  24.330  1.00  0.00     0.261 C 
BRANCH  28  29
ATOM     29  O   UNL A   1      43.617  24.429  24.622  1.00  0.00    -0.460 OA
BRANCH  29  30
ATOM     30  C   UNL A   1      44.510  25.232  25.236  1.00  0.00     0.338 C 
ATOM     31  O   UNL A   1      45.700  25.333  25.008  1.00  0.00    -0.246 OA
BRANCH  30  32
ATOM     32  C   UNL A   1      43.808  25.915  26.343  1.00  0.00     0.060 A 
ATOM     33  C   UNL A   1      44.104  27.236  26.696  1.00  0.00     0.016 A 
ATOM     34  C   UNL A   1      42.844  25.202  27.056  1.00  0.00     0.016 A 
ATOM     35  C   UNL A   1      43.424  27.854  27.749  1.00  0.00     0.010 A 
ATOM     36  C   UNL A   1      42.180  25.816  28.120  1.00  0.00     0.010 A 
ATOM     37  C   UNL A   1      42.478  27.141  28.488  1.00  0.00    -0.014 A 
BRANCH  37  38
ATOM     38  C   UNL A   1      41.889  27.692  29.733  1.00  0.00     0.031 A 
ATOM     39  C   UNL A   1      40.649  28.531  29.626  1.00  0.00     0.074 A 
ATOM     40  C   UNL A   1      42.461  27.496  30.934  1.00  0.00     0.049 A 
ATOM     41  N   UNL A   1      40.117  29.348  30.496  1.00  0.00    -0.248 NA
ATOM     42  C   UNL A   1      39.911  28.435  28.356  1.00  0.00     0.031 C 
ATOM     43  C   UNL A   1      43.598  26.621  31.204  1.00  0.00     0.029 A 
ATOM     44  N   UNL A   1      42.172  28.062  32.154  1.00  0.00    -0.354 N 
ATOM     45  C   UNL A   1      39.011  29.903  29.865  1.00  0.00     0.074 A 
ATOM     46  C   UNL A   1      38.943  29.321  28.540  1.00  0.00     0.031 C 
ATOM     47  C   UNL A   1      43.936  26.735  32.499  1.00  0.00     0.029 A 
ATOM     48  C   UNL A   1      43.085  27.742  33.130  1.00  0.00     0.049 A 
ATOM     49  H   UNL A   1      41.390  28.638  32.312  1.00  0.00     0.167 HD
ATOM     50  C   UNL A   1      38.144  30.824  30.344  1.00  0.00     0.037 A 
ATOM     51  C   UNL A   1      43.253  28.252  34.366  1.00  0.00     0.037 A 
ATOM     52  C   UNL A   1      38.214  31.386  31.667  1.00  0.00     0.049 A 
ATOM     53  C   UNL A   1      42.341  29.350  34.847  1.00  0.00     0.074 A 
ATOM     54  C   UNL A   1      37.387  32.333  32.247  1.00  0.00     0.029 A 
ATOM     55  N   UNL A   1      39.167  31.052  32.616  1.00  0.00    -0.354 N 
ATOM     56  N   UNL A   1      41.329  29.915  34.234  1.00  0.00    -0.248 NA
ATOM     57  C   UNL A   1      42.604  29.896  36.188  1.00  0.00     0.031 C 
ATOM     58  C   UNL A   1      37.867  32.603  33.531  1.00  0.00     0.029 A 
ATOM     59  C   UNL A   1      38.958  31.785  33.772  1.00  0.00     0.049 A 
ATOM     60  H   UNL A   1      39.886  30.391  32.488  1.00  0.00     0.167 HD
ATOM     61  C   UNL A   1      40.813  30.850  35.125  1.00  0.00     0.074 A 
ATOM     62  C   UNL A   1      41.626  30.782  36.321  1.00  0.00     0.031 C 
ATOM     63  C   UNL A   1      39.758  31.685  34.966  1.00  0.00     0.037 A 
BRANCH  50  64
ATOM     64  C   UNL A   1      37.075  31.320  29.416  1.00  0.00     0.057 A 
ATOM     65  C   UNL A   1      35.931  30.567  29.126  1.00  0.00     0.134 A 
ATOM     66  C   UNL A   1      37.180  32.589  28.833  1.00  0.00     0.134 A 
ATOM     67  F   UNL A   1      35.779  29.336  29.637  1.00  0.00    -0.206 F 
ATOM     68  C   UNL A   1      34.936  31.053  28.274  1.00  0.00     0.040 A 
ATOM     69  C   UNL A   1      36.180  33.096  28.001  1.00  0.00     0.040 A 
ATOM     70  F   UNL A   1      38.250  33.363  29.072  1.00  0.00    -0.206 F 
ATOM     71  C   UNL A   1      35.057  32.324  27.716  1.00  0.00     0.006 A 
ENDBRANCH  50  64
BRANCH  51  72
ATOM     72  C   UNL A   1      44.367  27.770  35.224  1.00  0.00     0.057 A 
ATOM     73  C   UNL A   1      45.641  28.344  35.147  1.00  0.00     0.134 A 
ATOM     74  C   UNL A   1      44.190  26.712  36.125  1.00  0.00     0.134 A 
ATOM     75  F   UNL A   1      45.881  29.340  34.282  1.00  0.00    -0.206 F 
ATOM     76  C   UNL A   1      46.701  27.878  35.928  1.00  0.00     0.040 A 
ATOM     77  C   UNL A   1      45.233  26.254  36.930  1.00  0.00     0.040 A 
ATOM     78  F   UNL A   1      42.996  26.112  36.239  1.00  0.00    -0.206 F 
ATOM     79  C   UNL A   1      46.495  26.834  36.827  1.00  0.00     0.006 A 
ENDBRANCH  51  72
BRANCH  63  80
ATOM     80  C   UNL A   1      39.366  32.544  36.133  1.00  0.00     0.057 A 
ATOM     81  C   UNL A   1      39.923  33.809  36.348  1.00  0.00     0.134 A 
ATOM     82  C   UNL A   1      38.357  32.122  37.011  1.00  0.00     0.134 A 
ATOM     83  F   UNL A   1      40.900  34.267  35.552  1.00  0.00    -0.206 F 
ATOM     84  C   UNL A   1      39.499  34.621  37.403  1.00  0.00     0.040 A 
ATOM     85  C   UNL A   1      37.908  32.934  38.052  1.00  0.00     0.040 A 
ATOM     86  F   UNL A   1      37.774  30.923  36.852  1.00  0.00    -0.206 F 
ATOM     87  C   UNL A   1      38.482  34.187  38.253  1.00  0.00     0.006 A 
ENDBRANCH  63  80
ENDBRANCH  37  38
ENDBRANCH  30  32
ENDBRANCH  29  30
ENDBRANCH  28  29
ENDBRANCH  27  28
ENDBRANCH  26  27
ENDBRANCH  25  26
ENDBRANCH  24  25
ENDBRANCH   1  24
TORSDOF 22
ENDMDL
MODEL 3
REMARK VINA RESULT:      -7.8      2.260      4.193
REMARK SMILES COCc1cccc(O[C@@H](C)c2ccc(C(=O)OCCOCCOCCOC(=O)c3ccc(-c4c5nc(c(-c6c(F)cccc6F)c6ccc([nH]6)c(-c6c(F)cccc6F)c6nc(c(-c7c(F)cccc7F)c7ccc4[nH]7)C=C6)C=C5)cc3)o2)c1
REMARK SMILES IDX 21 1 20 2 19 3 18 4 16 5 17 6 15 7 12 8 13 9 84 10 14 11
REMARK SMILES IDX 10 12 11 13 9 14 8 15 4 16 5 17 85 18 6 19 7 20 3 21 2 22
REMARK SMILES IDX 1 23 22 24 23 25 24 26 25 27 26 28 27 29 28 30 29 31 30 32
REMARK SMILES IDX 31 33 83 34 32 35 82 36 33 37 34 38 35 39 76 40 36 41 81 42
REMARK SMILES IDX 75 43 77 44 37 45 80 46 74 47 73 48 38 50 64 51 47 52 63 53
REMARK SMILES IDX 48 54 51 55 62 56 78 57 49 58 50 59 61 61 79 62 52 63 39 64
REMARK SMILES IDX 40 65 45 66 41 67 42 68 44 69 46 70 43 71 65 72 66 73 71 74
REMARK SMILES IDX 67 75 68 76 70 77 72 78 69 79 53 80 54 81 59 82 55 83 56 84
REMARK SMILES IDX 58 85 60 86 57 87
REMARK H PARENT 77 49 51 60
REMARK Flexibility Score: inf
ROOT
ATOM      1  O   UNL A   1      33.123  35.898  32.740  1.00  0.00    -0.376 OA
ENDROOT
BRANCH   1   2
ATOM      2  C   UNL A   1      34.238  35.020  32.694  1.00  0.00     0.202 C 
BRANCH   2   3
ATOM      3  C   UNL A   1      35.161  34.950  33.919  1.00  0.00     0.261 C 
BRANCH   3   4
ATOM      4  O   UNL A   1      36.561  34.956  33.595  1.00  0.00    -0.457 OA
BRANCH   4   5
ATOM      5  C   UNL A   1      37.155  33.725  33.489  1.00  0.00     0.374 C 
ATOM      6  O   UNL A   1      36.979  32.799  34.263  1.00  0.00    -0.242 OA
BRANCH   5   7
ATOM      7  C   UNL A   1      37.903  33.655  32.250  1.00  0.00     0.211 A 
ATOM      8  C   UNL A   1      39.781  33.518  31.082  1.00  0.00     0.145 A 
ATOM      9  C   UNL A   1      38.745  33.368  30.182  1.00  0.00     0.050 A 
ATOM     10  O   UNL A   1      39.269  33.734  32.330  1.00  0.00    -0.450 OA
ATOM     11  C   UNL A   1      37.542  33.435  30.934  1.00  0.00     0.058 A 
BRANCH   8  12
ATOM     12  C   UNL A   1      41.275  33.527  30.977  1.00  0.00     0.236 C 
ATOM     13  C   UNL A   1      41.926  34.903  31.108  1.00  0.00     0.062 C 
BRANCH  12  14
ATOM     14  O   UNL A   1      41.702  32.760  29.834  1.00  0.00    -0.483 OA
BRANCH  14  15
ATOM     15  C   UNL A   1      43.022  32.501  29.606  1.00  0.00     0.120 A 
ATOM     16  C   UNL A   1      45.179  32.813  28.524  1.00  0.00    -0.019 A 
ATOM     17  C   UNL A   1      45.698  31.745  29.267  1.00  0.00     0.006 A 
ATOM     18  C   UNL A   1      43.827  33.167  28.684  1.00  0.00     0.052 A 
ATOM     19  C   UNL A   1      44.886  31.051  30.162  1.00  0.00     0.004 A 
ATOM     20  C   UNL A   1      43.552  31.429  30.327  1.00  0.00     0.046 A 
BRANCH  16  21
ATOM     21  C   UNL A   1      46.053  33.580  27.563  1.00  0.00     0.195 C 
BRANCH  21  22
ATOM     22  O   UNL A   1      45.364  33.924  26.364  1.00  0.00    -0.380 OA
ATOM     23  C   UNL A   1      46.037  34.914  25.595  1.00  0.00     0.195 C 
ENDBRANCH  21  22
ENDBRANCH  16  21
ENDBRANCH  14  15
ENDBRANCH  12  14
ENDBRANCH   8  12
ENDBRANCH   5   7
ENDBRANCH   4   5
ENDBRANCH   3   4
ENDBRANCH   2   3
ENDBRANCH   1   2
BRANCH   1  24
ATOM     24  C   UNL A   1      32.679  36.531  31.546  1.00  0.00     0.188 C 
BRANCH  24  25
ATOM     25  C   UNL A   1      33.219  36.073  30.172  1.00  0.00     0.188 C 
BRANCH  25  26
ATOM     26  O   UNL A   1      32.746  34.807  29.735  1.00  0.00    -0.376 OA
BRANCH  26  27
ATOM     27  C   UNL A   1      33.243  34.385  28.467  1.00  0.00     0.202 C 
BRANCH  27  28
ATOM     28  C   UNL A   1      34.687  33.869  28.461  1.00  0.00     0.261 C 
BRANCH  28  29
ATOM     29  O   UNL A   1      34.806  32.558  29.040  1.00  0.00    -0.460 OA
BRANCH  29  30
ATOM     30  C   UNL A   1      34.893  31.496  28.214  1.00  0.00     0.338 C 
ATOM     31  O   UNL A   1      34.130  31.184  27.320  1.00  0.00    -0.246 OA
BRANCH  30  32
ATOM     32  C   UNL A   1      36.045  30.681  28.654  1.00  0.00     0.060 A 
ATOM     33  C   UNL A   1      35.951  29.805  29.740  1.00  0.00     0.016 A 
ATOM     34  C   UNL A   1      37.253  30.818  27.970  1.00  0.00     0.016 A 
ATOM     35  C   UNL A   1      37.059  29.048  30.134  1.00  0.00     0.010 A 
ATOM     36  C   UNL A   1      38.363  30.074  28.378  1.00  0.00     0.010 A 
ATOM     37  C   UNL A   1      38.281  29.198  29.476  1.00  0.00    -0.014 A 
BRANCH  37  38
ATOM     38  C   UNL A   1      39.522  28.571  29.991  1.00  0.00     0.031 A 
ATOM     39  C   UNL A   1      40.173  29.167  31.205  1.00  0.00     0.074 A 
ATOM     40  C   UNL A   1      40.095  27.522  29.375  1.00  0.00     0.049 A 
ATOM     41  N   UNL A   1      41.383  29.000  31.670  1.00  0.00    -0.248 NA
ATOM     42  C   UNL A   1      39.341  30.086  32.000  1.00  0.00     0.031 C 
ATOM     43  C   UNL A   1      39.524  26.775  28.258  1.00  0.00     0.029 A 
ATOM     44  N   UNL A   1      41.315  26.927  29.592  1.00  0.00    -0.354 N 
ATOM     45  C   UNL A   1      41.476  29.827  32.783  1.00  0.00     0.074 A 
ATOM     46  C   UNL A   1      40.196  30.488  32.928  1.00  0.00     0.031 C 
ATOM     47  C   UNL A   1      40.408  25.844  27.860  1.00  0.00     0.029 A 
ATOM     48  C   UNL A   1      41.632  25.979  28.648  1.00  0.00     0.049 A 
ATOM     49  H   UNL A   1      41.904  27.158  30.345  1.00  0.00     0.167 HD
ATOM     50  C   UNL A   1      42.539  30.024  33.597  1.00  0.00     0.037 A 
ATOM     51  C   UNL A   1      42.795  25.341  28.410  1.00  0.00     0.037 A 
ATOM     52  C   UNL A   1      43.803  29.351  33.450  1.00  0.00     0.049 A 
ATOM     53  C   UNL A   1      43.999  25.648  29.262  1.00  0.00     0.074 A 
ATOM     54  C   UNL A   1      44.946  29.487  34.218  1.00  0.00     0.029 A 
ATOM     55  N   UNL A   1      44.088  28.415  32.469  1.00  0.00    -0.354 N 
ATOM     56  N   UNL A   1      44.105  26.468  30.280  1.00  0.00    -0.248 NA
ATOM     57  C   UNL A   1      45.250  24.954  28.922  1.00  0.00     0.031 C 
ATOM     58  C   UNL A   1      45.938  28.665  33.674  1.00  0.00     0.029 A 
ATOM     59  C   UNL A   1      45.395  27.976  32.602  1.00  0.00     0.049 A 
ATOM     60  H   UNL A   1      43.456  28.107  31.779  1.00  0.00     0.167 HD
ATOM     61  C   UNL A   1      45.419  26.359  30.724  1.00  0.00     0.074 A 
ATOM     62  C   UNL A   1      46.074  25.396  29.863  1.00  0.00     0.031 C 
ATOM     63  C   UNL A   1      46.024  26.995  31.756  1.00  0.00     0.037 A 
BRANCH  50  64
ATOM     64  C   UNL A   1      42.399  31.044  34.687  1.00  0.00     0.057 A 
ATOM     65  C   UNL A   1      41.839  30.733  35.932  1.00  0.00     0.134 A 
ATOM     66  C   UNL A   1      42.865  32.351  34.495  1.00  0.00     0.134 A 
ATOM     67  F   UNL A   1      41.357  29.506  36.173  1.00  0.00    -0.206 F 
ATOM     68  C   UNL A   1      41.734  31.692  36.943  1.00  0.00     0.040 A 
ATOM     69  C   UNL A   1      42.789  33.310  35.506  1.00  0.00     0.040 A 
ATOM     70  F   UNL A   1      43.415  32.714  33.326  1.00  0.00    -0.206 F 
ATOM     71  C   UNL A   1      42.217  32.981  36.732  1.00  0.00     0.006 A 
ENDBRANCH  50  64
BRANCH  51  72
ATOM     72  C   UNL A   1      42.899  24.385  27.277  1.00  0.00     0.057 A 
ATOM     73  C   UNL A   1      43.276  24.813  26.000  1.00  0.00     0.134 A 
ATOM     74  C   UNL A   1      42.606  23.025  27.440  1.00  0.00     0.134 A 
ATOM     75  F   UNL A   1      43.540  26.108  25.773  1.00  0.00    -0.206 F 
ATOM     76  C   UNL A   1      43.349  23.927  24.922  1.00  0.00     0.040 A 
ATOM     77  C   UNL A   1      42.699  22.124  26.380  1.00  0.00     0.040 A 
ATOM     78  F   UNL A   1      42.229  22.552  28.637  1.00  0.00    -0.206 F 
ATOM     79  C   UNL A   1      43.066  22.576  25.114  1.00  0.00     0.006 A 
ENDBRANCH  51  72
BRANCH  63  80
ATOM     80  C   UNL A   1      47.445  26.624  32.067  1.00  0.00     0.057 A 
ATOM     81  C   UNL A   1      47.769  25.553  32.907  1.00  0.00     0.134 A 
ATOM     82  C   UNL A   1      48.503  27.310  31.454  1.00  0.00     0.134 A 
ATOM     83  F   UNL A   1      46.804  24.863  33.533  1.00  0.00    -0.206 F 
ATOM     84  C   UNL A   1      49.097  25.182  33.134  1.00  0.00     0.040 A 
ATOM     85  C   UNL A   1      49.831  26.933  31.653  1.00  0.00     0.040 A 
ATOM     86  F   UNL A   1      48.259  28.340  30.629  1.00  0.00    -0.206 F 
ATOM     87  C   UNL A   1      50.131  25.868  32.498  1.00  0.00     0.006 A 
ENDBRANCH  63  80
ENDBRANCH  37  38
ENDBRANCH  30  32
ENDBRANCH  29  30
ENDBRANCH  28  29
ENDBRANCH  27  28
ENDBRANCH  26  27
ENDBRANCH  25  26
ENDBRANCH  24  25
ENDBRANCH   1  24
TORSDOF 22
ENDMDL
