MODEL 1
REMARK VINA RESULT:     -11.8      0.000      0.000
REMARK SMILES N#CCCn1cc(/C=C/c2cc(C(=O)OCCOCCOCCOC(=O)c3ccc(-c4c5nc(c(-c6c(F)cccc6F)c6ccc([nH]6)c(-c6c(F)cccc6F)c6nc(c(-c7c(F)cccc7F)c7ccc4[nH]7)C=C6)C=C5)cc3)c3ccccc3n2)c(-c2ccccc2)n1
REMARK SMILES IDX 18 1 17 2 16 3 15 4 13 5 14 6 12 7 10 8 11 9 87 10 86 11
REMARK SMILES IDX 81 12 85 13 82 14 84 15 83 16 9 17 8 18 7 19 5 20 6 21 95 22
REMARK SMILES IDX 88 23 4 24 3 25 2 26 1 27 89 28 90 29 94 30 91 31 93 32
REMARK SMILES IDX 92 33 19 34 20 35 21 36 22 37 23 38 24 39 25 40 26 41 27 42
REMARK SMILES IDX 28 43 80 44 29 45 79 46 30 47 31 48 32 49 73 50 33 51 78 52
REMARK SMILES IDX 72 53 74 54 34 55 77 56 71 57 70 58 35 60 61 61 44 62 60 63
REMARK SMILES IDX 45 64 48 65 59 66 75 67 46 68 47 69 58 71 76 72 49 73 36 74
REMARK SMILES IDX 37 75 42 76 38 77 39 78 41 79 43 80 40 81 62 82 63 83 68 84
REMARK SMILES IDX 64 85 65 86 67 87 69 88 66 89 50 90 51 91 56 92 52 93 53 94
REMARK SMILES IDX 55 95 57 96 54 97
REMARK H PARENT 74 59 48 70
REMARK Flexibility Score: inf
ROOT
ATOM      1  O   UNL A   1      40.129  21.812  26.548  1.00  0.00    -0.376 OA
ENDROOT
BRANCH   1   2
ATOM      2  C   UNL A   1      38.996  22.667  26.397  1.00  0.00     0.202 C 
BRANCH   2   3
ATOM      3  C   UNL A   1      37.896  22.322  25.375  1.00  0.00     0.261 C 
BRANCH   3   4
ATOM      4  O   UNL A   1      36.991  23.408  25.115  1.00  0.00    -0.460 OA
BRANCH   4   5
ATOM      5  C   UNL A   1      36.267  23.321  23.979  1.00  0.00     0.338 C 
ATOM      6  O   UNL A   1      36.707  23.149  22.854  1.00  0.00    -0.246 OA
BRANCH   5   7
ATOM      7  C   UNL A   1      34.819  23.222  24.274  1.00  0.00     0.071 A 
ATOM      8  C   UNL A   1      32.826  24.473  24.685  1.00  0.00     0.065 A 
ATOM      9  C   UNL A   1      34.157  24.451  24.321  1.00  0.00     0.044 A 
ATOM     10  N   UNL A   1      32.142  23.356  24.998  1.00  0.00    -0.248 NA
ATOM     11  C   UNL A   1      32.767  22.166  24.917  1.00  0.00     0.072 A 
ATOM     12  C   UNL A   1      34.122  22.022  24.540  1.00  0.00     0.015 A 
ATOM     13  C   UNL A   1      32.035  21.028  25.229  1.00  0.00     0.029 A 
ATOM     14  C   UNL A   1      34.674  20.719  24.466  1.00  0.00     0.011 A 
ATOM     15  C   UNL A   1      32.588  19.748  25.160  1.00  0.00     0.002 A 
ATOM     16  C   UNL A   1      33.909  19.593  24.767  1.00  0.00     0.001 A 
BRANCH   8  17
ATOM     17  C   UNL A   1      32.128  25.761  24.734  1.00  0.00     0.029 C 
ATOM     18  C   UNL A   1      32.153  26.692  23.766  1.00  0.00     0.014 C 
BRANCH  18  19
ATOM     19  C   UNL A   1      31.385  27.898  23.790  1.00  0.00     0.021 A 
ATOM     20  N   UNL A   1      29.817  29.357  23.334  1.00  0.00    -0.270 N 
ATOM     21  C   UNL A   1      30.316  28.143  22.958  1.00  0.00     0.117 A 
ATOM     22  N   UNL A   1      30.452  29.893  24.389  1.00  0.00    -0.172 NA
ATOM     23  C   UNL A   1      31.480  29.056  24.623  1.00  0.00     0.100 A 
BRANCH  20  24
ATOM     24  C   UNL A   1      28.695  30.046  22.719  1.00  0.00     0.159 C 
BRANCH  24  25
ATOM     25  C   UNL A   1      29.063  31.176  21.760  1.00  0.00     0.144 C 
BRANCH  25  26
ATOM     26  C   UNL A   1      28.846  32.526  22.423  1.00  0.00     0.064 C 
ATOM     27  N   UNL A   1      28.666  33.646  22.974  1.00  0.00    -0.198 NA
ENDBRANCH  25  26
ENDBRANCH  24  25
ENDBRANCH  20  24
BRANCH  23  28
ATOM     28  C   UNL A   1      32.501  29.377  25.617  1.00  0.00     0.003 A 
ATOM     29  C   UNL A   1      32.359  30.510  26.431  1.00  0.00     0.010 A 
ATOM     30  C   UNL A   1      33.642  28.579  25.747  1.00  0.00     0.010 A 
ATOM     31  C   UNL A   1      33.358  30.853  27.344  1.00  0.00     0.001 A 
ATOM     32  C   UNL A   1      34.643  28.926  26.658  1.00  0.00     0.001 A 
ATOM     33  C   UNL A   1      34.502  30.064  27.452  1.00  0.00     0.000 A 
ENDBRANCH  23  28
ENDBRANCH  18  19
ENDBRANCH   8  17
ENDBRANCH   5   7
ENDBRANCH   4   5
ENDBRANCH   3   4
ENDBRANCH   2   3
ENDBRANCH   1   2
BRANCH   1  34
ATOM     34  C   UNL A   1      40.016  20.446  26.165  1.00  0.00     0.188 C 
BRANCH  34  35
ATOM     35  C   UNL A   1      41.221  19.497  26.353  1.00  0.00     0.188 C 
BRANCH  35  36
ATOM     36  O   UNL A   1      42.209  19.594  25.350  1.00  0.00    -0.376 OA
BRANCH  36  37
ATOM     37  C   UNL A   1      43.465  20.208  25.583  1.00  0.00     0.202 C 
BRANCH  37  38
ATOM     38  C   UNL A   1      43.767  21.701  25.407  1.00  0.00     0.261 C 
BRANCH  38  39
ATOM     39  O   UNL A   1      42.868  22.620  26.000  1.00  0.00    -0.460 OA
BRANCH  39  40
ATOM     40  C   UNL A   1      43.074  23.904  25.635  1.00  0.00     0.338 C 
ATOM     41  O   UNL A   1      43.837  24.302  24.773  1.00  0.00    -0.246 OA
BRANCH  40  42
ATOM     42  C   UNL A   1      42.250  24.790  26.471  1.00  0.00     0.060 A 
ATOM     43  C   UNL A   1      41.440  25.706  25.799  1.00  0.00     0.016 A 
ATOM     44  C   UNL A   1      42.458  24.868  27.856  1.00  0.00     0.016 A 
ATOM     45  C   UNL A   1      41.010  26.827  26.478  1.00  0.00     0.010 A 
ATOM     46  C   UNL A   1      42.028  25.992  28.535  1.00  0.00     0.010 A 
ATOM     47  C   UNL A   1      41.398  27.004  27.811  1.00  0.00    -0.014 A 
BRANCH  47  48
ATOM     48  C   UNL A   1      41.274  28.347  28.342  1.00  0.00     0.031 A 
ATOM     49  C   UNL A   1      42.386  29.286  28.097  1.00  0.00     0.074 A 
ATOM     50  C   UNL A   1      40.191  28.726  29.047  1.00  0.00     0.049 A 
ATOM     51  N   UNL A   1      43.150  29.856  28.971  1.00  0.00    -0.248 NA
ATOM     52  C   UNL A   1      42.706  29.604  26.701  1.00  0.00     0.031 C 
ATOM     53  C   UNL A   1      38.900  28.043  29.165  1.00  0.00     0.029 A 
ATOM     54  N   UNL A   1      40.005  29.877  29.750  1.00  0.00    -0.354 N 
ATOM     55  C   UNL A   1      43.950  30.735  28.253  1.00  0.00     0.074 A 
ATOM     56  C   UNL A   1      43.698  30.479  26.855  1.00  0.00     0.031 C 
ATOM     57  C   UNL A   1      38.005  28.889  29.722  1.00  0.00     0.029 A 
ATOM     58  C   UNL A   1      38.689  30.112  30.107  1.00  0.00     0.049 A 
ATOM     59  H   UNL A   1      40.741  30.489  29.982  1.00  0.00     0.167 HD
ATOM     60  C   UNL A   1      44.647  31.738  28.850  1.00  0.00     0.037 A 
ATOM     61  C   UNL A   1      38.190  31.263  30.614  1.00  0.00     0.037 A 
ATOM     62  C   UNL A   1      44.828  31.527  30.259  1.00  0.00     0.049 A 
ATOM     63  C   UNL A   1      39.313  32.041  31.192  1.00  0.00     0.074 A 
ATOM     64  C   UNL A   1      45.418  30.538  31.023  1.00  0.00     0.029 A 
ATOM     65  N   UNL A   1      44.103  32.285  31.144  1.00  0.00    -0.354 N 
ATOM     66  N   UNL A   1      39.946  31.727  32.287  1.00  0.00    -0.248 NA
ATOM     67  C   UNL A   1      39.993  33.001  30.334  1.00  0.00     0.031 C 
ATOM     68  C   UNL A   1      44.644  30.470  32.217  1.00  0.00     0.029 A 
ATOM     69  C   UNL A   1      43.632  31.423  32.102  1.00  0.00     0.049 A 
ATOM     70  H   UNL A   1      43.950  33.256  31.099  1.00  0.00     0.167 HD
ATOM     71  C   UNL A   1      41.257  32.124  32.067  1.00  0.00     0.074 A 
ATOM     72  C   UNL A   1      41.198  33.003  30.906  1.00  0.00     0.031 C 
ATOM     73  C   UNL A   1      42.305  31.490  32.669  1.00  0.00     0.037 A 
BRANCH  60  74
ATOM     74  C   UNL A   1      44.935  33.046  28.178  1.00  0.00     0.057 A 
ATOM     75  C   UNL A   1      43.918  33.997  28.006  1.00  0.00     0.134 A 
ATOM     76  C   UNL A   1      46.130  33.298  27.475  1.00  0.00     0.134 A 
ATOM     77  F   UNL A   1      42.719  33.832  28.585  1.00  0.00    -0.206 F 
ATOM     78  C   UNL A   1      44.076  35.116  27.181  1.00  0.00     0.040 A 
ATOM     79  C   UNL A   1      46.319  34.436  26.689  1.00  0.00     0.040 A 
ATOM     80  F   UNL A   1      47.134  32.409  27.448  1.00  0.00    -0.206 F 
ATOM     81  C   UNL A   1      45.281  35.342  26.524  1.00  0.00     0.006 A 
ENDBRANCH  60  74
BRANCH  61  82
ATOM     82  C   UNL A   1      36.841  31.832  30.413  1.00  0.00     0.057 A 
ATOM     83  C   UNL A   1      35.885  31.816  31.436  1.00  0.00     0.134 A 
ATOM     84  C   UNL A   1      36.530  32.625  29.293  1.00  0.00     0.134 A 
ATOM     85  F   UNL A   1      36.110  31.133  32.568  1.00  0.00    -0.206 F 
ATOM     86  C   UNL A   1      34.695  32.550  31.354  1.00  0.00     0.040 A 
ATOM     87  C   UNL A   1      35.339  33.349  29.190  1.00  0.00     0.040 A 
ATOM     88  F   UNL A   1      37.408  32.795  28.293  1.00  0.00    -0.206 F 
ATOM     89  C   UNL A   1      34.421  33.323  30.230  1.00  0.00     0.006 A 
ENDBRANCH  61  82
BRANCH  73  90
ATOM     90  C   UNL A   1      42.001  30.546  33.798  1.00  0.00     0.057 A 
ATOM     91  C   UNL A   1      41.610  29.214  33.605  1.00  0.00     0.134 A 
ATOM     92  C   UNL A   1      42.253  30.950  35.114  1.00  0.00     0.134 A 
ATOM     93  F   UNL A   1      41.453  28.710  32.373  1.00  0.00    -0.206 F 
ATOM     94  C   UNL A   1      41.426  28.338  34.679  1.00  0.00     0.040 A 
ATOM     95  C   UNL A   1      42.104  30.076  36.194  1.00  0.00     0.040 A 
ATOM     96  F   UNL A   1      42.693  32.194  35.369  1.00  0.00    -0.206 F 
ATOM     97  C   UNL A   1      41.677  28.768  35.979  1.00  0.00     0.006 A 
ENDBRANCH  73  90
ENDBRANCH  47  48
ENDBRANCH  40  42
ENDBRANCH  39  40
ENDBRANCH  38  39
ENDBRANCH  37  38
ENDBRANCH  36  37
ENDBRANCH  35  36
ENDBRANCH  34  35
ENDBRANCH   1  34
TORSDOF 23
ENDMDL
MODEL 2
REMARK VINA RESULT:     -11.4      2.041      2.780
REMARK SMILES N#CCCn1cc(/C=C/c2cc(C(=O)OCCOCCOCCOC(=O)c3ccc(-c4c5nc(c(-c6c(F)cccc6F)c6ccc([nH]6)c(-c6c(F)cccc6F)c6nc(c(-c7c(F)cccc7F)c7ccc4[nH]7)C=C6)C=C5)cc3)c3ccccc3n2)c(-c2ccccc2)n1
REMARK SMILES IDX 18 1 17 2 16 3 15 4 13 5 14 6 12 7 10 8 11 9 87 10 86 11
REMARK SMILES IDX 81 12 85 13 82 14 84 15 83 16 9 17 8 18 7 19 5 20 6 21 95 22
REMARK SMILES IDX 88 23 4 24 3 25 2 26 1 27 89 28 90 29 94 30 91 31 93 32
REMARK SMILES IDX 92 33 19 34 20 35 21 36 22 37 23 38 24 39 25 40 26 41 27 42
REMARK SMILES IDX 28 43 80 44 29 45 79 46 30 47 31 48 32 49 73 50 33 51 78 52
REMARK SMILES IDX 72 53 74 54 34 55 77 56 71 57 70 58 35 60 61 61 44 62 60 63
REMARK SMILES IDX 45 64 48 65 59 66 75 67 46 68 47 69 58 71 76 72 49 73 36 74
REMARK SMILES IDX 37 75 42 76 38 77 39 78 41 79 43 80 40 81 62 82 63 83 68 84
REMARK SMILES IDX 64 85 65 86 67 87 69 88 66 89 50 90 51 91 56 92 52 93 53 94
REMARK SMILES IDX 55 95 57 96 54 97
REMARK H PARENT 74 59 48 70
REMARK Flexibility Score: inf
ROOT
ATOM      1  O   UNL A   1      39.825  21.385  26.972  1.00  0.00    -0.376 OA
ENDROOT
BRANCH   1   2
ATOM      2  C   UNL A   1      39.243  22.230  25.980  1.00  0.00     0.202 C 
BRANCH   2   3
ATOM      3  C   UNL A   1      37.883  21.868  25.354  1.00  0.00     0.261 C 
BRANCH   3   4
ATOM      4  O   UNL A   1      37.054  23.010  25.078  1.00  0.00    -0.460 OA
BRANCH   4   5
ATOM      5  C   UNL A   1      36.470  23.041  23.861  1.00  0.00     0.338 C 
ATOM      6  O   UNL A   1      37.026  22.870  22.789  1.00  0.00    -0.246 OA
BRANCH   5   7
ATOM      7  C   UNL A   1      34.993  23.077  23.978  1.00  0.00     0.071 A 
ATOM      8  C   UNL A   1      33.069  24.490  23.897  1.00  0.00     0.065 A 
ATOM      9  C   UNL A   1      34.428  24.328  23.719  1.00  0.00     0.044 A 
ATOM     10  N   UNL A   1      32.269  23.489  24.311  1.00  0.00    -0.248 NA
ATOM     11  C   UNL A   1      32.805  22.273  24.524  1.00  0.00     0.072 A 
ATOM     12  C   UNL A   1      34.180  21.988  24.359  1.00  0.00     0.015 A 
ATOM     13  C   UNL A   1      31.955  21.254  24.935  1.00  0.00     0.029 A 
ATOM     14  C   UNL A   1      34.635  20.665  24.589  1.00  0.00     0.011 A 
ATOM     15  C   UNL A   1      32.412  19.955  25.166  1.00  0.00     0.002 A 
ATOM     16  C   UNL A   1      33.754  19.658  24.983  1.00  0.00     0.001 A 
BRANCH   8  17
ATOM     17  C   UNL A   1      32.471  25.800  23.626  1.00  0.00     0.029 C 
ATOM     18  C   UNL A   1      31.177  26.112  23.809  1.00  0.00     0.014 C 
BRANCH  18  19
ATOM     19  C   UNL A   1      30.634  27.423  23.633  1.00  0.00     0.021 A 
ATOM     20  N   UNL A   1      29.359  29.049  22.909  1.00  0.00    -0.270 N 
ATOM     21  C   UNL A   1      29.642  27.727  22.727  1.00  0.00     0.117 A 
ATOM     22  N   UNL A   1      30.057  29.614  23.908  1.00  0.00    -0.172 NA
ATOM     23  C   UNL A   1      30.915  28.655  24.301  1.00  0.00     0.100 A 
BRANCH  20  24
ATOM     24  C   UNL A   1      28.389  29.826  22.156  1.00  0.00     0.159 C 
BRANCH  24  25
ATOM     25  C   UNL A   1      28.965  30.978  21.334  1.00  0.00     0.144 C 
BRANCH  25  26
ATOM     26  C   UNL A   1      28.633  32.311  21.985  1.00  0.00     0.064 C 
ATOM     27  N   UNL A   1      28.358  33.417  22.525  1.00  0.00    -0.198 NA
ENDBRANCH  25  26
ENDBRANCH  24  25
ENDBRANCH  20  24
BRANCH  23  28
ATOM     28  C   UNL A   1      31.956  28.934  25.287  1.00  0.00     0.003 A 
ATOM     29  C   UNL A   1      31.702  29.815  26.349  1.00  0.00     0.010 A 
ATOM     30  C   UNL A   1      33.223  28.353  25.167  1.00  0.00     0.010 A 
ATOM     31  C   UNL A   1      32.710  30.129  27.263  1.00  0.00     0.001 A 
ATOM     32  C   UNL A   1      34.233  28.673  26.080  1.00  0.00     0.001 A 
ATOM     33  C   UNL A   1      33.976  29.562  27.123  1.00  0.00     0.000 A 
ENDBRANCH  23  28
ENDBRANCH  18  19
ENDBRANCH   8  17
ENDBRANCH   5   7
ENDBRANCH   4   5
ENDBRANCH   3   4
ENDBRANCH   2   3
ENDBRANCH   1   2
BRANCH   1  34
ATOM     34  C   UNL A   1      40.555  20.237  26.555  1.00  0.00     0.188 C 
BRANCH  34  35
ATOM     35  C   UNL A   1      42.017  20.393  26.079  1.00  0.00     0.188 C 
BRANCH  35  36
ATOM     36  O   UNL A   1      42.465  19.376  25.210  1.00  0.00    -0.376 OA
BRANCH  36  37
ATOM     37  C   UNL A   1      43.784  18.858  25.270  1.00  0.00     0.202 C 
BRANCH  37  38
ATOM     38  C   UNL A   1      45.005  19.462  24.567  1.00  0.00     0.261 C 
BRANCH  38  39
ATOM     39  O   UNL A   1      45.796  20.374  25.307  1.00  0.00    -0.460 OA
BRANCH  39  40
ATOM     40  C   UNL A   1      45.813  21.626  24.799  1.00  0.00     0.338 C 
ATOM     41  O   UNL A   1      46.528  22.038  23.903  1.00  0.00    -0.246 OA
BRANCH  40  42
ATOM     42  C   UNL A   1      44.842  22.461  25.521  1.00  0.00     0.060 A 
ATOM     43  C   UNL A   1      44.141  23.400  24.762  1.00  0.00     0.016 A 
ATOM     44  C   UNL A   1      44.808  22.475  26.923  1.00  0.00     0.016 A 
ATOM     45  C   UNL A   1      43.581  24.483  25.407  1.00  0.00     0.010 A 
ATOM     46  C   UNL A   1      44.248  23.561  27.568  1.00  0.00     0.010 A 
ATOM     47  C   UNL A   1      43.732  24.599  26.793  1.00  0.00    -0.014 A 
BRANCH  47  48
ATOM     48  C   UNL A   1      43.494  25.914  27.356  1.00  0.00     0.031 A 
ATOM     49  C   UNL A   1      44.507  26.958  27.108  1.00  0.00     0.074 A 
ATOM     50  C   UNL A   1      42.397  26.175  28.091  1.00  0.00     0.049 A 
ATOM     51  N   UNL A   1      45.234  27.582  27.978  1.00  0.00    -0.248 NA
ATOM     52  C   UNL A   1      44.763  27.332  25.713  1.00  0.00     0.031 C 
ATOM     53  C   UNL A   1      41.179  25.371  28.221  1.00  0.00     0.029 A 
ATOM     54  N   UNL A   1      42.119  27.290  28.822  1.00  0.00    -0.354 N 
ATOM     55  C   UNL A   1      45.931  28.546  27.263  1.00  0.00     0.074 A 
ATOM     56  C   UNL A   1      45.672  28.295  25.865  1.00  0.00     0.031 C 
ATOM     57  C   UNL A   1      40.221  26.117  28.815  1.00  0.00     0.029 A 
ATOM     58  C   UNL A   1      40.795  27.392  29.212  1.00  0.00     0.049 A 
ATOM     59  H   UNL A   1      42.799  27.963  29.053  1.00  0.00     0.167 HD
ATOM     60  C   UNL A   1      46.543  29.599  27.867  1.00  0.00     0.037 A 
ATOM     61  C   UNL A   1      40.201  28.480  29.753  1.00  0.00     0.037 A 
ATOM     62  C   UNL A   1      46.775  29.379  29.267  1.00  0.00     0.049 A 
ATOM     63  C   UNL A   1      41.259  29.349  30.325  1.00  0.00     0.074 A 
ATOM     64  C   UNL A   1      47.473  28.435  29.997  1.00  0.00     0.029 A 
ATOM     65  N   UNL A   1      46.002  30.047  30.183  1.00  0.00    -0.354 N 
ATOM     66  N   UNL A   1      41.944  29.076  31.400  1.00  0.00    -0.248 NA
ATOM     67  C   UNL A   1      41.826  30.386  29.474  1.00  0.00     0.031 C 
ATOM     68  C   UNL A   1      46.736  28.271  31.205  1.00  0.00     0.029 A 
ATOM     69  C   UNL A   1      45.636  29.126  31.131  1.00  0.00     0.049 A 
ATOM     70  H   UNL A   1      45.757  31.000  30.162  1.00  0.00     0.167 HD
ATOM     71  C   UNL A   1      43.206  29.599  31.161  1.00  0.00     0.074 A 
ATOM     72  C   UNL A   1      43.038  30.491  30.020  1.00  0.00     0.031 C 
ATOM     73  C   UNL A   1      44.323  29.056  31.727  1.00  0.00     0.037 A 
BRANCH  60  74
ATOM     74  C   UNL A   1      46.692  30.941  27.217  1.00  0.00     0.057 A 
ATOM     75  C   UNL A   1      47.953  31.549  27.123  1.00  0.00     0.134 A 
ATOM     76  C   UNL A   1      45.593  31.763  26.897  1.00  0.00     0.134 A 
ATOM     77  F   UNL A   1      49.066  30.878  27.454  1.00  0.00    -0.206 F 
ATOM     78  C   UNL A   1      48.106  32.889  26.747  1.00  0.00     0.040 A 
ATOM     79  C   UNL A   1      45.736  33.085  26.473  1.00  0.00     0.040 A 
ATOM     80  F   UNL A   1      44.329  31.348  27.068  1.00  0.00    -0.206 F 
ATOM     81  C   UNL A   1      46.997  33.660  26.416  1.00  0.00     0.006 A 
ENDBRANCH  60  74
BRANCH  61  82
ATOM     82  C   UNL A   1      38.800  28.923  29.593  1.00  0.00     0.057 A 
ATOM     83  C   UNL A   1      37.923  28.971  30.684  1.00  0.00     0.134 A 
ATOM     84  C   UNL A   1      38.350  29.542  28.412  1.00  0.00     0.134 A 
ATOM     85  F   UNL A   1      38.281  28.457  31.869  1.00  0.00    -0.206 F 
ATOM     86  C   UNL A   1      36.676  29.604  30.608  1.00  0.00     0.040 A 
ATOM     87  C   UNL A   1      37.100  30.161  28.317  1.00  0.00     0.040 A 
ATOM     88  F   UNL A   1      39.138  29.643  27.332  1.00  0.00    -0.206 F 
ATOM     89  C   UNL A   1      36.263  30.204  29.422  1.00  0.00     0.006 A 
ENDBRANCH  61  82
BRANCH  73  90
ATOM     90  C   UNL A   1      44.134  28.066  32.842  1.00  0.00     0.057 A 
ATOM     91  C   UNL A   1      43.948  26.692  32.629  1.00  0.00     0.134 A 
ATOM     92  C   UNL A   1      44.293  28.489  34.167  1.00  0.00     0.134 A 
ATOM     93  F   UNL A   1      43.897  26.184  31.391  1.00  0.00    -0.206 F 
ATOM     94  C   UNL A   1      43.870  25.788  33.693  1.00  0.00     0.040 A 
ATOM     95  C   UNL A   1      44.249  27.590  35.236  1.00  0.00     0.040 A 
ATOM     96  F   UNL A   1      44.539  29.780  34.441  1.00  0.00    -0.206 F 
ATOM     97  C   UNL A   1      44.025  26.237  35.002  1.00  0.00     0.006 A 
ENDBRANCH  73  90
ENDBRANCH  47  48
ENDBRANCH  40  42
ENDBRANCH  39  40
ENDBRANCH  38  39
ENDBRANCH  37  38
ENDBRANCH  36  37
ENDBRANCH  35  36
ENDBRANCH  34  35
ENDBRANCH   1  34
TORSDOF 23
ENDMDL
MODEL 3
REMARK VINA RESULT:     -11.3      1.662      5.589
REMARK SMILES N#CCCn1cc(/C=C/c2cc(C(=O)OCCOCCOCCOC(=O)c3ccc(-c4c5nc(c(-c6c(F)cccc6F)c6ccc([nH]6)c(-c6c(F)cccc6F)c6nc(c(-c7c(F)cccc7F)c7ccc4[nH]7)C=C6)C=C5)cc3)c3ccccc3n2)c(-c2ccccc2)n1
REMARK SMILES IDX 18 1 17 2 16 3 15 4 13 5 14 6 12 7 10 8 11 9 87 10 86 11
REMARK SMILES IDX 81 12 85 13 82 14 84 15 83 16 9 17 8 18 7 19 5 20 6 21 95 22
REMARK SMILES IDX 88 23 4 24 3 25 2 26 1 27 89 28 90 29 94 30 91 31 93 32
REMARK SMILES IDX 92 33 19 34 20 35 21 36 22 37 23 38 24 39 25 40 26 41 27 42
REMARK SMILES IDX 28 43 80 44 29 45 79 46 30 47 31 48 32 49 73 50 33 51 78 52
REMARK SMILES IDX 72 53 74 54 34 55 77 56 71 57 70 58 35 60 61 61 44 62 60 63
REMARK SMILES IDX 45 64 48 65 59 66 75 67 46 68 47 69 58 71 76 72 49 73 36 74
REMARK SMILES IDX 37 75 42 76 38 77 39 78 41 79 43 80 40 81 62 82 63 83 68 84
REMARK SMILES IDX 64 85 65 86 67 87 69 88 66 89 50 90 51 91 56 92 52 93 53 94
REMARK SMILES IDX 55 95 57 96 54 97
REMARK H PARENT 74 59 48 70
REMARK Flexibility Score: inf
ROOT
ATOM      1  O   UNL A   1      40.002  21.654  27.277  1.00  0.00    -0.376 OA
ENDROOT
BRANCH   1   2
ATOM      2  C   UNL A   1      39.232  22.561  26.489  1.00  0.00     0.202 C 
BRANCH   2   3
ATOM      3  C   UNL A   1      37.987  22.066  25.731  1.00  0.00     0.261 C 
BRANCH   3   4
ATOM      4  O   UNL A   1      36.945  23.052  25.628  1.00  0.00    -0.460 OA
BRANCH   4   5
ATOM      5  C   UNL A   1      36.361  23.176  24.418  1.00  0.00     0.338 C 
ATOM      6  O   UNL A   1      36.932  23.217  23.340  1.00  0.00    -0.246 OA
BRANCH   5   7
ATOM      7  C   UNL A   1      34.890  23.022  24.516  1.00  0.00     0.071 A 
ATOM      8  C   UNL A   1      32.817  24.197  24.677  1.00  0.00     0.065 A 
ATOM      9  C   UNL A   1      34.184  24.227  24.493  1.00  0.00     0.044 A 
ATOM     10  N   UNL A   1      32.138  23.051  24.880  1.00  0.00    -0.248 NA
ATOM     11  C   UNL A   1      32.811  21.886  24.865  1.00  0.00     0.072 A 
ATOM     12  C   UNL A   1      34.208  21.795  24.669  1.00  0.00     0.015 A 
ATOM     13  C   UNL A   1      32.085  20.717  25.059  1.00  0.00     0.029 A 
ATOM     14  C   UNL A   1      34.812  20.512  24.649  1.00  0.00     0.011 A 
ATOM     15  C   UNL A   1      32.689  19.458  25.045  1.00  0.00     0.002 A 
ATOM     16  C   UNL A   1      34.055  19.356  24.829  1.00  0.00     0.001 A 
BRANCH   8  17
ATOM     17  C   UNL A   1      32.072  25.459  24.653  1.00  0.00     0.029 C 
ATOM     18  C   UNL A   1      32.485  26.590  24.055  1.00  0.00     0.014 C 
BRANCH  18  19
ATOM     19  C   UNL A   1      31.699  27.780  23.958  1.00  0.00     0.021 A 
ATOM     20  N   UNL A   1      30.139  29.178  23.318  1.00  0.00    -0.270 N 
ATOM     21  C   UNL A   1      30.677  27.952  23.051  1.00  0.00     0.117 A 
ATOM     22  N   UNL A   1      30.703  29.792  24.371  1.00  0.00    -0.172 NA
ATOM     23  C   UNL A   1      31.727  28.991  24.718  1.00  0.00     0.100 A 
BRANCH  20  24
ATOM     24  C   UNL A   1      29.045  29.806  22.597  1.00  0.00     0.159 C 
BRANCH  24  25
ATOM     25  C   UNL A   1      28.243  30.837  23.388  1.00  0.00     0.144 C 
BRANCH  25  26
ATOM     26  C   UNL A   1      28.169  32.150  22.625  1.00  0.00     0.064 C 
ATOM     27  N   UNL A   1      28.108  33.238  21.991  1.00  0.00    -0.198 NA
ENDBRANCH  25  26
ENDBRANCH  24  25
ENDBRANCH  20  24
BRANCH  23  28
ATOM     28  C   UNL A   1      32.684  29.393  25.746  1.00  0.00     0.003 A 
ATOM     29  C   UNL A   1      32.445  30.538  26.519  1.00  0.00     0.010 A 
ATOM     30  C   UNL A   1      33.858  28.661  25.950  1.00  0.00     0.010 A 
ATOM     31  C   UNL A   1      33.381  30.959  27.466  1.00  0.00     0.001 A 
ATOM     32  C   UNL A   1      34.797  29.087  26.895  1.00  0.00     0.001 A 
ATOM     33  C   UNL A   1      34.559  30.237  27.648  1.00  0.00     0.000 A 
ENDBRANCH  23  28
ENDBRANCH  18  19
ENDBRANCH   8  17
ENDBRANCH   5   7
ENDBRANCH   4   5
ENDBRANCH   3   4
ENDBRANCH   2   3
ENDBRANCH   1   2
BRANCH   1  34
ATOM     34  C   UNL A   1      40.711  20.607  26.624  1.00  0.00     0.188 C 
BRANCH  34  35
ATOM     35  C   UNL A   1      42.210  20.789  26.294  1.00  0.00     0.188 C 
BRANCH  35  36
ATOM     36  O   UNL A   1      42.561  22.078  25.843  1.00  0.00    -0.376 OA
BRANCH  36  37
ATOM     37  C   UNL A   1      42.995  23.097  26.729  1.00  0.00     0.202 C 
BRANCH  37  38
ATOM     38  C   UNL A   1      43.877  24.290  26.340  1.00  0.00     0.261 C 
BRANCH  38  39
ATOM     39  O   UNL A   1      43.353  25.585  26.565  1.00  0.00    -0.460 OA
BRANCH  39  40
ATOM     40  C   UNL A   1      42.238  25.859  25.852  1.00  0.00     0.338 C 
ATOM     41  O   UNL A   1      41.997  25.500  24.713  1.00  0.00    -0.246 OA
BRANCH  40  42
ATOM     42  C   UNL A   1      41.340  26.706  26.650  1.00  0.00     0.060 A 
ATOM     43  C   UNL A   1      41.443  28.084  26.452  1.00  0.00     0.016 A 
ATOM     44  C   UNL A   1      40.604  26.169  27.716  1.00  0.00     0.016 A 
ATOM     45  C   UNL A   1      40.989  28.928  27.444  1.00  0.00     0.010 A 
ATOM     46  C   UNL A   1      40.152  27.014  28.710  1.00  0.00     0.010 A 
ATOM     47  C   UNL A   1      40.442  28.375  28.607  1.00  0.00    -0.014 A 
BRANCH  47  48
ATOM     48  C   UNL A   1      40.360  29.254  29.757  1.00  0.00     0.031 A 
ATOM     49  C   UNL A   1      39.137  30.065  29.912  1.00  0.00     0.074 A 
ATOM     50  C   UNL A   1      41.367  29.341  30.647  1.00  0.00     0.049 A 
ATOM     51  N   UNL A   1      39.034  31.355  29.907  1.00  0.00    -0.248 NA
ATOM     52  C   UNL A   1      37.866  29.348  30.062  1.00  0.00     0.031 C 
ATOM     53  C   UNL A   1      42.515  28.446  30.809  1.00  0.00     0.029 A 
ATOM     54  N   UNL A   1      41.515  30.233  31.666  1.00  0.00    -0.354 N 
ATOM     55  C   UNL A   1      37.708  31.627  30.213  1.00  0.00     0.074 A 
ATOM     56  C   UNL A   1      37.013  30.361  30.214  1.00  0.00     0.031 C 
ATOM     57  C   UNL A   1      43.124  28.721  31.985  1.00  0.00     0.029 A 
ATOM     58  C   UNL A   1      42.485  29.881  32.586  1.00  0.00     0.049 A 
ATOM     59  H   UNL A   1      40.977  31.054  31.741  1.00  0.00     0.167 HD
ATOM     60  C   UNL A   1      37.291  32.857  30.616  1.00  0.00     0.037 A 
ATOM     61  C   UNL A   1      42.695  30.459  33.791  1.00  0.00     0.037 A 
ATOM     62  C   UNL A   1      38.218  33.898  30.271  1.00  0.00     0.049 A 
ATOM     63  C   UNL A   1      42.087  31.812  33.767  1.00  0.00     0.074 A 
ATOM     64  C   UNL A   1      38.753  34.366  29.085  1.00  0.00     0.029 A 
ATOM     65  N   UNL A   1      38.978  34.468  31.261  1.00  0.00    -0.354 N 
ATOM     66  N   UNL A   1      42.559  32.825  33.097  1.00  0.00    -0.248 NA
ATOM     67  C   UNL A   1      40.709  31.950  34.215  1.00  0.00     0.031 C 
ATOM     68  C   UNL A   1      40.073  34.793  29.409  1.00  0.00     0.029 A 
ATOM     69  C   UNL A   1      40.256  34.556  30.771  1.00  0.00     0.049 A 
ATOM     70  H   UNL A   1      38.666  34.755  32.150  1.00  0.00     0.167 HD
ATOM     71  C   UNL A   1      41.439  33.538  32.693  1.00  0.00     0.074 A 
ATOM     72  C   UNL A   1      40.346  33.021  33.507  1.00  0.00     0.031 C 
ATOM     73  C   UNL A   1      41.442  34.282  31.549  1.00  0.00     0.037 A 
BRANCH  60  74
ATOM     74  C   UNL A   1      36.148  33.063  31.562  1.00  0.00     0.057 A 
ATOM     75  C   UNL A   1      35.036  33.827  31.177  1.00  0.00     0.134 A 
ATOM     76  C   UNL A   1      36.217  32.734  32.931  1.00  0.00     0.134 A 
ATOM     77  F   UNL A   1      34.894  34.243  29.910  1.00  0.00    -0.206 F 
ATOM     78  C   UNL A   1      34.066  34.245  32.095  1.00  0.00     0.040 A 
ATOM     79  C   UNL A   1      35.231  33.102  33.847  1.00  0.00     0.040 A 
ATOM     80  F   UNL A   1      37.288  32.119  33.455  1.00  0.00    -0.206 F 
ATOM     81  C   UNL A   1      34.158  33.878  33.434  1.00  0.00     0.006 A 
ENDBRANCH  60  74
BRANCH  61  82
ATOM     82  C   UNL A   1      43.178  29.818  35.032  1.00  0.00     0.057 A 
ATOM     83  C   UNL A   1      42.432  28.821  35.673  1.00  0.00     0.134 A 
ATOM     84  C   UNL A   1      44.496  29.994  35.493  1.00  0.00     0.134 A 
ATOM     85  F   UNL A   1      41.183  28.540  35.273  1.00  0.00    -0.206 F 
ATOM     86  C   UNL A   1      42.967  28.039  36.705  1.00  0.00     0.040 A 
ATOM     87  C   UNL A   1      45.036  29.233  36.533  1.00  0.00     0.040 A 
ATOM     88  F   UNL A   1      45.335  30.851  34.895  1.00  0.00    -0.206 F 
ATOM     89  C   UNL A   1      44.275  28.242  37.135  1.00  0.00     0.006 A 
ENDBRANCH  61  82
BRANCH  73  90
ATOM     90  C   UNL A   1      42.764  34.552  30.889  1.00  0.00     0.057 A 
ATOM     91  C   UNL A   1      43.576  35.649  31.211  1.00  0.00     0.134 A 
ATOM     92  C   UNL A   1      43.299  33.600  30.014  1.00  0.00     0.134 A 
ATOM     93  F   UNL A   1      43.191  36.553  32.122  1.00  0.00    -0.206 F 
ATOM     94  C   UNL A   1      44.843  35.817  30.643  1.00  0.00     0.040 A 
ATOM     95  C   UNL A   1      44.577  33.740  29.466  1.00  0.00     0.040 A 
ATOM     96  F   UNL A   1      42.604  32.491  29.712  1.00  0.00    -0.206 F 
ATOM     97  C   UNL A   1      45.349  34.858  29.771  1.00  0.00     0.006 A 
ENDBRANCH  73  90
ENDBRANCH  47  48
ENDBRANCH  40  42
ENDBRANCH  39  40
ENDBRANCH  38  39
ENDBRANCH  37  38
ENDBRANCH  36  37
ENDBRANCH  35  36
ENDBRANCH  34  35
ENDBRANCH   1  34
TORSDOF 23
ENDMDL
