MODEL 1
REMARK VINA RESULT:      -9.4      0.000      0.000
REMARK SMILES COCCS(=O)(=O)Cc1ccc(C(=O)OCCOCCOCCOC(=O)c2ccc(-c3c4nc(c(-c5c(F)cccc5F)c5ccc([nH]5)c(-c5c(F)cccc5F)c5nc(c(-c6c(F)cccc6F)c6ccc3[nH]6)C=C5)C=C4)cc2)cn1
REMARK SMILES IDX 18 1 17 2 16 3 15 4 13 5 14 6 12 7 9 8 10 9 82 10 11 11
REMARK SMILES IDX 81 12 8 13 5 14 6 15 7 16 4 17 3 18 2 19 1 20 19 21 20 22
REMARK SMILES IDX 21 23 22 24 23 25 24 26 25 27 26 28 27 29 28 30 80 31 29 32
REMARK SMILES IDX 79 33 30 34 31 35 32 36 73 37 33 38 78 39 72 40 74 41 34 42
REMARK SMILES IDX 77 43 71 44 70 45 35 47 61 48 44 49 60 50 45 51 48 52 59 53
REMARK SMILES IDX 75 54 46 55 47 56 58 58 76 59 49 60 36 61 37 62 42 63 38 64
REMARK SMILES IDX 39 65 41 66 43 67 40 68 62 69 63 70 68 71 64 72 65 73 67 74
REMARK SMILES IDX 69 75 66 76 50 77 51 78 56 79 52 80 53 81 55 82 57 83 54 84
REMARK H PARENT 74 46 48 57
REMARK Flexibility Score: inf
ROOT
ATOM      1  O   UNL A   1      40.846  19.971  26.907  1.00  0.00    -0.376 OA
ENDROOT
BRANCH   1   2
ATOM      2  C   UNL A   1      40.039  20.978  26.320  1.00  0.00     0.202 C 
BRANCH   2   3
ATOM      3  C   UNL A   1      38.847  20.735  25.375  1.00  0.00     0.261 C 
BRANCH   3   4
ATOM      4  O   UNL A   1      37.810  21.715  25.372  1.00  0.00    -0.460 OA
BRANCH   4   5
ATOM      5  C   UNL A   1      36.558  21.222  25.202  1.00  0.00     0.339 C 
ATOM      6  O   UNL A   1      36.247  20.066  25.001  1.00  0.00    -0.246 OA
BRANCH   5   7
ATOM      7  C   UNL A   1      35.572  22.279  25.481  1.00  0.00     0.078 A 
ATOM      8  C   UNL A   1      33.896  24.415  25.904  1.00  0.00     0.055 A 
ATOM      9  C   UNL A   1      33.553  23.166  26.421  1.00  0.00     0.026 A 
ATOM     10  N   UNL A   1      34.965  24.580  25.093  1.00  0.00    -0.259 NA
ATOM     11  C   UNL A   1      34.422  22.092  26.241  1.00  0.00     0.019 A 
ATOM     12  C   UNL A   1      35.779  23.518  24.899  1.00  0.00     0.127 A 
BRANCH   8  13
ATOM     13  C   UNL A   1      33.105  25.644  26.217  1.00  0.00     0.193 C 
BRANCH  13  14
ATOM     14  S   UNL A   1      31.399  25.460  25.693  1.00  0.00     0.158 S 
ATOM     15  O   UNL A   1      30.693  24.811  26.787  1.00  0.00    -0.228 OA
ATOM     16  O   UNL A   1      31.383  24.829  24.385  1.00  0.00    -0.228 OA
BRANCH  14  17
ATOM     17  C   UNL A   1      30.653  27.071  25.477  1.00  0.00     0.165 C 
BRANCH  17  18
ATOM     18  C   UNL A   1      31.420  27.972  24.531  1.00  0.00     0.176 C 
BRANCH  18  19
ATOM     19  O   UNL A   1      30.530  28.710  23.696  1.00  0.00    -0.384 OA
ATOM     20  C   UNL A   1      30.435  28.190  22.375  1.00  0.00     0.194 C 
ENDBRANCH  18  19
ENDBRANCH  17  18
ENDBRANCH  14  17
ENDBRANCH  13  14
ENDBRANCH   8  13
ENDBRANCH   5   7
ENDBRANCH   4   5
ENDBRANCH   3   4
ENDBRANCH   2   3
ENDBRANCH   1   2
BRANCH   1  21
ATOM     21  C   UNL A   1      41.480  18.981  26.129  1.00  0.00     0.188 C 
BRANCH  21  22
ATOM     22  C   UNL A   1      42.996  18.756  26.282  1.00  0.00     0.188 C 
BRANCH  22  23
ATOM     23  O   UNL A   1      43.839  19.078  25.203  1.00  0.00    -0.376 OA
BRANCH  23  24
ATOM     24  C   UNL A   1      44.185  20.429  24.944  1.00  0.00     0.202 C 
BRANCH  24  25
ATOM     25  C   UNL A   1      43.771  21.653  25.789  1.00  0.00     0.261 C 
BRANCH  25  26
ATOM     26  O   UNL A   1      43.039  22.704  25.153  1.00  0.00    -0.460 OA
BRANCH  26  27
ATOM     27  C   UNL A   1      43.679  23.893  25.061  1.00  0.00     0.338 C 
ATOM     28  O   UNL A   1      44.547  24.211  24.259  1.00  0.00    -0.246 OA
BRANCH  27  29
ATOM     29  C   UNL A   1      43.042  24.853  25.978  1.00  0.00     0.060 A 
ATOM     30  C   UNL A   1      43.588  26.138  26.099  1.00  0.00     0.016 A 
ATOM     31  C   UNL A   1      41.935  24.478  26.740  1.00  0.00     0.016 A 
ATOM     32  C   UNL A   1      43.037  27.051  26.997  1.00  0.00     0.010 A 
ATOM     33  C   UNL A   1      41.398  25.387  27.657  1.00  0.00     0.010 A 
ATOM     34  C   UNL A   1      41.962  26.667  27.809  1.00  0.00    -0.014 A 
BRANCH  34  35
ATOM     35  C   UNL A   1      41.531  27.540  28.927  1.00  0.00     0.031 A 
ATOM     36  C   UNL A   1      42.265  27.450  30.237  1.00  0.00     0.074 A 
ATOM     37  C   UNL A   1      40.513  28.406  28.784  1.00  0.00     0.049 A 
ATOM     38  N   UNL A   1      42.026  28.062  31.369  1.00  0.00    -0.248 NA
ATOM     39  C   UNL A   1      43.423  26.544  30.274  1.00  0.00     0.031 C 
ATOM     40  C   UNL A   1      39.750  28.621  27.557  1.00  0.00     0.029 A 
ATOM     41  N   UNL A   1      39.937  29.259  29.694  1.00  0.00    -0.354 N 
ATOM     42  C   UNL A   1      42.996  27.608  32.253  1.00  0.00     0.074 A 
ATOM     43  C   UNL A   1      43.808  26.648  31.537  1.00  0.00     0.031 C 
ATOM     44  C   UNL A   1      38.795  29.537  27.793  1.00  0.00     0.029 A 
ATOM     45  C   UNL A   1      38.856  29.944  29.196  1.00  0.00     0.049 A 
ATOM     46  H   UNL A   1      40.268  29.367  30.614  1.00  0.00     0.167 HD
ATOM     47  C   UNL A   1      43.197  27.965  33.544  1.00  0.00     0.037 A 
ATOM     48  C   UNL A   1      37.999  30.782  29.812  1.00  0.00     0.037 A 
ATOM     49  C   UNL A   1      42.385  28.915  34.258  1.00  0.00     0.049 A 
ATOM     50  C   UNL A   1      38.191  31.098  31.273  1.00  0.00     0.074 A 
ATOM     51  C   UNL A   1      42.521  29.356  35.563  1.00  0.00     0.029 A 
ATOM     52  N   UNL A   1      41.278  29.562  33.730  1.00  0.00    -0.354 N 
ATOM     53  N   UNL A   1      39.126  30.686  32.096  1.00  0.00    -0.248 NA
ATOM     54  C   UNL A   1      37.207  31.999  31.892  1.00  0.00     0.031 C 
ATOM     55  C   UNL A   1      41.460  30.225  35.843  1.00  0.00     0.029 A 
ATOM     56  C   UNL A   1      40.702  30.375  34.693  1.00  0.00     0.049 A 
ATOM     57  H   UNL A   1      40.950  29.460  32.807  1.00  0.00     0.167 HD
ATOM     58  C   UNL A   1      38.862  31.300  33.314  1.00  0.00     0.074 A 
ATOM     59  C   UNL A   1      37.687  32.123  33.121  1.00  0.00     0.031 C 
ATOM     60  C   UNL A   1      39.534  31.195  34.487  1.00  0.00     0.037 A 
BRANCH  47  61
ATOM     61  C   UNL A   1      44.323  27.296  34.277  1.00  0.00     0.057 A 
ATOM     62  C   UNL A   1      44.144  26.102  34.989  1.00  0.00     0.134 A 
ATOM     63  C   UNL A   1      45.614  27.841  34.248  1.00  0.00     0.134 A 
ATOM     64  F   UNL A   1      42.930  25.535  35.069  1.00  0.00    -0.206 F 
ATOM     65  C   UNL A   1      45.199  25.489  35.666  1.00  0.00     0.040 A 
ATOM     66  C   UNL A   1      46.683  27.222  34.896  1.00  0.00     0.040 A 
ATOM     67  F   UNL A   1      45.858  28.980  33.582  1.00  0.00    -0.206 F 
ATOM     68  C   UNL A   1      46.476  26.046  35.614  1.00  0.00     0.006 A 
ENDBRANCH  47  61
BRANCH  48  69
ATOM     69  C   UNL A   1      36.862  31.372  29.059  1.00  0.00     0.057 A 
ATOM     70  C   UNL A   1      36.873  32.714  28.662  1.00  0.00     0.134 A 
ATOM     71  C   UNL A   1      35.725  30.617  28.745  1.00  0.00     0.134 A 
ATOM     72  F   UNL A   1      37.921  33.497  28.957  1.00  0.00    -0.206 F 
ATOM     73  C   UNL A   1      35.788  33.290  27.998  1.00  0.00     0.040 A 
ATOM     74  C   UNL A   1      34.644  31.172  28.057  1.00  0.00     0.040 A 
ATOM     75  F   UNL A   1      35.648  29.327  29.100  1.00  0.00    -0.206 F 
ATOM     76  C   UNL A   1      34.672  32.515  27.688  1.00  0.00     0.006 A 
ENDBRANCH  48  69
BRANCH  60  77
ATOM     77  C   UNL A   1      39.042  32.018  35.645  1.00  0.00     0.057 A 
ATOM     78  C   UNL A   1      38.211  31.484  36.638  1.00  0.00     0.134 A 
ATOM     79  C   UNL A   1      39.443  33.354  35.790  1.00  0.00     0.134 A 
ATOM     80  F   UNL A   1      37.782  30.215  36.556  1.00  0.00    -0.206 F 
ATOM     81  C   UNL A   1      37.775  32.255  37.719  1.00  0.00     0.040 A 
ATOM     82  C   UNL A   1      39.039  34.125  36.881  1.00  0.00     0.040 A 
ATOM     83  F   UNL A   1      40.248  33.926  34.882  1.00  0.00    -0.206 F 
ATOM     84  C   UNL A   1      38.196  33.578  37.845  1.00  0.00     0.006 A 
ENDBRANCH  60  77
ENDBRANCH  34  35
ENDBRANCH  27  29
ENDBRANCH  26  27
ENDBRANCH  25  26
ENDBRANCH  24  25
ENDBRANCH  23  24
ENDBRANCH  22  23
ENDBRANCH  21  22
ENDBRANCH   1  21
TORSDOF 22
ENDMDL
MODEL 2
REMARK VINA RESULT:      -9.4      4.441      8.706
REMARK SMILES COCCS(=O)(=O)Cc1ccc(C(=O)OCCOCCOCCOC(=O)c2ccc(-c3c4nc(c(-c5c(F)cccc5F)c5ccc([nH]5)c(-c5c(F)cccc5F)c5nc(c(-c6c(F)cccc6F)c6ccc3[nH]6)C=C5)C=C4)cc2)cn1
REMARK SMILES IDX 18 1 17 2 16 3 15 4 13 5 14 6 12 7 9 8 10 9 82 10 11 11
REMARK SMILES IDX 81 12 8 13 5 14 6 15 7 16 4 17 3 18 2 19 1 20 19 21 20 22
REMARK SMILES IDX 21 23 22 24 23 25 24 26 25 27 26 28 27 29 28 30 80 31 29 32
REMARK SMILES IDX 79 33 30 34 31 35 32 36 73 37 33 38 78 39 72 40 74 41 34 42
REMARK SMILES IDX 77 43 71 44 70 45 35 47 61 48 44 49 60 50 45 51 48 52 59 53
REMARK SMILES IDX 75 54 46 55 47 56 58 58 76 59 49 60 36 61 37 62 42 63 38 64
REMARK SMILES IDX 39 65 41 66 43 67 40 68 62 69 63 70 68 71 64 72 65 73 67 74
REMARK SMILES IDX 69 75 66 76 50 77 51 78 56 79 52 80 53 81 55 82 57 83 54 84
REMARK H PARENT 74 46 48 57
REMARK Flexibility Score: inf
ROOT
ATOM      1  O   UNL A   1      35.310  21.077  25.904  1.00  0.00    -0.376 OA
ENDROOT
BRANCH   1   2
ATOM      2  C   UNL A   1      34.176  21.602  26.574  1.00  0.00     0.202 C 
BRANCH   2   3
ATOM      3  C   UNL A   1      33.290  22.756  26.069  1.00  0.00     0.261 C 
BRANCH   3   4
ATOM      4  O   UNL A   1      33.535  24.050  26.618  1.00  0.00    -0.460 OA
BRANCH   4   5
ATOM      5  C   UNL A   1      34.096  24.938  25.759  1.00  0.00     0.339 C 
ATOM      6  O   UNL A   1      35.167  24.838  25.198  1.00  0.00    -0.246 OA
BRANCH   5   7
ATOM      7  C   UNL A   1      33.122  25.996  25.443  1.00  0.00     0.078 A 
ATOM      8  C   UNL A   1      31.444  28.023  24.651  1.00  0.00     0.055 A 
ATOM      9  C   UNL A   1      31.245  27.419  25.892  1.00  0.00     0.026 A 
ATOM     10  N   UNL A   1      32.359  27.557  23.771  1.00  0.00    -0.259 NA
ATOM     11  C   UNL A   1      32.120  26.419  26.311  1.00  0.00     0.019 A 
ATOM     12  C   UNL A   1      33.177  26.561  24.180  1.00  0.00     0.127 A 
BRANCH   8  13
ATOM     13  C   UNL A   1      30.661  29.221  24.220  1.00  0.00     0.193 C 
BRANCH  13  14
ATOM     14  S   UNL A   1      29.534  28.806  22.887  1.00  0.00     0.158 S 
ATOM     15  O   UNL A   1      28.807  27.618  23.307  1.00  0.00    -0.228 OA
ATOM     16  O   UNL A   1      30.287  28.757  21.645  1.00  0.00    -0.228 OA
BRANCH  14  17
ATOM     17  C   UNL A   1      28.327  30.110  22.685  1.00  0.00     0.165 C 
BRANCH  17  18
ATOM     18  C   UNL A   1      28.219  30.621  21.263  1.00  0.00     0.176 C 
BRANCH  18  19
ATOM     19  O   UNL A   1      27.947  32.021  21.244  1.00  0.00    -0.384 OA
ATOM     20  C   UNL A   1      28.397  32.697  22.413  1.00  0.00     0.194 C 
ENDBRANCH  18  19
ENDBRANCH  17  18
ENDBRANCH  14  17
ENDBRANCH  13  14
ENDBRANCH   8  13
ENDBRANCH   5   7
ENDBRANCH   4   5
ENDBRANCH   3   4
ENDBRANCH   2   3
ENDBRANCH   1   2
BRANCH   1  21
ATOM     21  C   UNL A   1      35.627  21.444  24.581  1.00  0.00     0.188 C 
BRANCH  21  22
ATOM     22  C   UNL A   1      37.040  21.967  24.261  1.00  0.00     0.188 C 
BRANCH  22  23
ATOM     23  O   UNL A   1      37.765  22.619  25.275  1.00  0.00    -0.376 OA
BRANCH  23  24
ATOM     24  C   UNL A   1      38.744  21.913  26.021  1.00  0.00     0.202 C 
BRANCH  24  25
ATOM     25  C   UNL A   1      39.242  20.479  25.740  1.00  0.00     0.261 C 
BRANCH  25  26
ATOM     26  O   UNL A   1      40.068  19.841  26.719  1.00  0.00    -0.460 OA
BRANCH  26  27
ATOM     27  C   UNL A   1      41.354  19.627  26.353  1.00  0.00     0.338 C 
ATOM     28  O   UNL A   1      41.810  18.649  25.777  1.00  0.00    -0.246 OA
BRANCH  27  29
ATOM     29  C   UNL A   1      42.131  20.855  26.593  1.00  0.00     0.060 A 
ATOM     30  C   UNL A   1      42.267  21.323  27.907  1.00  0.00     0.016 A 
ATOM     31  C   UNL A   1      42.692  21.558  25.527  1.00  0.00     0.016 A 
ATOM     32  C   UNL A   1      42.954  22.510  28.159  1.00  0.00     0.010 A 
ATOM     33  C   UNL A   1      43.360  22.760  25.779  1.00  0.00     0.010 A 
ATOM     34  C   UNL A   1      43.472  23.256  27.091  1.00  0.00    -0.014 A 
BRANCH  34  35
ATOM     35  C   UNL A   1      43.984  24.627  27.326  1.00  0.00     0.031 A 
ATOM     36  C   UNL A   1      43.008  25.707  27.704  1.00  0.00     0.074 A 
ATOM     37  C   UNL A   1      45.293  24.911  27.217  1.00  0.00     0.049 A 
ATOM     38  N   UNL A   1      43.214  26.986  27.892  1.00  0.00    -0.248 NA
ATOM     39  C   UNL A   1      41.611  25.286  27.891  1.00  0.00     0.031 C 
ATOM     40  C   UNL A   1      46.345  23.947  26.902  1.00  0.00     0.029 A 
ATOM     41  N   UNL A   1      45.958  26.106  27.348  1.00  0.00    -0.354 N 
ATOM     42  C   UNL A   1      41.972  27.523  28.210  1.00  0.00     0.074 A 
ATOM     43  C   UNL A   1      41.016  26.438  28.160  1.00  0.00     0.031 C 
ATOM     44  C   UNL A   1      47.524  24.591  26.849  1.00  0.00     0.029 A 
ATOM     45  C   UNL A   1      47.303  26.016  27.090  1.00  0.00     0.049 A 
ATOM     46  H   UNL A   1      45.511  26.945  27.602  1.00  0.00     0.167 HD
ATOM     47  C   UNL A   1      41.660  28.803  28.522  1.00  0.00     0.037 A 
ATOM     48  C   UNL A   1      48.242  26.981  27.028  1.00  0.00     0.037 A 
ATOM     49  C   UNL A   1      42.611  29.882  28.566  1.00  0.00     0.049 A 
ATOM     50  C   UNL A   1      47.854  28.413  27.296  1.00  0.00     0.074 A 
ATOM     51  C   UNL A   1      42.394  31.210  28.890  1.00  0.00     0.029 A 
ATOM     52  N   UNL A   1      43.959  29.759  28.264  1.00  0.00    -0.354 N 
ATOM     53  N   UNL A   1      46.684  28.909  27.621  1.00  0.00    -0.248 NA
ATOM     54  C   UNL A   1      48.921  29.421  27.188  1.00  0.00     0.031 C 
ATOM     55  C   UNL A   1      43.599  31.902  28.726  1.00  0.00     0.029 A 
ATOM     56  C   UNL A   1      44.580  30.994  28.363  1.00  0.00     0.049 A 
ATOM     57  H   UNL A   1      44.409  28.918  28.016  1.00  0.00     0.167 HD
ATOM     58  C   UNL A   1      46.881  30.275  27.788  1.00  0.00     0.074 A 
ATOM     59  C   UNL A   1      48.285  30.528  27.540  1.00  0.00     0.031 C 
ATOM     60  C   UNL A   1      45.980  31.233  28.119  1.00  0.00     0.037 A 
BRANCH  47  61
ATOM     61  C   UNL A   1      40.219  29.110  28.810  1.00  0.00     0.057 A 
ATOM     62  C   UNL A   1      39.289  29.344  27.787  1.00  0.00     0.134 A 
ATOM     63  C   UNL A   1      39.748  29.146  30.129  1.00  0.00     0.134 A 
ATOM     64  F   UNL A   1      39.676  29.339  26.503  1.00  0.00    -0.206 F 
ATOM     65  C   UNL A   1      37.951  29.628  28.068  1.00  0.00     0.040 A 
ATOM     66  C   UNL A   1      38.408  29.400  30.420  1.00  0.00     0.040 A 
ATOM     67  F   UNL A   1      40.584  28.926  31.156  1.00  0.00    -0.206 F 
ATOM     68  C   UNL A   1      37.506  29.650  29.388  1.00  0.00     0.006 A 
ENDBRANCH  47  61
BRANCH  48  69
ATOM     69  C   UNL A   1      49.645  26.635  26.680  1.00  0.00     0.057 A 
ATOM     70  C   UNL A   1      50.090  26.659  25.353  1.00  0.00     0.134 A 
ATOM     71  C   UNL A   1      50.564  26.242  27.660  1.00  0.00     0.134 A 
ATOM     72  F   UNL A   1      49.250  26.998  24.365  1.00  0.00    -0.206 F 
ATOM     73  C   UNL A   1      51.392  26.287  25.010  1.00  0.00     0.040 A 
ATOM     74  C   UNL A   1      51.877  25.895  27.336  1.00  0.00     0.040 A 
ATOM     75  F   UNL A   1      50.201  26.194  28.950  1.00  0.00    -0.206 F 
ATOM     76  C   UNL A   1      52.291  25.909  26.006  1.00  0.00     0.006 A 
ENDBRANCH  48  69
BRANCH  60  77
ATOM     77  C   UNL A   1      46.489  32.640  28.273  1.00  0.00     0.057 A 
ATOM     78  C   UNL A   1      47.118  33.080  29.445  1.00  0.00     0.134 A 
ATOM     79  C   UNL A   1      46.387  33.553  27.214  1.00  0.00     0.134 A 
ATOM     80  F   UNL A   1      47.239  32.260  30.500  1.00  0.00    -0.206 F 
ATOM     81  C   UNL A   1      47.602  34.385  29.568  1.00  0.00     0.040 A 
ATOM     82  C   UNL A   1      46.894  34.849  27.315  1.00  0.00     0.040 A 
ATOM     83  F   UNL A   1      45.808  33.194  26.059  1.00  0.00    -0.206 F 
ATOM     84  C   UNL A   1      47.497  35.271  28.497  1.00  0.00     0.006 A 
ENDBRANCH  60  77
ENDBRANCH  34  35
ENDBRANCH  27  29
ENDBRANCH  26  27
ENDBRANCH  25  26
ENDBRANCH  24  25
ENDBRANCH  23  24
ENDBRANCH  22  23
ENDBRANCH  21  22
ENDBRANCH   1  21
TORSDOF 22
ENDMDL
MODEL 3
REMARK VINA RESULT:      -9.0      5.079     10.618
REMARK SMILES COCCS(=O)(=O)Cc1ccc(C(=O)OCCOCCOCCOC(=O)c2ccc(-c3c4nc(c(-c5c(F)cccc5F)c5ccc([nH]5)c(-c5c(F)cccc5F)c5nc(c(-c6c(F)cccc6F)c6ccc3[nH]6)C=C5)C=C4)cc2)cn1
REMARK SMILES IDX 18 1 17 2 16 3 15 4 13 5 14 6 12 7 9 8 10 9 82 10 11 11
REMARK SMILES IDX 81 12 8 13 5 14 6 15 7 16 4 17 3 18 2 19 1 20 19 21 20 22
REMARK SMILES IDX 21 23 22 24 23 25 24 26 25 27 26 28 27 29 28 30 80 31 29 32
REMARK SMILES IDX 79 33 30 34 31 35 32 36 73 37 33 38 78 39 72 40 74 41 34 42
REMARK SMILES IDX 77 43 71 44 70 45 35 47 61 48 44 49 60 50 45 51 48 52 59 53
REMARK SMILES IDX 75 54 46 55 47 56 58 58 76 59 49 60 36 61 37 62 42 63 38 64
REMARK SMILES IDX 39 65 41 66 43 67 40 68 62 69 63 70 68 71 64 72 65 73 67 74
REMARK SMILES IDX 69 75 66 76 50 77 51 78 56 79 52 80 53 81 55 82 57 83 54 84
REMARK H PARENT 74 46 48 57
REMARK Flexibility Score: inf
ROOT
ATOM      1  O   UNL A   1      35.324  31.926  28.107  1.00  0.00    -0.376 OA
ENDROOT
BRANCH   1   2
ATOM      2  C   UNL A   1      34.018  31.383  28.018  1.00  0.00     0.202 C 
BRANCH   2   3
ATOM      3  C   UNL A   1      33.555  30.321  27.003  1.00  0.00     0.261 C 
BRANCH   3   4
ATOM      4  O   UNL A   1      32.154  30.062  26.928  1.00  0.00    -0.460 OA
BRANCH   4   5
ATOM      5  C   UNL A   1      31.811  28.751  26.999  1.00  0.00     0.339 C 
ATOM      6  O   UNL A   1      31.562  28.112  28.000  1.00  0.00    -0.246 OA
BRANCH   5   7
ATOM      7  C   UNL A   1      31.598  28.226  25.640  1.00  0.00     0.078 A 
ATOM      8  C   UNL A   1      31.276  27.023  23.190  1.00  0.00     0.055 A 
ATOM      9  C   UNL A   1      31.140  28.407  23.293  1.00  0.00     0.026 A 
ATOM     10  N   UNL A   1      31.436  26.240  24.282  1.00  0.00    -0.259 NA
ATOM     11  C   UNL A   1      31.343  29.021  24.527  1.00  0.00     0.019 A 
ATOM     12  C   UNL A   1      31.596  26.851  25.478  1.00  0.00     0.127 A 
BRANCH   8  13
ATOM     13  C   UNL A   1      31.254  26.322  21.870  1.00  0.00     0.193 C 
BRANCH  13  14
ATOM     14  S   UNL A   1      32.897  25.765  21.413  1.00  0.00     0.158 S 
ATOM     15  O   UNL A   1      33.833  26.749  21.933  1.00  0.00    -0.228 OA
ATOM     16  O   UNL A   1      32.908  25.480  19.988  1.00  0.00    -0.228 OA
BRANCH  14  17
ATOM     17  C   UNL A   1      33.262  24.217  22.231  1.00  0.00     0.165 C 
BRANCH  17  18
ATOM     18  C   UNL A   1      34.391  24.315  23.237  1.00  0.00     0.176 C 
BRANCH  18  19
ATOM     19  O   UNL A   1      35.464  23.444  22.884  1.00  0.00    -0.384 OA
ATOM     20  C   UNL A   1      36.401  23.251  23.937  1.00  0.00     0.194 C 
ENDBRANCH  18  19
ENDBRANCH  17  18
ENDBRANCH  14  17
ENDBRANCH  13  14
ENDBRANCH   8  13
ENDBRANCH   5   7
ENDBRANCH   4   5
ENDBRANCH   3   4
ENDBRANCH   2   3
ENDBRANCH   1   2
BRANCH   1  21
ATOM     21  C   UNL A   1      35.566  33.308  27.964  1.00  0.00     0.188 C 
BRANCH  21  22
ATOM     22  C   UNL A   1      35.436  34.228  29.192  1.00  0.00     0.188 C 
BRANCH  22  23
ATOM     23  O   UNL A   1      36.224  33.958  30.325  1.00  0.00    -0.376 OA
BRANCH  23  24
ATOM     24  C   UNL A   1      35.652  33.334  31.463  1.00  0.00     0.202 C 
BRANCH  24  25
ATOM     25  C   UNL A   1      35.525  31.814  31.700  1.00  0.00     0.261 C 
BRANCH  25  26
ATOM     26  O   UNL A   1      36.319  30.931  30.904  1.00  0.00    -0.460 OA
BRANCH  26  27
ATOM     27  C   UNL A   1      37.050  30.020  31.588  1.00  0.00     0.338 C 
ATOM     28  O   UNL A   1      36.657  29.251  32.456  1.00  0.00    -0.246 OA
BRANCH  27  29
ATOM     29  C   UNL A   1      38.399  29.948  31.001  1.00  0.00     0.060 A 
ATOM     30  C   UNL A   1      38.541  30.097  29.615  1.00  0.00     0.016 A 
ATOM     31  C   UNL A   1      39.510  29.701  31.806  1.00  0.00     0.016 A 
ATOM     32  C   UNL A   1      39.799  29.983  29.025  1.00  0.00     0.010 A 
ATOM     33  C   UNL A   1      40.768  29.563  31.211  1.00  0.00     0.010 A 
ATOM     34  C   UNL A   1      40.915  29.677  29.815  1.00  0.00    -0.014 A 
BRANCH  34  35
ATOM     35  C   UNL A   1      42.201  29.315  29.173  1.00  0.00     0.031 A 
ATOM     36  C   UNL A   1      42.385  27.911  28.667  1.00  0.00     0.074 A 
ATOM     37  C   UNL A   1      43.187  30.218  29.029  1.00  0.00     0.049 A 
ATOM     38  N   UNL A   1      43.441  27.350  28.134  1.00  0.00    -0.248 NA
ATOM     39  C   UNL A   1      41.222  27.019  28.783  1.00  0.00     0.031 C 
ATOM     40  C   UNL A   1      43.117  31.620  29.435  1.00  0.00     0.029 A 
ATOM     41  N   UNL A   1      44.451  30.078  28.510  1.00  0.00    -0.354 N 
ATOM     42  C   UNL A   1      43.071  26.039  27.860  1.00  0.00     0.074 A 
ATOM     43  C   UNL A   1      41.707  25.880  28.313  1.00  0.00     0.031 C 
ATOM     44  C   UNL A   1      44.295  32.210  29.163  1.00  0.00     0.029 A 
ATOM     45  C   UNL A   1      45.210  31.219  28.600  1.00  0.00     0.049 A 
ATOM     46  H   UNL A   1      44.780  29.240  28.113  1.00  0.00     0.167 HD
ATOM     47  C   UNL A   1      43.802  25.059  27.278  1.00  0.00     0.037 A 
ATOM     48  C   UNL A   1      46.504  31.428  28.287  1.00  0.00     0.037 A 
ATOM     49  C   UNL A   1      45.162  25.218  26.833  1.00  0.00     0.049 A 
ATOM     50  C   UNL A   1      47.323  30.298  27.719  1.00  0.00     0.074 A 
ATOM     51  C   UNL A   1      45.980  24.289  26.214  1.00  0.00     0.029 A 
ATOM     52  N   UNL A   1      45.909  26.378  26.972  1.00  0.00    -0.354 N 
ATOM     53  N   UNL A   1      46.960  29.069  27.438  1.00  0.00    -0.248 NA
ATOM     54  C   UNL A   1      48.735  30.586  27.422  1.00  0.00     0.031 C 
ATOM     55  C   UNL A   1      47.240  24.868  26.033  1.00  0.00     0.029 A 
ATOM     56  C   UNL A   1      47.189  26.179  26.479  1.00  0.00     0.049 A 
ATOM     57  H   UNL A   1      45.578  27.220  27.363  1.00  0.00     0.167 HD
ATOM     58  C   UNL A   1      48.084  28.450  26.904  1.00  0.00     0.074 A 
ATOM     59  C   UNL A   1      49.138  29.442  26.888  1.00  0.00     0.031 C 
ATOM     60  C   UNL A   1      48.229  27.176  26.464  1.00  0.00     0.037 A 
BRANCH  47  61
ATOM     61  C   UNL A   1      43.151  23.716  27.118  1.00  0.00     0.057 A 
ATOM     62  C   UNL A   1      42.632  23.282  25.890  1.00  0.00     0.134 A 
ATOM     63  C   UNL A   1      43.067  22.833  28.202  1.00  0.00     0.134 A 
ATOM     64  F   UNL A   1      42.668  24.084  24.815  1.00  0.00    -0.206 F 
ATOM     65  C   UNL A   1      42.030  22.030  25.754  1.00  0.00     0.040 A 
ATOM     66  C   UNL A   1      42.493  21.568  28.070  1.00  0.00     0.040 A 
ATOM     67  F   UNL A   1      43.548  23.183  29.405  1.00  0.00    -0.206 F 
ATOM     68  C   UNL A   1      41.966  21.166  26.846  1.00  0.00     0.006 A 
ENDBRANCH  47  61
BRANCH  48  69
ATOM     69  C   UNL A   1      47.121  32.760  28.520  1.00  0.00     0.057 A 
ATOM     70  C   UNL A   1      47.174  33.723  27.506  1.00  0.00     0.134 A 
ATOM     71  C   UNL A   1      47.699  33.090  29.752  1.00  0.00     0.134 A 
ATOM     72  F   UNL A   1      46.664  33.457  26.295  1.00  0.00    -0.206 F 
ATOM     73  C   UNL A   1      47.796  34.958  27.700  1.00  0.00     0.040 A 
ATOM     74  C   UNL A   1      48.299  34.331  29.970  1.00  0.00     0.040 A 
ATOM     75  F   UNL A   1      47.686  32.211  30.764  1.00  0.00    -0.206 F 
ATOM     76  C   UNL A   1      48.355  35.267  28.939  1.00  0.00     0.006 A 
ENDBRANCH  48  69
BRANCH  60  77
ATOM     77  C   UNL A   1      49.564  26.788  25.890  1.00  0.00     0.057 A 
ATOM     78  C   UNL A   1      50.525  26.099  26.641  1.00  0.00     0.134 A 
ATOM     79  C   UNL A   1      49.872  27.070  24.551  1.00  0.00     0.134 A 
ATOM     80  F   UNL A   1      50.299  25.806  27.930  1.00  0.00    -0.206 F 
ATOM     81  C   UNL A   1      51.754  25.729  26.089  1.00  0.00     0.040 A 
ATOM     82  C   UNL A   1      51.084  26.679  23.982  1.00  0.00     0.040 A 
ATOM     83  F   UNL A   1      48.992  27.716  23.772  1.00  0.00    -0.206 F 
ATOM     84  C   UNL A   1      52.033  26.013  24.754  1.00  0.00     0.006 A 
ENDBRANCH  60  77
ENDBRANCH  34  35
ENDBRANCH  27  29
ENDBRANCH  26  27
ENDBRANCH  25  26
ENDBRANCH  24  25
ENDBRANCH  23  24
ENDBRANCH  22  23
ENDBRANCH  21  22
ENDBRANCH   1  21
TORSDOF 22
ENDMDL
