MODEL 1
REMARK VINA RESULT:     -11.5      0.000      0.000
REMARK SMILES Cc1cc(C(=O)OCCOCCOCCOC(=O)c2ccc(-c3c4nc(c(-c5c(F)cccc5F)c5ccc([nH]5)c(-c5c(F)cccc5F)c5nc(c(-c6c(F)cccc6F)c6ccc3[nH]6)C=C5)C=C4)cc2)nc(N2CCN(c3ccccc3Cl)CC2)n1
REMARK SMILES IDX 11 1 10 2 9 3 8 4 7 5 5 6 6 7 4 8 1 9 2 10 3 11 88 12 74 13
REMARK SMILES IDX 73 14 75 15 76 16 87 17 77 18 86 19 78 20 79 21 80 22 84 23
REMARK SMILES IDX 81 24 83 25 85 26 82 27 12 28 13 29 14 30 15 31 16 32 17 33
REMARK SMILES IDX 18 34 19 35 20 36 72 37 21 38 71 39 22 40 23 41 24 42 65 43
REMARK SMILES IDX 25 44 70 45 64 46 66 47 26 48 69 49 63 50 62 51 27 53 53 54
REMARK SMILES IDX 36 55 52 56 37 57 40 58 51 59 67 60 38 61 39 62 50 64 68 65
REMARK SMILES IDX 41 66 28 67 29 68 34 69 30 70 31 71 33 72 35 73 32 74 54 75
REMARK SMILES IDX 55 76 60 77 56 78 57 79 59 80 61 81 58 82 42 83 43 84 48 85
REMARK SMILES IDX 44 86 45 87 47 88 49 89 46 90
REMARK H PARENT 66 52 40 63
REMARK Flexibility Score: inf
ROOT
ATOM      1  C   UNL A   1      41.269  20.369  27.275  1.00  0.00     0.188 C 
ENDROOT
BRANCH   1   2
ATOM      2  O   UNL A   1      40.071  21.138  27.321  1.00  0.00    -0.376 OA
BRANCH   2   3
ATOM      3  C   UNL A   1      39.810  22.104  26.310  1.00  0.00     0.202 C 
BRANCH   3   4
ATOM      4  C   UNL A   1      38.371  22.588  26.078  1.00  0.00     0.261 C 
BRANCH   4   5
ATOM      5  O   UNL A   1      37.809  22.163  24.828  1.00  0.00    -0.459 OA
BRANCH   5   6
ATOM      6  C   UNL A   1      37.309  20.894  24.829  1.00  0.00     0.357 C 
ATOM      7  O   UNL A   1      37.937  19.867  24.952  1.00  0.00    -0.244 OA
BRANCH   6   8
ATOM      8  C   UNL A   1      35.822  20.955  24.797  1.00  0.00     0.154 A 
ATOM      9  C   UNL A   1      32.721  18.934  25.160  1.00  0.00     0.067 C 
ATOM     10  C   UNL A   1      33.690  20.061  24.965  1.00  0.00     0.044 A 
ATOM     11  C   UNL A   1      35.048  19.832  24.961  1.00  0.00     0.059 A 
ATOM     12  N   UNL A   1      33.165  21.303  24.843  1.00  0.00    -0.218 NA
ATOM     13  C   UNL A   1      34.005  22.331  24.652  1.00  0.00     0.226 A 
ATOM     14  N   UNL A   1      35.326  22.192  24.602  1.00  0.00    -0.206 NA
BRANCH  13  15
ATOM     15  N   UNL A   1      33.527  23.605  24.480  1.00  0.00    -0.337 N 
ATOM     16  C   UNL A   1      34.482  24.715  24.499  1.00  0.00     0.141 C 
ATOM     17  C   UNL A   1      32.244  23.867  25.141  1.00  0.00     0.141 C 
ATOM     18  C   UNL A   1      33.822  25.979  23.885  1.00  0.00     0.138 C 
ATOM     19  C   UNL A   1      31.589  25.139  24.560  1.00  0.00     0.138 C 
ATOM     20  N   UNL A   1      32.552  26.252  24.575  1.00  0.00    -0.367 N 
BRANCH  20  21
ATOM     21  C   UNL A   1      32.045  27.537  24.683  1.00  0.00     0.056 A 
ATOM     22  C   UNL A   1      31.086  28.015  23.776  1.00  0.00     0.027 A 
ATOM     23  C   UNL A   1      32.465  28.414  25.708  1.00  0.00     0.064 A 
ATOM     24  C   UNL A   1      30.571  29.312  23.881  1.00  0.00     0.002 A 
ATOM     25  C   UNL A   1      31.959  29.713  25.808  1.00  0.00     0.023 A 
ATOM     26  Cl  UNL A   1      33.677  27.943  26.860  1.00  0.00    -0.082 Cl
ATOM     27  C   UNL A   1      31.012  30.162  24.892  1.00  0.00     0.002 A 
ENDBRANCH  20  21
ENDBRANCH  13  15
ENDBRANCH   6   8
ENDBRANCH   5   6
ENDBRANCH   4   5
ENDBRANCH   3   4
ENDBRANCH   2   3
ENDBRANCH   1   2
BRANCH   1  28
ATOM     28  C   UNL A   1      41.520  19.409  26.093  1.00  0.00     0.188 C 
BRANCH  28  29
ATOM     29  O   UNL A   1      42.652  19.721  25.318  1.00  0.00    -0.376 OA
BRANCH  29  30
ATOM     30  C   UNL A   1      43.530  20.759  25.720  1.00  0.00     0.202 C 
BRANCH  30  31
ATOM     31  C   UNL A   1      43.965  21.944  24.834  1.00  0.00     0.261 C 
BRANCH  31  32
ATOM     32  O   UNL A   1      43.271  23.185  24.978  1.00  0.00    -0.460 OA
BRANCH  32  33
ATOM     33  C   UNL A   1      44.033  24.284  25.165  1.00  0.00     0.338 C 
ATOM     34  O   UNL A   1      45.044  24.599  24.561  1.00  0.00    -0.246 OA
BRANCH  33  35
ATOM     35  C   UNL A   1      43.347  25.160  26.134  1.00  0.00     0.060 A 
ATOM     36  C   UNL A   1      43.737  26.500  26.211  1.00  0.00     0.016 A 
ATOM     37  C   UNL A   1      42.350  24.658  26.975  1.00  0.00     0.016 A 
ATOM     38  C   UNL A   1      43.139  27.342  27.146  1.00  0.00     0.010 A 
ATOM     39  C   UNL A   1      41.758  25.504  27.920  1.00  0.00     0.010 A 
ATOM     40  C   UNL A   1      42.160  26.847  28.020  1.00  0.00    -0.014 A 
BRANCH  40  41
ATOM     41  C   UNL A   1      41.685  27.697  29.137  1.00  0.00     0.031 A 
ATOM     42  C   UNL A   1      42.423  27.650  30.443  1.00  0.00     0.074 A 
ATOM     43  C   UNL A   1      40.638  28.528  28.985  1.00  0.00     0.049 A 
ATOM     44  N   UNL A   1      42.170  28.270  31.566  1.00  0.00    -0.248 NA
ATOM     45  C   UNL A   1      43.614  26.785  30.487  1.00  0.00     0.031 C 
ATOM     46  C   UNL A   1      39.868  28.707  27.757  1.00  0.00     0.029 A 
ATOM     47  N   UNL A   1      40.044  29.380  29.884  1.00  0.00    -0.354 N 
ATOM     48  C   UNL A   1      43.167  27.876  32.448  1.00  0.00     0.074 A 
ATOM     49  C   UNL A   1      44.018  26.945  31.738  1.00  0.00     0.031 C 
ATOM     50  C   UNL A   1      38.897  29.611  27.982  1.00  0.00     0.029 A 
ATOM     51  C   UNL A   1      38.953  30.043  29.377  1.00  0.00     0.049 A 
ATOM     52  H   UNL A   1      40.368  29.503  30.805  1.00  0.00     0.167 HD
ATOM     53  C   UNL A   1      43.359  28.255  33.732  1.00  0.00     0.037 A 
ATOM     54  C   UNL A   1      38.085  30.878  29.983  1.00  0.00     0.037 A 
ATOM     55  C   UNL A   1      42.507  29.167  34.447  1.00  0.00     0.049 A 
ATOM     56  C   UNL A   1      38.265  31.207  31.443  1.00  0.00     0.074 A 
ATOM     57  C   UNL A   1      42.615  29.600  35.757  1.00  0.00     0.029 A 
ATOM     58  N   UNL A   1      41.386  29.781  33.913  1.00  0.00    -0.354 N 
ATOM     59  N   UNL A   1      39.211  30.832  32.268  1.00  0.00    -0.248 NA
ATOM     60  C   UNL A   1      37.243  32.069  32.059  1.00  0.00     0.031 C 
ATOM     61  C   UNL A   1      41.532  30.442  36.030  1.00  0.00     0.029 A 
ATOM     62  C   UNL A   1      40.778  30.571  34.875  1.00  0.00     0.049 A 
ATOM     63  H   UNL A   1      41.068  29.672  32.988  1.00  0.00     0.167 HD
ATOM     64  C   UNL A   1      38.916  31.433  33.487  1.00  0.00     0.074 A 
ATOM     65  C   UNL A   1      37.709  32.206  33.293  1.00  0.00     0.031 C 
ATOM     66  C   UNL A   1      39.585  31.349  34.664  1.00  0.00     0.037 A 
BRANCH  53  67
ATOM     67  C   UNL A   1      44.523  27.652  34.458  1.00  0.00     0.057 A 
ATOM     68  C   UNL A   1      45.768  28.292  34.515  1.00  0.00     0.134 A 
ATOM     69  C   UNL A   1      44.389  26.431  35.129  1.00  0.00     0.134 A 
ATOM     70  F   UNL A   1      45.964  29.456  33.878  1.00  0.00    -0.206 F 
ATOM     71  C   UNL A   1      46.844  27.727  35.201  1.00  0.00     0.040 A 
ATOM     72  C   UNL A   1      45.452  25.869  35.837  1.00  0.00     0.040 A 
ATOM     73  F   UNL A   1      43.223  25.769  35.114  1.00  0.00    -0.206 F 
ATOM     74  C   UNL A   1      46.686  26.516  35.870  1.00  0.00     0.006 A 
ENDBRANCH  53  67
BRANCH  54  75
ATOM     75  C   UNL A   1      36.930  31.434  29.232  1.00  0.00     0.057 A 
ATOM     76  C   UNL A   1      35.822  30.643  28.910  1.00  0.00     0.134 A 
ATOM     77  C   UNL A   1      36.938  32.754  28.763  1.00  0.00     0.134 A 
ATOM     78  F   UNL A   1      35.768  29.361  29.301  1.00  0.00    -0.206 F 
ATOM     79  C   UNL A   1      34.773  31.136  28.131  1.00  0.00     0.040 A 
ATOM     80  C   UNL A   1      35.884  33.268  28.007  1.00  0.00     0.040 A 
ATOM     81  F   UNL A   1      37.976  33.561  29.029  1.00  0.00    -0.206 F 
ATOM     82  C   UNL A   1      34.801  32.455  27.680  1.00  0.00     0.006 A 
ENDBRANCH  54  75
BRANCH  66  83
ATOM     83  C   UNL A   1      39.055  32.145  35.821  1.00  0.00     0.057 A 
ATOM     84  C   UNL A   1      38.220  31.576  36.791  1.00  0.00     0.134 A 
ATOM     85  C   UNL A   1      39.428  33.484  35.993  1.00  0.00     0.134 A 
ATOM     86  F   UNL A   1      37.815  30.302  36.679  1.00  0.00    -0.206 F 
ATOM     87  C   UNL A   1      37.759  32.318  37.881  1.00  0.00     0.040 A 
ATOM     88  C   UNL A   1      38.995  34.228  37.092  1.00  0.00     0.040 A 
ATOM     89  F   UNL A   1      40.234  34.087  35.105  1.00  0.00    -0.206 F 
ATOM     90  C   UNL A   1      38.153  33.646  38.037  1.00  0.00     0.006 A 
ENDBRANCH  66  83
ENDBRANCH  40  41
ENDBRANCH  33  35
ENDBRANCH  32  33
ENDBRANCH  31  32
ENDBRANCH  30  31
ENDBRANCH  29  30
ENDBRANCH  28  29
ENDBRANCH   1  28
TORSDOF 19
ENDMDL
MODEL 2
REMARK VINA RESULT:     -11.0      1.329      2.014
REMARK SMILES Cc1cc(C(=O)OCCOCCOCCOC(=O)c2ccc(-c3c4nc(c(-c5c(F)cccc5F)c5ccc([nH]5)c(-c5c(F)cccc5F)c5nc(c(-c6c(F)cccc6F)c6ccc3[nH]6)C=C5)C=C4)cc2)nc(N2CCN(c3ccccc3Cl)CC2)n1
REMARK SMILES IDX 11 1 10 2 9 3 8 4 7 5 5 6 6 7 4 8 1 9 2 10 3 11 88 12 74 13
REMARK SMILES IDX 73 14 75 15 76 16 87 17 77 18 86 19 78 20 79 21 80 22 84 23
REMARK SMILES IDX 81 24 83 25 85 26 82 27 12 28 13 29 14 30 15 31 16 32 17 33
REMARK SMILES IDX 18 34 19 35 20 36 72 37 21 38 71 39 22 40 23 41 24 42 65 43
REMARK SMILES IDX 25 44 70 45 64 46 66 47 26 48 69 49 63 50 62 51 27 53 53 54
REMARK SMILES IDX 36 55 52 56 37 57 40 58 51 59 67 60 38 61 39 62 50 64 68 65
REMARK SMILES IDX 41 66 28 67 29 68 34 69 30 70 31 71 33 72 35 73 32 74 54 75
REMARK SMILES IDX 55 76 60 77 56 78 57 79 59 80 61 81 58 82 42 83 43 84 48 85
REMARK SMILES IDX 44 86 45 87 47 88 49 89 46 90
REMARK H PARENT 66 52 40 63
REMARK Flexibility Score: inf
ROOT
ATOM      1  C   UNL A   1      39.831  21.947  26.725  1.00  0.00     0.188 C 
ENDROOT
BRANCH   1   2
ATOM      2  O   UNL A   1      38.561  22.160  26.117  1.00  0.00    -0.376 OA
BRANCH   2   3
ATOM      3  C   UNL A   1      38.078  23.485  25.930  1.00  0.00     0.202 C 
BRANCH   3   4
ATOM      4  C   UNL A   1      36.576  23.721  25.720  1.00  0.00     0.261 C 
BRANCH   4   5
ATOM      5  O   UNL A   1      35.785  22.524  25.782  1.00  0.00    -0.459 OA
BRANCH   5   6
ATOM      6  C   UNL A   1      34.503  22.710  26.210  1.00  0.00     0.357 C 
ATOM      7  O   UNL A   1      34.149  23.035  27.320  1.00  0.00    -0.244 OA
BRANCH   6   8
ATOM      8  C   UNL A   1      33.579  22.589  25.050  1.00  0.00     0.154 A 
ATOM      9  C   UNL A   1      32.211  20.220  22.530  1.00  0.00     0.067 C 
ATOM     10  C   UNL A   1      32.497  21.441  23.351  1.00  0.00     0.044 A 
ATOM     11  C   UNL A   1      33.432  21.409  24.361  1.00  0.00     0.059 A 
ATOM     12  N   UNL A   1      31.762  22.545  23.080  1.00  0.00    -0.218 NA
ATOM     13  C   UNL A   1      32.005  23.659  23.787  1.00  0.00     0.226 A 
ATOM     14  N   UNL A   1      32.914  23.722  24.756  1.00  0.00    -0.206 NA
BRANCH  13  15
ATOM     15  N   UNL A   1      31.321  24.818  23.527  1.00  0.00    -0.337 N 
ATOM     16  C   UNL A   1      32.028  25.908  22.852  1.00  0.00     0.141 C 
ATOM     17  C   UNL A   1      30.398  25.230  24.590  1.00  0.00     0.141 C 
ATOM     18  C   UNL A   1      30.999  26.927  22.292  1.00  0.00     0.138 C 
ATOM     19  C   UNL A   1      29.386  26.266  24.055  1.00  0.00     0.138 C 
ATOM     20  N   UNL A   1      30.099  27.357  23.372  1.00  0.00    -0.367 N 
BRANCH  20  21
ATOM     21  C   UNL A   1      29.500  28.607  23.364  1.00  0.00     0.056 A 
ATOM     22  C   UNL A   1      28.243  28.804  22.771  1.00  0.00     0.027 A 
ATOM     23  C   UNL A   1      30.123  29.728  23.956  1.00  0.00     0.064 A 
ATOM     24  C   UNL A   1      27.635  30.065  22.761  1.00  0.00     0.002 A 
ATOM     25  C   UNL A   1      29.521  30.990  23.938  1.00  0.00     0.023 A 
ATOM     26  Cl  UNL A   1      31.697  29.610  24.682  1.00  0.00    -0.082 Cl
ATOM     27  C   UNL A   1      28.276  31.158  23.339  1.00  0.00     0.002 A 
ENDBRANCH  20  21
ENDBRANCH  13  15
ENDBRANCH   6   8
ENDBRANCH   5   6
ENDBRANCH   4   5
ENDBRANCH   3   4
ENDBRANCH   2   3
ENDBRANCH   1   2
BRANCH   1  28
ATOM     28  C   UNL A   1      40.577  20.615  26.499  1.00  0.00     0.188 C 
BRANCH  28  29
ATOM     29  O   UNL A   1      41.926  20.627  26.900  1.00  0.00    -0.376 OA
BRANCH  29  30
ATOM     30  C   UNL A   1      42.961  20.530  25.936  1.00  0.00     0.202 C 
BRANCH  30  31
ATOM     31  C   UNL A   1      43.640  21.728  25.242  1.00  0.00     0.261 C 
BRANCH  31  32
ATOM     32  O   UNL A   1      42.994  23.001  25.309  1.00  0.00    -0.460 OA
BRANCH  32  33
ATOM     33  C   UNL A   1      43.797  24.088  25.272  1.00  0.00     0.338 C 
ATOM     34  O   UNL A   1      44.564  24.413  24.383  1.00  0.00    -0.246 OA
BRANCH  33  35
ATOM     35  C   UNL A   1      43.476  24.936  26.434  1.00  0.00     0.060 A 
ATOM     36  C   UNL A   1      42.564  24.453  27.379  1.00  0.00     0.016 A 
ATOM     37  C   UNL A   1      44.044  26.205  26.577  1.00  0.00     0.016 A 
ATOM     38  C   UNL A   1      42.207  25.249  28.465  1.00  0.00     0.010 A 
ATOM     39  C   UNL A   1      43.675  27.005  27.665  1.00  0.00     0.010 A 
ATOM     40  C   UNL A   1      42.743  26.537  28.607  1.00  0.00    -0.014 A 
BRANCH  40  41
ATOM     41  C   UNL A   1      42.200  27.441  29.647  1.00  0.00     0.031 A 
ATOM     42  C   UNL A   1      42.864  27.470  30.994  1.00  0.00     0.074 A 
ATOM     43  C   UNL A   1      41.158  28.252  29.392  1.00  0.00     0.049 A 
ATOM     44  N   UNL A   1      42.543  28.148  32.065  1.00  0.00    -0.248 NA
ATOM     45  C   UNL A   1      44.055  26.620  31.151  1.00  0.00     0.031 C 
ATOM     46  C   UNL A   1      40.459  28.358  28.115  1.00  0.00     0.029 A 
ATOM     47  N   UNL A   1      40.509  29.146  30.209  1.00  0.00    -0.354 N 
ATOM     48  C   UNL A   1      43.491  27.810  33.022  1.00  0.00     0.074 A 
ATOM     49  C   UNL A   1      44.387  26.851  32.413  1.00  0.00     0.031 C 
ATOM     50  C   UNL A   1      39.471  29.264  28.235  1.00  0.00     0.029 A 
ATOM     51  C   UNL A   1      39.445  29.771  29.606  1.00  0.00     0.049 A 
ATOM     52  H   UNL A   1      40.780  29.321  31.139  1.00  0.00     0.167 HD
ATOM     53  C   UNL A   1      43.607  28.259  34.293  1.00  0.00     0.037 A 
ATOM     54  C   UNL A   1      38.539  30.629  30.116  1.00  0.00     0.037 A 
ATOM     55  C   UNL A   1      42.711  29.201  34.908  1.00  0.00     0.049 A 
ATOM     56  C   UNL A   1      38.633  31.037  31.564  1.00  0.00     0.074 A 
ATOM     57  C   UNL A   1      42.742  29.705  36.197  1.00  0.00     0.029 A 
ATOM     58  N   UNL A   1      41.618  29.774  34.279  1.00  0.00    -0.354 N 
ATOM     59  N   UNL A   1      39.534  30.716  32.461  1.00  0.00    -0.248 NA
ATOM     60  C   UNL A   1      37.573  31.922  32.074  1.00  0.00     0.031 C 
ATOM     61  C   UNL A   1      41.640  30.550  36.362  1.00  0.00     0.029 A 
ATOM     62  C   UNL A   1      40.952  30.609  35.161  1.00  0.00     0.049 A 
ATOM     63  H   UNL A   1      41.353  29.613  33.345  1.00  0.00     0.167 HD
ATOM     64  C   UNL A   1      39.166  31.378  33.626  1.00  0.00     0.074 A 
ATOM     65  C   UNL A   1      37.967  32.128  33.323  1.00  0.00     0.031 C 
ATOM     66  C   UNL A   1      39.767  31.364  34.842  1.00  0.00     0.037 A 
BRANCH  53  67
ATOM     67  C   UNL A   1      44.733  27.707  35.115  1.00  0.00     0.057 A 
ATOM     68  C   UNL A   1      45.954  28.381  35.239  1.00  0.00     0.134 A 
ATOM     69  C   UNL A   1      44.582  26.502  35.810  1.00  0.00     0.134 A 
ATOM     70  F   UNL A   1      46.166  29.532  34.584  1.00  0.00    -0.206 F 
ATOM     71  C   UNL A   1      46.993  27.863  36.014  1.00  0.00     0.040 A 
ATOM     72  C   UNL A   1      45.606  25.986  36.606  1.00  0.00     0.040 A 
ATOM     73  F   UNL A   1      43.436  25.808  35.732  1.00  0.00    -0.206 F 
ATOM     74  C   UNL A   1      46.818  26.667  36.706  1.00  0.00     0.006 A 
ENDBRANCH  53  67
BRANCH  54  75
ATOM     75  C   UNL A   1      37.425  31.133  29.272  1.00  0.00     0.057 A 
ATOM     76  C   UNL A   1      37.410  32.451  28.798  1.00  0.00     0.134 A 
ATOM     77  C   UNL A   1      36.318  30.329  28.975  1.00  0.00     0.134 A 
ATOM     78  F   UNL A   1      38.424  33.282  29.077  1.00  0.00    -0.206 F 
ATOM     79  C   UNL A   1      36.325  32.955  28.078  1.00  0.00     0.040 A 
ATOM     80  C   UNL A   1      35.240  30.812  28.233  1.00  0.00     0.040 A 
ATOM     81  F   UNL A   1      36.267  29.060  29.409  1.00  0.00    -0.206 F 
ATOM     82  C   UNL A   1      35.237  32.133  27.791  1.00  0.00     0.006 A 
ENDBRANCH  54  75
BRANCH  66  83
ATOM     83  C   UNL A   1      39.168  32.216  35.923  1.00  0.00     0.057 A 
ATOM     84  C   UNL A   1      38.239  31.706  36.838  1.00  0.00     0.134 A 
ATOM     85  C   UNL A   1      39.565  33.550  36.079  1.00  0.00     0.134 A 
ATOM     86  F   UNL A   1      37.808  30.439  36.737  1.00  0.00    -0.206 F 
ATOM     87  C   UNL A   1      37.712  32.499  37.859  1.00  0.00     0.040 A 
ATOM     88  C   UNL A   1      39.065  34.345  37.111  1.00  0.00     0.040 A 
ATOM     89  F   UNL A   1      40.459  34.098  35.241  1.00  0.00    -0.206 F 
ATOM     90  C   UNL A   1      38.131  33.821  38.002  1.00  0.00     0.006 A 
ENDBRANCH  66  83
ENDBRANCH  40  41
ENDBRANCH  33  35
ENDBRANCH  32  33
ENDBRANCH  31  32
ENDBRANCH  30  31
ENDBRANCH  29  30
ENDBRANCH  28  29
ENDBRANCH   1  28
TORSDOF 19
ENDMDL
MODEL 3
REMARK VINA RESULT:     -11.0      4.716     10.071
REMARK SMILES Cc1cc(C(=O)OCCOCCOCCOC(=O)c2ccc(-c3c4nc(c(-c5c(F)cccc5F)c5ccc([nH]5)c(-c5c(F)cccc5F)c5nc(c(-c6c(F)cccc6F)c6ccc3[nH]6)C=C5)C=C4)cc2)nc(N2CCN(c3ccccc3Cl)CC2)n1
REMARK SMILES IDX 11 1 10 2 9 3 8 4 7 5 5 6 6 7 4 8 1 9 2 10 3 11 88 12 74 13
REMARK SMILES IDX 73 14 75 15 76 16 87 17 77 18 86 19 78 20 79 21 80 22 84 23
REMARK SMILES IDX 81 24 83 25 85 26 82 27 12 28 13 29 14 30 15 31 16 32 17 33
REMARK SMILES IDX 18 34 19 35 20 36 72 37 21 38 71 39 22 40 23 41 24 42 65 43
REMARK SMILES IDX 25 44 70 45 64 46 66 47 26 48 69 49 63 50 62 51 27 53 53 54
REMARK SMILES IDX 36 55 52 56 37 57 40 58 51 59 67 60 38 61 39 62 50 64 68 65
REMARK SMILES IDX 41 66 28 67 29 68 34 69 30 70 31 71 33 72 35 73 32 74 54 75
REMARK SMILES IDX 55 76 60 77 56 78 57 79 59 80 61 81 58 82 42 83 43 84 48 85
REMARK SMILES IDX 44 86 45 87 47 88 49 89 46 90
REMARK H PARENT 66 52 40 63
REMARK Flexibility Score: inf
ROOT
ATOM      1  C   UNL A   1      35.324  32.579  27.886  1.00  0.00     0.188 C 
ENDROOT
BRANCH   1   2
ATOM      2  O   UNL A   1      35.461  31.175  27.692  1.00  0.00    -0.376 OA
BRANCH   2   3
ATOM      3  C   UNL A   1      34.301  30.365  27.537  1.00  0.00     0.202 C 
BRANCH   3   4
ATOM      4  C   UNL A   1      34.439  28.948  26.961  1.00  0.00     0.261 C 
BRANCH   4   5
ATOM      5  O   UNL A   1      33.219  28.418  26.422  1.00  0.00    -0.459 OA
BRANCH   5   6
ATOM      6  C   UNL A   1      33.200  28.299  25.063  1.00  0.00     0.357 C 
ATOM      7  O   UNL A   1      34.035  28.708  24.288  1.00  0.00    -0.244 OA
BRANCH   6   8
ATOM      8  C   UNL A   1      32.046  27.451  24.663  1.00  0.00     0.154 A 
ATOM      9  C   UNL A   1      28.529  27.535  23.455  1.00  0.00     0.067 C 
ATOM     10  C   UNL A   1      29.887  27.084  23.902  1.00  0.00     0.044 A 
ATOM     11  C   UNL A   1      30.838  27.996  24.302  1.00  0.00     0.059 A 
ATOM     12  N   UNL A   1      30.138  25.755  23.845  1.00  0.00    -0.218 NA
ATOM     13  C   UNL A   1      31.339  25.318  24.253  1.00  0.00     0.226 A 
ATOM     14  N   UNL A   1      32.301  26.129  24.685  1.00  0.00    -0.206 NA
BRANCH  13  15
ATOM     15  N   UNL A   1      31.635  23.979  24.256  1.00  0.00    -0.337 N 
ATOM     16  C   UNL A   1      31.861  23.319  25.544  1.00  0.00     0.141 C 
ATOM     17  C   UNL A   1      32.515  23.548  23.165  1.00  0.00     0.141 C 
ATOM     18  C   UNL A   1      31.762  21.780  25.363  1.00  0.00     0.138 C 
ATOM     19  C   UNL A   1      32.449  22.015  22.993  1.00  0.00     0.138 C 
ATOM     20  N   UNL A   1      32.671  21.354  24.289  1.00  0.00    -0.367 N 
BRANCH  20  21
ATOM     21  C   UNL A   1      33.238  20.090  24.275  1.00  0.00     0.056 A 
ATOM     22  C   UNL A   1      32.511  18.977  23.824  1.00  0.00     0.027 A 
ATOM     23  C   UNL A   1      34.565  19.869  24.706  1.00  0.00     0.064 A 
ATOM     24  C   UNL A   1      33.080  17.697  23.807  1.00  0.00     0.002 A 
ATOM     25  C   UNL A   1      35.129  18.590  24.700  1.00  0.00     0.023 A 
ATOM     26  Cl  UNL A   1      35.542  21.166  25.324  1.00  0.00    -0.082 Cl
ATOM     27  C   UNL A   1      34.385  17.504  24.251  1.00  0.00     0.002 A 
ENDBRANCH  20  21
ENDBRANCH  13  15
ENDBRANCH   6   8
ENDBRANCH   5   6
ENDBRANCH   4   5
ENDBRANCH   3   4
ENDBRANCH   2   3
ENDBRANCH   1   2
BRANCH   1  28
ATOM     28  C   UNL A   1      34.377  33.114  28.980  1.00  0.00     0.188 C 
BRANCH  28  29
ATOM     29  O   UNL A   1      34.940  34.107  29.804  1.00  0.00    -0.376 OA
BRANCH  29  30
ATOM     30  C   UNL A   1      34.316  34.460  31.027  1.00  0.00     0.202 C 
BRANCH  30  31
ATOM     31  C   UNL A   1      34.393  33.640  32.330  1.00  0.00     0.261 C 
BRANCH  31  32
ATOM     32  O   UNL A   1      35.060  32.376  32.293  1.00  0.00    -0.460 OA
BRANCH  32  33
ATOM     33  C   UNL A   1      36.176  32.261  33.046  1.00  0.00     0.338 C 
ATOM     34  O   UNL A   1      36.314  32.557  34.220  1.00  0.00    -0.246 OA
BRANCH  33  35
ATOM     35  C   UNL A   1      37.194  31.549  32.252  1.00  0.00     0.060 A 
ATOM     36  C   UNL A   1      38.166  30.806  32.929  1.00  0.00     0.016 A 
ATOM     37  C   UNL A   1      37.207  31.635  30.857  1.00  0.00     0.016 A 
ATOM     38  C   UNL A   1      39.167  30.157  32.209  1.00  0.00     0.010 A 
ATOM     39  C   UNL A   1      38.220  30.990  30.137  1.00  0.00     0.010 A 
ATOM     40  C   UNL A   1      39.214  30.259  30.812  1.00  0.00    -0.014 A 
BRANCH  40  41
ATOM     41  C   UNL A   1      40.393  29.738  30.083  1.00  0.00     0.031 A 
ATOM     42  C   UNL A   1      41.569  30.648  29.869  1.00  0.00     0.074 A 
ATOM     43  C   UNL A   1      40.440  28.465  29.650  1.00  0.00     0.049 A 
ATOM     44  N   UNL A   1      42.688  30.427  29.230  1.00  0.00    -0.248 NA
ATOM     45  C   UNL A   1      41.467  31.992  30.461  1.00  0.00     0.031 C 
ATOM     46  C   UNL A   1      39.392  27.466  29.838  1.00  0.00     0.029 A 
ATOM     47  N   UNL A   1      41.423  27.799  28.959  1.00  0.00    -0.354 N 
ATOM     48  C   UNL A   1      43.425  31.598  29.344  1.00  0.00     0.074 A 
ATOM     49  C   UNL A   1      42.617  32.536  30.094  1.00  0.00     0.031 C 
ATOM     50  C   UNL A   1      39.785  26.312  29.269  1.00  0.00     0.029 A 
ATOM     51  C   UNL A   1      41.093  26.503  28.645  1.00  0.00     0.049 A 
ATOM     52  H   UNL A   1      42.281  28.211  28.711  1.00  0.00     0.167 HD
ATOM     53  C   UNL A   1      44.662  31.869  28.868  1.00  0.00     0.037 A 
ATOM     54  C   UNL A   1      41.761  25.590  27.911  1.00  0.00     0.037 A 
ATOM     55  C   UNL A   1      45.461  30.945  28.109  1.00  0.00     0.049 A 
ATOM     56  C   UNL A   1      43.095  25.951  27.309  1.00  0.00     0.074 A 
ATOM     57  C   UNL A   1      46.724  31.136  27.573  1.00  0.00     0.029 A 
ATOM     58  N   UNL A   1      45.072  29.659  27.771  1.00  0.00    -0.354 N 
ATOM     59  N   UNL A   1      43.786  27.059  27.424  1.00  0.00    -0.248 NA
ATOM     60  C   UNL A   1      43.738  24.932  26.463  1.00  0.00     0.031 C 
ATOM     61  C   UNL A   1      47.080  29.979  26.872  1.00  0.00     0.029 A 
ATOM     62  C   UNL A   1      46.061  29.052  27.014  1.00  0.00     0.049 A 
ATOM     63  H   UNL A   1      44.221  29.239  28.031  1.00  0.00     0.167 HD
ATOM     64  C   UNL A   1      44.951  26.861  26.692  1.00  0.00     0.074 A 
ATOM     65  C   UNL A   1      44.881  25.523  26.144  1.00  0.00     0.031 C 
ATOM     66  C   UNL A   1      45.986  27.713  26.488  1.00  0.00     0.037 A 
BRANCH  53  67
ATOM     67  C   UNL A   1      45.213  33.237  29.131  1.00  0.00     0.057 A 
ATOM     68  C   UNL A   1      45.001  34.300  28.245  1.00  0.00     0.134 A 
ATOM     69  C   UNL A   1      45.943  33.499  30.297  1.00  0.00     0.134 A 
ATOM     70  F   UNL A   1      44.324  34.109  27.103  1.00  0.00    -0.206 F 
ATOM     71  C   UNL A   1      45.511  35.574  28.502  1.00  0.00     0.040 A 
ATOM     72  C   UNL A   1      46.438  34.773  30.576  1.00  0.00     0.040 A 
ATOM     73  F   UNL A   1      46.181  32.523  31.186  1.00  0.00    -0.206 F 
ATOM     74  C   UNL A   1      46.225  35.814  29.674  1.00  0.00     0.006 A 
ENDBRANCH  53  67
BRANCH  54  75
ATOM     75  C   UNL A   1      41.167  24.253  27.655  1.00  0.00     0.057 A 
ATOM     76  C   UNL A   1      41.648  23.107  28.300  1.00  0.00     0.134 A 
ATOM     77  C   UNL A   1      40.147  24.081  26.711  1.00  0.00     0.134 A 
ATOM     78  F   UNL A   1      42.647  23.200  29.189  1.00  0.00    -0.206 F 
ATOM     79  C   UNL A   1      41.152  21.837  27.998  1.00  0.00     0.040 A 
ATOM     80  C   UNL A   1      39.623  22.821  26.420  1.00  0.00     0.040 A 
ATOM     81  F   UNL A   1      39.649  25.138  26.051  1.00  0.00    -0.206 F 
ATOM     82  C   UNL A   1      40.133  21.692  27.058  1.00  0.00     0.006 A 
ENDBRANCH  54  75
BRANCH  66  83
ATOM     83  C   UNL A   1      47.147  27.214  25.678  1.00  0.00     0.057 A 
ATOM     84  C   UNL A   1      47.285  27.516  24.317  1.00  0.00     0.134 A 
ATOM     85  C   UNL A   1      48.165  26.465  26.280  1.00  0.00     0.134 A 
ATOM     86  F   UNL A   1      46.339  28.219  23.676  1.00  0.00    -0.206 F 
ATOM     87  C   UNL A   1      48.385  27.073  23.581  1.00  0.00     0.040 A 
ATOM     88  C   UNL A   1      49.282  26.038  25.561  1.00  0.00     0.040 A 
ATOM     89  F   UNL A   1      48.098  26.148  27.583  1.00  0.00    -0.206 F 
ATOM     90  C   UNL A   1      49.392  26.338  24.205  1.00  0.00     0.006 A 
ENDBRANCH  66  83
ENDBRANCH  40  41
ENDBRANCH  33  35
ENDBRANCH  32  33
ENDBRANCH  31  32
ENDBRANCH  30  31
ENDBRANCH  29  30
ENDBRANCH  28  29
ENDBRANCH   1  28
TORSDOF 19
ENDMDL
