MODEL 1
REMARK VINA RESULT:     -10.6      0.000      0.000
REMARK SMILES CCC(C)(C)NC(=O)[C@@H](C)Oc1ccc(C)nc1C(=O)OCCOCCOCCOC(=O)c1ccc(-c2c3nc(c(-c4c(F)cccc4F)c4ccc([nH]4)c(-c4c(F)cccc4F)c4nc(c(-c5c(F)cccc5F)c5ccc2[nH]5)C=C4)C=C3)cc1
REMARK SMILES IDX 24 1 23 2 22 3 21 4 19 5 20 6 18 7 12 8 13 9 14 10 17 11
REMARK SMILES IDX 15 12 16 13 11 14 9 15 10 16 7 17 6 18 8 20 3 21 4 22 5 23
REMARK SMILES IDX 2 24 1 25 25 26 26 27 27 28 28 29 29 30 30 31 31 32 32 33
REMARK SMILES IDX 33 34 34 35 86 36 35 37 85 38 36 39 37 40 38 41 79 42 39 43
REMARK SMILES IDX 84 44 78 45 80 46 40 47 83 48 77 49 76 50 41 52 67 53 50 54
REMARK SMILES IDX 66 55 51 56 54 57 65 58 81 59 52 60 53 61 64 63 82 64 55 65
REMARK SMILES IDX 42 66 43 67 48 68 44 69 45 70 47 71 49 72 46 73 68 74 69 75
REMARK SMILES IDX 74 76 70 77 71 78 73 79 75 80 72 81 56 82 57 83 62 84 58 85
REMARK SMILES IDX 59 86 61 87 63 88 60 89
REMARK H PARENT 6 19 80 51 54 62
REMARK Flexibility Score: inf
ROOT
ATOM      1  O   UNL A   1      34.021  32.246  28.399  1.00  0.00    -0.376 OA
ENDROOT
BRANCH   1   2
ATOM      2  C   UNL A   1      33.879  31.238  27.400  1.00  0.00     0.202 C 
BRANCH   2   3
ATOM      3  C   UNL A   1      32.447  30.793  27.058  1.00  0.00     0.261 C 
BRANCH   3   4
ATOM      4  O   UNL A   1      32.255  30.322  25.709  1.00  0.00    -0.458 OA
BRANCH   4   5
ATOM      5  C   UNL A   1      32.070  28.976  25.609  1.00  0.00     0.360 C 
ATOM      6  O   UNL A   1      32.507  28.133  26.383  1.00  0.00    -0.244 OA
BRANCH   5   7
ATOM      7  C   UNL A   1      31.123  28.606  24.520  1.00  0.00     0.190 A 
ATOM      8  C   UNL A   1      30.833  27.288  24.177  1.00  0.00     0.153 A 
ATOM      9  C   UNL A   1      29.606  27.077  23.564  1.00  0.00     0.051 A 
ATOM     10  C   UNL A   1      28.891  28.156  23.043  1.00  0.00     0.027 A 
ATOM     11  N   UNL A   1      30.469  29.678  23.969  1.00  0.00    -0.243 NA
ATOM     12  C   UNL A   1      29.430  29.425  23.149  1.00  0.00     0.039 A 
ATOM     13  C   UNL A   1      28.937  30.547  22.287  1.00  0.00     0.067 C 
BRANCH   8  14
ATOM     14  O   UNL A   1      31.728  26.283  24.377  1.00  0.00    -0.478 OA
BRANCH  14  15
ATOM     15  C   UNL A   1      32.017  25.384  23.286  1.00  0.00     0.259 C 
ATOM     16  C   UNL A   1      31.062  24.176  23.313  1.00  0.00     0.064 C 
BRANCH  15  17
ATOM     17  C   UNL A   1      33.413  24.985  22.644  1.00  0.00     0.261 C 
ATOM     18  N   UNL A   1      34.030  23.767  22.799  1.00  0.00    -0.348 N 
ATOM     19  H   UNL A   1      33.803  23.114  22.098  1.00  0.00     0.164 HD
ATOM     20  O   UNL A   1      33.914  25.734  21.791  1.00  0.00    -0.271 OA
BRANCH  18  21
ATOM     21  C   UNL A   1      34.988  23.239  23.834  1.00  0.00     0.034 C 
ATOM     22  C   UNL A   1      36.335  22.847  23.181  1.00  0.00     0.034 C 
ATOM     23  C   UNL A   1      34.372  21.896  24.333  1.00  0.00     0.034 C 
BRANCH  21  24
ATOM     24  C   UNL A   1      35.196  24.043  25.157  1.00  0.00     0.024 C 
ATOM     25  C   UNL A   1      36.451  23.864  25.960  1.00  0.00     0.006 C 
ENDBRANCH  21  24
ENDBRANCH  18  21
ENDBRANCH  15  17
ENDBRANCH  14  15
ENDBRANCH   8  14
ENDBRANCH   5   7
ENDBRANCH   4   5
ENDBRANCH   3   4
ENDBRANCH   2   3
ENDBRANCH   1   2
BRANCH   1  26
ATOM     26  C   UNL A   1      34.152  33.590  27.938  1.00  0.00     0.188 C 
BRANCH  26  27
ATOM     27  C   UNL A   1      33.247  34.597  28.633  1.00  0.00     0.188 C 
BRANCH  27  28
ATOM     28  O   UNL A   1      33.125  34.420  30.032  1.00  0.00    -0.376 OA
BRANCH  28  29
ATOM     29  C   UNL A   1      33.771  35.367  30.880  1.00  0.00     0.202 C 
BRANCH  29  30
ATOM     30  C   UNL A   1      34.732  34.923  32.015  1.00  0.00     0.261 C 
BRANCH  30  31
ATOM     31  O   UNL A   1      35.770  33.970  31.701  1.00  0.00    -0.460 OA
BRANCH  31  32
ATOM     32  C   UNL A   1      35.492  32.656  31.840  1.00  0.00     0.338 C 
ATOM     33  O   UNL A   1      34.417  32.182  32.185  1.00  0.00    -0.246 OA
BRANCH  32  34
ATOM     34  C   UNL A   1      36.606  31.858  31.248  1.00  0.00     0.060 A 
ATOM     35  C   UNL A   1      37.421  31.120  32.121  1.00  0.00     0.016 A 
ATOM     36  C   UNL A   1      36.833  31.775  29.869  1.00  0.00     0.016 A 
ATOM     37  C   UNL A   1      38.473  30.338  31.634  1.00  0.00     0.010 A 
ATOM     38  C   UNL A   1      37.906  31.011  29.382  1.00  0.00     0.010 A 
ATOM     39  C   UNL A   1      38.754  30.312  30.263  1.00  0.00    -0.014 A 
BRANCH  39  40
ATOM     40  C   UNL A   1      40.040  29.735  29.775  1.00  0.00     0.031 A 
ATOM     41  C   UNL A   1      41.237  30.647  29.678  1.00  0.00     0.074 A 
ATOM     42  C   UNL A   1      40.169  28.437  29.440  1.00  0.00     0.049 A 
ATOM     43  N   UNL A   1      42.437  30.406  29.211  1.00  0.00    -0.248 NA
ATOM     44  C   UNL A   1      41.052  32.021  30.173  1.00  0.00     0.031 C 
ATOM     45  C   UNL A   1      39.120  27.425  29.532  1.00  0.00     0.029 A 
ATOM     46  N   UNL A   1      41.251  27.753  28.932  1.00  0.00    -0.354 N 
ATOM     47  C   UNL A   1      43.137  31.600  29.332  1.00  0.00     0.074 A 
ATOM     48  C   UNL A   1      42.227  32.569  29.903  1.00  0.00     0.031 C 
ATOM     49  C   UNL A   1      39.602  26.254  29.075  1.00  0.00     0.029 A 
ATOM     50  C   UNL A   1      40.981  26.441  28.623  1.00  0.00     0.049 A 
ATOM     51  H   UNL A   1      42.136  28.164  28.803  1.00  0.00     0.167 HD
ATOM     52  C   UNL A   1      44.422  31.870  28.998  1.00  0.00     0.037 A 
ATOM     53  C   UNL A   1      41.745  25.508  28.016  1.00  0.00     0.037 A 
ATOM     54  C   UNL A   1      45.337  30.909  28.444  1.00  0.00     0.049 A 
ATOM     55  C   UNL A   1      43.151  25.858  27.585  1.00  0.00     0.074 A 
ATOM     56  C   UNL A   1      46.671  31.084  28.116  1.00  0.00     0.029 A 
ATOM     57  N   UNL A   1      45.015  29.601  28.124  1.00  0.00    -0.354 N 
ATOM     58  N   UNL A   1      43.815  26.977  27.742  1.00  0.00    -0.248 NA
ATOM     59  C   UNL A   1      43.914  24.809  26.888  1.00  0.00     0.031 C 
ATOM     60  C   UNL A   1      47.138  29.901  27.537  1.00  0.00     0.029 A 
ATOM     61  C   UNL A   1      46.115  28.968  27.568  1.00  0.00     0.049 A 
ATOM     62  H   UNL A   1      44.136  29.183  28.269  1.00  0.00     0.167 HD
ATOM     63  C   UNL A   1      45.078  26.752  27.204  1.00  0.00     0.074 A 
ATOM     64  C   UNL A   1      45.094  25.388  26.726  1.00  0.00     0.031 C 
ATOM     65  C   UNL A   1      46.132  27.601  27.115  1.00  0.00     0.037 A 
BRANCH  52  66
ATOM     66  C   UNL A   1      44.913  33.276  29.187  1.00  0.00     0.057 A 
ATOM     67  C   UNL A   1      44.753  34.261  28.204  1.00  0.00     0.134 A 
ATOM     68  C   UNL A   1      45.501  33.661  30.399  1.00  0.00     0.134 A 
ATOM     69  F   UNL A   1      44.211  33.956  27.016  1.00  0.00    -0.206 F 
ATOM     70  C   UNL A   1      45.176  35.575  28.415  1.00  0.00     0.040 A 
ATOM     71  C   UNL A   1      45.901  34.977  30.632  1.00  0.00     0.040 A 
ATOM     72  F   UNL A   1      45.679  32.767  31.384  1.00  0.00    -0.206 F 
ATOM     73  C   UNL A   1      45.742  35.938  29.636  1.00  0.00     0.006 A 
ENDBRANCH  52  66
BRANCH  53  74
ATOM     74  C   UNL A   1      41.206  24.149  27.734  1.00  0.00     0.057 A 
ATOM     75  C   UNL A   1      41.652  23.027  28.444  1.00  0.00     0.134 A 
ATOM     76  C   UNL A   1      40.292  23.929  26.696  1.00  0.00     0.134 A 
ATOM     77  F   UNL A   1      42.553  23.164  29.428  1.00  0.00    -0.206 F 
ATOM     78  C   UNL A   1      41.235  21.735  28.113  1.00  0.00     0.040 A 
ATOM     79  C   UNL A   1      39.841  22.647  26.375  1.00  0.00     0.040 A 
ATOM     80  F   UNL A   1      39.832  24.957  25.969  1.00  0.00    -0.206 F 
ATOM     81  C   UNL A   1      40.323  21.543  27.077  1.00  0.00     0.006 A 
ENDBRANCH  53  74
BRANCH  65  82
ATOM     82  C   UNL A   1      47.414  27.069  26.536  1.00  0.00     0.057 A 
ATOM     83  C   UNL A   1      48.383  26.436  27.324  1.00  0.00     0.134 A 
ATOM     84  C   UNL A   1      47.659  27.152  25.158  1.00  0.00     0.134 A 
ATOM     85  F   UNL A   1      48.218  26.328  28.651  1.00  0.00    -0.206 F 
ATOM     86  C   UNL A   1      49.561  25.929  26.768  1.00  0.00     0.040 A 
ATOM     87  C   UNL A   1      48.816  26.623  24.586  1.00  0.00     0.040 A 
ATOM     88  F   UNL A   1      46.767  27.734  24.342  1.00  0.00    -0.206 F 
ATOM     89  C   UNL A   1      49.775  26.015  25.393  1.00  0.00     0.006 A 
ENDBRANCH  65  82
ENDBRANCH  39  40
ENDBRANCH  32  34
ENDBRANCH  31  32
ENDBRANCH  30  31
ENDBRANCH  29  30
ENDBRANCH  28  29
ENDBRANCH  27  28
ENDBRANCH  26  27
ENDBRANCH   1  26
TORSDOF 22
ENDMDL
MODEL 2
REMARK VINA RESULT:     -10.4      1.013      6.153
REMARK SMILES CCC(C)(C)NC(=O)[C@@H](C)Oc1ccc(C)nc1C(=O)OCCOCCOCCOC(=O)c1ccc(-c2c3nc(c(-c4c(F)cccc4F)c4ccc([nH]4)c(-c4c(F)cccc4F)c4nc(c(-c5c(F)cccc5F)c5ccc2[nH]5)C=C4)C=C3)cc1
REMARK SMILES IDX 24 1 23 2 22 3 21 4 19 5 20 6 18 7 12 8 13 9 14 10 17 11
REMARK SMILES IDX 15 12 16 13 11 14 9 15 10 16 7 17 6 18 8 20 3 21 4 22 5 23
REMARK SMILES IDX 2 24 1 25 25 26 26 27 27 28 28 29 29 30 30 31 31 32 32 33
REMARK SMILES IDX 33 34 34 35 86 36 35 37 85 38 36 39 37 40 38 41 79 42 39 43
REMARK SMILES IDX 84 44 78 45 80 46 40 47 83 48 77 49 76 50 41 52 67 53 50 54
REMARK SMILES IDX 66 55 51 56 54 57 65 58 81 59 52 60 53 61 64 63 82 64 55 65
REMARK SMILES IDX 42 66 43 67 48 68 44 69 45 70 47 71 49 72 46 73 68 74 69 75
REMARK SMILES IDX 74 76 70 77 71 78 73 79 75 80 72 81 56 82 57 83 62 84 58 85
REMARK SMILES IDX 59 86 61 87 63 88 60 89
REMARK H PARENT 6 19 80 51 54 62
REMARK Flexibility Score: inf
ROOT
ATOM      1  O   UNL A   1      34.705  31.700  28.705  1.00  0.00    -0.376 OA
ENDROOT
BRANCH   1   2
ATOM      2  C   UNL A   1      34.465  30.816  27.612  1.00  0.00     0.202 C 
BRANCH   2   3
ATOM      3  C   UNL A   1      33.018  30.713  27.102  1.00  0.00     0.261 C 
BRANCH   3   4
ATOM      4  O   UNL A   1      32.863  30.094  25.810  1.00  0.00    -0.458 OA
BRANCH   4   5
ATOM      5  C   UNL A   1      31.872  29.161  25.753  1.00  0.00     0.360 C 
ATOM      6  O   UNL A   1      31.488  28.466  26.685  1.00  0.00    -0.244 OA
BRANCH   5   7
ATOM      7  C   UNL A   1      31.157  29.163  24.446  1.00  0.00     0.190 A 
ATOM      8  C   UNL A   1      31.271  28.136  23.513  1.00  0.00     0.153 A 
ATOM      9  C   UNL A   1      30.204  27.990  22.637  1.00  0.00     0.051 A 
ATOM     10  C   UNL A   1      29.264  29.012  22.506  1.00  0.00     0.027 A 
ATOM     11  N   UNL A   1      30.279  30.205  24.298  1.00  0.00    -0.243 NA
ATOM     12  C   UNL A   1      29.421  30.161  23.260  1.00  0.00     0.039 A 
ATOM     13  C   UNL A   1      28.710  31.427  22.893  1.00  0.00     0.067 C 
BRANCH   8  14
ATOM     14  O   UNL A   1      32.389  27.365  23.431  1.00  0.00    -0.478 OA
BRANCH  14  15
ATOM     15  C   UNL A   1      32.253  25.932  23.530  1.00  0.00     0.259 C 
ATOM     16  C   UNL A   1      31.659  25.538  24.896  1.00  0.00     0.064 C 
BRANCH  15  17
ATOM     17  C   UNL A   1      33.195  24.783  22.973  1.00  0.00     0.261 C 
ATOM     18  N   UNL A   1      33.398  23.568  23.583  1.00  0.00    -0.348 N 
ATOM     19  H   UNL A   1      32.779  22.863  23.282  1.00  0.00     0.164 HD
ATOM     20  O   UNL A   1      33.646  24.884  21.822  1.00  0.00    -0.271 OA
BRANCH  18  21
ATOM     21  C   UNL A   1      34.385  23.106  24.622  1.00  0.00     0.034 C 
ATOM     22  C   UNL A   1      33.657  22.717  25.931  1.00  0.00     0.034 C 
ATOM     23  C   UNL A   1      35.233  24.363  24.987  1.00  0.00     0.034 C 
BRANCH  21  24
ATOM     24  C   UNL A   1      35.470  22.053  24.226  1.00  0.00     0.024 C 
ATOM     25  C   UNL A   1      36.893  22.479  24.015  1.00  0.00     0.006 C 
ENDBRANCH  21  24
ENDBRANCH  18  21
ENDBRANCH  15  17
ENDBRANCH  14  15
ENDBRANCH   8  14
ENDBRANCH   5   7
ENDBRANCH   4   5
ENDBRANCH   3   4
ENDBRANCH   2   3
ENDBRANCH   1   2
BRANCH   1  26
ATOM     26  C   UNL A   1      34.267  33.049  28.545  1.00  0.00     0.188 C 
BRANCH  26  27
ATOM     27  C   UNL A   1      34.848  34.035  29.549  1.00  0.00     0.188 C 
BRANCH  27  28
ATOM     28  O   UNL A   1      34.016  34.310  30.660  1.00  0.00    -0.376 OA
BRANCH  28  29
ATOM     29  C   UNL A   1      34.607  34.268  31.958  1.00  0.00     0.202 C 
BRANCH  29  30
ATOM     30  C   UNL A   1      34.429  33.045  32.896  1.00  0.00     0.261 C 
BRANCH  30  31
ATOM     31  O   UNL A   1      35.316  31.919  32.732  1.00  0.00    -0.460 OA
BRANCH  31  32
ATOM     32  C   UNL A   1      36.533  31.976  33.312  1.00  0.00     0.338 C 
ATOM     33  O   UNL A   1      36.757  32.240  34.487  1.00  0.00    -0.246 OA
BRANCH  32  34
ATOM     34  C   UNL A   1      37.546  31.403  32.377  1.00  0.00     0.060 A 
ATOM     35  C   UNL A   1      38.648  30.733  32.933  1.00  0.00     0.016 A 
ATOM     36  C   UNL A   1      37.413  31.459  30.985  1.00  0.00     0.016 A 
ATOM     37  C   UNL A   1      39.627  30.159  32.116  1.00  0.00     0.010 A 
ATOM     38  C   UNL A   1      38.410  30.905  30.165  1.00  0.00     0.010 A 
ATOM     39  C   UNL A   1      39.541  30.279  30.724  1.00  0.00    -0.014 A 
BRANCH  39  40
ATOM     40  C   UNL A   1      40.717  29.942  29.871  1.00  0.00     0.031 A 
ATOM     41  C   UNL A   1      40.794  28.556  29.282  1.00  0.00     0.074 A 
ATOM     42  C   UNL A   1      41.691  30.831  29.598  1.00  0.00     0.049 A 
ATOM     43  N   UNL A   1      41.746  27.998  28.577  1.00  0.00    -0.248 NA
ATOM     44  C   UNL A   1      39.637  27.679  29.525  1.00  0.00     0.031 C 
ATOM     45  C   UNL A   1      41.727  32.219  30.050  1.00  0.00     0.029 A 
ATOM     46  N   UNL A   1      42.856  30.681  28.881  1.00  0.00    -0.354 N 
ATOM     47  C   UNL A   1      41.316  26.702  28.317  1.00  0.00     0.074 A 
ATOM     48  C   UNL A   1      40.024  26.551  28.949  1.00  0.00     0.031 C 
ATOM     49  C   UNL A   1      42.868  32.789  29.618  1.00  0.00     0.029 A 
ATOM     50  C   UNL A   1      43.660  31.797  28.891  1.00  0.00     0.049 A 
ATOM     51  H   UNL A   1      43.092  29.853  28.403  1.00  0.00     0.167 HD
ATOM     52  C   UNL A   1      41.938  25.725  27.616  1.00  0.00     0.037 A 
ATOM     53  C   UNL A   1      44.904  31.985  28.401  1.00  0.00     0.037 A 
ATOM     54  C   UNL A   1      43.216  25.872  26.972  1.00  0.00     0.049 A 
ATOM     55  C   UNL A   1      45.607  30.853  27.688  1.00  0.00     0.074 A 
ATOM     56  C   UNL A   1      43.901  24.947  26.203  1.00  0.00     0.029 A 
ATOM     57  N   UNL A   1      44.006  27.008  27.030  1.00  0.00    -0.354 N 
ATOM     58  N   UNL A   1      45.173  29.646  27.413  1.00  0.00    -0.248 NA
ATOM     59  C   UNL A   1      46.978  31.111  27.218  1.00  0.00     0.031 C 
ATOM     60  C   UNL A   1      45.135  25.500  25.850  1.00  0.00     0.029 A 
ATOM     61  C   UNL A   1      45.189  26.794  26.341  1.00  0.00     0.049 A 
ATOM     62  H   UNL A   1      43.763  27.843  27.491  1.00  0.00     0.167 HD
ATOM     63  C   UNL A   1      46.197  29.023  26.707  1.00  0.00     0.074 A 
ATOM     64  C   UNL A   1      47.269  29.985  26.585  1.00  0.00     0.031 C 
ATOM     65  C   UNL A   1      46.244  27.764  26.203  1.00  0.00     0.037 A 
BRANCH  52  66
ATOM     66  C   UNL A   1      41.264  24.385  27.536  1.00  0.00     0.057 A 
ATOM     67  C   UNL A   1      40.191  24.140  26.671  1.00  0.00     0.134 A 
ATOM     68  C   UNL A   1      41.742  23.310  28.296  1.00  0.00     0.134 A 
ATOM     69  F   UNL A   1      39.676  25.130  25.926  1.00  0.00    -0.206 F 
ATOM     70  C   UNL A   1      39.606  22.876  26.577  1.00  0.00     0.040 A 
ATOM     71  C   UNL A   1      41.184  22.035  28.189  1.00  0.00     0.040 A 
ATOM     72  F   UNL A   1      42.771  23.476  29.141  1.00  0.00    -0.206 F 
ATOM     73  C   UNL A   1      40.110  21.816  27.330  1.00  0.00     0.006 A 
ENDBRANCH  52  66
BRANCH  53  74
ATOM     74  C   UNL A   1      45.605  33.285  28.586  1.00  0.00     0.057 A 
ATOM     75  C   UNL A   1      45.588  34.271  27.591  1.00  0.00     0.134 A 
ATOM     76  C   UNL A   1      46.375  33.542  29.728  1.00  0.00     0.134 A 
ATOM     77  F   UNL A   1      44.899  34.073  26.457  1.00  0.00    -0.206 F 
ATOM     78  C   UNL A   1      46.333  35.446  27.709  1.00  0.00     0.040 A 
ATOM     79  C   UNL A   1      47.098  34.727  29.875  1.00  0.00     0.040 A 
ATOM     80  F   UNL A   1      46.444  32.637  30.715  1.00  0.00    -0.206 F 
ATOM     81  C   UNL A   1      47.089  35.679  28.856  1.00  0.00     0.006 A 
ENDBRANCH  53  74
BRANCH  65  82
ATOM     82  C   UNL A   1      47.464  27.368  25.419  1.00  0.00     0.057 A 
ATOM     83  C   UNL A   1      47.577  27.606  24.043  1.00  0.00     0.134 A 
ATOM     84  C   UNL A   1      48.561  26.780  26.063  1.00  0.00     0.134 A 
ATOM     85  F   UNL A   1      46.562  28.158  23.361  1.00  0.00    -0.206 F 
ATOM     86  C   UNL A   1      48.726  27.250  23.332  1.00  0.00     0.040 A 
ATOM     87  C   UNL A   1      49.726  26.448  25.370  1.00  0.00     0.040 A 
ATOM     88  F   UNL A   1      48.527  26.535  27.381  1.00  0.00    -0.206 F 
ATOM     89  C   UNL A   1      49.808  26.676  23.998  1.00  0.00     0.006 A 
ENDBRANCH  65  82
ENDBRANCH  39  40
ENDBRANCH  32  34
ENDBRANCH  31  32
ENDBRANCH  30  31
ENDBRANCH  29  30
ENDBRANCH  28  29
ENDBRANCH  27  28
ENDBRANCH  26  27
ENDBRANCH   1  26
TORSDOF 22
ENDMDL
MODEL 3
REMARK VINA RESULT:     -10.2      1.686      2.568
REMARK SMILES CCC(C)(C)NC(=O)[C@@H](C)Oc1ccc(C)nc1C(=O)OCCOCCOCCOC(=O)c1ccc(-c2c3nc(c(-c4c(F)cccc4F)c4ccc([nH]4)c(-c4c(F)cccc4F)c4nc(c(-c5c(F)cccc5F)c5ccc2[nH]5)C=C4)C=C3)cc1
REMARK SMILES IDX 24 1 23 2 22 3 21 4 19 5 20 6 18 7 12 8 13 9 14 10 17 11
REMARK SMILES IDX 15 12 16 13 11 14 9 15 10 16 7 17 6 18 8 20 3 21 4 22 5 23
REMARK SMILES IDX 2 24 1 25 25 26 26 27 27 28 28 29 29 30 30 31 31 32 32 33
REMARK SMILES IDX 33 34 34 35 86 36 35 37 85 38 36 39 37 40 38 41 79 42 39 43
REMARK SMILES IDX 84 44 78 45 80 46 40 47 83 48 77 49 76 50 41 52 67 53 50 54
REMARK SMILES IDX 66 55 51 56 54 57 65 58 81 59 52 60 53 61 64 63 82 64 55 65
REMARK SMILES IDX 42 66 43 67 48 68 44 69 45 70 47 71 49 72 46 73 68 74 69 75
REMARK SMILES IDX 74 76 70 77 71 78 73 79 75 80 72 81 56 82 57 83 62 84 58 85
REMARK SMILES IDX 59 86 61 87 63 88 60 89
REMARK H PARENT 6 19 80 51 54 62
REMARK Flexibility Score: inf
ROOT
ATOM      1  O   UNL A   1      33.361  30.571  27.724  1.00  0.00    -0.376 OA
ENDROOT
BRANCH   1   2
ATOM      2  C   UNL A   1      32.262  30.073  26.965  1.00  0.00     0.202 C 
BRANCH   2   3
ATOM      3  C   UNL A   1      31.659  28.729  27.408  1.00  0.00     0.261 C 
BRANCH   3   4
ATOM      4  O   UNL A   1      32.491  27.575  27.177  1.00  0.00    -0.458 OA
BRANCH   4   5
ATOM      5  C   UNL A   1      31.929  26.634  26.369  1.00  0.00     0.360 C 
ATOM      6  O   UNL A   1      30.810  26.153  26.502  1.00  0.00    -0.244 OA
BRANCH   5   7
ATOM      7  C   UNL A   1      32.760  26.335  25.170  1.00  0.00     0.190 A 
ATOM      8  C   UNL A   1      33.162  25.048  24.822  1.00  0.00     0.153 A 
ATOM      9  C   UNL A   1      33.445  24.842  23.479  1.00  0.00     0.051 A 
ATOM     10  C   UNL A   1      33.628  25.933  22.630  1.00  0.00     0.027 A 
ATOM     11  N   UNL A   1      32.990  27.425  24.371  1.00  0.00    -0.243 NA
ATOM     12  C   UNL A   1      33.525  27.210  23.154  1.00  0.00     0.039 A 
ATOM     13  C   UNL A   1      34.090  28.390  22.425  1.00  0.00     0.067 C 
BRANCH   8  14
ATOM     14  O   UNL A   1      33.324  24.072  25.756  1.00  0.00    -0.478 OA
BRANCH  14  15
ATOM     15  C   UNL A   1      33.135  22.696  25.363  1.00  0.00     0.259 C 
ATOM     16  C   UNL A   1      31.651  22.299  25.483  1.00  0.00     0.064 C 
BRANCH  15  17
ATOM     17  C   UNL A   1      34.075  21.439  25.590  1.00  0.00     0.261 C 
ATOM     18  N   UNL A   1      34.199  20.382  24.719  1.00  0.00    -0.348 N 
ATOM     19  H   UNL A   1      34.923  20.492  24.061  1.00  0.00     0.164 HD
ATOM     20  O   UNL A   1      34.904  21.470  26.513  1.00  0.00    -0.271 OA
BRANCH  18  21
ATOM     21  C   UNL A   1      33.441  19.089  24.579  1.00  0.00     0.034 C 
ATOM     22  C   UNL A   1      32.812  18.676  25.932  1.00  0.00     0.034 C 
ATOM     23  C   UNL A   1      34.516  17.999  24.281  1.00  0.00     0.034 C 
BRANCH  21  24
ATOM     24  C   UNL A   1      32.434  18.922  23.396  1.00  0.00     0.024 C 
ATOM     25  C   UNL A   1      32.588  17.787  22.427  1.00  0.00     0.006 C 
ENDBRANCH  21  24
ENDBRANCH  18  21
ENDBRANCH  15  17
ENDBRANCH  14  15
ENDBRANCH   8  14
ENDBRANCH   5   7
ENDBRANCH   4   5
ENDBRANCH   3   4
ENDBRANCH   2   3
ENDBRANCH   1   2
BRANCH   1  26
ATOM     26  C   UNL A   1      33.971  31.773  27.256  1.00  0.00     0.188 C 
BRANCH  26  27
ATOM     27  C   UNL A   1      34.663  32.601  28.330  1.00  0.00     0.188 C 
BRANCH  27  28
ATOM     28  O   UNL A   1      33.858  32.911  29.451  1.00  0.00    -0.376 OA
BRANCH  28  29
ATOM     29  C   UNL A   1      34.317  33.933  30.335  1.00  0.00     0.202 C 
BRANCH  29  30
ATOM     30  C   UNL A   1      34.476  33.681  31.859  1.00  0.00     0.261 C 
BRANCH  30  31
ATOM     31  O   UNL A   1      34.920  32.379  32.296  1.00  0.00    -0.460 OA
BRANCH  31  32
ATOM     32  C   UNL A   1      36.068  32.300  33.001  1.00  0.00     0.338 C 
ATOM     33  O   UNL A   1      36.199  32.555  34.192  1.00  0.00    -0.246 OA
BRANCH  32  34
ATOM     34  C   UNL A   1      37.096  31.596  32.180  1.00  0.00     0.060 A 
ATOM     35  C   UNL A   1      37.925  30.664  32.825  1.00  0.00     0.016 A 
ATOM     36  C   UNL A   1      37.228  31.785  30.800  1.00  0.00     0.016 A 
ATOM     37  C   UNL A   1      38.899  29.955  32.115  1.00  0.00     0.010 A 
ATOM     38  C   UNL A   1      38.224  31.093  30.091  1.00  0.00     0.010 A 
ATOM     39  C   UNL A   1      39.089  30.197  30.749  1.00  0.00    -0.014 A 
BRANCH  39  40
ATOM     40  C   UNL A   1      40.307  29.680  30.060  1.00  0.00     0.031 A 
ATOM     41  C   UNL A   1      41.465  30.625  29.861  1.00  0.00     0.074 A 
ATOM     42  C   UNL A   1      40.411  28.408  29.631  1.00  0.00     0.049 A 
ATOM     43  N   UNL A   1      42.596  30.441  29.226  1.00  0.00    -0.248 NA
ATOM     44  C   UNL A   1      41.327  31.963  30.460  1.00  0.00     0.031 C 
ATOM     45  C   UNL A   1      39.399  27.368  29.800  1.00  0.00     0.029 A 
ATOM     46  N   UNL A   1      41.425  27.781  28.944  1.00  0.00    -0.354 N 
ATOM     47  C   UNL A   1      43.287  31.642  29.326  1.00  0.00     0.074 A 
ATOM     48  C   UNL A   1      42.446  32.553  30.071  1.00  0.00     0.031 C 
ATOM     49  C   UNL A   1      39.834  26.238  29.212  1.00  0.00     0.029 A 
ATOM     50  C   UNL A   1      41.137  26.483  28.594  1.00  0.00     0.049 A 
ATOM     51  H   UNL A   1      42.279  28.220  28.725  1.00  0.00     0.167 HD
ATOM     52  C   UNL A   1      44.511  31.961  28.843  1.00  0.00     0.037 A 
ATOM     53  C   UNL A   1      41.828  25.606  27.834  1.00  0.00     0.037 A 
ATOM     54  C   UNL A   1      45.360  31.057  28.114  1.00  0.00     0.049 A 
ATOM     55  C   UNL A   1      43.158  26.014  27.244  1.00  0.00     0.074 A 
ATOM     56  C   UNL A   1      46.635  31.282  27.624  1.00  0.00     0.029 A 
ATOM     57  N   UNL A   1      45.018  29.763  27.760  1.00  0.00    -0.354 N 
ATOM     58  N   UNL A   1      43.820  27.137  27.380  1.00  0.00    -0.248 NA
ATOM     59  C   UNL A   1      43.838  25.026  26.389  1.00  0.00     0.031 C 
ATOM     60  C   UNL A   1      47.039  30.147  26.917  1.00  0.00     0.029 A 
ATOM     61  C   UNL A   1      46.044  29.189  27.025  1.00  0.00     0.049 A 
ATOM     62  H   UNL A   1      44.173  29.315  27.994  1.00  0.00     0.167 HD
ATOM     63  C   UNL A   1      45.003  26.975  26.666  1.00  0.00     0.074 A 
ATOM     64  C   UNL A   1      44.976  25.642  26.108  1.00  0.00     0.031 C 
ATOM     65  C   UNL A   1      46.022  27.852  26.491  1.00  0.00     0.037 A 
BRANCH  52  66
ATOM     66  C   UNL A   1      45.001  33.365  29.051  1.00  0.00     0.057 A 
ATOM     67  C   UNL A   1      44.801  34.375  28.101  1.00  0.00     0.134 A 
ATOM     68  C   UNL A   1      45.630  33.722  30.251  1.00  0.00     0.134 A 
ATOM     69  F   UNL A   1      44.218  34.097  26.925  1.00  0.00    -0.206 F 
ATOM     70  C   UNL A   1      45.223  35.685  28.331  1.00  0.00     0.040 A 
ATOM     71  C   UNL A   1      46.030  35.034  30.504  1.00  0.00     0.040 A 
ATOM     72  F   UNL A   1      45.849  32.804  31.205  1.00  0.00    -0.206 F 
ATOM     73  C   UNL A   1      45.830  36.020  29.540  1.00  0.00     0.006 A 
ENDBRANCH  52  66
BRANCH  53  74
ATOM     74  C   UNL A   1      41.278  24.254  27.544  1.00  0.00     0.057 A 
ATOM     75  C   UNL A   1      40.227  24.074  26.635  1.00  0.00     0.134 A 
ATOM     76  C   UNL A   1      41.736  23.119  28.225  1.00  0.00     0.134 A 
ATOM     77  F   UNL A   1      39.718  25.125  25.974  1.00  0.00    -0.206 F 
ATOM     78  C   UNL A   1      39.632  22.825  26.439  1.00  0.00     0.040 A 
ATOM     79  C   UNL A   1      41.173  21.859  28.014  1.00  0.00     0.040 A 
ATOM     80  F   UNL A   1      42.733  23.221  29.116  1.00  0.00    -0.206 F 
ATOM     81  C   UNL A   1      40.108  21.712  27.127  1.00  0.00     0.006 A 
ENDBRANCH  53  74
BRANCH  65  82
ATOM     82  C   UNL A   1      47.223  27.386  25.716  1.00  0.00     0.057 A 
ATOM     83  C   UNL A   1      48.218  26.586  26.291  1.00  0.00     0.134 A 
ATOM     84  C   UNL A   1      47.360  27.706  24.358  1.00  0.00     0.134 A 
ATOM     85  F   UNL A   1      48.156  26.247  27.588  1.00  0.00    -0.206 F 
ATOM     86  C   UNL A   1      49.319  26.144  25.552  1.00  0.00     0.040 A 
ATOM     87  C   UNL A   1      48.438  27.246  23.601  1.00  0.00     0.040 A 
ATOM     88  F   UNL A   1      46.437  28.458  23.739  1.00  0.00    -0.206 F 
ATOM     89  C   UNL A   1      49.426  26.467  24.200  1.00  0.00     0.006 A 
ENDBRANCH  65  82
ENDBRANCH  39  40
ENDBRANCH  32  34
ENDBRANCH  31  32
ENDBRANCH  30  31
ENDBRANCH  29  30
ENDBRANCH  28  29
ENDBRANCH  27  28
ENDBRANCH  26  27
ENDBRANCH   1  26
TORSDOF 22
ENDMDL
