MODEL 1
REMARK VINA RESULT:     -10.1      0.000      0.000
REMARK SMILES CC(=O)Nc1ccc(/C(=C\c2ccc(S(C)(=O)=O)cc2)C(=O)OCCOCCOCCOC(=O)c2ccc(-c3c4nc(c(-c5c(F)cccc5F)c5ccc([nH]5)c(-c5c(F)cccc5F)c5nc(c(-c6c(F)cccc6F)c6ccc3[nH]6)C=C5)C=C4)cc2)cc1
REMARK SMILES IDX 27 1 26 2 25 3 24 4 23 5 21 6 22 7 9 8 10 9 8 10 5 11 6 12
REMARK SMILES IDX 90 13 7 14 89 15 4 16 1 17 2 18 3 19 11 21 12 22 20 23 13 24
REMARK SMILES IDX 19 25 14 26 15 27 16 28 17 29 18 30 28 31 29 32 30 33 31 34
REMARK SMILES IDX 32 35 33 36 34 37 35 38 36 39 88 40 37 41 87 42 38 43 39 44
REMARK SMILES IDX 40 45 81 46 41 47 86 48 80 49 82 50 42 51 85 52 79 53 78 54
REMARK SMILES IDX 43 56 69 57 52 58 68 59 53 60 56 61 67 62 83 63 54 64 55 65
REMARK SMILES IDX 66 67 84 68 57 69 44 70 45 71 50 72 46 73 47 74 49 75 51 76
REMARK SMILES IDX 48 77 70 78 71 79 76 80 72 81 73 82 75 83 77 84 74 85 58 86
REMARK SMILES IDX 59 87 64 88 60 89 61 90 63 91 65 92 62 93
REMARK H PARENT 4 20 82 55 56 66
REMARK Flexibility Score: inf
ROOT
ATOM      1  C   UNL A   1      39.268  28.580  28.466  1.00  0.00     0.188 C 
ENDROOT
BRANCH   1   2
ATOM      2  O   UNL A   1      38.772  29.700  27.777  1.00  0.00    -0.376 OA
BRANCH   2   3
ATOM      3  C   UNL A   1      37.538  30.290  28.153  1.00  0.00     0.202 C 
BRANCH   3   4
ATOM      4  C   UNL A   1      36.202  29.545  28.353  1.00  0.00     0.261 C 
BRANCH   4   5
ATOM      5  O   UNL A   1      35.637  28.872  27.225  1.00  0.00    -0.460 OA
BRANCH   5   6
ATOM      6  C   UNL A   1      34.403  29.286  26.815  1.00  0.00     0.338 C 
ATOM      7  O   UNL A   1      33.930  30.396  27.007  1.00  0.00    -0.246 OA
BRANCH   6   8
ATOM      8  C   UNL A   1      33.741  28.237  25.958  1.00  0.00     0.067 C 
ATOM      9  C   UNL A   1      34.106  26.956  26.224  1.00  0.00     0.024 C 
BRANCH   8  10
ATOM     10  C   UNL A   1      32.774  28.662  24.891  1.00  0.00    -0.011 A 
ATOM     11  C   UNL A   1      30.918  29.173  22.772  1.00  0.00     0.041 A 
ATOM     12  C   UNL A   1      30.492  29.017  24.092  1.00  0.00     0.027 A 
ATOM     13  C   UNL A   1      32.286  29.163  22.528  1.00  0.00     0.027 A 
ATOM     14  C   UNL A   1      31.403  28.793  25.132  1.00  0.00     0.011 A 
ATOM     15  C   UNL A   1      33.197  28.915  23.575  1.00  0.00     0.011 A 
BRANCH  11  16
ATOM     16  N   UNL A   1      29.911  29.427  21.829  1.00  0.00    -0.326 N 
ATOM     17  C   UNL A   1      29.029  31.674  22.435  1.00  0.00     0.114 C 
ATOM     18  C   UNL A   1      28.959  30.388  21.676  1.00  0.00     0.221 C 
ATOM     19  O   UNL A   1      28.103  30.222  20.803  1.00  0.00    -0.275 OA
ATOM     20  H   UNL A   1      29.887  28.754  21.109  1.00  0.00     0.169 HD
ENDBRANCH  11  16
ENDBRANCH   8  10
BRANCH   9  21
ATOM     21  C   UNL A   1      33.559  25.725  25.630  1.00  0.00    -0.025 A 
ATOM     22  C   UNL A   1      34.323  25.113  24.627  1.00  0.00     0.009 A 
ATOM     23  C   UNL A   1      32.416  25.078  26.122  1.00  0.00     0.009 A 
ATOM     24  C   UNL A   1      34.034  23.814  24.215  1.00  0.00     0.021 A 
ATOM     25  C   UNL A   1      32.127  23.770  25.720  1.00  0.00     0.021 A 
ATOM     26  C   UNL A   1      32.960  23.135  24.794  1.00  0.00     0.067 A 
BRANCH  26  27
ATOM     27  S   UNL A   1      32.789  21.393  24.476  1.00  0.00     0.175 S 
ATOM     28  C   UNL A   1      32.227  21.309  22.800  1.00  0.00     0.163 C 
ATOM     29  O   UNL A   1      34.124  20.826  24.536  1.00  0.00    -0.224 OA
ATOM     30  O   UNL A   1      31.732  20.889  25.332  1.00  0.00    -0.224 OA
ENDBRANCH  26  27
ENDBRANCH   9  21
ENDBRANCH   6   8
ENDBRANCH   5   6
ENDBRANCH   4   5
ENDBRANCH   3   4
ENDBRANCH   2   3
ENDBRANCH   1   2
BRANCH   1  31
ATOM     31  C   UNL A   1      39.538  27.298  27.655  1.00  0.00     0.188 C 
BRANCH  31  32
ATOM     32  O   UNL A   1      39.340  26.031  28.247  1.00  0.00    -0.376 OA
BRANCH  32  33
ATOM     33  C   UNL A   1      38.928  24.944  27.433  1.00  0.00     0.202 C 
BRANCH  33  34
ATOM     34  C   UNL A   1      39.813  23.710  27.169  1.00  0.00     0.261 C 
BRANCH  34  35
ATOM     35  O   UNL A   1      41.197  23.805  27.539  1.00  0.00    -0.460 OA
BRANCH  35  36
ATOM     36  C   UNL A   1      42.092  23.641  26.534  1.00  0.00     0.338 C 
ATOM     37  O   UNL A   1      42.072  22.795  25.650  1.00  0.00    -0.246 OA
BRANCH  36  38
ATOM     38  C   UNL A   1      43.039  24.768  26.547  1.00  0.00     0.060 A 
ATOM     39  C   UNL A   1      43.449  25.328  25.329  1.00  0.00     0.016 A 
ATOM     40  C   UNL A   1      43.541  25.257  27.753  1.00  0.00     0.016 A 
ATOM     41  C   UNL A   1      44.347  26.395  25.320  1.00  0.00     0.010 A 
ATOM     42  C   UNL A   1      44.467  26.305  27.737  1.00  0.00     0.010 A 
ATOM     43  C   UNL A   1      44.880  26.876  26.523  1.00  0.00    -0.014 A 
BRANCH  43  44
ATOM     44  C   UNL A   1      45.965  27.889  26.508  1.00  0.00     0.031 A 
ATOM     45  C   UNL A   1      45.608  29.340  26.671  1.00  0.00     0.074 A 
ATOM     46  C   UNL A   1      47.255  27.524  26.400  1.00  0.00     0.049 A 
ATOM     47  N   UNL A   1      46.382  30.394  26.634  1.00  0.00    -0.248 NA
ATOM     48  C   UNL A   1      44.189  29.641  26.908  1.00  0.00     0.031 C 
ATOM     49  C   UNL A   1      47.739  26.147  26.343  1.00  0.00     0.029 A 
ATOM     50  N   UNL A   1      48.398  28.285  26.379  1.00  0.00    -0.354 N 
ATOM     51  C   UNL A   1      45.541  31.486  26.800  1.00  0.00     0.074 A 
ATOM     52  C   UNL A   1      44.198  30.965  26.954  1.00  0.00     0.031 C 
ATOM     53  C   UNL A   1      49.083  26.160  26.347  1.00  0.00     0.029 A 
ATOM     54  C   UNL A   1      49.555  27.545  26.326  1.00  0.00     0.049 A 
ATOM     55  H   UNL A   1      48.390  29.269  26.399  1.00  0.00     0.167 HD
ATOM     56  C   UNL A   1      45.855  32.803  26.801  1.00  0.00     0.037 A 
ATOM     57  C   UNL A   1      50.842  27.942  26.248  1.00  0.00     0.037 A 
ATOM     58  C   UNL A   1      47.190  33.320  26.649  1.00  0.00     0.049 A 
ATOM     59  C   UNL A   1      51.158  29.417  26.178  1.00  0.00     0.074 A 
ATOM     60  C   UNL A   1      47.603  34.641  26.615  1.00  0.00     0.029 A 
ATOM     61  N   UNL A   1      48.329  32.543  26.504  1.00  0.00    -0.354 N 
ATOM     62  N   UNL A   1      50.350  30.445  26.292  1.00  0.00    -0.248 NA
ATOM     63  C   UNL A   1      52.562  29.787  25.934  1.00  0.00     0.031 C 
ATOM     64  C   UNL A   1      48.981  34.664  26.381  1.00  0.00     0.029 A 
ATOM     65  C   UNL A   1      49.438  33.357  26.336  1.00  0.00     0.049 A 
ATOM     66  H   UNL A   1      48.348  31.558  26.518  1.00  0.00     0.167 HD
ATOM     67  C   UNL A   1      51.148  31.576  26.147  1.00  0.00     0.074 A 
ATOM     68  C   UNL A   1      52.506  31.111  25.964  1.00  0.00     0.031 C 
ATOM     69  C   UNL A   1      50.785  32.882  26.151  1.00  0.00     0.037 A 
BRANCH  56  70
ATOM     70  C   UNL A   1      44.724  33.785  26.895  1.00  0.00     0.057 A 
ATOM     71  C   UNL A   1      44.029  34.240  25.768  1.00  0.00     0.134 A 
ATOM     72  C   UNL A   1      44.305  34.257  28.147  1.00  0.00     0.134 A 
ATOM     73  F   UNL A   1      44.392  33.843  24.539  1.00  0.00    -0.206 F 
ATOM     74  C   UNL A   1      42.973  35.146  25.881  1.00  0.00     0.040 A 
ATOM     75  C   UNL A   1      43.232  35.139  28.275  1.00  0.00     0.040 A 
ATOM     76  F   UNL A   1      44.925  33.858  29.269  1.00  0.00    -0.206 F 
ATOM     77  C   UNL A   1      42.566  35.591  27.138  1.00  0.00     0.006 A 
ENDBRANCH  56  70
BRANCH  57  78
ATOM     78  C   UNL A   1      51.939  26.939  26.178  1.00  0.00     0.057 A 
ATOM     79  C   UNL A   1      52.696  26.606  27.310  1.00  0.00     0.134 A 
ATOM     80  C   UNL A   1      52.294  26.323  24.971  1.00  0.00     0.134 A 
ATOM     81  F   UNL A   1      52.433  27.184  28.491  1.00  0.00    -0.206 F 
ATOM     82  C   UNL A   1      53.767  25.712  27.242  1.00  0.00     0.040 A 
ATOM     83  C   UNL A   1      53.340  25.402  24.894  1.00  0.00     0.040 A 
ATOM     84  F   UNL A   1      51.623  26.604  23.844  1.00  0.00    -0.206 F 
ATOM     85  C   UNL A   1      54.086  25.101  26.031  1.00  0.00     0.006 A 
ENDBRANCH  57  78
BRANCH  69  86
ATOM     86  C   UNL A   1      51.866  33.910  25.955  1.00  0.00     0.057 A 
ATOM     87  C   UNL A   1      52.247  34.345  24.679  1.00  0.00     0.134 A 
ATOM     88  C   UNL A   1      52.479  34.526  27.055  1.00  0.00     0.134 A 
ATOM     89  F   UNL A   1      51.706  33.793  23.582  1.00  0.00    -0.206 F 
ATOM     90  C   UNL A   1      53.209  35.342  24.504  1.00  0.00     0.040 A 
ATOM     91  C   UNL A   1      53.422  35.542  26.893  1.00  0.00     0.040 A 
ATOM     92  F   UNL A   1      52.153  34.168  28.306  1.00  0.00    -0.206 F 
ATOM     93  C   UNL A   1      53.793  35.951  25.613  1.00  0.00     0.006 A 
ENDBRANCH  69  86
ENDBRANCH  43  44
ENDBRANCH  36  38
ENDBRANCH  35  36
ENDBRANCH  34  35
ENDBRANCH  33  34
ENDBRANCH  32  33
ENDBRANCH  31  32
ENDBRANCH   1  31
TORSDOF 21
ENDMDL
MODEL 2
REMARK VINA RESULT:      -9.8      1.705      6.919
REMARK SMILES CC(=O)Nc1ccc(/C(=C\c2ccc(S(C)(=O)=O)cc2)C(=O)OCCOCCOCCOC(=O)c2ccc(-c3c4nc(c(-c5c(F)cccc5F)c5ccc([nH]5)c(-c5c(F)cccc5F)c5nc(c(-c6c(F)cccc6F)c6ccc3[nH]6)C=C5)C=C4)cc2)cc1
REMARK SMILES IDX 27 1 26 2 25 3 24 4 23 5 21 6 22 7 9 8 10 9 8 10 5 11 6 12
REMARK SMILES IDX 90 13 7 14 89 15 4 16 1 17 2 18 3 19 11 21 12 22 20 23 13 24
REMARK SMILES IDX 19 25 14 26 15 27 16 28 17 29 18 30 28 31 29 32 30 33 31 34
REMARK SMILES IDX 32 35 33 36 34 37 35 38 36 39 88 40 37 41 87 42 38 43 39 44
REMARK SMILES IDX 40 45 81 46 41 47 86 48 80 49 82 50 42 51 85 52 79 53 78 54
REMARK SMILES IDX 43 56 69 57 52 58 68 59 53 60 56 61 67 62 83 63 54 64 55 65
REMARK SMILES IDX 66 67 84 68 57 69 44 70 45 71 50 72 46 73 47 74 49 75 51 76
REMARK SMILES IDX 48 77 70 78 71 79 76 80 72 81 73 82 75 83 77 84 74 85 58 86
REMARK SMILES IDX 59 87 64 88 60 89 61 90 63 91 65 92 62 93
REMARK H PARENT 4 20 82 55 56 66
REMARK Flexibility Score: inf
ROOT
ATOM      1  C   UNL A   1      40.056  28.291  27.871  1.00  0.00     0.188 C 
ENDROOT
BRANCH   1   2
ATOM      2  O   UNL A   1      39.279  29.306  27.287  1.00  0.00    -0.376 OA
BRANCH   2   3
ATOM      3  C   UNL A   1      38.235  29.926  28.021  1.00  0.00     0.202 C 
BRANCH   3   4
ATOM      4  C   UNL A   1      36.828  29.340  28.267  1.00  0.00     0.261 C 
BRANCH   4   5
ATOM      5  O   UNL A   1      35.866  29.449  27.215  1.00  0.00    -0.460 OA
BRANCH   5   6
ATOM      6  C   UNL A   1      34.720  30.134  27.498  1.00  0.00     0.338 C 
ATOM      7  O   UNL A   1      34.626  31.055  28.294  1.00  0.00    -0.246 OA
BRANCH   6   8
ATOM      8  C   UNL A   1      33.597  29.703  26.588  1.00  0.00     0.067 C 
ATOM      9  C   UNL A   1      32.546  30.561  26.519  1.00  0.00     0.024 C 
BRANCH   8  10
ATOM     10  C   UNL A   1      33.701  28.395  25.861  1.00  0.00    -0.011 A 
ATOM     11  C   UNL A   1      33.593  25.921  24.423  1.00  0.00     0.041 A 
ATOM     12  C   UNL A   1      33.986  27.108  23.803  1.00  0.00     0.027 A 
ATOM     13  C   UNL A   1      33.341  25.957  25.790  1.00  0.00     0.027 A 
ATOM     14  C   UNL A   1      34.063  28.312  24.514  1.00  0.00     0.011 A 
ATOM     15  C   UNL A   1      33.399  27.176  26.496  1.00  0.00     0.011 A 
BRANCH  11  16
ATOM     16  N   UNL A   1      33.589  24.777  23.611  1.00  0.00    -0.326 N 
ATOM     17  C   UNL A   1      35.797  23.703  24.023  1.00  0.00     0.114 C 
ATOM     18  C   UNL A   1      34.518  23.846  23.261  1.00  0.00     0.221 C 
ATOM     19  O   UNL A   1      34.225  23.040  22.375  1.00  0.00    -0.275 OA
ATOM     20  H   UNL A   1      32.710  24.607  23.200  1.00  0.00     0.169 HD
ENDBRANCH  11  16
ENDBRANCH   8  10
BRANCH   9  21
ATOM     21  C   UNL A   1      31.364  30.463  25.648  1.00  0.00    -0.025 A 
ATOM     22  C   UNL A   1      30.640  31.642  25.428  1.00  0.00     0.009 A 
ATOM     23  C   UNL A   1      31.034  29.305  24.929  1.00  0.00     0.009 A 
ATOM     24  C   UNL A   1      29.693  31.709  24.409  1.00  0.00     0.021 A 
ATOM     25  C   UNL A   1      30.092  29.368  23.897  1.00  0.00     0.021 A 
ATOM     26  C   UNL A   1      29.452  30.580  23.623  1.00  0.00     0.067 A 
BRANCH  26  27
ATOM     27  S   UNL A   1      28.469  30.766  22.152  1.00  0.00     0.175 S 
ATOM     28  C   UNL A   1      28.342  32.517  21.931  1.00  0.00     0.163 C 
ATOM     29  O   UNL A   1      29.253  30.226  21.056  1.00  0.00    -0.224 OA
ATOM     30  O   UNL A   1      27.143  30.251  22.439  1.00  0.00    -0.224 OA
ENDBRANCH  26  27
ENDBRANCH   9  21
ENDBRANCH   6   8
ENDBRANCH   5   6
ENDBRANCH   4   5
ENDBRANCH   3   4
ENDBRANCH   2   3
ENDBRANCH   1   2
BRANCH   1  31
ATOM     31  C   UNL A   1      40.196  26.961  27.104  1.00  0.00     0.188 C 
BRANCH  31  32
ATOM     32  O   UNL A   1      40.549  25.780  27.793  1.00  0.00    -0.376 OA
BRANCH  32  33
ATOM     33  C   UNL A   1      39.728  24.630  27.661  1.00  0.00     0.202 C 
BRANCH  33  34
ATOM     34  C   UNL A   1      40.271  23.256  27.221  1.00  0.00     0.261 C 
BRANCH  34  35
ATOM     35  O   UNL A   1      41.663  22.997  27.456  1.00  0.00    -0.460 OA
BRANCH  35  36
ATOM     36  C   UNL A   1      42.465  23.032  26.364  1.00  0.00     0.338 C 
ATOM     37  O   UNL A   1      42.455  22.270  25.407  1.00  0.00    -0.246 OA
BRANCH  36  38
ATOM     38  C   UNL A   1      43.274  24.263  26.403  1.00  0.00     0.060 A 
ATOM     39  C   UNL A   1      43.464  24.991  25.221  1.00  0.00     0.016 A 
ATOM     40  C   UNL A   1      43.863  24.685  27.594  1.00  0.00     0.016 A 
ATOM     41  C   UNL A   1      44.227  26.158  25.236  1.00  0.00     0.010 A 
ATOM     42  C   UNL A   1      44.656  25.838  27.598  1.00  0.00     0.010 A 
ATOM     43  C   UNL A   1      44.847  26.577  26.420  1.00  0.00    -0.014 A 
BRANCH  43  44
ATOM     44  C   UNL A   1      45.800  27.715  26.403  1.00  0.00     0.031 A 
ATOM     45  C   UNL A   1      47.255  27.442  26.146  1.00  0.00     0.074 A 
ATOM     46  C   UNL A   1      45.374  28.980  26.567  1.00  0.00     0.049 A 
ATOM     47  N   UNL A   1      48.267  28.272  26.141  1.00  0.00    -0.248 NA
ATOM     48  C   UNL A   1      47.617  26.047  25.854  1.00  0.00     0.031 C 
ATOM     49  C   UNL A   1      43.979  29.387  26.718  1.00  0.00     0.029 A 
ATOM     50  N   UNL A   1      46.072  30.163  26.573  1.00  0.00    -0.354 N 
ATOM     51  C   UNL A   1      49.390  27.496  25.889  1.00  0.00     0.074 A 
ATOM     52  C   UNL A   1      48.933  26.131  25.730  1.00  0.00     0.031 C 
ATOM     53  C   UNL A   1      43.920  30.730  26.749  1.00  0.00     0.029 A 
ATOM     54  C   UNL A   1      45.277  31.276  26.700  1.00  0.00     0.049 A 
ATOM     55  H   UNL A   1      47.053  30.209  26.494  1.00  0.00     0.167 HD
ATOM     56  C   UNL A   1      50.686  27.882  25.818  1.00  0.00     0.037 A 
ATOM     57  C   UNL A   1      45.608  32.581  26.788  1.00  0.00     0.037 A 
ATOM     58  C   UNL A   1      51.139  29.239  25.975  1.00  0.00     0.049 A 
ATOM     59  C   UNL A   1      47.066  32.975  26.779  1.00  0.00     0.074 A 
ATOM     60  C   UNL A   1      52.436  29.723  25.942  1.00  0.00     0.029 A 
ATOM     61  N   UNL A   1      50.312  30.330  26.195  1.00  0.00    -0.354 N 
ATOM     62  N   UNL A   1      48.127  32.228  26.584  1.00  0.00    -0.248 NA
ATOM     63  C   UNL A   1      47.374  34.391  27.038  1.00  0.00     0.031 C 
ATOM     64  C   UNL A   1      52.399  31.095  26.209  1.00  0.00     0.029 A 
ATOM     65  C   UNL A   1      51.075  31.478  26.344  1.00  0.00     0.049 A 
ATOM     66  H   UNL A   1      49.329  30.295  26.240  1.00  0.00     0.167 HD
ATOM     67  C   UNL A   1      49.220  33.083  26.683  1.00  0.00     0.074 A 
ATOM     68  C   UNL A   1      48.695  34.409  26.929  1.00  0.00     0.031 C 
ATOM     69  C   UNL A   1      50.541  32.793  26.592  1.00  0.00     0.037 A 
BRANCH  56  70
ATOM     70  C   UNL A   1      51.720  26.809  25.637  1.00  0.00     0.057 A 
ATOM     71  C   UNL A   1      52.256  26.093  26.714  1.00  0.00     0.134 A 
ATOM     72  C   UNL A   1      52.160  26.467  24.350  1.00  0.00     0.134 A 
ATOM     73  F   UNL A   1      51.892  26.384  27.972  1.00  0.00    -0.206 F 
ATOM     74  C   UNL A   1      53.209  25.091  26.520  1.00  0.00     0.040 A 
ATOM     75  C   UNL A   1      53.090  25.448  24.142  1.00  0.00     0.040 A 
ATOM     76  F   UNL A   1      51.684  27.111  23.273  1.00  0.00    -0.206 F 
ATOM     77  C   UNL A   1      53.622  24.761  25.229  1.00  0.00     0.006 A 
ENDBRANCH  56  70
BRANCH  57  78
ATOM     78  C   UNL A   1      44.554  33.619  26.945  1.00  0.00     0.057 A 
ATOM     79  C   UNL A   1      44.137  34.050  28.212  1.00  0.00     0.134 A 
ATOM     80  C   UNL A   1      43.901  34.175  25.837  1.00  0.00     0.134 A 
ATOM     81  F   UNL A   1      44.695  33.534  29.317  1.00  0.00    -0.206 F 
ATOM     82  C   UNL A   1      43.106  34.979  28.371  1.00  0.00     0.040 A 
ATOM     83  C   UNL A   1      42.892  35.130  25.979  1.00  0.00     0.040 A 
ATOM     84  F   UNL A   1      44.238  33.800  24.594  1.00  0.00    -0.206 F 
ATOM     85  C   UNL A   1      42.487  35.527  27.250  1.00  0.00     0.006 A 
ENDBRANCH  57  78
BRANCH  69  86
ATOM     86  C   UNL A   1      51.520  33.924  26.755  1.00  0.00     0.057 A 
ATOM     87  C   UNL A   1      51.913  34.720  25.672  1.00  0.00     0.134 A 
ATOM     88  C   UNL A   1      52.016  34.267  28.020  1.00  0.00     0.134 A 
ATOM     89  F   UNL A   1      51.481  34.444  24.432  1.00  0.00    -0.206 F 
ATOM     90  C   UNL A   1      52.775  35.806  25.838  1.00  0.00     0.040 A 
ATOM     91  C   UNL A   1      52.857  35.366  28.204  1.00  0.00     0.040 A 
ATOM     92  F   UNL A   1      51.670  33.555  29.104  1.00  0.00    -0.206 F 
ATOM     93  C   UNL A   1      53.242  36.137  27.108  1.00  0.00     0.006 A 
ENDBRANCH  69  86
ENDBRANCH  43  44
ENDBRANCH  36  38
ENDBRANCH  35  36
ENDBRANCH  34  35
ENDBRANCH  33  34
ENDBRANCH  32  33
ENDBRANCH  31  32
ENDBRANCH   1  31
TORSDOF 21
ENDMDL
MODEL 3
REMARK VINA RESULT:      -9.6      4.813      9.238
REMARK SMILES CC(=O)Nc1ccc(/C(=C\c2ccc(S(C)(=O)=O)cc2)C(=O)OCCOCCOCCOC(=O)c2ccc(-c3c4nc(c(-c5c(F)cccc5F)c5ccc([nH]5)c(-c5c(F)cccc5F)c5nc(c(-c6c(F)cccc6F)c6ccc3[nH]6)C=C5)C=C4)cc2)cc1
REMARK SMILES IDX 27 1 26 2 25 3 24 4 23 5 21 6 22 7 9 8 10 9 8 10 5 11 6 12
REMARK SMILES IDX 90 13 7 14 89 15 4 16 1 17 2 18 3 19 11 21 12 22 20 23 13 24
REMARK SMILES IDX 19 25 14 26 15 27 16 28 17 29 18 30 28 31 29 32 30 33 31 34
REMARK SMILES IDX 32 35 33 36 34 37 35 38 36 39 88 40 37 41 87 42 38 43 39 44
REMARK SMILES IDX 40 45 81 46 41 47 86 48 80 49 82 50 42 51 85 52 79 53 78 54
REMARK SMILES IDX 43 56 69 57 52 58 68 59 53 60 56 61 67 62 83 63 54 64 55 65
REMARK SMILES IDX 66 67 84 68 57 69 44 70 45 71 50 72 46 73 47 74 49 75 51 76
REMARK SMILES IDX 48 77 70 78 71 79 76 80 72 81 73 82 75 83 77 84 74 85 58 86
REMARK SMILES IDX 59 87 64 88 60 89 61 90 63 91 65 92 62 93
REMARK H PARENT 4 20 82 55 56 66
REMARK Flexibility Score: inf
ROOT
ATOM      1  C   UNL A   1      33.353  36.875  32.121  1.00  0.00     0.188 C 
ENDROOT
BRANCH   1   2
ATOM      2  O   UNL A   1      33.041  35.829  31.236  1.00  0.00    -0.376 OA
BRANCH   2   3
ATOM      3  C   UNL A   1      34.036  35.287  30.382  1.00  0.00     0.202 C 
BRANCH   3   4
ATOM      4  C   UNL A   1      34.485  33.811  30.338  1.00  0.00     0.261 C 
BRANCH   4   5
ATOM      5  O   UNL A   1      33.850  32.947  29.392  1.00  0.00    -0.460 OA
BRANCH   5   6
ATOM      6  C   UNL A   1      34.528  32.698  28.234  1.00  0.00     0.338 C 
ATOM      7  O   UNL A   1      35.151  33.526  27.588  1.00  0.00    -0.246 OA
BRANCH   6   8
ATOM      8  C   UNL A   1      34.533  31.223  27.921  1.00  0.00     0.067 C 
ATOM      9  C   UNL A   1      33.425  30.762  27.283  1.00  0.00     0.024 C 
BRANCH   8  10
ATOM     10  C   UNL A   1      35.708  30.387  28.336  1.00  0.00    -0.011 A 
ATOM     11  C   UNL A   1      38.104  29.058  29.164  1.00  0.00     0.041 A 
ATOM     12  C   UNL A   1      37.069  29.319  30.062  1.00  0.00     0.027 A 
ATOM     13  C   UNL A   1      37.900  29.382  27.828  1.00  0.00     0.027 A 
ATOM     14  C   UNL A   1      35.886  29.947  29.651  1.00  0.00     0.011 A 
ATOM     15  C   UNL A   1      36.717  30.033  27.423  1.00  0.00     0.011 A 
BRANCH  11  16
ATOM     16  N   UNL A   1      39.222  28.394  29.693  1.00  0.00    -0.326 N 
ATOM     17  C   UNL A   1      41.141  29.208  28.332  1.00  0.00     0.114 C 
ATOM     18  C   UNL A   1      40.529  28.278  29.330  1.00  0.00     0.221 C 
ATOM     19  O   UNL A   1      41.229  27.464  29.939  1.00  0.00    -0.275 OA
ATOM     20  H   UNL A   1      39.013  27.898  30.518  1.00  0.00     0.169 HD
ENDBRANCH  11  16
ENDBRANCH   8  10
BRANCH   9  21
ATOM     21  C   UNL A   1      33.189  29.406  26.762  1.00  0.00    -0.025 A 
ATOM     22  C   UNL A   1      32.274  28.608  27.462  1.00  0.00     0.009 A 
ATOM     23  C   UNL A   1      33.711  28.951  25.542  1.00  0.00     0.009 A 
ATOM     24  C   UNL A   1      31.778  27.438  26.893  1.00  0.00     0.021 A 
ATOM     25  C   UNL A   1      33.210  27.782  24.960  1.00  0.00     0.021 A 
ATOM     26  C   UNL A   1      32.220  27.052  25.626  1.00  0.00     0.067 A 
BRANCH  26  27
ATOM     27  S   UNL A   1      31.366  25.731  24.797  1.00  0.00     0.175 S 
ATOM     28  C   UNL A   1      31.967  24.263  25.581  1.00  0.00     0.163 C 
ATOM     29  O   UNL A   1      29.959  25.875  25.124  1.00  0.00    -0.224 OA
ATOM     30  O   UNL A   1      31.807  25.717  23.415  1.00  0.00    -0.224 OA
ENDBRANCH  26  27
ENDBRANCH   9  21
ENDBRANCH   6   8
ENDBRANCH   5   6
ENDBRANCH   4   5
ENDBRANCH   3   4
ENDBRANCH   2   3
ENDBRANCH   1   2
BRANCH   1  31
ATOM     31  C   UNL A   1      33.976  36.506  33.482  1.00  0.00     0.188 C 
BRANCH  31  32
ATOM     32  O   UNL A   1      35.148  35.720  33.535  1.00  0.00    -0.376 OA
BRANCH  32  33
ATOM     33  C   UNL A   1      35.065  34.383  34.002  1.00  0.00     0.202 C 
BRANCH  33  34
ATOM     34  C   UNL A   1      35.967  33.826  35.121  1.00  0.00     0.261 C 
BRANCH  34  35
ATOM     35  O   UNL A   1      37.337  33.559  34.785  1.00  0.00    -0.460 OA
BRANCH  35  36
ATOM     36  C   UNL A   1      37.856  32.411  35.285  1.00  0.00     0.338 C 
ATOM     37  O   UNL A   1      37.408  31.724  36.194  1.00  0.00    -0.246 OA
BRANCH  36  38
ATOM     38  C   UNL A   1      38.986  31.988  34.440  1.00  0.00     0.060 A 
ATOM     39  C   UNL A   1      38.737  31.188  33.317  1.00  0.00     0.016 A 
ATOM     40  C   UNL A   1      40.291  32.359  34.767  1.00  0.00     0.016 A 
ATOM     41  C   UNL A   1      39.794  30.777  32.506  1.00  0.00     0.010 A 
ATOM     42  C   UNL A   1      41.351  31.915  33.970  1.00  0.00     0.010 A 
ATOM     43  C   UNL A   1      41.111  31.118  32.840  1.00  0.00    -0.014 A 
BRANCH  43  44
ATOM     44  C   UNL A   1      42.248  30.538  32.083  1.00  0.00     0.031 A 
ATOM     45  C   UNL A   1      42.774  29.187  32.481  1.00  0.00     0.074 A 
ATOM     46  C   UNL A   1      42.779  31.179  31.026  1.00  0.00     0.049 A 
ATOM     47  N   UNL A   1      43.789  28.518  31.999  1.00  0.00    -0.248 NA
ATOM     48  C   UNL A   1      42.057  28.501  33.566  1.00  0.00     0.031 C 
ATOM     49  C   UNL A   1      42.292  32.441  30.476  1.00  0.00     0.029 A 
ATOM     50  N   UNL A   1      43.809  30.822  30.192  1.00  0.00    -0.354 N 
ATOM     51  C   UNL A   1      43.861  27.351  32.749  1.00  0.00     0.074 A 
ATOM     52  C   UNL A   1      42.776  27.397  33.707  1.00  0.00     0.031 C 
ATOM     53  C   UNL A   1      42.990  32.726  29.362  1.00  0.00     0.029 A 
ATOM     54  C   UNL A   1      44.025  31.710  29.166  1.00  0.00     0.049 A 
ATOM     55  H   UNL A   1      44.345  30.005  30.317  1.00  0.00     0.167 HD
ATOM     56  C   UNL A   1      44.762  26.344  32.661  1.00  0.00     0.037 A 
ATOM     57  C   UNL A   1      44.962  31.712  28.195  1.00  0.00     0.037 A 
ATOM     58  C   UNL A   1      45.840  26.298  31.708  1.00  0.00     0.049 A 
ATOM     59  C   UNL A   1      45.998  30.614  28.166  1.00  0.00     0.074 A 
ATOM     60  C   UNL A   1      46.816  25.328  31.559  1.00  0.00     0.029 A 
ATOM     61  N   UNL A   1      46.084  27.262  30.742  1.00  0.00    -0.354 N 
ATOM     62  N   UNL A   1      46.085  29.535  28.908  1.00  0.00    -0.248 NA
ATOM     63  C   UNL A   1      47.088  30.753  27.186  1.00  0.00     0.031 C 
ATOM     64  C   UNL A   1      47.691  25.739  30.548  1.00  0.00     0.029 A 
ATOM     65  C   UNL A   1      47.222  26.931  30.023  1.00  0.00     0.049 A 
ATOM     66  H   UNL A   1      45.532  28.063  30.589  1.00  0.00     0.167 HD
ATOM     67  C   UNL A   1      47.226  28.866  28.476  1.00  0.00     0.074 A 
ATOM     68  C   UNL A   1      47.784  29.643  27.391  1.00  0.00     0.031 C 
ATOM     69  C   UNL A   1      47.770  27.716  28.946  1.00  0.00     0.037 A 
BRANCH  56  70
ATOM     70  C   UNL A   1      44.669  25.242  33.676  1.00  0.00     0.057 A 
ATOM     71  C   UNL A   1      45.052  25.416  35.011  1.00  0.00     0.134 A 
ATOM     72  C   UNL A   1      44.155  23.990  33.309  1.00  0.00     0.134 A 
ATOM     73  F   UNL A   1      45.571  26.582  35.423  1.00  0.00    -0.206 F 
ATOM     74  C   UNL A   1      44.947  24.379  35.940  1.00  0.00     0.040 A 
ATOM     75  C   UNL A   1      44.018  22.955  34.235  1.00  0.00     0.040 A 
ATOM     76  F   UNL A   1      43.765  23.756  32.046  1.00  0.00    -0.206 F 
ATOM     77  C   UNL A   1      44.421  23.147  35.554  1.00  0.00     0.006 A 
ENDBRANCH  56  70
BRANCH  57  78
ATOM     78  C   UNL A   1      45.009  32.811  27.193  1.00  0.00     0.057 A 
ATOM     79  C   UNL A   1      45.820  33.938  27.383  1.00  0.00     0.134 A 
ATOM     80  C   UNL A   1      44.211  32.788  26.042  1.00  0.00     0.134 A 
ATOM     81  F   UNL A   1      46.584  34.041  28.480  1.00  0.00    -0.206 F 
ATOM     82  C   UNL A   1      45.825  35.002  26.479  1.00  0.00     0.040 A 
ATOM     83  C   UNL A   1      44.230  33.829  25.111  1.00  0.00     0.040 A 
ATOM     84  F   UNL A   1      43.400  31.747  25.800  1.00  0.00    -0.206 F 
ATOM     85  C   UNL A   1      45.033  34.944  25.334  1.00  0.00     0.006 A 
ENDBRANCH  57  78
BRANCH  69  86
ATOM     86  C   UNL A   1      49.032  27.220  28.293  1.00  0.00     0.057 A 
ATOM     87  C   UNL A   1      49.008  26.530  27.074  1.00  0.00     0.134 A 
ATOM     88  C   UNL A   1      50.286  27.500  28.851  1.00  0.00     0.134 A 
ATOM     89  F   UNL A   1      47.841  26.223  26.488  1.00  0.00    -0.206 F 
ATOM     90  C   UNL A   1      50.186  26.124  26.442  1.00  0.00     0.040 A 
ATOM     91  C   UNL A   1      51.471  27.122  28.216  1.00  0.00     0.040 A 
ATOM     92  F   UNL A   1      50.383  28.168  30.011  1.00  0.00    -0.206 F 
ATOM     93  C   UNL A   1      51.422  26.428  27.009  1.00  0.00     0.006 A 
ENDBRANCH  69  86
ENDBRANCH  43  44
ENDBRANCH  36  38
ENDBRANCH  35  36
ENDBRANCH  34  35
ENDBRANCH  33  34
ENDBRANCH  32  33
ENDBRANCH  31  32
ENDBRANCH   1  31
TORSDOF 21
ENDMDL
