MODEL 1
REMARK VINA RESULT:     -10.1      0.000      0.000
REMARK SMILES Cc1ccc(C(=O)OCCOCCOCCOC(=O)c2ccc(-c3c4nc(c(-c5c(F)cccc5F)c5ccc([nH]5)c(-c5c(F)cccc5F)c5nc(c(-c6c(F)cccc6F)c6ccc3[nH]6)C=C5)C=C4)cc2)c(Cl)c1
REMARK SMILES IDX 13 1 12 2 11 3 10 4 9 5 8 6 6 7 7 8 5 9 1 10 2 11 3 12 76 13
REMARK SMILES IDX 4 14 74 15 75 16 14 17 15 18 16 19 17 20 18 21 19 22 20 23
REMARK SMILES IDX 21 24 73 25 22 26 72 27 23 28 24 29 25 30 66 31 26 32 71 33
REMARK SMILES IDX 65 34 67 35 27 36 70 37 64 38 63 39 28 41 54 42 37 43 53 44
REMARK SMILES IDX 38 45 41 46 52 47 68 48 39 49 40 50 51 52 69 53 42 54 29 55
REMARK SMILES IDX 30 56 35 57 31 58 32 59 34 60 36 61 33 62 55 63 56 64 61 65
REMARK SMILES IDX 57 66 58 67 60 68 62 69 59 70 43 71 44 72 49 73 45 74 46 75
REMARK SMILES IDX 48 76 50 77 47 78
REMARK H PARENT 67 40 41 51
REMARK Flexibility Score: inf
ROOT
ATOM      1  C   UNL A   1      40.284  20.843  26.702  1.00  0.00     0.188 C 
ENDROOT
BRANCH   1   2
ATOM      2  C   UNL A   1      39.359  21.939  26.131  1.00  0.00     0.188 C 
BRANCH   2   3
ATOM      3  O   UNL A   1      38.253  21.509  25.375  1.00  0.00    -0.376 OA
BRANCH   3   4
ATOM      4  C   UNL A   1      36.963  22.052  25.602  1.00  0.00     0.202 C 
BRANCH   4   5
ATOM      5  C   UNL A   1      36.484  23.455  25.179  1.00  0.00     0.261 C 
BRANCH   5   6
ATOM      6  O   UNL A   1      35.232  23.905  25.698  1.00  0.00    -0.460 OA
BRANCH   6   7
ATOM      7  C   UNL A   1      34.409  24.531  24.812  1.00  0.00     0.339 C 
ATOM      8  O   UNL A   1      34.209  24.223  23.659  1.00  0.00    -0.246 OA
BRANCH   7   9
ATOM      9  C   UNL A   1      33.707  25.629  25.517  1.00  0.00     0.078 A 
ATOM     10  C   UNL A   1      31.654  28.903  27.427  1.00  0.00     0.044 C 
ATOM     11  C   UNL A   1      32.392  27.762  26.789  1.00  0.00    -0.050 A 
ATOM     12  C   UNL A   1      33.712  27.909  26.346  1.00  0.00     0.004 A 
ATOM     13  C   UNL A   1      31.753  26.525  26.630  1.00  0.00     0.024 A 
ATOM     14  C   UNL A   1      34.368  26.850  25.712  1.00  0.00     0.017 A 
ATOM     15  C   UNL A   1      32.403  25.460  25.996  1.00  0.00     0.055 A 
ATOM     16  Cl  UNL A   1      31.553  23.958  25.915  1.00  0.00    -0.083 Cl
ENDBRANCH   7   9
ENDBRANCH   6   7
ENDBRANCH   5   6
ENDBRANCH   4   5
ENDBRANCH   3   4
ENDBRANCH   2   3
ENDBRANCH   1   2
BRANCH   1  17
ATOM     17  O   UNL A   1      41.313  20.283  25.908  1.00  0.00    -0.376 OA
BRANCH  17  18
ATOM     18  C   UNL A   1      42.670  20.544  26.229  1.00  0.00     0.202 C 
BRANCH  18  19
ATOM     19  C   UNL A   1      43.545  21.508  25.408  1.00  0.00     0.261 C 
BRANCH  19  20
ATOM     20  O   UNL A   1      42.914  22.707  24.941  1.00  0.00    -0.460 OA
BRANCH  20  21
ATOM     21  C   UNL A   1      43.674  23.828  25.007  1.00  0.00     0.338 C 
ATOM     22  O   UNL A   1      44.663  24.096  24.348  1.00  0.00    -0.246 OA
BRANCH  21  23
ATOM     23  C   UNL A   1      43.028  24.801  25.906  1.00  0.00     0.060 A 
ATOM     24  C   UNL A   1      43.547  26.103  25.971  1.00  0.00     0.016 A 
ATOM     25  C   UNL A   1      41.960  24.423  26.720  1.00  0.00     0.016 A 
ATOM     26  C   UNL A   1      43.008  27.027  26.864  1.00  0.00     0.010 A 
ATOM     27  C   UNL A   1      41.438  25.344  27.633  1.00  0.00     0.010 A 
ATOM     28  C   UNL A   1      41.976  26.641  27.727  1.00  0.00    -0.014 A 
BRANCH  28  29
ATOM     29  C   UNL A   1      41.574  27.535  28.840  1.00  0.00     0.031 A 
ATOM     30  C   UNL A   1      42.339  27.465  30.132  1.00  0.00     0.074 A 
ATOM     31  C   UNL A   1      40.559  28.405  28.702  1.00  0.00     0.049 A 
ATOM     32  N   UNL A   1      42.129  28.097  31.259  1.00  0.00    -0.248 NA
ATOM     33  C   UNL A   1      43.499  26.559  30.158  1.00  0.00     0.031 C 
ATOM     34  C   UNL A   1      39.771  28.604  27.488  1.00  0.00     0.029 A 
ATOM     35  N   UNL A   1      40.009  29.277  29.609  1.00  0.00    -0.354 N 
ATOM     36  C   UNL A   1      43.123  27.661  32.126  1.00  0.00     0.074 A 
ATOM     37  C   UNL A   1      43.919  26.690  31.408  1.00  0.00     0.031 C 
ATOM     38  C   UNL A   1      38.824  29.527  27.731  1.00  0.00     0.029 A 
ATOM     39  C   UNL A   1      38.919  29.956  29.126  1.00  0.00     0.049 A 
ATOM     40  H   UNL A   1      40.363  29.404  30.519  1.00  0.00     0.167 HD
ATOM     41  C   UNL A   1      43.356  28.042  33.405  1.00  0.00     0.037 A 
ATOM     42  C   UNL A   1      38.076  30.805  29.749  1.00  0.00     0.037 A 
ATOM     43  C   UNL A   1      42.561  29.003  34.122  1.00  0.00     0.049 A 
ATOM     44  C   UNL A   1      38.304  31.144  31.200  1.00  0.00     0.074 A 
ATOM     45  C   UNL A   1      42.725  29.463  35.417  1.00  0.00     0.029 A 
ATOM     46  N   UNL A   1      41.445  29.645  33.609  1.00  0.00    -0.354 N 
ATOM     47  N   UNL A   1      39.260  30.747  32.005  1.00  0.00    -0.248 NA
ATOM     48  C   UNL A   1      37.335  32.053  31.829  1.00  0.00     0.031 C 
ATOM     49  C   UNL A   1      41.677  30.342  35.706  1.00  0.00     0.029 A 
ATOM     50  C   UNL A   1      40.894  30.476  34.571  1.00  0.00     0.049 A 
ATOM     51  H   UNL A   1      41.094  29.528  32.696  1.00  0.00     0.167 HD
ATOM     52  C   UNL A   1      39.026  31.383  33.220  1.00  0.00     0.074 A 
ATOM     53  C   UNL A   1      37.846  32.201  33.043  1.00  0.00     0.031 C 
ATOM     54  C   UNL A   1      39.726  31.297  34.378  1.00  0.00     0.037 A 
BRANCH  41  55
ATOM     55  C   UNL A   1      44.505  27.396  34.122  1.00  0.00     0.057 A 
ATOM     56  C   UNL A   1      45.766  28.000  34.194  1.00  0.00     0.134 A 
ATOM     57  C   UNL A   1      44.336  26.172  34.781  1.00  0.00     0.134 A 
ATOM     58  F   UNL A   1      45.999  29.166  33.572  1.00  0.00    -0.206 F 
ATOM     59  C   UNL A   1      46.824  27.401  34.883  1.00  0.00     0.040 A 
ATOM     60  C   UNL A   1      45.377  25.577  35.496  1.00  0.00     0.040 A 
ATOM     61  F   UNL A   1      43.152  25.541  34.755  1.00  0.00    -0.206 F 
ATOM     62  C   UNL A   1      46.627  26.190  35.543  1.00  0.00     0.006 A 
ENDBRANCH  41  55
BRANCH  42  63
ATOM     63  C   UNL A   1      36.918  31.382  29.018  1.00  0.00     0.057 A 
ATOM     64  C   UNL A   1      36.910  32.721  28.611  1.00  0.00     0.134 A 
ATOM     65  C   UNL A   1      35.773  30.621  28.754  1.00  0.00     0.134 A 
ATOM     66  F   UNL A   1      37.966  33.509  28.860  1.00  0.00    -0.206 F 
ATOM     67  C   UNL A   1      35.796  33.290  27.989  1.00  0.00     0.040 A 
ATOM     68  C   UNL A   1      34.664  31.169  28.107  1.00  0.00     0.040 A 
ATOM     69  F   UNL A   1      35.714  29.333  29.122  1.00  0.00    -0.206 F 
ATOM     70  C   UNL A   1      34.670  32.511  27.732  1.00  0.00     0.006 A 
ENDBRANCH  42  63
BRANCH  54  71
ATOM     71  C   UNL A   1      39.266  32.143  35.532  1.00  0.00     0.057 A 
ATOM     72  C   UNL A   1      39.656  33.480  35.677  1.00  0.00     0.134 A 
ATOM     73  C   UNL A   1      38.385  31.622  36.489  1.00  0.00     0.134 A 
ATOM     74  F   UNL A   1      40.507  34.039  34.802  1.00  0.00    -0.206 F 
ATOM     75  C   UNL A   1      39.207  34.261  36.744  1.00  0.00     0.040 A 
ATOM     76  C   UNL A   1      37.905  32.400  37.542  1.00  0.00     0.040 A 
ATOM     77  F   UNL A   1      37.961  30.352  36.405  1.00  0.00    -0.206 F 
ATOM     78  C   UNL A   1      38.322  33.723  37.677  1.00  0.00     0.006 A 
ENDBRANCH  54  71
ENDBRANCH  28  29
ENDBRANCH  21  23
ENDBRANCH  20  21
ENDBRANCH  19  20
ENDBRANCH  18  19
ENDBRANCH  17  18
ENDBRANCH   1  17
TORSDOF 17
ENDMDL
MODEL 2
REMARK VINA RESULT:     -10.0      4.663     10.301
REMARK SMILES Cc1ccc(C(=O)OCCOCCOCCOC(=O)c2ccc(-c3c4nc(c(-c5c(F)cccc5F)c5ccc([nH]5)c(-c5c(F)cccc5F)c5nc(c(-c6c(F)cccc6F)c6ccc3[nH]6)C=C5)C=C4)cc2)c(Cl)c1
REMARK SMILES IDX 13 1 12 2 11 3 10 4 9 5 8 6 6 7 7 8 5 9 1 10 2 11 3 12 76 13
REMARK SMILES IDX 4 14 74 15 75 16 14 17 15 18 16 19 17 20 18 21 19 22 20 23
REMARK SMILES IDX 21 24 73 25 22 26 72 27 23 28 24 29 25 30 66 31 26 32 71 33
REMARK SMILES IDX 65 34 67 35 27 36 70 37 64 38 63 39 28 41 54 42 37 43 53 44
REMARK SMILES IDX 38 45 41 46 52 47 68 48 39 49 40 50 51 52 69 53 42 54 29 55
REMARK SMILES IDX 30 56 35 57 31 58 32 59 34 60 36 61 33 62 55 63 56 64 61 65
REMARK SMILES IDX 57 66 58 67 60 68 62 69 59 70 43 71 44 72 49 73 45 74 46 75
REMARK SMILES IDX 48 76 50 77 47 78
REMARK H PARENT 67 40 41 51
REMARK Flexibility Score: inf
ROOT
ATOM      1  C   UNL A   1      33.069  35.448  30.233  1.00  0.00     0.188 C 
ENDROOT
BRANCH   1   2
ATOM      2  C   UNL A   1      33.076  36.834  30.912  1.00  0.00     0.188 C 
BRANCH   2   3
ATOM      3  O   UNL A   1      32.756  36.874  32.281  1.00  0.00    -0.376 OA
BRANCH   3   4
ATOM      4  C   UNL A   1      33.776  36.837  33.266  1.00  0.00     0.202 C 
BRANCH   4   5
ATOM      5  C   UNL A   1      34.674  35.627  33.594  1.00  0.00     0.261 C 
BRANCH   5   6
ATOM      6  O   UNL A   1      35.867  35.468  32.824  1.00  0.00    -0.460 OA
BRANCH   6   7
ATOM      7  C   UNL A   1      36.202  34.189  32.501  1.00  0.00     0.339 C 
ATOM      8  O   UNL A   1      35.528  33.196  32.658  1.00  0.00    -0.246 OA
BRANCH   7   9
ATOM      9  C   UNL A   1      37.521  34.204  31.827  1.00  0.00     0.078 A 
ATOM     10  C   UNL A   1      41.318  34.383  29.793  1.00  0.00     0.044 C 
ATOM     11  C   UNL A   1      39.993  34.286  30.493  1.00  0.00    -0.050 A 
ATOM     12  C   UNL A   1      38.819  33.999  29.786  1.00  0.00     0.004 A 
ATOM     13  C   UNL A   1      39.924  34.487  31.878  1.00  0.00     0.024 A 
ATOM     14  C   UNL A   1      37.588  33.958  30.448  1.00  0.00     0.017 A 
ATOM     15  C   UNL A   1      38.696  34.447  32.547  1.00  0.00     0.055 A 
ATOM     16  Cl  UNL A   1      38.730  34.637  34.264  1.00  0.00    -0.083 Cl
ENDBRANCH   7   9
ENDBRANCH   6   7
ENDBRANCH   5   6
ENDBRANCH   4   5
ENDBRANCH   3   4
ENDBRANCH   2   3
ENDBRANCH   1   2
BRANCH   1  17
ATOM     17  O   UNL A   1      32.636  35.304  28.894  1.00  0.00    -0.376 OA
BRANCH  17  18
ATOM     18  C   UNL A   1      33.126  34.228  28.108  1.00  0.00     0.202 C 
BRANCH  18  19
ATOM     19  C   UNL A   1      34.471  33.538  28.396  1.00  0.00     0.261 C 
BRANCH  19  20
ATOM     20  O   UNL A   1      34.409  32.236  28.993  1.00  0.00    -0.460 OA
BRANCH  20  21
ATOM     21  C   UNL A   1      34.519  31.195  28.132  1.00  0.00     0.338 C 
ATOM     22  O   UNL A   1      33.820  30.953  27.163  1.00  0.00    -0.246 OA
BRANCH  21  23
ATOM     23  C   UNL A   1      35.751  30.443  28.432  1.00  0.00     0.060 A 
ATOM     24  C   UNL A   1      35.887  29.857  29.699  1.00  0.00     0.016 A 
ATOM     25  C   UNL A   1      36.786  30.366  27.501  1.00  0.00     0.016 A 
ATOM     26  C   UNL A   1      37.069  29.203  30.044  1.00  0.00     0.010 A 
ATOM     27  C   UNL A   1      37.980  29.732  27.858  1.00  0.00     0.010 A 
ATOM     28  C   UNL A   1      38.136  29.171  29.139  1.00  0.00    -0.014 A 
BRANCH  28  29
ATOM     29  C   UNL A   1      39.469  28.702  29.589  1.00  0.00     0.031 A 
ATOM     30  C   UNL A   1      40.181  29.477  30.662  1.00  0.00     0.074 A 
ATOM     31  C   UNL A   1      40.031  27.598  29.066  1.00  0.00     0.049 A 
ATOM     32  N   UNL A   1      41.375  29.297  31.165  1.00  0.00    -0.248 NA
ATOM     33  C   UNL A   1      39.446  30.610  31.248  1.00  0.00     0.031 C 
ATOM     34  C   UNL A   1      39.424  26.733  28.058  1.00  0.00     0.029 A 
ATOM     35  N   UNL A   1      41.256  27.027  29.310  1.00  0.00    -0.354 N 
ATOM     36  C   UNL A   1      41.538  30.294  32.118  1.00  0.00     0.074 A 
ATOM     37  C   UNL A   1      40.332  31.094  32.105  1.00  0.00     0.031 C 
ATOM     38  C   UNL A   1      40.289  25.749  27.753  1.00  0.00     0.029 A 
ATOM     39  C   UNL A   1      41.520  25.936  28.519  1.00  0.00     0.049 A 
ATOM     40  H   UNL A   1      41.884  27.366  29.987  1.00  0.00     0.167 HD
ATOM     41  C   UNL A   1      42.593  30.519  32.937  1.00  0.00     0.037 A 
ATOM     42  C   UNL A   1      42.640  25.194  28.407  1.00  0.00     0.037 A 
ATOM     43  C   UNL A   1      43.794  29.727  32.946  1.00  0.00     0.049 A 
ATOM     44  C   UNL A   1      43.835  25.520  29.266  1.00  0.00     0.074 A 
ATOM     45  C   UNL A   1      44.914  29.869  33.747  1.00  0.00     0.029 A 
ATOM     46  N   UNL A   1      44.038  28.651  32.107  1.00  0.00    -0.354 N 
ATOM     47  N   UNL A   1      43.970  26.448  30.182  1.00  0.00    -0.248 NA
ATOM     48  C   UNL A   1      45.034  24.691  29.076  1.00  0.00     0.031 C 
ATOM     49  C   UNL A   1      45.856  28.912  33.356  1.00  0.00     0.029 A 
ATOM     50  C   UNL A   1      45.300  28.136  32.352  1.00  0.00     0.049 A 
ATOM     51  H   UNL A   1      43.406  28.302  31.436  1.00  0.00     0.167 HD
ATOM     52  C   UNL A   1      45.253  26.292  30.698  1.00  0.00     0.074 A 
ATOM     53  C   UNL A   1      45.850  25.173  30.003  1.00  0.00     0.031 C 
ATOM     54  C   UNL A   1      45.878  27.011  31.662  1.00  0.00     0.037 A 
BRANCH  41  55
ATOM     55  C   UNL A   1      42.506  31.687  33.875  1.00  0.00     0.057 A 
ATOM     56  C   UNL A   1      42.064  31.544  35.196  1.00  0.00     0.134 A 
ATOM     57  C   UNL A   1      42.907  32.963  33.462  1.00  0.00     0.134 A 
ATOM     58  F   UNL A   1      41.651  30.350  35.650  1.00  0.00    -0.206 F 
ATOM     59  C   UNL A   1      42.007  32.633  36.068  1.00  0.00     0.040 A 
ATOM     60  C   UNL A   1      42.882  34.053  34.333  1.00  0.00     0.040 A 
ATOM     61  F   UNL A   1      43.345  33.169  32.211  1.00  0.00    -0.206 F 
ATOM     62  C   UNL A   1      42.425  33.890  35.640  1.00  0.00     0.006 A 
ENDBRANCH  41  55
BRANCH  42  63
ATOM     63  C   UNL A   1      42.704  24.079  27.427  1.00  0.00     0.057 A 
ATOM     64  C   UNL A   1      43.089  24.299  26.099  1.00  0.00     0.134 A 
ATOM     65  C   UNL A   1      42.336  22.775  27.783  1.00  0.00     0.134 A 
ATOM     66  F   UNL A   1      43.426  25.531  25.690  1.00  0.00    -0.206 F 
ATOM     67  C   UNL A   1      43.082  23.270  25.155  1.00  0.00     0.040 A 
ATOM     68  C   UNL A   1      42.352  21.731  26.857  1.00  0.00     0.040 A 
ATOM     69  F   UNL A   1      41.953  22.497  29.038  1.00  0.00    -0.206 F 
ATOM     70  C   UNL A   1      42.716  21.981  25.535  1.00  0.00     0.006 A 
ENDBRANCH  42  63
BRANCH  54  71
ATOM     71  C   UNL A   1      47.264  26.584  32.058  1.00  0.00     0.057 A 
ATOM     72  C   UNL A   1      47.490  25.603  33.032  1.00  0.00     0.134 A 
ATOM     73  C   UNL A   1      48.386  27.133  31.424  1.00  0.00     0.134 A 
ATOM     74  F   UNL A   1      46.460  25.045  33.687  1.00  0.00    -0.206 F 
ATOM     75  C   UNL A   1      48.782  25.202  33.378  1.00  0.00     0.040 A 
ATOM     76  C   UNL A   1      49.681  26.718  31.739  1.00  0.00     0.040 A 
ATOM     77  F   UNL A   1      48.242  28.068  30.473  1.00  0.00    -0.206 F 
ATOM     78  C   UNL A   1      49.882  25.755  32.724  1.00  0.00     0.006 A 
ENDBRANCH  54  71
ENDBRANCH  28  29
ENDBRANCH  21  23
ENDBRANCH  20  21
ENDBRANCH  19  20
ENDBRANCH  18  19
ENDBRANCH  17  18
ENDBRANCH   1  17
TORSDOF 17
ENDMDL
MODEL 3
REMARK VINA RESULT:      -9.7      4.427     10.170
REMARK SMILES Cc1ccc(C(=O)OCCOCCOCCOC(=O)c2ccc(-c3c4nc(c(-c5c(F)cccc5F)c5ccc([nH]5)c(-c5c(F)cccc5F)c5nc(c(-c6c(F)cccc6F)c6ccc3[nH]6)C=C5)C=C4)cc2)c(Cl)c1
REMARK SMILES IDX 13 1 12 2 11 3 10 4 9 5 8 6 6 7 7 8 5 9 1 10 2 11 3 12 76 13
REMARK SMILES IDX 4 14 74 15 75 16 14 17 15 18 16 19 17 20 18 21 19 22 20 23
REMARK SMILES IDX 21 24 73 25 22 26 72 27 23 28 24 29 25 30 66 31 26 32 71 33
REMARK SMILES IDX 65 34 67 35 27 36 70 37 64 38 63 39 28 41 54 42 37 43 53 44
REMARK SMILES IDX 38 45 41 46 52 47 68 48 39 49 40 50 51 52 69 53 42 54 29 55
REMARK SMILES IDX 30 56 35 57 31 58 32 59 34 60 36 61 33 62 55 63 56 64 61 65
REMARK SMILES IDX 57 66 58 67 60 68 62 69 59 70 43 71 44 72 49 73 45 74 46 75
REMARK SMILES IDX 48 76 50 77 47 78
REMARK H PARENT 67 40 41 51
REMARK Flexibility Score: inf
ROOT
ATOM      1  C   UNL A   1      33.143  35.300  29.598  1.00  0.00     0.188 C 
ENDROOT
BRANCH   1   2
ATOM      2  C   UNL A   1      33.319  36.816  29.828  1.00  0.00     0.188 C 
BRANCH   2   3
ATOM      3  O   UNL A   1      32.783  37.347  31.015  1.00  0.00    -0.376 OA
BRANCH   3   4
ATOM      4  C   UNL A   1      33.624  37.675  32.109  1.00  0.00     0.202 C 
BRANCH   4   5
ATOM      5  C   UNL A   1      33.956  36.758  33.303  1.00  0.00     0.261 C 
BRANCH   5   6
ATOM      6  O   UNL A   1      34.949  35.751  33.100  1.00  0.00    -0.460 OA
BRANCH   6   7
ATOM      7  C   UNL A   1      34.545  34.466  33.299  1.00  0.00     0.339 C 
ATOM      8  O   UNL A   1      33.514  33.959  32.919  1.00  0.00    -0.246 OA
BRANCH   7   9
ATOM      9  C   UNL A   1      35.627  33.735  33.997  1.00  0.00     0.078 A 
ATOM     10  C   UNL A   1      38.667  31.541  36.126  1.00  0.00     0.044 C 
ATOM     11  C   UNL A   1      37.629  32.335  35.386  1.00  0.00    -0.050 A 
ATOM     12  C   UNL A   1      36.971  33.411  35.992  1.00  0.00     0.004 A 
ATOM     13  C   UNL A   1      37.308  31.995  34.065  1.00  0.00     0.024 A 
ATOM     14  C   UNL A   1      35.974  34.109  35.303  1.00  0.00     0.017 A 
ATOM     15  C   UNL A   1      36.311  32.688  33.369  1.00  0.00     0.055 A 
ATOM     16  Cl  UNL A   1      36.043  32.236  31.723  1.00  0.00    -0.083 Cl
ENDBRANCH   7   9
ENDBRANCH   6   7
ENDBRANCH   5   6
ENDBRANCH   4   5
ENDBRANCH   3   4
ENDBRANCH   2   3
ENDBRANCH   1   2
BRANCH   1  17
ATOM     17  O   UNL A   1      32.531  34.815  28.417  1.00  0.00    -0.376 OA
BRANCH  17  18
ATOM     18  C   UNL A   1      32.953  33.578  27.864  1.00  0.00     0.202 C 
BRANCH  18  19
ATOM     19  C   UNL A   1      34.318  32.946  28.189  1.00  0.00     0.261 C 
BRANCH  19  20
ATOM     20  O   UNL A   1      34.295  31.637  28.771  1.00  0.00    -0.460 OA
BRANCH  20  21
ATOM     21  C   UNL A   1      34.912  30.669  28.048  1.00  0.00     0.338 C 
ATOM     22  O   UNL A   1      34.585  30.231  26.960  1.00  0.00    -0.246 OA
BRANCH  21  23
ATOM     23  C   UNL A   1      36.184  30.311  28.702  1.00  0.00     0.060 A 
ATOM     24  C   UNL A   1      37.372  30.875  28.215  1.00  0.00     0.016 A 
ATOM     25  C   UNL A   1      36.216  29.385  29.745  1.00  0.00     0.016 A 
ATOM     26  C   UNL A   1      38.599  30.503  28.760  1.00  0.00     0.010 A 
ATOM     27  C   UNL A   1      37.449  28.993  30.273  1.00  0.00     0.010 A 
ATOM     28  C   UNL A   1      38.647  29.530  29.765  1.00  0.00    -0.014 A 
BRANCH  28  29
ATOM     29  C   UNL A   1      39.952  28.952  30.169  1.00  0.00     0.031 A 
ATOM     30  C   UNL A   1      40.646  29.516  31.378  1.00  0.00     0.074 A 
ATOM     31  C   UNL A   1      40.504  27.935  29.485  1.00  0.00     0.049 A 
ATOM     32  N   UNL A   1      41.818  29.218  31.877  1.00  0.00    -0.248 NA
ATOM     33  C   UNL A   1      39.920  30.556  32.124  1.00  0.00     0.031 C 
ATOM     34  C   UNL A   1      39.910  27.270  28.328  1.00  0.00     0.029 A 
ATOM     35  N   UNL A   1      41.705  27.294  29.665  1.00  0.00    -0.354 N 
ATOM     36  C   UNL A   1      41.973  30.037  32.989  1.00  0.00     0.074 A 
ATOM     37  C   UNL A   1      40.789  30.864  33.075  1.00  0.00     0.031 C 
ATOM     38  C   UNL A   1      40.760  26.324  27.888  1.00  0.00     0.029 A 
ATOM     39  C   UNL A   1      41.968  26.344  28.710  1.00  0.00     0.049 A 
ATOM     40  H   UNL A   1      42.318  27.497  30.408  1.00  0.00     0.167 HD
ATOM     41  C   UNL A   1      43.005  30.090  33.864  1.00  0.00     0.037 A 
ATOM     42  C   UNL A   1      43.072  25.597  28.508  1.00  0.00     0.037 A 
ATOM     43  C   UNL A   1      44.185  29.271  33.775  1.00  0.00     0.049 A 
ATOM     44  C   UNL A   1      44.246  25.738  29.444  1.00  0.00     0.074 A 
ATOM     45  C   UNL A   1      45.280  29.243  34.621  1.00  0.00     0.029 A 
ATOM     46  N   UNL A   1      44.430  28.343  32.775  1.00  0.00    -0.354 N 
ATOM     47  N   UNL A   1      44.373  26.496  30.507  1.00  0.00    -0.248 NA
ATOM     48  C   UNL A   1      45.429  24.917  29.153  1.00  0.00     0.031 C 
ATOM     49  C   UNL A   1      46.211  28.338  34.103  1.00  0.00     0.029 A 
ATOM     50  C   UNL A   1      45.670  27.757  32.967  1.00  0.00     0.049 A 
ATOM     51  H   UNL A   1      43.813  28.131  32.037  1.00  0.00     0.167 HD
ATOM     52  C   UNL A   1      45.633  26.218  31.026  1.00  0.00     0.074 A 
ATOM     53  C   UNL A   1      46.225  25.213  30.171  1.00  0.00     0.031 C 
ATOM     54  C   UNL A   1      46.243  26.747  32.116  1.00  0.00     0.037 A 
BRANCH  41  55
ATOM     55  C   UNL A   1      42.915  31.087  34.982  1.00  0.00     0.057 A 
ATOM     56  C   UNL A   1      43.330  32.415  34.824  1.00  0.00     0.134 A 
ATOM     57  C   UNL A   1      42.372  30.722  36.220  1.00  0.00     0.134 A 
ATOM     58  F   UNL A   1      43.873  32.826  33.667  1.00  0.00    -0.206 F 
ATOM     59  C   UNL A   1      43.223  33.341  35.864  1.00  0.00     0.040 A 
ATOM     60  C   UNL A   1      42.234  31.645  37.258  1.00  0.00     0.040 A 
ATOM     61  F   UNL A   1      41.952  29.466  36.438  1.00  0.00    -0.206 F 
ATOM     62  C   UNL A   1      42.666  32.959  37.082  1.00  0.00     0.006 A 
ENDBRANCH  41  55
BRANCH  42  63
ATOM     63  C   UNL A   1      43.143  24.660  27.357  1.00  0.00     0.057 A 
ATOM     64  C   UNL A   1      43.583  25.086  26.099  1.00  0.00     0.134 A 
ATOM     65  C   UNL A   1      42.725  23.328  27.477  1.00  0.00     0.134 A 
ATOM     66  F   UNL A   1      43.970  26.356  25.914  1.00  0.00    -0.206 F 
ATOM     67  C   UNL A   1      43.582  24.230  24.995  1.00  0.00     0.040 A 
ATOM     68  C   UNL A   1      42.746  22.454  26.389  1.00  0.00     0.040 A 
ATOM     69  F   UNL A   1      42.287  22.858  28.654  1.00  0.00    -0.206 F 
ATOM     70  C   UNL A   1      43.167  22.908  25.140  1.00  0.00     0.006 A 
ENDBRANCH  42  63
BRANCH  54  71
ATOM     71  C   UNL A   1      47.603  26.217  32.475  1.00  0.00     0.057 A 
ATOM     72  C   UNL A   1      47.773  25.111  33.316  1.00  0.00     0.134 A 
ATOM     73  C   UNL A   1      48.758  26.799  31.935  1.00  0.00     0.134 A 
ATOM     74  F   UNL A   1      46.710  24.513  33.876  1.00  0.00    -0.206 F 
ATOM     75  C   UNL A   1      49.042  24.617  33.628  1.00  0.00     0.040 A 
ATOM     76  C   UNL A   1      50.030  26.297  32.214  1.00  0.00     0.040 A 
ATOM     77  F   UNL A   1      48.669  27.855  31.112  1.00  0.00    -0.206 F 
ATOM     78  C   UNL A   1      50.175  25.207  33.069  1.00  0.00     0.006 A 
ENDBRANCH  54  71
ENDBRANCH  28  29
ENDBRANCH  21  23
ENDBRANCH  20  21
ENDBRANCH  19  20
ENDBRANCH  18  19
ENDBRANCH  17  18
ENDBRANCH   1  17
TORSDOF 17
ENDMDL
