MODEL 1
REMARK VINA RESULT:      -9.7      0.000      0.000
REMARK SMILES C[C@@](NC(=O)CCOC1CC[NH2+]CC1)(C(=O)OCCOCCOCCOC(=O)c1ccc(-c2c3nc(c(-c4c(F)cccc4F)c4ccc([nH]4)c(-c4c(F)cccc4F)c4nc(c(-c5c(F)cccc5F)c5ccc2[nH]5)C=C4)C=C3)cc1)C(F)(F)F
REMARK SMILES IDX 20 1 19 2 18 3 17 4 15 5 16 6 2 7 1 8 3 9 4 10 5 12 6 13
REMARK SMILES IDX 7 14 8 15 9 16 10 17 14 18 11 19 13 20 12 21 83 24 84 25
REMARK SMILES IDX 85 26 86 27 21 28 22 29 23 30 24 31 25 32 26 33 27 34 28 35
REMARK SMILES IDX 29 36 30 37 82 38 31 39 81 40 32 41 33 42 34 43 75 44 35 45
REMARK SMILES IDX 80 46 74 47 76 48 36 49 79 50 73 51 72 52 37 54 63 55 46 56
REMARK SMILES IDX 62 57 47 58 50 59 61 60 77 61 48 62 49 63 60 65 78 66 51 67
REMARK SMILES IDX 38 68 39 69 44 70 40 71 41 72 43 73 45 74 42 75 64 76 65 77
REMARK SMILES IDX 70 78 66 79 67 80 69 81 71 82 68 83 52 84 53 85 58 86 54 87
REMARK SMILES IDX 55 88 57 89 59 90 56 91
REMARK H PARENT 3 11 12 22 12 23 76 53 50 64
REMARK Flexibility Score: inf
ROOT
ATOM      1  O   UNL A   1      33.182  31.528  27.542  1.00  0.00    -0.376 OA
ENDROOT
BRANCH   1   2
ATOM      2  C   UNL A   1      33.533  30.169  27.278  1.00  0.00     0.202 C 
BRANCH   2   3
ATOM      3  C   UNL A   1      32.366  29.247  26.900  1.00  0.00     0.261 C 
BRANCH   3   4
ATOM      4  O   UNL A   1      32.551  28.664  25.600  1.00  0.00    -0.461 OA
BRANCH   4   5
ATOM      5  C   UNL A   1      31.664  27.707  25.197  1.00  0.00     0.341 C 
ATOM      6  O   UNL A   1      31.032  26.998  25.967  1.00  0.00    -0.249 OA
BRANCH   5   7
ATOM      7  C   UNL A   1      31.648  27.560  23.672  1.00  0.00     0.231 C 
ATOM      8  C   UNL A   1      32.727  28.369  22.945  1.00  0.00     0.058 C 
BRANCH   7   9
ATOM      9  N   UNL A   1      31.695  26.106  23.300  1.00  0.00    -0.333 N 
ATOM     10  C   UNL A   1      32.660  25.156  23.424  1.00  0.00     0.223 C 
ATOM     11  H   UNL A   1      30.865  25.776  22.886  1.00  0.00     0.164 HD
ATOM     12  O   UNL A   1      32.455  24.055  22.909  1.00  0.00    -0.275 OA
BRANCH  10  13
ATOM     13  C   UNL A   1      33.945  25.434  24.163  1.00  0.00     0.128 C 
BRANCH  13  14
ATOM     14  C   UNL A   1      33.922  24.785  25.540  1.00  0.00     0.170 C 
BRANCH  14  15
ATOM     15  O   UNL A   1      34.743  23.620  25.517  1.00  0.00    -0.377 OA
BRANCH  15  16
ATOM     16  C   UNL A   1      34.367  22.588  26.432  1.00  0.00     0.129 C 
ATOM     17  C   UNL A   1      34.791  21.244  25.855  1.00  0.00     0.093 C 
ATOM     18  C   UNL A   1      32.852  22.662  26.678  1.00  0.00     0.093 C 
ATOM     19  C   UNL A   1      33.886  20.824  24.704  1.00  0.00     0.263 C 
ATOM     20  C   UNL A   1      31.977  21.961  25.634  1.00  0.00     0.263 C 
ATOM     21  N   UNL A   1      32.512  20.680  25.184  1.00  0.00    -0.346 N 
ATOM     22  H   UNL A   1      32.498  20.021  25.963  1.00  0.00     0.346 HD
ATOM     23  H   UNL A   1      31.934  20.339  24.415  1.00  0.00     0.346 HD
ENDBRANCH  15  16
ENDBRANCH  14  15
ENDBRANCH  13  14
ENDBRANCH  10  13
ENDBRANCH   7   9
BRANCH   7  24
ATOM     24  C   UNL A   1      30.305  28.190  23.240  1.00  0.00     0.422 C 
ATOM     25  F   UNL A   1      29.953  29.238  24.020  1.00  0.00    -0.168 F 
ATOM     26  F   UNL A   1      30.409  28.672  21.971  1.00  0.00    -0.168 F 
ATOM     27  F   UNL A   1      29.282  27.311  23.225  1.00  0.00    -0.168 F 
ENDBRANCH   7  24
ENDBRANCH   5   7
ENDBRANCH   4   5
ENDBRANCH   3   4
ENDBRANCH   2   3
ENDBRANCH   1   2
BRANCH   1  28
ATOM     28  C   UNL A   1      34.244  32.388  27.930  1.00  0.00     0.188 C 
BRANCH  28  29
ATOM     29  C   UNL A   1      33.882  33.842  28.231  1.00  0.00     0.188 C 
BRANCH  29  30
ATOM     30  O   UNL A   1      34.634  34.495  29.246  1.00  0.00    -0.376 OA
BRANCH  30  31
ATOM     31  C   UNL A   1      33.879  34.829  30.424  1.00  0.00     0.202 C 
BRANCH  31  32
ATOM     32  C   UNL A   1      34.433  34.282  31.759  1.00  0.00     0.261 C 
BRANCH  32  33
ATOM     33  O   UNL A   1      34.815  32.887  31.712  1.00  0.00    -0.460 OA
BRANCH  33  34
ATOM     34  C   UNL A   1      35.753  32.475  32.603  1.00  0.00     0.338 C 
ATOM     35  O   UNL A   1      35.648  32.492  33.811  1.00  0.00    -0.246 OA
BRANCH  34  36
ATOM     36  C   UNL A   1      36.827  31.742  31.865  1.00  0.00     0.060 A 
ATOM     37  C   UNL A   1      37.770  31.031  32.625  1.00  0.00     0.016 A 
ATOM     38  C   UNL A   1      36.871  31.664  30.469  1.00  0.00     0.016 A 
ATOM     39  C   UNL A   1      38.781  30.296  31.996  1.00  0.00     0.010 A 
ATOM     40  C   UNL A   1      37.884  30.928  29.839  1.00  0.00     0.010 A 
ATOM     41  C   UNL A   1      38.870  30.271  30.597  1.00  0.00    -0.014 A 
BRANCH  41  42
ATOM     42  C   UNL A   1      40.098  29.751  29.934  1.00  0.00     0.031 A 
ATOM     43  C   UNL A   1      41.265  30.690  29.764  1.00  0.00     0.074 A 
ATOM     44  C   UNL A   1      40.213  28.479  29.510  1.00  0.00     0.049 A 
ATOM     45  N   UNL A   1      42.416  30.493  29.171  1.00  0.00    -0.248 NA
ATOM     46  C   UNL A   1      41.110  32.032  30.347  1.00  0.00     0.031 C 
ATOM     47  C   UNL A   1      39.200  27.437  29.652  1.00  0.00     0.029 A 
ATOM     48  N   UNL A   1      41.253  27.852  28.861  1.00  0.00    -0.354 N 
ATOM     49  C   UNL A   1      43.117  31.686  29.305  1.00  0.00     0.074 A 
ATOM     50  C   UNL A   1      42.252  32.608  30.008  1.00  0.00     0.031 C 
ATOM     51  C   UNL A   1      39.664  26.301  29.097  1.00  0.00     0.029 A 
ATOM     52  C   UNL A   1      40.992  26.544  28.531  1.00  0.00     0.049 A 
ATOM     53  H   UNL A   1      42.105  28.299  28.653  1.00  0.00     0.167 HD
ATOM     54  C   UNL A   1      44.370  31.990  28.892  1.00  0.00     0.037 A 
ATOM     55  C   UNL A   1      41.728  25.654  27.833  1.00  0.00     0.037 A 
ATOM     56  C   UNL A   1      45.245  31.087  28.192  1.00  0.00     0.049 A 
ATOM     57  C   UNL A   1      43.082  26.047  27.294  1.00  0.00     0.074 A 
ATOM     58  C   UNL A   1      46.533  31.316  27.743  1.00  0.00     0.029 A 
ATOM     59  N   UNL A   1      44.920  29.790  27.835  1.00  0.00    -0.354 N 
ATOM     60  N   UNL A   1      43.739  27.172  27.435  1.00  0.00    -0.248 NA
ATOM     61  C   UNL A   1      43.796  25.040  26.490  1.00  0.00     0.031 C 
ATOM     62  C   UNL A   1      46.972  30.171  27.070  1.00  0.00     0.029 A 
ATOM     63  C   UNL A   1      45.973  29.214  27.145  1.00  0.00     0.049 A 
ATOM     64  H   UNL A   1      44.067  29.343  28.039  1.00  0.00     0.167 HD
ATOM     65  C   UNL A   1      44.948  26.998  26.769  1.00  0.00     0.074 A 
ATOM     66  C   UNL A   1      44.941  25.655  26.229  1.00  0.00     0.031 C 
ATOM     67  C   UNL A   1      45.972  27.873  26.621  1.00  0.00     0.037 A 
BRANCH  54  68
ATOM     68  C   UNL A   1      44.861  33.379  29.166  1.00  0.00     0.057 A 
ATOM     69  C   UNL A   1      44.556  34.451  28.317  1.00  0.00     0.134 A 
ATOM     70  C   UNL A   1      45.627  33.650  30.306  1.00  0.00     0.134 A 
ATOM     71  F   UNL A   1      43.842  34.252  27.200  1.00  0.00    -0.206 F 
ATOM     72  C   UNL A   1      45.018  35.741  28.582  1.00  0.00     0.040 A 
ATOM     73  C   UNL A   1      46.072  34.941  30.594  1.00  0.00     0.040 A 
ATOM     74  F   UNL A   1      45.950  32.667  31.160  1.00  0.00    -0.206 F 
ATOM     75  C   UNL A   1      45.772  35.989  29.727  1.00  0.00     0.006 A 
ENDBRANCH  54  68
BRANCH  55  76
ATOM     76  C   UNL A   1      41.197  24.291  27.565  1.00  0.00     0.057 A 
ATOM     77  C   UNL A   1      40.183  24.079  26.623  1.00  0.00     0.134 A 
ATOM     78  C   UNL A   1      41.647  23.180  28.288  1.00  0.00     0.134 A 
ATOM     79  F   UNL A   1      39.684  25.110  25.924  1.00  0.00    -0.206 F 
ATOM     80  C   UNL A   1      39.624  22.816  26.422  1.00  0.00     0.040 A 
ATOM     81  C   UNL A   1      41.115  21.907  28.079  1.00  0.00     0.040 A 
ATOM     82  F   UNL A   1      42.607  23.319  29.213  1.00  0.00    -0.206 F 
ATOM     83  C   UNL A   1      40.093  21.724  27.149  1.00  0.00     0.006 A 
ENDBRANCH  55  76
BRANCH  67  84
ATOM     84  C   UNL A   1      47.195  27.406  25.882  1.00  0.00     0.057 A 
ATOM     85  C   UNL A   1      48.214  26.685  26.515  1.00  0.00     0.134 A 
ATOM     86  C   UNL A   1      47.322  27.628  24.504  1.00  0.00     0.134 A 
ATOM     87  F   UNL A   1      48.160  26.446  27.834  1.00  0.00    -0.206 F 
ATOM     88  C   UNL A   1      49.325  26.217  25.809  1.00  0.00     0.040 A 
ATOM     89  C   UNL A   1      48.415  27.145  23.782  1.00  0.00     0.040 A 
ATOM     90  F   UNL A   1      46.375  28.302  23.832  1.00  0.00    -0.206 F 
ATOM     91  C   UNL A   1      49.423  26.440  24.436  1.00  0.00     0.006 A 
ENDBRANCH  67  84
ENDBRANCH  41  42
ENDBRANCH  34  36
ENDBRANCH  33  34
ENDBRANCH  32  33
ENDBRANCH  31  32
ENDBRANCH  30  31
ENDBRANCH  29  30
ENDBRANCH  28  29
ENDBRANCH   1  28
TORSDOF 23
ENDMDL
MODEL 2
REMARK VINA RESULT:      -9.6      2.858      8.002
REMARK SMILES C[C@@](NC(=O)CCOC1CC[NH2+]CC1)(C(=O)OCCOCCOCCOC(=O)c1ccc(-c2c3nc(c(-c4c(F)cccc4F)c4ccc([nH]4)c(-c4c(F)cccc4F)c4nc(c(-c5c(F)cccc5F)c5ccc2[nH]5)C=C4)C=C3)cc1)C(F)(F)F
REMARK SMILES IDX 20 1 19 2 18 3 17 4 15 5 16 6 2 7 1 8 3 9 4 10 5 12 6 13
REMARK SMILES IDX 7 14 8 15 9 16 10 17 14 18 11 19 13 20 12 21 83 24 84 25
REMARK SMILES IDX 85 26 86 27 21 28 22 29 23 30 24 31 25 32 26 33 27 34 28 35
REMARK SMILES IDX 29 36 30 37 82 38 31 39 81 40 32 41 33 42 34 43 75 44 35 45
REMARK SMILES IDX 80 46 74 47 76 48 36 49 79 50 73 51 72 52 37 54 63 55 46 56
REMARK SMILES IDX 62 57 47 58 50 59 61 60 77 61 48 62 49 63 60 65 78 66 51 67
REMARK SMILES IDX 38 68 39 69 44 70 40 71 41 72 43 73 45 74 42 75 64 76 65 77
REMARK SMILES IDX 70 78 66 79 67 80 69 81 71 82 68 83 52 84 53 85 58 86 54 87
REMARK SMILES IDX 55 88 57 89 59 90 56 91
REMARK H PARENT 3 11 12 22 12 23 76 53 50 64
REMARK Flexibility Score: inf
ROOT
ATOM      1  O   UNL A   1      36.709  23.688  24.467  1.00  0.00    -0.376 OA
ENDROOT
BRANCH   1   2
ATOM      2  C   UNL A   1      35.499  24.242  24.986  1.00  0.00     0.202 C 
BRANCH   2   3
ATOM      3  C   UNL A   1      34.219  23.854  24.234  1.00  0.00     0.261 C 
BRANCH   3   4
ATOM      4  O   UNL A   1      33.348  24.982  24.055  1.00  0.00    -0.461 OA
BRANCH   4   5
ATOM      5  C   UNL A   1      32.555  25.349  25.105  1.00  0.00     0.341 C 
ATOM      6  O   UNL A   1      32.986  25.700  26.194  1.00  0.00    -0.249 OA
BRANCH   5   7
ATOM      7  C   UNL A   1      31.069  25.156  24.784  1.00  0.00     0.231 C 
ATOM      8  C   UNL A   1      30.795  24.403  23.478  1.00  0.00     0.058 C 
BRANCH   7   9
ATOM      9  N   UNL A   1      30.372  24.521  25.952  1.00  0.00    -0.333 N 
ATOM     10  C   UNL A   1      30.603  23.374  26.646  1.00  0.00     0.223 C 
ATOM     11  H   UNL A   1      29.599  25.034  26.280  1.00  0.00     0.164 HD
ATOM     12  O   UNL A   1      29.777  23.040  27.498  1.00  0.00    -0.275 OA
BRANCH  10  13
ATOM     13  C   UNL A   1      31.825  22.530  26.386  1.00  0.00     0.128 C 
BRANCH  13  14
ATOM     14  C   UNL A   1      31.585  21.587  25.215  1.00  0.00     0.170 C 
BRANCH  14  15
ATOM     15  O   UNL A   1      31.778  20.245  25.655  1.00  0.00    -0.377 OA
BRANCH  15  16
ATOM     16  C   UNL A   1      33.006  19.638  25.248  1.00  0.00     0.129 C 
ATOM     17  C   UNL A   1      33.117  19.724  23.731  1.00  0.00     0.093 C 
ATOM     18  C   UNL A   1      33.042  18.186  25.751  1.00  0.00     0.093 C 
ATOM     19  C   UNL A   1      32.176  18.737  23.050  1.00  0.00     0.263 C 
ATOM     20  C   UNL A   1      32.322  17.162  24.867  1.00  0.00     0.263 C 
ATOM     21  N   UNL A   1      32.529  17.373  23.438  1.00  0.00    -0.346 N 
ATOM     22  H   UNL A   1      33.510  17.205  23.216  1.00  0.00     0.346 HD
ATOM     23  H   UNL A   1      31.930  16.725  22.925  1.00  0.00     0.346 HD
ENDBRANCH  15  16
ENDBRANCH  14  15
ENDBRANCH  13  14
ENDBRANCH  10  13
ENDBRANCH   7   9
BRANCH   7  24
ATOM     24  C   UNL A   1      30.539  26.588  24.547  1.00  0.00     0.422 C 
ATOM     25  F   UNL A   1      29.225  26.607  24.229  1.00  0.00    -0.168 F 
ATOM     26  F   UNL A   1      30.668  27.321  25.688  1.00  0.00    -0.168 F 
ATOM     27  F   UNL A   1      31.215  27.259  23.593  1.00  0.00    -0.168 F 
ENDBRANCH   7  24
ENDBRANCH   5   7
ENDBRANCH   4   5
ENDBRANCH   3   4
ENDBRANCH   2   3
ENDBRANCH   1   2
BRANCH   1  28
ATOM     28  C   UNL A   1      36.630  22.363  23.961  1.00  0.00     0.188 C 
BRANCH  28  29
ATOM     29  C   UNL A   1      36.880  21.228  24.952  1.00  0.00     0.188 C 
BRANCH  29  30
ATOM     30  O   UNL A   1      38.226  21.019  25.363  1.00  0.00    -0.376 OA
BRANCH  30  31
ATOM     31  C   UNL A   1      38.708  19.678  25.163  1.00  0.00     0.202 C 
BRANCH  31  32
ATOM     32  C   UNL A   1      39.819  19.209  26.128  1.00  0.00     0.261 C 
BRANCH  32  33
ATOM     33  O   UNL A   1      41.098  18.984  25.491  1.00  0.00    -0.460 OA
BRANCH  33  34
ATOM     34  C   UNL A   1      42.208  19.243  26.229  1.00  0.00     0.338 C 
ATOM     35  O   UNL A   1      43.146  18.493  26.398  1.00  0.00    -0.246 OA
BRANCH  34  36
ATOM     36  C   UNL A   1      42.225  20.698  26.576  1.00  0.00     0.060 A 
ATOM     37  C   UNL A   1      42.089  21.619  25.526  1.00  0.00     0.016 A 
ATOM     38  C   UNL A   1      42.278  21.162  27.895  1.00  0.00     0.016 A 
ATOM     39  C   UNL A   1      42.063  22.995  25.787  1.00  0.00     0.010 A 
ATOM     40  C   UNL A   1      42.253  22.539  28.155  1.00  0.00     0.010 A 
ATOM     41  C   UNL A   1      42.185  23.467  27.101  1.00  0.00    -0.014 A 
BRANCH  41  42
ATOM     42  C   UNL A   1      42.459  24.908  27.356  1.00  0.00     0.031 A 
ATOM     43  C   UNL A   1      43.785  25.469  26.909  1.00  0.00     0.074 A 
ATOM     44  C   UNL A   1      41.565  25.726  27.941  1.00  0.00     0.049 A 
ATOM     45  N   UNL A   1      44.279  26.671  27.067  1.00  0.00    -0.248 NA
ATOM     46  C   UNL A   1      44.668  24.545  26.180  1.00  0.00     0.031 C 
ATOM     47  C   UNL A   1      40.222  25.352  28.377  1.00  0.00     0.029 A 
ATOM     48  N   UNL A   1      41.667  27.059  28.272  1.00  0.00    -0.354 N 
ATOM     49  C   UNL A   1      45.532  26.645  26.465  1.00  0.00     0.074 A 
ATOM     50  C   UNL A   1      45.733  25.303  25.964  1.00  0.00     0.031 C 
ATOM     51  C   UNL A   1      39.629  26.428  28.929  1.00  0.00     0.029 A 
ATOM     52  C   UNL A   1      40.559  27.557  28.915  1.00  0.00     0.049 A 
ATOM     53  H   UNL A   1      42.460  27.605  28.067  1.00  0.00     0.167 HD
ATOM     54  C   UNL A   1      46.433  27.646  26.328  1.00  0.00     0.037 A 
ATOM     55  C   UNL A   1      40.333  28.775  29.451  1.00  0.00     0.037 A 
ATOM     56  C   UNL A   1      46.252  28.986  26.817  1.00  0.00     0.049 A 
ATOM     57  C   UNL A   1      41.393  29.846  29.375  1.00  0.00     0.074 A 
ATOM     58  C   UNL A   1      47.116  30.062  26.715  1.00  0.00     0.029 A 
ATOM     59  N   UNL A   1      45.137  29.432  27.506  1.00  0.00    -0.354 N 
ATOM     60  N   UNL A   1      42.567  29.814  28.795  1.00  0.00    -0.248 NA
ATOM     61  C   UNL A   1      41.094  31.127  30.039  1.00  0.00     0.031 C 
ATOM     62  C   UNL A   1      46.544  31.148  27.385  1.00  0.00     0.029 A 
ATOM     63  C   UNL A   1      45.303  30.760  27.860  1.00  0.00     0.049 A 
ATOM     64  H   UNL A   1      44.345  28.886  27.715  1.00  0.00     0.167 HD
ATOM     65  C   UNL A   1      43.130  31.071  28.995  1.00  0.00     0.074 A 
ATOM     66  C   UNL A   1      42.166  31.849  29.744  1.00  0.00     0.031 C 
ATOM     67  C   UNL A   1      44.336  31.538  28.592  1.00  0.00     0.037 A 
BRANCH  54  68
ATOM     68  C   UNL A   1      47.721  27.314  25.637  1.00  0.00     0.057 A 
ATOM     69  C   UNL A   1      47.870  27.442  24.249  1.00  0.00     0.134 A 
ATOM     70  C   UNL A   1      48.832  26.884  26.372  1.00  0.00     0.134 A 
ATOM     71  F   UNL A   1      46.836  27.831  23.488  1.00  0.00    -0.206 F 
ATOM     72  C   UNL A   1      49.073  27.131  23.616  1.00  0.00     0.040 A 
ATOM     73  C   UNL A   1      50.048  26.595  25.753  1.00  0.00     0.040 A 
ATOM     74  F   UNL A   1      48.754  26.744  27.705  1.00  0.00    -0.206 F 
ATOM     75  C   UNL A   1      50.169  26.713  24.370  1.00  0.00     0.006 A 
ENDBRANCH  54  68
BRANCH  55  76
ATOM     76  C   UNL A   1      39.049  29.058  30.146  1.00  0.00     0.057 A 
ATOM     77  C   UNL A   1      37.982  29.673  29.480  1.00  0.00     0.134 A 
ATOM     78  C   UNL A   1      38.884  28.779  31.508  1.00  0.00     0.134 A 
ATOM     79  F   UNL A   1      38.094  29.999  28.184  1.00  0.00    -0.206 F 
ATOM     80  C   UNL A   1      36.804  30.015  30.146  1.00  0.00     0.040 A 
ATOM     81  C   UNL A   1      37.702  29.092  32.180  1.00  0.00     0.040 A 
ATOM     82  F   UNL A   1      39.873  28.203  32.206  1.00  0.00    -0.206 F 
ATOM     83  C   UNL A   1      36.660  29.721  31.500  1.00  0.00     0.006 A 
ENDBRANCH  55  76
BRANCH  67  84
ATOM     84  C   UNL A   1      44.679  32.967  28.908  1.00  0.00     0.057 A 
ATOM     85  C   UNL A   1      44.343  34.019  28.048  1.00  0.00     0.134 A 
ATOM     86  C   UNL A   1      45.299  33.298  30.121  1.00  0.00     0.134 A 
ATOM     87  F   UNL A   1      43.756  33.770  26.867  1.00  0.00    -0.206 F 
ATOM     88  C   UNL A   1      44.626  35.348  28.373  1.00  0.00     0.040 A 
ATOM     89  C   UNL A   1      45.566  34.624  30.468  1.00  0.00     0.040 A 
ATOM     90  F   UNL A   1      45.638  32.340  30.997  1.00  0.00    -0.206 F 
ATOM     91  C   UNL A   1      45.232  35.653  29.591  1.00  0.00     0.006 A 
ENDBRANCH  67  84
ENDBRANCH  41  42
ENDBRANCH  34  36
ENDBRANCH  33  34
ENDBRANCH  32  33
ENDBRANCH  31  32
ENDBRANCH  30  31
ENDBRANCH  29  30
ENDBRANCH  28  29
ENDBRANCH   1  28
TORSDOF 23
ENDMDL
MODEL 3
REMARK VINA RESULT:      -9.4      4.565      6.821
REMARK SMILES C[C@@](NC(=O)CCOC1CC[NH2+]CC1)(C(=O)OCCOCCOCCOC(=O)c1ccc(-c2c3nc(c(-c4c(F)cccc4F)c4ccc([nH]4)c(-c4c(F)cccc4F)c4nc(c(-c5c(F)cccc5F)c5ccc2[nH]5)C=C4)C=C3)cc1)C(F)(F)F
REMARK SMILES IDX 20 1 19 2 18 3 17 4 15 5 16 6 2 7 1 8 3 9 4 10 5 12 6 13
REMARK SMILES IDX 7 14 8 15 9 16 10 17 14 18 11 19 13 20 12 21 83 24 84 25
REMARK SMILES IDX 85 26 86 27 21 28 22 29 23 30 24 31 25 32 26 33 27 34 28 35
REMARK SMILES IDX 29 36 30 37 82 38 31 39 81 40 32 41 33 42 34 43 75 44 35 45
REMARK SMILES IDX 80 46 74 47 76 48 36 49 79 50 73 51 72 52 37 54 63 55 46 56
REMARK SMILES IDX 62 57 47 58 50 59 61 60 77 61 48 62 49 63 60 65 78 66 51 67
REMARK SMILES IDX 38 68 39 69 44 70 40 71 41 72 43 73 45 74 42 75 64 76 65 77
REMARK SMILES IDX 70 78 66 79 67 80 69 81 71 82 68 83 52 84 53 85 58 86 54 87
REMARK SMILES IDX 55 88 57 89 59 90 56 91
REMARK H PARENT 3 11 12 22 12 23 76 53 50 64
REMARK Flexibility Score: inf
ROOT
ATOM      1  O   UNL A   1      34.503  30.604  27.978  1.00  0.00    -0.376 OA
ENDROOT
BRANCH   1   2
ATOM      2  C   UNL A   1      33.678  29.969  27.000  1.00  0.00     0.202 C 
BRANCH   2   3
ATOM      3  C   UNL A   1      33.976  28.485  26.748  1.00  0.00     0.261 C 
BRANCH   3   4
ATOM      4  O   UNL A   1      32.819  27.790  26.255  1.00  0.00    -0.461 OA
BRANCH   4   5
ATOM      5  C   UNL A   1      32.825  27.384  24.952  1.00  0.00     0.341 C 
ATOM      6  O   UNL A   1      33.843  27.201  24.300  1.00  0.00    -0.249 OA
BRANCH   5   7
ATOM      7  C   UNL A   1      31.405  27.298  24.381  1.00  0.00     0.231 C 
ATOM      8  C   UNL A   1      31.296  26.518  23.067  1.00  0.00     0.058 C 
BRANCH   7   9
ATOM      9  N   UNL A   1      30.466  26.767  25.426  1.00  0.00    -0.333 N 
ATOM     10  C   UNL A   1      30.222  25.512  25.889  1.00  0.00     0.223 C 
ATOM     11  H   UNL A   1      29.922  27.463  25.860  1.00  0.00     0.164 HD
ATOM     12  O   UNL A   1      29.291  25.361  26.681  1.00  0.00    -0.275 OA
BRANCH  10  13
ATOM     13  C   UNL A   1      31.058  24.336  25.449  1.00  0.00     0.128 C 
BRANCH  13  14
ATOM     14  C   UNL A   1      32.167  24.061  26.454  1.00  0.00     0.170 C 
BRANCH  14  15
ATOM     15  O   UNL A   1      33.411  23.987  25.763  1.00  0.00    -0.377 OA
BRANCH  15  16
ATOM     16  C   UNL A   1      34.511  23.494  26.532  1.00  0.00     0.129 C 
ATOM     17  C   UNL A   1      35.658  23.156  25.588  1.00  0.00     0.093 C 
ATOM     18  C   UNL A   1      34.049  22.273  27.344  1.00  0.00     0.093 C 
ATOM     19  C   UNL A   1      35.376  21.878  24.808  1.00  0.00     0.263 C 
ATOM     20  C   UNL A   1      34.063  20.937  26.595  1.00  0.00     0.263 C 
ATOM     21  N   UNL A   1      35.228  20.758  25.736  1.00  0.00    -0.346 N 
ATOM     22  H   UNL A   1      36.064  20.693  26.317  1.00  0.00     0.346 HD
ATOM     23  H   UNL A   1      35.102  19.903  25.193  1.00  0.00     0.346 HD
ENDBRANCH  15  16
ENDBRANCH  14  15
ENDBRANCH  13  14
ENDBRANCH  10  13
ENDBRANCH   7   9
BRANCH   7  24
ATOM     24  C   UNL A   1      31.048  28.758  24.021  1.00  0.00     0.422 C 
ATOM     25  F   UNL A   1      30.940  29.548  25.114  1.00  0.00    -0.168 F 
ATOM     26  F   UNL A   1      32.036  29.297  23.253  1.00  0.00    -0.168 F 
ATOM     27  F   UNL A   1      29.912  28.870  23.303  1.00  0.00    -0.168 F 
ENDBRANCH   7  24
ENDBRANCH   5   7
ENDBRANCH   4   5
ENDBRANCH   3   4
ENDBRANCH   2   3
ENDBRANCH   1   2
BRANCH   1  28
ATOM     28  C   UNL A   1      34.561  32.023  27.928  1.00  0.00     0.188 C 
BRANCH  28  29
ATOM     29  C   UNL A   1      34.550  32.763  29.264  1.00  0.00     0.188 C 
BRANCH  29  30
ATOM     30  O   UNL A   1      35.146  34.054  29.289  1.00  0.00    -0.376 OA
BRANCH  30  31
ATOM     31  C   UNL A   1      34.274  35.120  28.872  1.00  0.00     0.202 C 
BRANCH  31  32
ATOM     32  C   UNL A   1      32.949  35.253  29.655  1.00  0.00     0.261 C 
BRANCH  32  33
ATOM     33  O   UNL A   1      32.991  36.222  30.728  1.00  0.00    -0.460 OA
BRANCH  33  34
ATOM     34  C   UNL A   1      32.715  35.769  31.978  1.00  0.00     0.338 C 
ATOM     35  O   UNL A   1      31.631  35.788  32.521  1.00  0.00    -0.246 OA
BRANCH  34  36
ATOM     36  C   UNL A   1      33.891  34.995  32.480  1.00  0.00     0.060 A 
ATOM     37  C   UNL A   1      35.144  35.628  32.461  1.00  0.00     0.016 A 
ATOM     38  C   UNL A   1      33.774  33.720  33.045  1.00  0.00     0.016 A 
ATOM     39  C   UNL A   1      36.280  34.970  32.948  1.00  0.00     0.010 A 
ATOM     40  C   UNL A   1      34.912  33.062  33.532  1.00  0.00     0.010 A 
ATOM     41  C   UNL A   1      36.179  33.666  33.452  1.00  0.00    -0.014 A 
BRANCH  41  42
ATOM     42  C   UNL A   1      37.408  32.858  33.688  1.00  0.00     0.031 A 
ATOM     43  C   UNL A   1      38.186  33.102  34.956  1.00  0.00     0.074 A 
ATOM     44  C   UNL A   1      37.829  31.908  32.833  1.00  0.00     0.049 A 
ATOM     45  N   UNL A   1      39.313  32.572  35.359  1.00  0.00    -0.248 NA
ATOM     46  C   UNL A   1      37.609  34.077  35.895  1.00  0.00     0.031 C 
ATOM     47  C   UNL A   1      37.159  31.514  31.597  1.00  0.00     0.029 A 
ATOM     48  N   UNL A   1      38.943  31.101  32.884  1.00  0.00    -0.354 N 
ATOM     49  C   UNL A   1      39.581  33.151  36.594  1.00  0.00     0.074 A 
ATOM     50  C   UNL A   1      38.517  34.094  36.858  1.00  0.00     0.031 C 
ATOM     51  C   UNL A   1      37.881  30.546  31.000  1.00  0.00     0.029 A 
ATOM     52  C   UNL A   1      39.080  30.276  31.794  1.00  0.00     0.049 A 
ATOM     53  H   UNL A   1      39.582  31.113  33.633  1.00  0.00     0.167 HD
ATOM     54  C   UNL A   1      40.612  32.918  37.439  1.00  0.00     0.037 A 
ATOM     55  C   UNL A   1      40.070  29.420  31.464  1.00  0.00     0.037 A 
ATOM     56  C   UNL A   1      41.679  31.984  37.195  1.00  0.00     0.049 A 
ATOM     57  C   UNL A   1      41.261  29.250  32.375  1.00  0.00     0.074 A 
ATOM     58  C   UNL A   1      42.760  31.684  38.005  1.00  0.00     0.029 A 
ATOM     59  N   UNL A   1      41.804  31.208  36.056  1.00  0.00    -0.354 N 
ATOM     60  N   UNL A   1      41.499  29.794  33.542  1.00  0.00    -0.248 NA
ATOM     61  C   UNL A   1      42.328  28.344  31.914  1.00  0.00     0.031 C 
ATOM     62  C   UNL A   1      43.566  30.760  37.334  1.00  0.00     0.029 A 
ATOM     63  C   UNL A   1      42.960  30.449  36.129  1.00  0.00     0.049 A 
ATOM     64  H   UNL A   1      41.167  31.197  35.305  1.00  0.00     0.167 HD
ATOM     65  C   UNL A   1      42.719  29.276  33.967  1.00  0.00     0.074 A 
ATOM     66  C   UNL A   1      43.172  28.367  32.936  1.00  0.00     0.031 C 
ATOM     67  C   UNL A   1      43.402  29.532  35.110  1.00  0.00     0.037 A 
BRANCH  54  68
ATOM     68  C   UNL A   1      40.647  33.715  38.709  1.00  0.00     0.057 A 
ATOM     69  C   UNL A   1      39.927  33.325  39.846  1.00  0.00     0.134 A 
ATOM     70  C   UNL A   1      41.429  34.872  38.800  1.00  0.00     0.134 A 
ATOM     71  F   UNL A   1      39.145  32.237  39.815  1.00  0.00    -0.206 F 
ATOM     72  C   UNL A   1      39.967  34.074  41.022  1.00  0.00     0.040 A 
ATOM     73  C   UNL A   1      41.497  35.614  39.979  1.00  0.00     0.040 A 
ATOM     74  F   UNL A   1      42.144  35.296  37.746  1.00  0.00    -0.206 F 
ATOM     75  C   UNL A   1      40.760  35.218  41.093  1.00  0.00     0.006 A 
ENDBRANCH  54  68
BRANCH  55  76
ATOM     76  C   UNL A   1      40.008  28.662  30.185  1.00  0.00     0.057 A 
ATOM     77  C   UNL A   1      40.603  29.157  29.018  1.00  0.00     0.134 A 
ATOM     78  C   UNL A   1      39.300  27.459  30.087  1.00  0.00     0.134 A 
ATOM     79  F   UNL A   1      41.264  30.324  29.040  1.00  0.00    -0.206 F 
ATOM     80  C   UNL A   1      40.482  28.492  27.797  1.00  0.00     0.040 A 
ATOM     81  C   UNL A   1      39.192  26.770  28.878  1.00  0.00     0.040 A 
ATOM     82  F   UNL A   1      38.697  26.939  31.166  1.00  0.00    -0.206 F 
ATOM     83  C   UNL A   1      39.777  27.292  27.725  1.00  0.00     0.006 A 
ENDBRANCH  55  76
BRANCH  67  84
ATOM     84  C   UNL A   1      44.691  28.795  35.339  1.00  0.00     0.057 A 
ATOM     85  C   UNL A   1      45.928  29.324  34.951  1.00  0.00     0.134 A 
ATOM     86  C   UNL A   1      44.697  27.566  36.014  1.00  0.00     0.134 A 
ATOM     87  F   UNL A   1      45.992  30.491  34.293  1.00  0.00    -0.206 F 
ATOM     88  C   UNL A   1      47.124  28.650  35.211  1.00  0.00     0.040 A 
ATOM     89  C   UNL A   1      45.888  26.895  36.301  1.00  0.00     0.040 A 
ATOM     90  F   UNL A   1      43.548  27.007  36.424  1.00  0.00    -0.206 F 
ATOM     91  C   UNL A   1      47.106  27.435  35.895  1.00  0.00     0.006 A 
ENDBRANCH  67  84
ENDBRANCH  41  42
ENDBRANCH  34  36
ENDBRANCH  33  34
ENDBRANCH  32  33
ENDBRANCH  31  32
ENDBRANCH  30  31
ENDBRANCH  29  30
ENDBRANCH  28  29
ENDBRANCH   1  28
TORSDOF 23
ENDMDL
