MODEL 1
REMARK VINA RESULT:     -10.4      0.000      0.000
REMARK SMILES CC[C@@H](C)[C@H](NC(=O)NCc1ccc(C)cc1)C(=O)OCCOCCOCCOC(=O)c1ccc(-c2c3nc(c(-c4c(F)cccc4F)c4ccc([nH]4)c(-c4c(F)cccc4F)c4nc(c(-c5c(F)cccc5F)c5ccc2[nH]5)C=C4)C=C3)cc1
REMARK SMILES IDX 24 1 23 2 22 3 21 4 20 5 18 6 19 7 5 8 3 9 4 10 2 11 1 12
REMARK SMILES IDX 6 13 7 14 8 16 9 17 10 19 11 20 12 21 17 22 13 23 16 24
REMARK SMILES IDX 14 25 15 26 25 27 26 28 27 29 28 30 29 31 30 32 31 33 32 34
REMARK SMILES IDX 33 35 85 36 34 37 84 38 35 39 36 40 37 41 78 42 38 43 83 44
REMARK SMILES IDX 77 45 79 46 39 47 82 48 76 49 75 50 40 52 66 53 49 54 65 55
REMARK SMILES IDX 50 56 53 57 64 58 80 59 51 60 52 61 63 63 81 64 54 65 41 66
REMARK SMILES IDX 42 67 47 68 43 69 44 70 46 71 48 72 45 73 67 74 68 75 73 76
REMARK SMILES IDX 69 77 70 78 72 79 74 80 71 81 55 82 56 83 61 84 57 85 58 86
REMARK SMILES IDX 60 87 62 88 59 89
REMARK H PARENT 6 15 9 18 79 51 53 62
REMARK Flexibility Score: inf
ROOT
ATOM      1  C   UNL A   1      36.762  21.947  25.174  1.00  0.00     0.188 C 
ENDROOT
BRANCH   1   2
ATOM      2  O   UNL A   1      36.775  22.400  23.836  1.00  0.00    -0.376 OA
BRANCH   2   3
ATOM      3  C   UNL A   1      35.719  23.303  23.542  1.00  0.00     0.202 C 
BRANCH   3   4
ATOM      4  C   UNL A   1      34.325  23.143  24.201  1.00  0.00     0.261 C 
BRANCH   4   5
ATOM      5  O   UNL A   1      32.817  23.065  23.643  1.00  0.00    -0.462 OA
BRANCH   5   6
ATOM      6  C   UNL A   1      31.590  23.628  23.448  1.00  0.00     0.329 C 
ATOM      7  O   UNL A   1      30.641  22.880  23.217  1.00  0.00    -0.250 OA
BRANCH   6   8
ATOM      8  C   UNL A   1      31.372  25.356  23.376  1.00  0.00     0.196 C 
BRANCH   8   9
ATOM      9  C   UNL A   1      30.590  26.411  24.376  1.00  0.00     0.019 C 
ATOM     10  C   UNL A   1      29.916  25.826  25.645  1.00  0.00     0.010 C 
BRANCH   9  11
ATOM     11  C   UNL A   1      29.379  27.107  23.600  1.00  0.00     0.002 C 
ATOM     12  C   UNL A   1      27.951  26.668  23.955  1.00  0.00     0.004 C 
ENDBRANCH   9  11
ENDBRANCH   8   9
BRANCH   8  13
ATOM     13  N   UNL A   1      31.610  26.102  22.101  1.00  0.00    -0.324 N 
ATOM     14  C   UNL A   1      32.770  26.382  21.492  1.00  0.00     0.315 C 
ATOM     15  H   UNL A   1      30.802  26.433  21.646  1.00  0.00     0.166 HD
ATOM     16  O   UNL A   1      33.189  25.690  20.573  1.00  0.00    -0.249 OA
ATOM     17  N   UNL A   1      33.314  27.580  21.774  1.00  0.00    -0.334 N 
ATOM     18  H   UNL A   1      34.245  27.742  21.498  1.00  0.00     0.165 HD
BRANCH  17  19
ATOM     19  C   UNL A   1      32.618  28.642  22.457  1.00  0.00     0.153 C 
BRANCH  19  20
ATOM     20  C   UNL A   1      32.976  28.791  23.903  1.00  0.00    -0.029 A 
ATOM     21  C   UNL A   1      34.034  28.008  24.384  1.00  0.00     0.006 A 
ATOM     22  C   UNL A   1      32.335  29.680  24.772  1.00  0.00     0.006 A 
ATOM     23  C   UNL A   1      34.475  28.146  25.695  1.00  0.00     0.004 A 
ATOM     24  C   UNL A   1      32.775  29.814  26.087  1.00  0.00     0.004 A 
ATOM     25  C   UNL A   1      33.863  29.066  26.549  1.00  0.00    -0.051 A 
ATOM     26  C   UNL A   1      34.405  29.267  27.930  1.00  0.00     0.044 C 
ENDBRANCH  19  20
ENDBRANCH  17  19
ENDBRANCH   8  13
ENDBRANCH   6   8
ENDBRANCH   5   6
ENDBRANCH   4   5
ENDBRANCH   3   4
ENDBRANCH   2   3
ENDBRANCH   1   2
BRANCH   1  27
ATOM     27  C   UNL A   1      38.090  21.287  25.560  1.00  0.00     0.188 C 
BRANCH  27  28
ATOM     28  O   UNL A   1      38.967  22.190  26.201  1.00  0.00    -0.376 OA
BRANCH  28  29
ATOM     29  C   UNL A   1      40.326  21.832  26.384  1.00  0.00     0.202 C 
BRANCH  29  30
ATOM     30  C   UNL A   1      40.816  22.474  27.678  1.00  0.00     0.261 C 
BRANCH  30  31
ATOM     31  O   UNL A   1      40.395  23.858  27.715  1.00  0.00    -0.460 OA
BRANCH  31  32
ATOM     32  C   UNL A   1      41.404  24.758  27.847  1.00  0.00     0.338 C 
ATOM     33  O   UNL A   1      42.595  24.487  27.862  1.00  0.00    -0.246 OA
BRANCH  32  34
ATOM     34  C   UNL A   1      40.824  26.089  28.220  1.00  0.00     0.060 A 
ATOM     35  C   UNL A   1      41.635  27.195  28.125  1.00  0.00     0.016 A 
ATOM     36  C   UNL A   1      39.619  26.238  28.914  1.00  0.00     0.016 A 
ATOM     37  C   UNL A   1      41.327  28.349  28.862  1.00  0.00     0.010 A 
ATOM     38  C   UNL A   1      39.425  27.338  29.783  1.00  0.00     0.010 A 
ATOM     39  C   UNL A   1      40.380  28.361  29.896  1.00  0.00    -0.014 A 
BRANCH  39  40
ATOM     40  C   UNL A   1      40.338  29.335  31.119  1.00  0.00     0.031 A 
ATOM     41  C   UNL A   1      40.898  28.707  32.331  1.00  0.00     0.074 A 
ATOM     42  C   UNL A   1      39.831  30.617  31.400  1.00  0.00     0.049 A 
ATOM     43  N   UNL A   1      40.495  28.973  33.529  1.00  0.00    -0.248 NA
ATOM     44  C   UNL A   1      41.827  27.585  32.243  1.00  0.00     0.031 C 
ATOM     45  C   UNL A   1      40.477  31.542  32.356  1.00  0.00     0.029 A 
ATOM     46  N   UNL A   1      38.864  31.509  30.873  1.00  0.00    -0.354 N 
ATOM     47  C   UNL A   1      41.347  28.302  34.355  1.00  0.00     0.074 A 
ATOM     48  C   UNL A   1      41.978  27.295  33.532  1.00  0.00     0.031 C 
ATOM     49  C   UNL A   1      39.832  32.723  32.408  1.00  0.00     0.029 A 
ATOM     50  C   UNL A   1      38.641  32.663  31.584  1.00  0.00     0.049 A 
ATOM     51  H   UNL A   1      38.377  31.312  30.040  1.00  0.00     0.167 HD
ATOM     52  C   UNL A   1      41.677  28.809  35.572  1.00  0.00     0.037 A 
ATOM     53  C   UNL A   1      37.466  33.346  31.739  1.00  0.00     0.037 A 
ATOM     54  C   UNL A   1      41.115  30.140  35.783  1.00  0.00     0.049 A 
ATOM     55  C   UNL A   1      37.187  33.386  33.213  1.00  0.00     0.074 A 
ATOM     56  C   UNL A   1      41.659  31.401  35.582  1.00  0.00     0.029 A 
ATOM     57  N   UNL A   1      39.743  30.336  35.934  1.00  0.00    -0.354 N 
ATOM     58  N   UNL A   1      37.791  32.560  34.015  1.00  0.00    -0.248 NA
ATOM     59  C   UNL A   1      36.260  34.267  33.914  1.00  0.00     0.031 C 
ATOM     60  C   UNL A   1      40.627  32.359  35.678  1.00  0.00     0.029 A 
ATOM     61  C   UNL A   1      39.446  31.689  35.945  1.00  0.00     0.049 A 
ATOM     62  H   UNL A   1      39.079  29.615  36.022  1.00  0.00     0.167 HD
ATOM     63  C   UNL A   1      37.476  32.852  35.299  1.00  0.00     0.074 A 
ATOM     64  C   UNL A   1      36.463  33.887  35.191  1.00  0.00     0.031 C 
ATOM     65  C   UNL A   1      38.127  32.206  36.306  1.00  0.00     0.037 A 
BRANCH  52  66
ATOM     66  C   UNL A   1      42.889  28.237  36.257  1.00  0.00     0.057 A 
ATOM     67  C   UNL A   1      42.815  27.116  37.094  1.00  0.00     0.134 A 
ATOM     68  C   UNL A   1      44.149  28.862  36.202  1.00  0.00     0.134 A 
ATOM     69  F   UNL A   1      41.716  26.357  37.165  1.00  0.00    -0.206 F 
ATOM     70  C   UNL A   1      43.874  26.733  37.924  1.00  0.00     0.040 A 
ATOM     71  C   UNL A   1      45.190  28.537  37.078  1.00  0.00     0.040 A 
ATOM     72  F   UNL A   1      44.392  29.846  35.320  1.00  0.00    -0.206 F 
ATOM     73  C   UNL A   1      45.047  27.473  37.956  1.00  0.00     0.006 A 
ENDBRANCH  52  66
BRANCH  53  74
ATOM     74  C   UNL A   1      36.409  33.355  30.685  1.00  0.00     0.057 A 
ATOM     75  C   UNL A   1      36.706  33.909  29.425  1.00  0.00     0.134 A 
ATOM     76  C   UNL A   1      35.176  32.703  30.792  1.00  0.00     0.134 A 
ATOM     77  F   UNL A   1      37.810  34.655  29.264  1.00  0.00    -0.206 F 
ATOM     78  C   UNL A   1      35.913  33.679  28.294  1.00  0.00     0.040 A 
ATOM     79  C   UNL A   1      34.360  32.475  29.669  1.00  0.00     0.040 A 
ATOM     80  F   UNL A   1      34.782  32.181  31.963  1.00  0.00    -0.206 F 
ATOM     81  C   UNL A   1      34.761  32.912  28.406  1.00  0.00     0.006 A 
ENDBRANCH  53  74
BRANCH  65  82
ATOM     82  C   UNL A   1      37.707  32.159  37.742  1.00  0.00     0.057 A 
ATOM     83  C   UNL A   1      37.242  31.007  38.385  1.00  0.00     0.134 A 
ATOM     84  C   UNL A   1      37.916  33.278  38.580  1.00  0.00     0.134 A 
ATOM     85  F   UNL A   1      37.108  29.841  37.740  1.00  0.00    -0.206 F 
ATOM     86  C   UNL A   1      36.950  30.985  39.752  1.00  0.00     0.040 A 
ATOM     87  C   UNL A   1      37.691  33.248  39.953  1.00  0.00     0.040 A 
ATOM     88  F   UNL A   1      38.381  34.447  38.117  1.00  0.00    -0.206 F 
ATOM     89  C   UNL A   1      37.189  32.103  40.543  1.00  0.00     0.006 A 
ENDBRANCH  65  82
ENDBRANCH  39  40
ENDBRANCH  32  34
ENDBRANCH  31  32
ENDBRANCH  30  31
ENDBRANCH  29  30
ENDBRANCH  28  29
ENDBRANCH  27  28
ENDBRANCH   1  27
TORSDOF 22
ENDMDL
MODEL 2
REMARK VINA RESULT:     -10.2      5.401      9.381
REMARK SMILES CC[C@@H](C)[C@H](NC(=O)NCc1ccc(C)cc1)C(=O)OCCOCCOCCOC(=O)c1ccc(-c2c3nc(c(-c4c(F)cccc4F)c4ccc([nH]4)c(-c4c(F)cccc4F)c4nc(c(-c5c(F)cccc5F)c5ccc2[nH]5)C=C4)C=C3)cc1
REMARK SMILES IDX 24 1 23 2 22 3 21 4 20 5 18 6 19 7 5 8 3 9 4 10 2 11 1 12
REMARK SMILES IDX 6 13 7 14 8 16 9 17 10 19 11 20 12 21 17 22 13 23 16 24
REMARK SMILES IDX 14 25 15 26 25 27 26 28 27 29 28 30 29 31 30 32 31 33 32 34
REMARK SMILES IDX 33 35 85 36 34 37 84 38 35 39 36 40 37 41 78 42 38 43 83 44
REMARK SMILES IDX 77 45 79 46 39 47 82 48 76 49 75 50 40 52 66 53 49 54 65 55
REMARK SMILES IDX 50 56 53 57 64 58 80 59 51 60 52 61 63 63 81 64 54 65 41 66
REMARK SMILES IDX 42 67 47 68 43 69 44 70 46 71 48 72 45 73 67 74 68 75 73 76
REMARK SMILES IDX 69 77 70 78 72 79 74 80 71 81 55 82 56 83 61 84 57 85 58 86
REMARK SMILES IDX 60 87 62 88 59 89
REMARK H PARENT 6 15 9 18 79 51 53 62
REMARK Flexibility Score: inf
ROOT
ATOM      1  C   UNL A   1      32.205  30.195  26.877  1.00  0.00     0.188 C 
ENDROOT
BRANCH   1   2
ATOM      2  O   UNL A   1      32.971  29.631  25.832  1.00  0.00    -0.376 OA
BRANCH   2   3
ATOM      3  C   UNL A   1      33.351  28.286  26.085  1.00  0.00     0.202 C 
BRANCH   3   4
ATOM      4  C   UNL A   1      32.317  27.242  26.576  1.00  0.00     0.261 C 
BRANCH   4   5
ATOM      5  O   UNL A   1      31.040  26.521  25.911  1.00  0.00    -0.462 OA
BRANCH   5   6
ATOM      6  C   UNL A   1      30.466  25.822  24.890  1.00  0.00     0.329 C 
ATOM      7  O   UNL A   1      29.505  26.329  24.311  1.00  0.00    -0.250 OA
BRANCH   6   8
ATOM      8  C   UNL A   1      30.961  24.199  24.493  1.00  0.00     0.196 C 
BRANCH   8   9
ATOM      9  C   UNL A   1      31.497  23.523  23.087  1.00  0.00     0.019 C 
ATOM     10  C   UNL A   1      31.839  22.010  23.106  1.00  0.00     0.010 C 
BRANCH   9  11
ATOM     11  C   UNL A   1      32.871  24.207  22.638  1.00  0.00     0.002 C 
ATOM     12  C   UNL A   1      34.117  23.318  22.537  1.00  0.00     0.004 C 
ENDBRANCH   9  11
ENDBRANCH   8   9
BRANCH   8  13
ATOM     13  N   UNL A   1      30.605  23.054  25.387  1.00  0.00    -0.324 N 
ATOM     14  C   UNL A   1      30.822  22.911  26.702  1.00  0.00     0.315 C 
ATOM     15  H   UNL A   1      30.148  22.300  24.949  1.00  0.00     0.166 HD
ATOM     16  O   UNL A   1      29.946  23.164  27.522  1.00  0.00    -0.249 OA
ATOM     17  N   UNL A   1      31.943  22.255  27.051  1.00  0.00    -0.334 N 
ATOM     18  H   UNL A   1      32.228  22.295  27.992  1.00  0.00     0.165 HD
BRANCH  17  19
ATOM     19  C   UNL A   1      32.754  21.497  26.131  1.00  0.00     0.153 C 
BRANCH  19  20
ATOM     20  C   UNL A   1      34.137  22.035  25.934  1.00  0.00    -0.029 A 
ATOM     21  C   UNL A   1      34.343  23.393  26.217  1.00  0.00     0.006 A 
ATOM     22  C   UNL A   1      35.220  21.254  25.517  1.00  0.00     0.006 A 
ATOM     23  C   UNL A   1      35.615  23.947  26.133  1.00  0.00     0.004 A 
ATOM     24  C   UNL A   1      36.494  21.812  25.428  1.00  0.00     0.004 A 
ATOM     25  C   UNL A   1      36.703  23.154  25.759  1.00  0.00    -0.051 A 
ATOM     26  C   UNL A   1      38.080  23.742  25.757  1.00  0.00     0.044 C 
ENDBRANCH  19  20
ENDBRANCH  17  19
ENDBRANCH   8  13
ENDBRANCH   6   8
ENDBRANCH   5   6
ENDBRANCH   4   5
ENDBRANCH   3   4
ENDBRANCH   2   3
ENDBRANCH   1   2
BRANCH   1  27
ATOM     27  C   UNL A   1      32.363  31.718  26.934  1.00  0.00     0.188 C 
BRANCH  27  28
ATOM     28  O   UNL A   1      33.557  32.106  27.582  1.00  0.00    -0.376 OA
BRANCH  28  29
ATOM     29  C   UNL A   1      33.607  33.342  28.273  1.00  0.00     0.202 C 
BRANCH  29  30
ATOM     30  C   UNL A   1      34.636  33.220  29.392  1.00  0.00     0.261 C 
BRANCH  30  31
ATOM     31  O   UNL A   1      35.590  32.185  29.054  1.00  0.00    -0.460 OA
BRANCH  31  32
ATOM     32  C   UNL A   1      35.877  31.323  30.064  1.00  0.00     0.338 C 
ATOM     33  O   UNL A   1      35.662  31.527  31.249  1.00  0.00    -0.246 OA
BRANCH  32  34
ATOM     34  C   UNL A   1      36.719  30.206  29.526  1.00  0.00     0.060 A 
ATOM     35  C   UNL A   1      37.456  29.466  30.420  1.00  0.00     0.016 A 
ATOM     36  C   UNL A   1      37.017  30.049  28.168  1.00  0.00     0.016 A 
ATOM     37  C   UNL A   1      38.572  28.742  29.971  1.00  0.00     0.010 A 
ATOM     38  C   UNL A   1      38.241  29.463  27.767  1.00  0.00     0.010 A 
ATOM     39  C   UNL A   1      39.140  28.930  28.704  1.00  0.00    -0.014 A 
BRANCH  39  40
ATOM     40  C   UNL A   1      40.624  28.656  28.291  1.00  0.00     0.031 A 
ATOM     41  C   UNL A   1      40.936  27.214  28.318  1.00  0.00     0.074 A 
ATOM     42  C   UNL A   1      41.768  29.418  27.987  1.00  0.00     0.049 A 
ATOM     43  N   UNL A   1      42.102  26.738  28.605  1.00  0.00    -0.248 NA
ATOM     44  C   UNL A   1      39.885  26.209  28.207  1.00  0.00     0.031 C 
ATOM     45  C   UNL A   1      42.793  28.970  27.020  1.00  0.00     0.029 A 
ATOM     46  N   UNL A   1      42.249  30.733  28.202  1.00  0.00    -0.354 N 
ATOM     47  C   UNL A   1      42.009  25.396  28.382  1.00  0.00     0.074 A 
ATOM     48  C   UNL A   1      40.595  25.097  28.376  1.00  0.00     0.031 C 
ATOM     49  C   UNL A   1      43.757  29.898  26.863  1.00  0.00     0.029 A 
ATOM     50  C   UNL A   1      43.531  30.994  27.782  1.00  0.00     0.049 A 
ATOM     51  H   UNL A   1      41.693  31.424  28.630  1.00  0.00     0.167 HD
ATOM     52  C   UNL A   1      43.082  24.690  27.939  1.00  0.00     0.037 A 
ATOM     53  C   UNL A   1      44.453  31.828  28.354  1.00  0.00     0.037 A 
ATOM     54  C   UNL A   1      44.223  25.553  27.643  1.00  0.00     0.049 A 
ATOM     55  C   UNL A   1      45.641  30.979  28.697  1.00  0.00     0.074 A 
ATOM     56  C   UNL A   1      44.645  26.129  26.453  1.00  0.00     0.029 A 
ATOM     57  N   UNL A   1      44.918  26.212  28.655  1.00  0.00    -0.354 N 
ATOM     58  N   UNL A   1      45.522  29.685  28.763  1.00  0.00    -0.248 NA
ATOM     59  C   UNL A   1      46.993  31.432  29.005  1.00  0.00     0.031 C 
ATOM     60  C   UNL A   1      45.640  27.087  26.743  1.00  0.00     0.029 A 
ATOM     61  C   UNL A   1      45.837  27.097  28.113  1.00  0.00     0.049 A 
ATOM     62  H   UNL A   1      44.777  26.070  29.618  1.00  0.00     0.167 HD
ATOM     63  C   UNL A   1      46.736  29.122  28.973  1.00  0.00     0.074 A 
ATOM     64  C   UNL A   1      47.622  30.253  29.183  1.00  0.00     0.031 C 
ATOM     65  C   UNL A   1      46.858  27.767  28.916  1.00  0.00     0.037 A 
BRANCH  52  66
ATOM     66  C   UNL A   1      42.824  23.327  27.354  1.00  0.00     0.057 A 
ATOM     67  C   UNL A   1      42.428  23.148  26.023  1.00  0.00     0.134 A 
ATOM     68  C   UNL A   1      42.842  22.157  28.137  1.00  0.00     0.134 A 
ATOM     69  F   UNL A   1      42.466  24.145  25.132  1.00  0.00    -0.206 F 
ATOM     70  C   UNL A   1      41.948  21.924  25.545  1.00  0.00     0.040 A 
ATOM     71  C   UNL A   1      42.297  20.947  27.696  1.00  0.00     0.040 A 
ATOM     72  F   UNL A   1      43.352  22.168  29.380  1.00  0.00    -0.206 F 
ATOM     73  C   UNL A   1      41.834  20.833  26.394  1.00  0.00     0.006 A 
ENDBRANCH  52  66
BRANCH  53  74
ATOM     74  C   UNL A   1      44.055  33.056  29.102  1.00  0.00     0.057 A 
ATOM     75  C   UNL A   1      43.842  34.252  28.390  1.00  0.00     0.134 A 
ATOM     76  C   UNL A   1      43.712  33.082  30.459  1.00  0.00     0.134 A 
ATOM     77  F   UNL A   1      44.254  34.356  27.117  1.00  0.00    -0.206 F 
ATOM     78  C   UNL A   1      43.168  35.349  28.942  1.00  0.00     0.040 A 
ATOM     79  C   UNL A   1      43.046  34.181  31.033  1.00  0.00     0.040 A 
ATOM     80  F   UNL A   1      43.918  32.007  31.233  1.00  0.00    -0.206 F 
ATOM     81  C   UNL A   1      42.720  35.293  30.254  1.00  0.00     0.006 A 
ENDBRANCH  53  74
BRANCH  65  82
ATOM     82  C   UNL A   1      48.015  26.963  29.421  1.00  0.00     0.057 A 
ATOM     83  C   UNL A   1      48.039  26.320  30.663  1.00  0.00     0.134 A 
ATOM     84  C   UNL A   1      49.108  26.679  28.571  1.00  0.00     0.134 A 
ATOM     85  F   UNL A   1      47.017  26.403  31.524  1.00  0.00    -0.206 F 
ATOM     86  C   UNL A   1      49.102  25.500  31.055  1.00  0.00     0.040 A 
ATOM     87  C   UNL A   1      50.139  25.814  28.925  1.00  0.00     0.040 A 
ATOM     88  F   UNL A   1      49.216  27.200  27.340  1.00  0.00    -0.206 F 
ATOM     89  C   UNL A   1      50.148  25.233  30.180  1.00  0.00     0.006 A 
ENDBRANCH  65  82
ENDBRANCH  39  40
ENDBRANCH  32  34
ENDBRANCH  31  32
ENDBRANCH  30  31
ENDBRANCH  29  30
ENDBRANCH  28  29
ENDBRANCH  27  28
ENDBRANCH   1  27
TORSDOF 22
ENDMDL
MODEL 3
REMARK VINA RESULT:     -10.2      3.181      7.735
REMARK SMILES CC[C@@H](C)[C@H](NC(=O)NCc1ccc(C)cc1)C(=O)OCCOCCOCCOC(=O)c1ccc(-c2c3nc(c(-c4c(F)cccc4F)c4ccc([nH]4)c(-c4c(F)cccc4F)c4nc(c(-c5c(F)cccc5F)c5ccc2[nH]5)C=C4)C=C3)cc1
REMARK SMILES IDX 24 1 23 2 22 3 21 4 20 5 18 6 19 7 5 8 3 9 4 10 2 11 1 12
REMARK SMILES IDX 6 13 7 14 8 16 9 17 10 19 11 20 12 21 17 22 13 23 16 24
REMARK SMILES IDX 14 25 15 26 25 27 26 28 27 29 28 30 29 31 30 32 31 33 32 34
REMARK SMILES IDX 33 35 85 36 34 37 84 38 35 39 36 40 37 41 78 42 38 43 83 44
REMARK SMILES IDX 77 45 79 46 39 47 82 48 76 49 75 50 40 52 66 53 49 54 65 55
REMARK SMILES IDX 50 56 53 57 64 58 80 59 51 60 52 61 63 63 81 64 54 65 41 66
REMARK SMILES IDX 42 67 47 68 43 69 44 70 46 71 48 72 45 73 67 74 68 75 73 76
REMARK SMILES IDX 69 77 70 78 72 79 74 80 71 81 55 82 56 83 61 84 57 85 58 86
REMARK SMILES IDX 60 87 62 88 59 89
REMARK H PARENT 6 15 9 18 79 51 53 62
REMARK Flexibility Score: inf
ROOT
ATOM      1  C   UNL A   1      32.784  29.199  24.947  1.00  0.00     0.188 C 
ENDROOT
BRANCH   1   2
ATOM      2  O   UNL A   1      33.759  28.349  24.379  1.00  0.00    -0.376 OA
BRANCH   2   3
ATOM      3  C   UNL A   1      33.992  28.609  23.002  1.00  0.00     0.202 C 
BRANCH   3   4
ATOM      4  C   UNL A   1      33.793  27.503  21.935  1.00  0.00     0.261 C 
BRANCH   4   5
ATOM      5  O   UNL A   1      33.868  25.895  21.951  1.00  0.00    -0.462 OA
BRANCH   5   6
ATOM      6  C   UNL A   1      33.706  24.702  22.594  1.00  0.00     0.329 C 
ATOM      7  O   UNL A   1      33.930  23.670  21.962  1.00  0.00    -0.250 OA
BRANCH   6   8
ATOM      8  C   UNL A   1      33.063  24.608  24.211  1.00  0.00     0.196 C 
BRANCH   8   9
ATOM      9  C   UNL A   1      33.798  24.561  25.688  1.00  0.00     0.019 C 
ATOM     10  C   UNL A   1      35.319  24.859  25.740  1.00  0.00     0.010 C 
BRANCH   9  11
ATOM     11  C   UNL A   1      33.687  23.092  26.309  1.00  0.00     0.002 C 
ATOM     12  C   UNL A   1      34.819  22.099  26.010  1.00  0.00     0.004 C 
ENDBRANCH   9  11
ENDBRANCH   8   9
BRANCH   8  13
ATOM     13  N   UNL A   1      31.648  24.185  24.445  1.00  0.00    -0.324 N 
ATOM     14  C   UNL A   1      30.662  24.006  23.554  1.00  0.00     0.315 C 
ATOM     15  H   UNL A   1      31.406  24.014  25.384  1.00  0.00     0.166 HD
ATOM     16  O   UNL A   1      30.391  22.892  23.122  1.00  0.00    -0.249 OA
ATOM     17  N   UNL A   1      29.846  25.056  23.352  1.00  0.00    -0.334 N 
ATOM     18  H   UNL A   1      29.237  25.027  22.580  1.00  0.00     0.165 HD
BRANCH  17  19
ATOM     19  C   UNL A   1      29.809  26.224  24.198  1.00  0.00     0.153 C 
BRANCH  19  20
ATOM     20  C   UNL A   1      29.290  27.458  23.530  1.00  0.00    -0.029 A 
ATOM     21  C   UNL A   1      30.217  28.254  22.843  1.00  0.00     0.006 A 
ATOM     22  C   UNL A   1      27.941  27.832  23.534  1.00  0.00     0.006 A 
ATOM     23  C   UNL A   1      29.799  29.373  22.133  1.00  0.00     0.004 A 
ATOM     24  C   UNL A   1      27.524  28.957  22.826  1.00  0.00     0.004 A 
ATOM     25  C   UNL A   1      28.446  29.720  22.102  1.00  0.00    -0.051 A 
ATOM     26  C   UNL A   1      27.998  30.876  21.263  1.00  0.00     0.044 C 
ENDBRANCH  19  20
ENDBRANCH  17  19
ENDBRANCH   8  13
ENDBRANCH   6   8
ENDBRANCH   5   6
ENDBRANCH   4   5
ENDBRANCH   3   4
ENDBRANCH   2   3
ENDBRANCH   1   2
BRANCH   1  27
ATOM     27  C   UNL A   1      33.109  29.534  26.407  1.00  0.00     0.188 C 
BRANCH  27  28
ATOM     28  O   UNL A   1      32.774  30.867  26.734  1.00  0.00    -0.376 OA
BRANCH  28  29
ATOM     29  C   UNL A   1      33.546  31.564  27.698  1.00  0.00     0.202 C 
BRANCH  29  30
ATOM     30  C   UNL A   1      33.137  33.032  27.663  1.00  0.00     0.261 C 
BRANCH  30  31
ATOM     31  O   UNL A   1      34.200  33.839  28.221  1.00  0.00    -0.460 OA
BRANCH  31  32
ATOM     32  C   UNL A   1      34.047  34.156  29.533  1.00  0.00     0.338 C 
ATOM     33  O   UNL A   1      33.004  34.526  30.054  1.00  0.00    -0.246 OA
BRANCH  32  34
ATOM     34  C   UNL A   1      35.397  34.222  30.180  1.00  0.00     0.060 A 
ATOM     35  C   UNL A   1      36.494  34.383  29.368  1.00  0.00     0.016 A 
ATOM     36  C   UNL A   1      35.633  33.855  31.509  1.00  0.00     0.016 A 
ATOM     37  C   UNL A   1      37.764  34.004  29.832  1.00  0.00     0.010 A 
ATOM     38  C   UNL A   1      36.885  33.315  31.891  1.00  0.00     0.010 A 
ATOM     39  C   UNL A   1      37.953  33.229  30.984  1.00  0.00    -0.014 A 
BRANCH  39  40
ATOM     40  C   UNL A   1      39.166  32.291  31.295  1.00  0.00     0.031 A 
ATOM     41  C   UNL A   1      39.087  31.031  30.531  1.00  0.00     0.074 A 
ATOM     42  C   UNL A   1      40.267  32.285  32.172  1.00  0.00     0.049 A 
ATOM     43  N   UNL A   1      39.538  29.901  30.963  1.00  0.00    -0.248 NA
ATOM     44  C   UNL A   1      38.310  30.940  29.299  1.00  0.00     0.031 C 
ATOM     45  C   UNL A   1      41.565  31.669  31.823  1.00  0.00     0.029 A 
ATOM     46  N   UNL A   1      40.654  32.906  33.385  1.00  0.00    -0.354 N 
ATOM     47  C   UNL A   1      39.401  29.034  29.919  1.00  0.00     0.074 A 
ATOM     48  C   UNL A   1      38.441  29.644  29.027  1.00  0.00     0.031 C 
ATOM     49  C   UNL A   1      42.470  31.842  32.806  1.00  0.00     0.029 A 
ATOM     50  C   UNL A   1      41.839  32.486  33.940  1.00  0.00     0.049 A 
ATOM     51  H   UNL A   1      40.102  33.604  33.809  1.00  0.00     0.167 HD
ATOM     52  C   UNL A   1      40.294  28.028  29.731  1.00  0.00     0.037 A 
ATOM     53  C   UNL A   1      42.158  32.376  35.266  1.00  0.00     0.037 A 
ATOM     54  C   UNL A   1      41.404  28.095  30.678  1.00  0.00     0.049 A 
ATOM     55  C   UNL A   1      42.514  30.937  35.501  1.00  0.00     0.074 A 
ATOM     56  C   UNL A   1      42.665  28.664  30.564  1.00  0.00     0.029 A 
ATOM     57  N   UNL A   1      41.219  27.844  32.036  1.00  0.00    -0.354 N 
ATOM     58  N   UNL A   1      42.155  30.026  34.643  1.00  0.00    -0.248 NA
ATOM     59  C   UNL A   1      43.237  30.379  36.637  1.00  0.00     0.031 C 
ATOM     60  C   UNL A   1      43.263  28.695  31.843  1.00  0.00     0.029 A 
ATOM     61  C   UNL A   1      42.373  28.138  32.745  1.00  0.00     0.049 A 
ATOM     62  H   UNL A   1      40.386  27.505  32.436  1.00  0.00     0.167 HD
ATOM     63  C   UNL A   1      42.679  28.829  34.998  1.00  0.00     0.074 A 
ATOM     64  C   UNL A   1      43.298  29.079  36.287  1.00  0.00     0.031 C 
ATOM     65  C   UNL A   1      42.554  27.773  34.148  1.00  0.00     0.037 A 
BRANCH  52  66
ATOM     66  C   UNL A   1      40.316  27.361  28.382  1.00  0.00     0.057 A 
ATOM     67  C   UNL A   1      39.795  26.078  28.174  1.00  0.00     0.134 A 
ATOM     68  C   UNL A   1      40.969  27.930  27.272  1.00  0.00     0.134 A 
ATOM     69  F   UNL A   1      39.056  25.455  29.098  1.00  0.00    -0.206 F 
ATOM     70  C   UNL A   1      40.032  25.357  26.998  1.00  0.00     0.040 A 
ATOM     71  C   UNL A   1      41.277  27.197  26.122  1.00  0.00     0.040 A 
ATOM     72  F   UNL A   1      41.371  29.212  27.293  1.00  0.00    -0.206 F 
ATOM     73  C   UNL A   1      40.818  25.896  25.989  1.00  0.00     0.006 A 
ENDBRANCH  52  66
BRANCH  53  74
ATOM     74  C   UNL A   1      41.567  33.273  36.301  1.00  0.00     0.057 A 
ATOM     75  C   UNL A   1      42.202  34.497  36.587  1.00  0.00     0.134 A 
ATOM     76  C   UNL A   1      40.323  33.072  36.909  1.00  0.00     0.134 A 
ATOM     77  F   UNL A   1      43.448  34.724  36.146  1.00  0.00    -0.206 F 
ATOM     78  C   UNL A   1      41.567  35.531  37.287  1.00  0.00     0.040 A 
ATOM     79  C   UNL A   1      39.677  34.094  37.628  1.00  0.00     0.040 A 
ATOM     80  F   UNL A   1      39.659  31.919  36.734  1.00  0.00    -0.206 F 
ATOM     81  C   UNL A   1      40.276  35.347  37.764  1.00  0.00     0.006 A 
ENDBRANCH  53  74
BRANCH  65  82
ATOM     82  C   UNL A   1      42.779  26.333  34.490  1.00  0.00     0.057 A 
ATOM     83  C   UNL A   1      41.889  25.559  35.243  1.00  0.00     0.134 A 
ATOM     84  C   UNL A   1      43.861  25.626  33.917  1.00  0.00     0.134 A 
ATOM     85  F   UNL A   1      40.759  26.069  35.749  1.00  0.00    -0.206 F 
ATOM     86  C   UNL A   1      42.092  24.193  35.459  1.00  0.00     0.040 A 
ATOM     87  C   UNL A   1      44.036  24.254  34.072  1.00  0.00     0.040 A 
ATOM     88  F   UNL A   1      44.784  26.223  33.150  1.00  0.00    -0.206 F 
ATOM     89  C   UNL A   1      43.158  23.534  34.861  1.00  0.00     0.006 A 
ENDBRANCH  65  82
ENDBRANCH  39  40
ENDBRANCH  32  34
ENDBRANCH  31  32
ENDBRANCH  30  31
ENDBRANCH  29  30
ENDBRANCH  28  29
ENDBRANCH  27  28
ENDBRANCH   1  27
TORSDOF 22
ENDMDL
