MODEL 1
REMARK VINA RESULT:     -11.0      0.000      0.000
REMARK SMILES Cc1cc(=O)c(Oc2ccc(C(=O)OCCOCCOCCOC(=O)c3ccc(-c4c5nc(c(-c6c(F)cccc6F)c6ccc([nH]6)c(-c6c(F)cccc6F)c6nc(c(-c7c(F)cccc7F)c7ccc4[nH]7)C=C6)C=C5)cc3)cc2)c(-c2ccc(S(C)(=O)=O)cc2)o1
REMARK SMILES IDX 18 1 17 2 16 3 15 4 14 5 12 6 13 7 11 8 8 9 9 10 81 11 10 12
REMARK SMILES IDX 80 13 7 14 6 15 1 16 2 17 3 18 93 19 4 20 82 21 5 22 83 23
REMARK SMILES IDX 84 24 92 25 85 26 91 27 86 28 87 29 88 30 89 31 90 32 19 33
REMARK SMILES IDX 20 34 21 35 22 36 23 37 24 38 25 39 26 40 27 41 79 42 28 43
REMARK SMILES IDX 78 44 29 45 30 46 31 47 72 48 32 49 77 50 71 51 73 52 33 53
REMARK SMILES IDX 76 54 70 55 69 56 34 58 60 59 43 60 59 61 44 62 47 63 58 64
REMARK SMILES IDX 74 65 45 66 46 67 57 69 75 70 48 71 35 72 36 73 41 74 37 75
REMARK SMILES IDX 38 76 40 77 42 78 39 79 61 80 62 81 67 82 63 83 64 84 66 85
REMARK SMILES IDX 68 86 65 87 49 88 50 89 55 90 51 91 52 92 54 93 56 94 53 95
REMARK H PARENT 73 57 47 68
REMARK Flexibility Score: inf
ROOT
ATOM      1  C   UNL A   1      33.857  34.355  29.011  1.00  0.00     0.188 C 
ENDROOT
BRANCH   1   2
ATOM      2  O   UNL A   1      35.054  34.289  28.252  1.00  0.00    -0.376 OA
BRANCH   2   3
ATOM      3  C   UNL A   1      35.464  32.996  27.866  1.00  0.00     0.202 C 
BRANCH   3   4
ATOM      4  C   UNL A   1      34.461  31.893  28.230  1.00  0.00     0.261 C 
BRANCH   4   5
ATOM      5  O   UNL A   1      34.226  30.979  27.141  1.00  0.00    -0.460 OA
BRANCH   5   6
ATOM      6  C   UNL A   1      32.929  30.612  26.962  1.00  0.00     0.338 C 
ATOM      7  O   UNL A   1      31.980  31.368  26.829  1.00  0.00    -0.246 OA
BRANCH   6   8
ATOM      8  C   UNL A   1      32.804  29.125  26.872  1.00  0.00     0.060 A 
ATOM      9  C   UNL A   1      32.382  26.365  26.542  1.00  0.00     0.127 A 
ATOM     10  C   UNL A   1      31.390  27.157  27.112  1.00  0.00     0.048 A 
ATOM     11  C   UNL A   1      33.619  26.929  26.222  1.00  0.00     0.048 A 
ATOM     12  C   UNL A   1      31.583  28.539  27.237  1.00  0.00     0.019 A 
ATOM     13  C   UNL A   1      33.835  28.302  26.397  1.00  0.00     0.019 A 
BRANCH   9  14
ATOM     14  O   UNL A   1      32.260  25.007  26.454  1.00  0.00    -0.449 OA
BRANCH  14  15
ATOM     15  C   UNL A   1      32.073  24.295  25.278  1.00  0.00     0.217 A 
ATOM     16  C   UNL A   1      32.068  21.833  21.715  1.00  0.00     0.088 C 
ATOM     17  C   UNL A   1      32.094  22.578  23.013  1.00  0.00     0.105 A 
ATOM     18  C   UNL A   1      32.772  22.149  24.080  1.00  0.00     0.098 A 
ATOM     19  O   UNL A   1      31.372  23.755  23.019  1.00  0.00    -0.457 OA
ATOM     20  C   UNL A   1      32.767  22.964  25.302  1.00  0.00     0.228 A 
ATOM     21  C   UNL A   1      31.413  24.597  24.129  1.00  0.00     0.180 A 
ATOM     22  O   UNL A   1      33.353  22.548  26.298  1.00  0.00    -0.285 OA
BRANCH  21  23
ATOM     23  C   UNL A   1      30.691  25.843  23.844  1.00  0.00     0.021 A 
ATOM     24  C   UNL A   1      31.346  26.987  23.367  1.00  0.00     0.013 A 
ATOM     25  C   UNL A   1      29.318  25.904  24.050  1.00  0.00     0.013 A 
ATOM     26  C   UNL A   1      30.617  28.138  23.011  1.00  0.00     0.021 A 
ATOM     27  C   UNL A   1      28.622  27.087  23.770  1.00  0.00     0.021 A 
ATOM     28  C   UNL A   1      29.248  28.229  23.266  1.00  0.00     0.067 A 
BRANCH  28  29
ATOM     29  S   UNL A   1      28.256  29.605  22.655  1.00  0.00     0.175 S 
ATOM     30  C   UNL A   1      28.674  31.185  23.280  1.00  0.00     0.163 C 
ATOM     31  O   UNL A   1      28.491  29.647  21.218  1.00  0.00    -0.224 OA
ATOM     32  O   UNL A   1      26.943  29.432  23.204  1.00  0.00    -0.224 OA
ENDBRANCH  28  29
ENDBRANCH  21  23
ENDBRANCH  14  15
ENDBRANCH   9  14
ENDBRANCH   6   8
ENDBRANCH   5   6
ENDBRANCH   4   5
ENDBRANCH   3   4
ENDBRANCH   2   3
ENDBRANCH   1   2
BRANCH   1  33
ATOM     33  C   UNL A   1      34.007  35.126  30.317  1.00  0.00     0.188 C 
BRANCH  33  34
ATOM     34  O   UNL A   1      33.527  34.491  31.491  1.00  0.00    -0.376 OA
BRANCH  34  35
ATOM     35  C   UNL A   1      34.327  34.906  32.612  1.00  0.00     0.202 C 
BRANCH  35  36
ATOM     36  C   UNL A   1      35.855  34.670  32.513  1.00  0.00     0.261 C 
BRANCH  36  37
ATOM     37  O   UNL A   1      36.463  33.427  32.969  1.00  0.00    -0.460 OA
BRANCH  37  38
ATOM     38  C   UNL A   1      36.072  32.222  32.470  1.00  0.00     0.338 C 
ATOM     39  O   UNL A   1      34.941  31.771  32.499  1.00  0.00    -0.246 OA
BRANCH  38  40
ATOM     40  C   UNL A   1      37.249  31.572  31.778  1.00  0.00     0.060 A 
ATOM     41  C   UNL A   1      38.276  30.963  32.504  1.00  0.00     0.016 A 
ATOM     42  C   UNL A   1      37.392  31.621  30.388  1.00  0.00     0.016 A 
ATOM     43  C   UNL A   1      39.497  30.610  31.877  1.00  0.00     0.010 A 
ATOM     44  C   UNL A   1      38.633  31.314  29.768  1.00  0.00     0.010 A 
ATOM     45  C   UNL A   1      39.739  30.877  30.515  1.00  0.00    -0.014 A 
BRANCH  45  46
ATOM     46  C   UNL A   1      41.025  30.443  29.858  1.00  0.00     0.031 A 
ATOM     47  C   UNL A   1      42.274  31.288  29.617  1.00  0.00     0.074 A 
ATOM     48  C   UNL A   1      41.067  29.165  29.449  1.00  0.00     0.049 A 
ATOM     49  N   UNL A   1      43.446  30.964  29.110  1.00  0.00    -0.248 NA
ATOM     50  C   UNL A   1      42.209  32.693  29.987  1.00  0.00     0.031 C 
ATOM     51  C   UNL A   1      39.968  28.211  29.586  1.00  0.00     0.029 A 
ATOM     52  N   UNL A   1      42.067  28.459  28.840  1.00  0.00    -0.354 N 
ATOM     53  C   UNL A   1      44.233  32.125  29.125  1.00  0.00     0.074 A 
ATOM     54  C   UNL A   1      43.404  33.168  29.673  1.00  0.00     0.031 C 
ATOM     55  C   UNL A   1      40.357  27.036  29.079  1.00  0.00     0.029 A 
ATOM     56  C   UNL A   1      41.716  27.166  28.560  1.00  0.00     0.049 A 
ATOM     57  H   UNL A   1      42.949  28.840  28.625  1.00  0.00     0.167 HD
ATOM     58  C   UNL A   1      45.517  32.322  28.721  1.00  0.00     0.037 A 
ATOM     59  C   UNL A   1      42.399  26.186  27.949  1.00  0.00     0.037 A 
ATOM     60  C   UNL A   1      46.359  31.295  28.159  1.00  0.00     0.049 A 
ATOM     61  C   UNL A   1      43.807  26.414  27.495  1.00  0.00     0.074 A 
ATOM     62  C   UNL A   1      47.693  31.371  27.790  1.00  0.00     0.029 A 
ATOM     63  N   UNL A   1      45.941  30.009  27.866  1.00  0.00    -0.354 N 
ATOM     64  N   UNL A   1      44.547  27.491  27.585  1.00  0.00    -0.248 NA
ATOM     65  C   UNL A   1      44.479  25.271  26.866  1.00  0.00     0.031 C 
ATOM     66  C   UNL A   1      48.066  30.146  27.224  1.00  0.00     0.029 A 
ATOM     67  C   UNL A   1      46.981  29.291  27.298  1.00  0.00     0.049 A 
ATOM     68  H   UNL A   1      45.037  29.656  28.038  1.00  0.00     0.167 HD
ATOM     69  C   UNL A   1      45.780  27.148  27.044  1.00  0.00     0.074 A 
ATOM     70  C   UNL A   1      45.692  25.758  26.653  1.00  0.00     0.031 C 
ATOM     71  C   UNL A   1      46.885  27.916  26.885  1.00  0.00     0.037 A 
BRANCH  58  72
ATOM     72  C   UNL A   1      46.127  33.702  28.859  1.00  0.00     0.057 A 
ATOM     73  C   UNL A   1      46.152  34.592  27.773  1.00  0.00     0.134 A 
ATOM     74  C   UNL A   1      46.797  34.106  30.023  1.00  0.00     0.134 A 
ATOM     75  F   UNL A   1      45.554  34.270  26.616  1.00  0.00    -0.206 F 
ATOM     76  C   UNL A   1      46.825  35.817  27.835  1.00  0.00     0.040 A 
ATOM     77  C   UNL A   1      47.448  35.342  30.107  1.00  0.00     0.040 A 
ATOM     78  F   UNL A   1      46.828  33.307  31.100  1.00  0.00    -0.206 F 
ATOM     79  C   UNL A   1      47.472  36.197  29.008  1.00  0.00     0.006 A 
ENDBRANCH  58  72
BRANCH  59  80
ATOM     80  C   UNL A   1      41.738  24.877  27.768  1.00  0.00     0.057 A 
ATOM     81  C   UNL A   1      42.038  23.793  28.602  1.00  0.00     0.134 A 
ATOM     82  C   UNL A   1      40.833  24.669  26.724  1.00  0.00     0.134 A 
ATOM     83  F   UNL A   1      42.922  23.931  29.602  1.00  0.00    -0.206 F 
ATOM     84  C   UNL A   1      41.471  22.539  28.391  1.00  0.00     0.040 A 
ATOM     85  C   UNL A   1      40.234  23.430  26.522  1.00  0.00     0.040 A 
ATOM     86  F   UNL A   1      40.511  25.677  25.900  1.00  0.00    -0.206 F 
ATOM     87  C   UNL A   1      40.560  22.358  27.354  1.00  0.00     0.006 A 
ENDBRANCH  59  80
BRANCH  71  88
ATOM     88  C   UNL A   1      48.088  27.258  26.277  1.00  0.00     0.057 A 
ATOM     89  C   UNL A   1      48.276  27.250  24.889  1.00  0.00     0.134 A 
ATOM     90  C   UNL A   1      49.076  26.652  27.065  1.00  0.00     0.134 A 
ATOM     91  F   UNL A   1      47.365  27.801  24.074  1.00  0.00    -0.206 F 
ATOM     92  C   UNL A   1      49.410  26.679  24.310  1.00  0.00     0.040 A 
ATOM     93  C   UNL A   1      50.230  26.105  26.500  1.00  0.00     0.040 A 
ATOM     94  F   UNL A   1      48.963  26.637  28.403  1.00  0.00    -0.206 F 
ATOM     95  C   UNL A   1      50.398  26.117  25.117  1.00  0.00     0.006 A 
ENDBRANCH  71  88
ENDBRANCH  45  46
ENDBRANCH  38  40
ENDBRANCH  37  38
ENDBRANCH  36  37
ENDBRANCH  35  36
ENDBRANCH  34  35
ENDBRANCH  33  34
ENDBRANCH   1  33
TORSDOF 21
ENDMDL
MODEL 2
REMARK VINA RESULT:     -11.0      4.815     10.619
REMARK SMILES Cc1cc(=O)c(Oc2ccc(C(=O)OCCOCCOCCOC(=O)c3ccc(-c4c5nc(c(-c6c(F)cccc6F)c6ccc([nH]6)c(-c6c(F)cccc6F)c6nc(c(-c7c(F)cccc7F)c7ccc4[nH]7)C=C6)C=C5)cc3)cc2)c(-c2ccc(S(C)(=O)=O)cc2)o1
REMARK SMILES IDX 18 1 17 2 16 3 15 4 14 5 12 6 13 7 11 8 8 9 9 10 81 11 10 12
REMARK SMILES IDX 80 13 7 14 6 15 1 16 2 17 3 18 93 19 4 20 82 21 5 22 83 23
REMARK SMILES IDX 84 24 92 25 85 26 91 27 86 28 87 29 88 30 89 31 90 32 19 33
REMARK SMILES IDX 20 34 21 35 22 36 23 37 24 38 25 39 26 40 27 41 79 42 28 43
REMARK SMILES IDX 78 44 29 45 30 46 31 47 72 48 32 49 77 50 71 51 73 52 33 53
REMARK SMILES IDX 76 54 70 55 69 56 34 58 60 59 43 60 59 61 44 62 47 63 58 64
REMARK SMILES IDX 74 65 45 66 46 67 57 69 75 70 48 71 35 72 36 73 41 74 37 75
REMARK SMILES IDX 38 76 40 77 42 78 39 79 61 80 62 81 67 82 63 83 64 84 66 85
REMARK SMILES IDX 68 86 65 87 49 88 50 89 55 90 51 91 52 92 54 93 56 94 53 95
REMARK H PARENT 73 57 47 68
REMARK Flexibility Score: inf
ROOT
ATOM      1  C   UNL A   1      42.623  18.873  26.759  1.00  0.00     0.188 C 
ENDROOT
BRANCH   1   2
ATOM      2  O   UNL A   1      41.484  19.623  27.151  1.00  0.00    -0.376 OA
BRANCH   2   3
ATOM      3  C   UNL A   1      41.221  20.781  26.390  1.00  0.00     0.202 C 
BRANCH   3   4
ATOM      4  C   UNL A   1      40.045  21.615  26.917  1.00  0.00     0.261 C 
BRANCH   4   5
ATOM      5  O   UNL A   1      39.355  22.321  25.868  1.00  0.00    -0.460 OA
BRANCH   5   6
ATOM      6  C   UNL A   1      38.268  21.683  25.356  1.00  0.00     0.338 C 
ATOM      7  O   UNL A   1      38.146  20.477  25.212  1.00  0.00    -0.246 OA
BRANCH   6   8
ATOM      8  C   UNL A   1      37.177  22.655  25.046  1.00  0.00     0.060 A 
ATOM      9  C   UNL A   1      34.978  24.289  24.409  1.00  0.00     0.127 A 
ATOM     10  C   UNL A   1      35.565  23.498  23.426  1.00  0.00     0.048 A 
ATOM     11  C   UNL A   1      35.543  24.338  25.686  1.00  0.00     0.048 A 
ATOM     12  C   UNL A   1      36.633  22.652  23.753  1.00  0.00     0.019 A 
ATOM     13  C   UNL A   1      36.646  23.534  26.001  1.00  0.00     0.019 A 
BRANCH   9  14
ATOM     14  O   UNL A   1      33.975  25.170  24.123  1.00  0.00    -0.449 OA
BRANCH  14  15
ATOM     15  C   UNL A   1      32.672  25.080  24.593  1.00  0.00     0.217 A 
ATOM     16  C   UNL A   1      28.748  25.313  26.412  1.00  0.00     0.088 C 
ATOM     17  C   UNL A   1      30.089  25.353  25.746  1.00  0.00     0.105 A 
ATOM     18  C   UNL A   1      30.768  26.486  25.557  1.00  0.00     0.098 A 
ATOM     19  O   UNL A   1      30.577  24.123  25.353  1.00  0.00    -0.457 OA
ATOM     20  C   UNL A   1      32.093  26.425  24.925  1.00  0.00     0.228 A 
ATOM     21  C   UNL A   1      31.863  24.014  24.828  1.00  0.00     0.180 A 
ATOM     22  O   UNL A   1      32.700  27.471  24.710  1.00  0.00    -0.285 OA
BRANCH  21  23
ATOM     23  C   UNL A   1      32.207  22.601  24.622  1.00  0.00     0.021 A 
ATOM     24  C   UNL A   1      32.645  21.785  25.674  1.00  0.00     0.013 A 
ATOM     25  C   UNL A   1      32.100  22.045  23.353  1.00  0.00     0.013 A 
ATOM     26  C   UNL A   1      32.876  20.410  25.470  1.00  0.00     0.021 A 
ATOM     27  C   UNL A   1      32.416  20.696  23.153  1.00  0.00     0.021 A 
ATOM     28  C   UNL A   1      32.825  19.856  24.190  1.00  0.00     0.067 A 
BRANCH  28  29
ATOM     29  S   UNL A   1      32.930  18.076  23.921  1.00  0.00     0.175 S 
ATOM     30  C   UNL A   1      32.432  17.070  25.263  1.00  0.00     0.163 C 
ATOM     31  O   UNL A   1      32.014  17.794  22.823  1.00  0.00    -0.224 OA
ATOM     32  O   UNL A   1      34.326  17.760  23.844  1.00  0.00    -0.224 OA
ENDBRANCH  28  29
ENDBRANCH  21  23
ENDBRANCH  14  15
ENDBRANCH   9  14
ENDBRANCH   6   8
ENDBRANCH   5   6
ENDBRANCH   4   5
ENDBRANCH   3   4
ENDBRANCH   2   3
ENDBRANCH   1   2
BRANCH   1  33
ATOM     33  C   UNL A   1      42.941  18.984  25.272  1.00  0.00     0.188 C 
BRANCH  33  34
ATOM     34  O   UNL A   1      44.090  19.738  24.921  1.00  0.00    -0.376 OA
BRANCH  34  35
ATOM     35  C   UNL A   1      44.432  20.612  26.012  1.00  0.00     0.202 C 
BRANCH  35  36
ATOM     36  C   UNL A   1      45.355  21.813  25.689  1.00  0.00     0.261 C 
BRANCH  36  37
ATOM     37  O   UNL A   1      45.074  23.146  26.204  1.00  0.00    -0.460 OA
BRANCH  37  38
ATOM     38  C   UNL A   1      44.463  24.089  25.436  1.00  0.00     0.338 C 
ATOM     39  O   UNL A   1      44.454  24.121  24.219  1.00  0.00    -0.246 OA
BRANCH  38  40
ATOM     40  C   UNL A   1      43.704  25.040  26.334  1.00  0.00     0.060 A 
ATOM     41  C   UNL A   1      44.077  26.381  26.456  1.00  0.00     0.016 A 
ATOM     42  C   UNL A   1      42.648  24.596  27.135  1.00  0.00     0.016 A 
ATOM     43  C   UNL A   1      43.552  27.189  27.496  1.00  0.00     0.010 A 
ATOM     44  C   UNL A   1      42.158  25.389  28.207  1.00  0.00     0.010 A 
ATOM     45  C   UNL A   1      42.660  26.676  28.458  1.00  0.00    -0.014 A 
BRANCH  45  46
ATOM     46  C   UNL A   1      42.072  27.569  29.522  1.00  0.00     0.031 A 
ATOM     47  C   UNL A   1      40.842  28.465  29.404  1.00  0.00     0.074 A 
ATOM     48  C   UNL A   1      42.707  27.559  30.705  1.00  0.00     0.049 A 
ATOM     49  N   UNL A   1      40.239  29.218  30.302  1.00  0.00    -0.248 NA
ATOM     50  C   UNL A   1      40.194  28.540  28.105  1.00  0.00     0.031 C 
ATOM     51  C   UNL A   1      43.903  26.773  31.001  1.00  0.00     0.029 A 
ATOM     52  N   UNL A   1      42.435  28.228  31.866  1.00  0.00    -0.354 N 
ATOM     53  C   UNL A   1      39.149  29.826  29.660  1.00  0.00     0.074 A 
ATOM     54  C   UNL A   1      39.181  29.371  28.293  1.00  0.00     0.031 C 
ATOM     55  C   UNL A   1      44.261  27.000  32.270  1.00  0.00     0.029 A 
ATOM     56  C   UNL A   1      43.338  27.965  32.860  1.00  0.00     0.049 A 
ATOM     57  H   UNL A   1      41.668  28.836  31.976  1.00  0.00     0.167 HD
ATOM     58  C   UNL A   1      38.210  30.683  30.143  1.00  0.00     0.037 A 
ATOM     59  C   UNL A   1      43.427  28.445  34.110  1.00  0.00     0.037 A 
ATOM     60  C   UNL A   1      38.168  31.159  31.504  1.00  0.00     0.049 A 
ATOM     61  C   UNL A   1      42.398  29.399  34.631  1.00  0.00     0.074 A 
ATOM     62  C   UNL A   1      37.219  31.965  32.113  1.00  0.00     0.029 A 
ATOM     63  N   UNL A   1      39.128  30.887  32.462  1.00  0.00    -0.354 N 
ATOM     64  N   UNL A   1      41.346  29.898  34.031  1.00  0.00    -0.248 NA
ATOM     65  C   UNL A   1      42.568  29.841  36.020  1.00  0.00     0.031 C 
ATOM     66  C   UNL A   1      37.635  32.225  33.424  1.00  0.00     0.029 A 
ATOM     67  C   UNL A   1      38.810  31.530  33.647  1.00  0.00     0.049 A 
ATOM     68  H   UNL A   1      39.920  30.318  32.322  1.00  0.00     0.167 HD
ATOM     69  C   UNL A   1      40.716  30.696  34.978  1.00  0.00     0.074 A 
ATOM     70  C   UNL A   1      41.492  30.592  36.195  1.00  0.00     0.031 C 
ATOM     71  C   UNL A   1      39.595  31.447  34.850  1.00  0.00     0.037 A 
BRANCH  58  72
ATOM     72  C   UNL A   1      37.126  31.187  29.212  1.00  0.00     0.057 A 
ATOM     73  C   UNL A   1      37.147  32.505  28.727  1.00  0.00     0.134 A 
ATOM     74  C   UNL A   1      36.002  30.413  28.893  1.00  0.00     0.134 A 
ATOM     75  F   UNL A   1      38.177  33.317  29.007  1.00  0.00    -0.206 F 
ATOM     76  C   UNL A   1      36.092  33.033  27.975  1.00  0.00     0.040 A 
ATOM     77  C   UNL A   1      34.954  30.921  28.116  1.00  0.00     0.040 A 
ATOM     78  F   UNL A   1      35.902  29.148  29.328  1.00  0.00    -0.206 F 
ATOM     79  C   UNL A   1      34.993  32.238  27.664  1.00  0.00     0.006 A 
ENDBRANCH  58  72
BRANCH  59  80
ATOM     80  C   UNL A   1      44.545  27.983  34.961  1.00  0.00     0.057 A 
ATOM     81  C   UNL A   1      45.794  28.615  34.921  1.00  0.00     0.134 A 
ATOM     82  C   UNL A   1      44.400  26.868  35.789  1.00  0.00     0.134 A 
ATOM     83  F   UNL A   1      45.993  29.673  34.121  1.00  0.00    -0.206 F 
ATOM     84  C   UNL A   1      46.869  28.140  35.667  1.00  0.00     0.040 A 
ATOM     85  C   UNL A   1      45.457  26.401  36.565  1.00  0.00     0.040 A 
ATOM     86  F   UNL A   1      43.223  26.231  35.864  1.00  0.00    -0.206 F 
ATOM     87  C   UNL A   1      46.699  27.035  36.498  1.00  0.00     0.006 A 
ENDBRANCH  59  80
BRANCH  71  88
ATOM     88  C   UNL A   1      39.139  32.199  36.065  1.00  0.00     0.057 A 
ATOM     89  C   UNL A   1      39.576  33.509  36.303  1.00  0.00     0.134 A 
ATOM     90  C   UNL A   1      38.247  31.639  36.989  1.00  0.00     0.134 A 
ATOM     91  F   UNL A   1      40.439  34.103  35.467  1.00  0.00    -0.206 F 
ATOM     92  C   UNL A   1      39.129  34.237  37.407  1.00  0.00     0.040 A 
ATOM     93  C   UNL A   1      37.768  32.368  38.079  1.00  0.00     0.040 A 
ATOM     94  F   UNL A   1      37.780  30.393  36.812  1.00  0.00    -0.206 F 
ATOM     95  C   UNL A   1      38.211  33.672  38.290  1.00  0.00     0.006 A 
ENDBRANCH  71  88
ENDBRANCH  45  46
ENDBRANCH  38  40
ENDBRANCH  37  38
ENDBRANCH  36  37
ENDBRANCH  35  36
ENDBRANCH  34  35
ENDBRANCH  33  34
ENDBRANCH   1  33
TORSDOF 21
ENDMDL
MODEL 3
REMARK VINA RESULT:     -10.6      4.992     10.512
REMARK SMILES Cc1cc(=O)c(Oc2ccc(C(=O)OCCOCCOCCOC(=O)c3ccc(-c4c5nc(c(-c6c(F)cccc6F)c6ccc([nH]6)c(-c6c(F)cccc6F)c6nc(c(-c7c(F)cccc7F)c7ccc4[nH]7)C=C6)C=C5)cc3)cc2)c(-c2ccc(S(C)(=O)=O)cc2)o1
REMARK SMILES IDX 18 1 17 2 16 3 15 4 14 5 12 6 13 7 11 8 8 9 9 10 81 11 10 12
REMARK SMILES IDX 80 13 7 14 6 15 1 16 2 17 3 18 93 19 4 20 82 21 5 22 83 23
REMARK SMILES IDX 84 24 92 25 85 26 91 27 86 28 87 29 88 30 89 31 90 32 19 33
REMARK SMILES IDX 20 34 21 35 22 36 23 37 24 38 25 39 26 40 27 41 79 42 28 43
REMARK SMILES IDX 78 44 29 45 30 46 31 47 72 48 32 49 77 50 71 51 73 52 33 53
REMARK SMILES IDX 76 54 70 55 69 56 34 58 60 59 43 60 59 61 44 62 47 63 58 64
REMARK SMILES IDX 74 65 45 66 46 67 57 69 75 70 48 71 35 72 36 73 41 74 37 75
REMARK SMILES IDX 38 76 40 77 42 78 39 79 61 80 62 81 67 82 63 83 64 84 66 85
REMARK SMILES IDX 68 86 65 87 49 88 50 89 55 90 51 91 52 92 54 93 56 94 53 95
REMARK H PARENT 73 57 47 68
REMARK Flexibility Score: inf
ROOT
ATOM      1  C   UNL A   1      42.939  19.117  27.064  1.00  0.00     0.188 C 
ENDROOT
BRANCH   1   2
ATOM      2  O   UNL A   1      41.656  19.676  27.298  1.00  0.00    -0.376 OA
BRANCH   2   3
ATOM      3  C   UNL A   1      41.251  20.679  26.393  1.00  0.00     0.202 C 
BRANCH   3   4
ATOM      4  C   UNL A   1      40.017  21.467  26.853  1.00  0.00     0.261 C 
BRANCH   4   5
ATOM      5  O   UNL A   1      39.359  22.147  25.767  1.00  0.00    -0.460 OA
BRANCH   5   6
ATOM      6  C   UNL A   1      38.271  21.510  25.257  1.00  0.00     0.338 C 
ATOM      7  O   UNL A   1      38.145  20.304  25.118  1.00  0.00    -0.246 OA
BRANCH   6   8
ATOM      8  C   UNL A   1      37.183  22.485  24.940  1.00  0.00     0.060 A 
ATOM      9  C   UNL A   1      34.988  24.123  24.302  1.00  0.00     0.127 A 
ATOM     10  C   UNL A   1      35.544  23.294  23.332  1.00  0.00     0.048 A 
ATOM     11  C   UNL A   1      35.583  24.206  25.563  1.00  0.00     0.048 A 
ATOM     12  C   UNL A   1      36.609  22.446  23.661  1.00  0.00     0.019 A 
ATOM     13  C   UNL A   1      36.684  23.399  25.879  1.00  0.00     0.019 A 
BRANCH   9  14
ATOM     14  O   UNL A   1      33.988  25.006  24.011  1.00  0.00    -0.449 OA
BRANCH  14  15
ATOM     15  C   UNL A   1      32.701  24.957  24.528  1.00  0.00     0.217 A 
ATOM     16  C   UNL A   1      28.836  25.344  26.442  1.00  0.00     0.088 C 
ATOM     17  C   UNL A   1      30.154  25.328  25.734  1.00  0.00     0.105 A 
ATOM     18  C   UNL A   1      30.825  26.440  25.428  1.00  0.00     0.098 A 
ATOM     19  O   UNL A   1      30.633  24.068  25.431  1.00  0.00    -0.457 OA
ATOM     20  C   UNL A   1      32.130  26.325  24.762  1.00  0.00     0.228 A 
ATOM     21  C   UNL A   1      31.903  23.915  24.878  1.00  0.00     0.180 A 
ATOM     22  O   UNL A   1      32.727  27.349  24.440  1.00  0.00    -0.285 OA
BRANCH  21  23
ATOM     23  C   UNL A   1      32.243  22.489  24.782  1.00  0.00     0.021 A 
ATOM     24  C   UNL A   1      32.069  21.765  23.595  1.00  0.00     0.013 A 
ATOM     25  C   UNL A   1      32.753  21.828  25.893  1.00  0.00     0.013 A 
ATOM     26  C   UNL A   1      32.492  20.425  23.501  1.00  0.00     0.021 A 
ATOM     27  C   UNL A   1      33.090  20.472  25.804  1.00  0.00     0.021 A 
ATOM     28  C   UNL A   1      32.953  19.737  24.625  1.00  0.00     0.067 A 
BRANCH  28  29
ATOM     29  S   UNL A   1      33.675  18.089  24.501  1.00  0.00     0.175 S 
ATOM     30  C   UNL A   1      33.290  17.193  23.048  1.00  0.00     0.163 C 
ATOM     31  O   UNL A   1      35.117  18.295  24.496  1.00  0.00    -0.224 OA
ATOM     32  O   UNL A   1      33.027  17.288  25.497  1.00  0.00    -0.224 OA
ENDBRANCH  28  29
ENDBRANCH  21  23
ENDBRANCH  14  15
ENDBRANCH   9  14
ENDBRANCH   6   8
ENDBRANCH   5   6
ENDBRANCH   4   5
ENDBRANCH   3   4
ENDBRANCH   2   3
ENDBRANCH   1   2
BRANCH   1  33
ATOM     33  C   UNL A   1      43.221  18.837  25.592  1.00  0.00     0.188 C 
BRANCH  33  34
ATOM     34  O   UNL A   1      44.340  19.496  25.021  1.00  0.00    -0.376 OA
BRANCH  34  35
ATOM     35  C   UNL A   1      44.701  20.615  25.849  1.00  0.00     0.202 C 
BRANCH  35  36
ATOM     36  C   UNL A   1      45.274  21.865  25.135  1.00  0.00     0.261 C 
BRANCH  36  37
ATOM     37  O   UNL A   1      45.045  23.207  25.653  1.00  0.00    -0.460 OA
BRANCH  37  38
ATOM     38  C   UNL A   1      43.813  23.785  25.607  1.00  0.00     0.338 C 
ATOM     39  O   UNL A   1      42.997  23.653  24.712  1.00  0.00    -0.246 OA
BRANCH  38  40
ATOM     40  C   UNL A   1      43.574  24.537  26.896  1.00  0.00     0.060 A 
ATOM     41  C   UNL A   1      42.493  24.233  27.728  1.00  0.00     0.016 A 
ATOM     42  C   UNL A   1      44.383  25.615  27.269  1.00  0.00     0.016 A 
ATOM     43  C   UNL A   1      42.113  25.110  28.774  1.00  0.00     0.010 A 
ATOM     44  C   UNL A   1      43.975  26.519  28.285  1.00  0.00     0.010 A 
ATOM     45  C   UNL A   1      42.785  26.326  29.006  1.00  0.00    -0.014 A 
BRANCH  45  46
ATOM     46  C   UNL A   1      42.397  27.217  30.160  1.00  0.00     0.031 A 
ATOM     47  C   UNL A   1      43.063  27.299  31.532  1.00  0.00     0.074 A 
ATOM     48  C   UNL A   1      41.353  28.030  29.941  1.00  0.00     0.049 A 
ATOM     49  N   UNL A   1      42.821  28.089  32.559  1.00  0.00    -0.248 NA
ATOM     50  C   UNL A   1      44.147  26.368  31.804  1.00  0.00     0.031 C 
ATOM     51  C   UNL A   1      40.587  28.085  28.698  1.00  0.00     0.029 A 
ATOM     52  N   UNL A   1      40.761  28.956  30.755  1.00  0.00    -0.354 N 
ATOM     53  C   UNL A   1      43.734  27.743  33.566  1.00  0.00     0.074 A 
ATOM     54  C   UNL A   1      44.525  26.659  33.038  1.00  0.00     0.031 C 
ATOM     55  C   UNL A   1      39.625  29.007  28.828  1.00  0.00     0.029 A 
ATOM     56  C   UNL A   1      39.694  29.581  30.168  1.00  0.00     0.049 A 
ATOM     57  H   UNL A   1      41.071  29.155  31.668  1.00  0.00     0.167 HD
ATOM     58  C   UNL A   1      43.908  28.260  34.812  1.00  0.00     0.037 A 
ATOM     59  C   UNL A   1      38.851  30.509  30.648  1.00  0.00     0.037 A 
ATOM     60  C   UNL A   1      43.120  29.335  35.362  1.00  0.00     0.049 A 
ATOM     61  C   UNL A   1      39.039  31.063  32.025  1.00  0.00     0.074 A 
ATOM     62  C   UNL A   1      43.263  29.982  36.580  1.00  0.00     0.029 A 
ATOM     63  N   UNL A   1      42.028  29.908  34.736  1.00  0.00    -0.354 N 
ATOM     64  N   UNL A   1      39.947  30.772  32.923  1.00  0.00    -0.248 NA
ATOM     65  C   UNL A   1      38.084  32.096  32.444  1.00  0.00     0.031 C 
ATOM     66  C   UNL A   1      42.223  30.910  36.713  1.00  0.00     0.029 A 
ATOM     67  C   UNL A   1      41.471  30.881  35.552  1.00  0.00     0.049 A 
ATOM     68  H   UNL A   1      41.695  29.663  33.842  1.00  0.00     0.167 HD
ATOM     69  C   UNL A   1      39.685  31.603  34.006  1.00  0.00     0.074 A 
ATOM     70  C   UNL A   1      38.551  32.423  33.640  1.00  0.00     0.031 C 
ATOM     71  C   UNL A   1      40.327  31.679  35.197  1.00  0.00     0.037 A 
BRANCH  58  72
ATOM     72  C   UNL A   1      44.992  27.687  35.701  1.00  0.00     0.057 A 
ATOM     73  C   UNL A   1      44.710  26.651  36.607  1.00  0.00     0.134 A 
ATOM     74  C   UNL A   1      46.280  28.237  35.751  1.00  0.00     0.134 A 
ATOM     75  F   UNL A   1      43.494  26.086  36.637  1.00  0.00    -0.206 F 
ATOM     76  C   UNL A   1      45.658  26.196  37.530  1.00  0.00     0.040 A 
ATOM     77  C   UNL A   1      47.247  27.770  36.649  1.00  0.00     0.040 A 
ATOM     78  F   UNL A   1      46.624  29.237  34.926  1.00  0.00    -0.206 F 
ATOM     79  C   UNL A   1      46.933  26.753  37.549  1.00  0.00     0.006 A 
ENDBRANCH  58  72
BRANCH  59  80
ATOM     80  C   UNL A   1      37.760  30.986  29.772  1.00  0.00     0.057 A 
ATOM     81  C   UNL A   1      36.629  30.198  29.529  1.00  0.00     0.134 A 
ATOM     82  C   UNL A   1      37.854  32.217  29.117  1.00  0.00     0.134 A 
ATOM     83  F   UNL A   1      36.503  28.995  30.110  1.00  0.00    -0.206 F 
ATOM     84  C   UNL A   1      35.633  30.613  28.648  1.00  0.00     0.040 A 
ATOM     85  C   UNL A   1      36.851  32.659  28.260  1.00  0.00     0.040 A 
ATOM     86  F   UNL A   1      38.917  33.009  29.320  1.00  0.00    -0.206 F 
ATOM     87  C   UNL A   1      35.739  31.850  28.018  1.00  0.00     0.006 A 
ENDBRANCH  59  80
BRANCH  71  88
ATOM     88  C   UNL A   1      39.823  32.696  36.178  1.00  0.00     0.057 A 
ATOM     89  C   UNL A   1      40.398  33.971  36.249  1.00  0.00     0.134 A 
ATOM     90  C   UNL A   1      38.749  32.424  37.037  1.00  0.00     0.134 A 
ATOM     91  F   UNL A   1      41.437  34.295  35.465  1.00  0.00    -0.206 F 
ATOM     92  C   UNL A   1      39.914  34.942  37.127  1.00  0.00     0.040 A 
ATOM     93  C   UNL A   1      38.235  33.397  37.896  1.00  0.00     0.040 A 
ATOM     94  F   UNL A   1      38.144  31.226  37.009  1.00  0.00    -0.206 F 
ATOM     95  C   UNL A   1      38.820  34.661  37.943  1.00  0.00     0.006 A 
ENDBRANCH  71  88
ENDBRANCH  45  46
ENDBRANCH  38  40
ENDBRANCH  37  38
ENDBRANCH  36  37
ENDBRANCH  35  36
ENDBRANCH  34  35
ENDBRANCH  33  34
ENDBRANCH   1  33
TORSDOF 21
ENDMDL
