MODEL 1
REMARK VINA RESULT:      -7.6      0.000      0.000
REMARK SMILES CC(C)c1ccc2c(c1)c(SC(C)(C)C)c(CC(C)(C)C(=O)OCCOCCOCCOC(=O)c1ccc(-c3c4nc(c(-c5c(F)cccc5F)c5ccc([nH]5)c(-c5c(F)cccc5F)c5nc(c(-c6c(F)cccc6F)c6ccc3[nH]6)C=C5)C=C4)cc1)n2Cc1ccc(Cl)cc1
REMARK SMILES IDX 27 1 26 2 25 3 24 4 23 5 21 6 22 7 18 8 19 9 20 10 17 11
REMARK SMILES IDX 16 12 4 13 5 14 9 15 6 16 8 17 7 18 10 19 89 20 2 21 1 22
REMARK SMILES IDX 3 23 11 24 12 25 13 26 14 27 15 28 90 29 91 30 92 31 97 32
REMARK SMILES IDX 93 33 96 34 94 35 95 36 28 37 29 38 30 39 31 40 32 41 33 42
REMARK SMILES IDX 34 43 35 44 36 45 88 46 37 47 87 48 38 49 39 50 40 51 81 52
REMARK SMILES IDX 41 53 86 54 80 55 82 56 42 57 85 58 79 59 78 60 43 62 69 63
REMARK SMILES IDX 52 64 68 65 53 66 56 67 67 68 83 69 54 70 55 71 66 73 84 74
REMARK SMILES IDX 57 75 44 76 45 77 50 78 46 79 47 80 49 81 51 82 48 83 70 84
REMARK SMILES IDX 71 85 76 86 72 87 73 88 75 89 77 90 74 91 58 92 59 93 64 94
REMARK SMILES IDX 60 95 61 96 63 97 65 98 62 99
REMARK H PARENT 82 61 56 72
REMARK Flexibility Score: inf
ROOT
ATOM      1  C   UNL A   1      48.786  25.106  33.443  1.00  0.00     0.188 C 
ENDROOT
BRANCH   1   2
ATOM      2  O   UNL A   1      49.029  25.388  32.087  1.00  0.00    -0.376 OA
BRANCH   2   3
ATOM      3  C   UNL A   1      48.206  26.465  31.591  1.00  0.00     0.202 C 
BRANCH   3   4
ATOM      4  C   UNL A   1      46.790  26.276  30.964  1.00  0.00     0.261 C 
BRANCH   4   5
ATOM      5  O   UNL A   1      46.687  26.638  29.583  1.00  0.00    -0.463 OA
BRANCH   5   6
ATOM      6  C   UNL A   1      45.593  26.087  28.996  1.00  0.00     0.311 C 
ATOM      7  O   UNL A   1      45.512  24.888  28.762  1.00  0.00    -0.252 OA
BRANCH   6   8
ATOM      8  C   UNL A   1      44.511  27.120  28.641  1.00  0.00     0.068 C 
ATOM      9  C   UNL A   1      44.676  26.929  27.111  1.00  0.00     0.024 C 
ATOM     10  C   UNL A   1      44.741  28.653  28.840  1.00  0.00     0.024 C 
BRANCH   8  11
ATOM     11  C   UNL A   1      43.217  26.786  29.558  1.00  0.00     0.073 C 
BRANCH  11  12
ATOM     12  C   UNL A   1      42.059  27.700  29.460  1.00  0.00     0.034 A 
ATOM     13  C   UNL A   1      37.569  29.616  28.684  1.00  0.00    -0.045 A 
ATOM     14  C   UNL A   1      38.132  30.201  29.956  1.00  0.00     0.006 A 
ATOM     15  C   UNL A   1      38.750  28.598  28.293  1.00  0.00     0.015 A 
ATOM     16  C   UNL A   1      39.372  29.907  30.585  1.00  0.00     0.027 A 
ATOM     17  C   UNL A   1      40.027  28.343  28.827  1.00  0.00     0.014 A 
ATOM     18  C   UNL A   1      40.292  29.026  29.996  1.00  0.00     0.050 A 
ATOM     19  C   UNL A   1      41.151  27.521  28.439  1.00  0.00     0.037 A 
ATOM     20  N   UNL A   1      41.613  28.747  30.328  1.00  0.00    -0.339 N 
BRANCH  13  21
ATOM     21  C   UNL A   1      35.749  29.960  27.612  1.00  0.00     0.013 C 
ATOM     22  C   UNL A   1      34.312  28.921  27.332  1.00  0.00     0.012 C 
ATOM     23  C   UNL A   1      34.583  31.382  27.679  1.00  0.00     0.012 C 
ENDBRANCH  13  21
BRANCH  19  24
ATOM     24  S   UNL A   1      41.284  26.360  27.011  1.00  0.00    -0.118 SA
BRANCH  24  25
ATOM     25  C   UNL A   1      41.421  24.286  27.270  1.00  0.00     0.012 C 
ATOM     26  C   UNL A   1      42.013  23.558  28.511  1.00  0.00     0.023 C 
ATOM     27  C   UNL A   1      40.241  23.325  26.986  1.00  0.00     0.023 C 
ATOM     28  C   UNL A   1      42.443  24.016  26.137  1.00  0.00     0.023 C 
ENDBRANCH  24  25
ENDBRANCH  19  24
BRANCH  20  29
ATOM     29  C   UNL A   1      42.323  29.851  31.043  1.00  0.00     0.158 C 
BRANCH  29  30
ATOM     30  C   UNL A   1      42.379  31.256  30.473  1.00  0.00    -0.028 A 
ATOM     31  C   UNL A   1      41.789  32.274  31.205  1.00  0.00     0.007 A 
ATOM     32  C   UNL A   1      43.122  31.663  29.350  1.00  0.00     0.007 A 
ATOM     33  C   UNL A   1      41.795  33.614  30.795  1.00  0.00     0.021 A 
ATOM     34  C   UNL A   1      43.123  33.010  28.915  1.00  0.00     0.021 A 
ATOM     35  C   UNL A   1      42.410  33.972  29.617  1.00  0.00     0.041 A 
ATOM     36  Cl  UNL A   1      42.277  35.591  29.055  1.00  0.00    -0.084 Cl
ENDBRANCH  29  30
ENDBRANCH  20  29
ENDBRANCH  11  12
ENDBRANCH   8  11
ENDBRANCH   6   8
ENDBRANCH   5   6
ENDBRANCH   4   5
ENDBRANCH   3   4
ENDBRANCH   2   3
ENDBRANCH   1   2
BRANCH   1  37
ATOM     37  C   UNL A   1      47.401  25.148  34.013  1.00  0.00     0.188 C 
BRANCH  37  38
ATOM     38  O   UNL A   1      47.273  24.438  35.228  1.00  0.00    -0.376 OA
BRANCH  38  39
ATOM     39  C   UNL A   1      46.408  23.344  34.998  1.00  0.00     0.202 C 
BRANCH  39  40
ATOM     40  C   UNL A   1      45.775  23.373  33.573  1.00  0.00     0.261 C 
BRANCH  40  41
ATOM     41  O   UNL A   1      44.319  23.658  33.492  1.00  0.00    -0.460 OA
BRANCH  41  42
ATOM     42  C   UNL A   1      43.661  24.033  34.634  1.00  0.00     0.338 C 
ATOM     43  O   UNL A   1      43.468  23.282  35.578  1.00  0.00    -0.246 OA
BRANCH  42  44
ATOM     44  C   UNL A   1      43.350  25.533  34.736  1.00  0.00     0.060 A 
ATOM     45  C   UNL A   1      43.048  26.236  35.897  1.00  0.00     0.016 A 
ATOM     46  C   UNL A   1      43.356  26.305  33.557  1.00  0.00     0.016 A 
ATOM     47  C   UNL A   1      42.674  27.625  35.838  1.00  0.00     0.010 A 
ATOM     48  C   UNL A   1      42.962  27.692  33.509  1.00  0.00     0.010 A 
ATOM     49  C   UNL A   1      42.527  28.393  34.638  1.00  0.00    -0.014 A 
BRANCH  49  50
ATOM     50  C   UNL A   1      42.149  29.917  34.687  1.00  0.00     0.031 A 
ATOM     51  C   UNL A   1      43.267  30.723  35.160  1.00  0.00     0.074 A 
ATOM     52  C   UNL A   1      41.020  30.710  34.539  1.00  0.00     0.049 A 
ATOM     53  N   UNL A   1      43.323  31.243  36.343  1.00  0.00    -0.248 NA
ATOM     54  C   UNL A   1      44.493  30.818  34.374  1.00  0.00     0.031 C 
ATOM     55  C   UNL A   1      39.724  30.144  34.514  1.00  0.00     0.029 A 
ATOM     56  N   UNL A   1      40.652  32.111  34.489  1.00  0.00    -0.354 N 
ATOM     57  C   UNL A   1      44.394  32.102  36.251  1.00  0.00     0.074 A 
ATOM     58  C   UNL A   1      45.215  31.610  35.170  1.00  0.00     0.031 C 
ATOM     59  C   UNL A   1      38.760  31.017  34.174  1.00  0.00     0.029 A 
ATOM     60  C   UNL A   1      39.322  32.304  33.937  1.00  0.00     0.049 A 
ATOM     61  H   UNL A   1      41.233  32.844  34.793  1.00  0.00     0.167 HD
ATOM     62  C   UNL A   1      44.207  33.368  36.696  1.00  0.00     0.037 A 
ATOM     63  C   UNL A   1      38.419  33.318  33.697  1.00  0.00     0.037 A 
ATOM     64  C   UNL A   1      43.163  33.471  37.684  1.00  0.00     0.049 A 
ATOM     65  C   UNL A   1      38.610  34.323  34.749  1.00  0.00     0.074 A 
ATOM     66  C   UNL A   1      43.036  33.138  39.006  1.00  0.00     0.029 A 
ATOM     67  N   UNL A   1      41.904  33.762  37.223  1.00  0.00    -0.354 N 
ATOM     68  N   UNL A   1      38.163  34.184  35.963  1.00  0.00    -0.248 NA
ATOM     69  C   UNL A   1      39.686  35.276  34.565  1.00  0.00     0.031 C 
ATOM     70  C   UNL A   1      41.655  33.238  39.309  1.00  0.00     0.029 A 
ATOM     71  C   UNL A   1      40.947  33.747  38.222  1.00  0.00     0.049 A 
ATOM     72  H   UNL A   1      41.704  33.961  36.279  1.00  0.00     0.167 HD
ATOM     73  C   UNL A   1      39.208  34.624  36.741  1.00  0.00     0.074 A 
ATOM     74  C   UNL A   1      40.061  35.399  35.838  1.00  0.00     0.031 C 
ATOM     75  C   UNL A   1      39.527  34.002  37.910  1.00  0.00     0.037 A 
BRANCH  62  76
ATOM     76  C   UNL A   1      44.597  34.572  35.894  1.00  0.00     0.057 A 
ATOM     77  C   UNL A   1      43.937  34.967  34.713  1.00  0.00     0.134 A 
ATOM     78  C   UNL A   1      45.416  35.539  36.493  1.00  0.00     0.134 A 
ATOM     79  F   UNL A   1      43.042  34.190  34.095  1.00  0.00    -0.206 F 
ATOM     80  C   UNL A   1      44.077  36.240  34.165  1.00  0.00     0.040 A 
ATOM     81  C   UNL A   1      45.523  36.833  35.980  1.00  0.00     0.040 A 
ATOM     82  F   UNL A   1      46.063  35.273  37.638  1.00  0.00    -0.206 F 
ATOM     83  C   UNL A   1      44.849  37.188  34.815  1.00  0.00     0.006 A 
ENDBRANCH  62  76
BRANCH  63  84
ATOM     84  C   UNL A   1      37.221  33.371  32.760  1.00  0.00     0.057 A 
ATOM     85  C   UNL A   1      35.924  33.107  33.242  1.00  0.00     0.134 A 
ATOM     86  C   UNL A   1      37.306  33.416  31.350  1.00  0.00     0.134 A 
ATOM     87  F   UNL A   1      35.702  32.984  34.555  1.00  0.00    -0.206 F 
ATOM     88  C   UNL A   1      34.813  32.865  32.412  1.00  0.00     0.040 A 
ATOM     89  C   UNL A   1      36.202  33.155  30.501  1.00  0.00     0.040 A 
ATOM     90  F   UNL A   1      38.475  33.654  30.737  1.00  0.00    -0.206 F 
ATOM     91  C   UNL A   1      34.954  32.855  31.033  1.00  0.00     0.006 A 
ENDBRANCH  63  84
BRANCH  75  92
ATOM     92  C   UNL A   1      38.410  33.431  38.802  1.00  0.00     0.057 A 
ATOM     93  C   UNL A   1      38.188  34.290  40.389  1.00  0.00     0.134 A 
ATOM     94  C   UNL A   1      37.421  31.924  38.537  1.00  0.00     0.134 A 
ATOM     95  F   UNL A   1      38.617  35.558  40.530  1.00  0.00    -0.206 F 
ATOM     96  C   UNL A   1      37.238  33.603  41.763  1.00  0.00     0.040 A 
ATOM     97  C   UNL A   1      36.501  31.151  39.962  1.00  0.00     0.040 A 
ATOM     98  F   UNL A   1      37.489  31.202  37.406  1.00  0.00    -0.206 F 
ATOM     99  C   UNL A   1      36.437  32.006  41.562  1.00  0.00     0.006 A 
ENDBRANCH  75  92
ENDBRANCH  49  50
ENDBRANCH  42  44
ENDBRANCH  41  42
ENDBRANCH  40  41
ENDBRANCH  39  40
ENDBRANCH  38  39
ENDBRANCH  37  38
ENDBRANCH   1  37
TORSDOF 24
ENDMDL
MODEL 2
REMARK VINA RESULT:      -7.5      9.758     14.080
REMARK SMILES CC(C)c1ccc2c(c1)c(SC(C)(C)C)c(CC(C)(C)C(=O)OCCOCCOCCOC(=O)c1ccc(-c3c4nc(c(-c5c(F)cccc5F)c5ccc([nH]5)c(-c5c(F)cccc5F)c5nc(c(-c6c(F)cccc6F)c6ccc3[nH]6)C=C5)C=C4)cc1)n2Cc1ccc(Cl)cc1
REMARK SMILES IDX 27 1 26 2 25 3 24 4 23 5 21 6 22 7 18 8 19 9 20 10 17 11
REMARK SMILES IDX 16 12 4 13 5 14 9 15 6 16 8 17 7 18 10 19 89 20 2 21 1 22
REMARK SMILES IDX 3 23 11 24 12 25 13 26 14 27 15 28 90 29 91 30 92 31 97 32
REMARK SMILES IDX 93 33 96 34 94 35 95 36 28 37 29 38 30 39 31 40 32 41 33 42
REMARK SMILES IDX 34 43 35 44 36 45 88 46 37 47 87 48 38 49 39 50 40 51 81 52
REMARK SMILES IDX 41 53 86 54 80 55 82 56 42 57 85 58 79 59 78 60 43 62 69 63
REMARK SMILES IDX 52 64 68 65 53 66 56 67 67 68 83 69 54 70 55 71 66 73 84 74
REMARK SMILES IDX 57 75 44 76 45 77 50 78 46 79 47 80 49 81 51 82 48 83 70 84
REMARK SMILES IDX 71 85 76 86 72 87 73 88 75 89 77 90 74 91 58 92 59 93 64 94
REMARK SMILES IDX 60 95 61 96 63 97 65 98 62 99
REMARK H PARENT 82 61 56 72
REMARK Flexibility Score: inf
ROOT
ATOM      1  C   UNL A   1      47.133  41.080  28.585  1.00  0.00     0.188 C 
ENDROOT
BRANCH   1   2
ATOM      2  O   UNL A   1      47.496  42.437  28.634  1.00  0.00    -0.376 OA
BRANCH   2   3
ATOM      3  C   UNL A   1      46.386  43.317  28.357  1.00  0.00     0.202 C 
BRANCH   3   4
ATOM      4  C   UNL A   1      46.524  44.735  27.721  1.00  0.00     0.261 C 
BRANCH   4   5
ATOM      5  O   UNL A   1      47.440  44.818  26.624  1.00  0.00    -0.463 OA
BRANCH   5   6
ATOM      6  C   UNL A   1      46.818  44.635  25.430  1.00  0.00     0.311 C 
ATOM      7  O   UNL A   1      45.614  44.432  25.346  1.00  0.00    -0.252 OA
BRANCH   6   8
ATOM      8  C   UNL A   1      47.781  44.681  24.232  1.00  0.00     0.068 C 
ATOM      9  C   UNL A   1      49.050  44.786  25.117  1.00  0.00     0.024 C 
ATOM     10  C   UNL A   1      47.882  45.937  23.307  1.00  0.00     0.024 C 
BRANCH   8  11
ATOM     11  C   UNL A   1      47.354  43.479  23.232  1.00  0.00     0.073 C 
BRANCH  11  12
ATOM     12  C   UNL A   1      46.992  43.843  21.846  1.00  0.00     0.034 A 
ATOM     13  C   UNL A   1      44.851  45.827  17.857  1.00  0.00    -0.045 A 
ATOM     14  C   UNL A   1      46.342  45.770  17.628  1.00  0.00     0.006 A 
ATOM     15  C   UNL A   1      44.772  45.254  19.357  1.00  0.00     0.015 A 
ATOM     16  C   UNL A   1      47.351  45.315  18.520  1.00  0.00     0.027 A 
ATOM     17  C   UNL A   1      45.724  44.707  20.237  1.00  0.00     0.014 A 
ATOM     18  C   UNL A   1      47.021  44.769  19.770  1.00  0.00     0.050 A 
ATOM     19  C   UNL A   1      45.671  44.085  21.541  1.00  0.00     0.037 A 
ATOM     20  N   UNL A   1      47.810  44.103  20.700  1.00  0.00    -0.339 N 
BRANCH  13  21
ATOM     21  C   UNL A   1      43.219  46.461  16.625  1.00  0.00     0.013 C 
ATOM     22  C   UNL A   1      41.623  45.717  16.281  1.00  0.00     0.012 C 
ATOM     23  C   UNL A   1      42.370  48.089  16.528  1.00  0.00     0.012 C 
ENDBRANCH  13  21
BRANCH  19  24
ATOM     24  S   UNL A   1      44.204  43.829  22.631  1.00  0.00    -0.118 SA
BRANCH  24  25
ATOM     25  C   UNL A   1      42.371  43.137  21.888  1.00  0.00     0.012 C 
ATOM     26  C   UNL A   1      41.136  42.728  22.741  1.00  0.00     0.023 C 
ATOM     27  C   UNL A   1      41.623  43.829  20.723  1.00  0.00     0.023 C 
ATOM     28  C   UNL A   1      42.894  41.803  21.298  1.00  0.00     0.023 C 
ENDBRANCH  24  25
ENDBRANCH  19  24
BRANCH  20  29
ATOM     29  C   UNL A   1      49.007  43.417  20.124  1.00  0.00     0.158 C 
BRANCH  29  30
ATOM     30  C   UNL A   1      50.380  43.558  20.755  1.00  0.00    -0.028 A 
ATOM     31  C   UNL A   1      51.469  43.081  20.043  1.00  0.00     0.007 A 
ATOM     32  C   UNL A   1      50.682  44.280  21.924  1.00  0.00     0.007 A 
ATOM     33  C   UNL A   1      52.787  43.173  20.509  1.00  0.00     0.021 A 
ATOM     34  C   UNL A   1      52.007  44.366  22.415  1.00  0.00     0.021 A 
ATOM     35  C   UNL A   1      53.049  43.762  21.726  1.00  0.00     0.041 A 
ATOM     36  Cl  UNL A   1      54.650  43.730  22.349  1.00  0.00    -0.084 Cl
ENDBRANCH  29  30
ENDBRANCH  20  29
ENDBRANCH  11  12
ENDBRANCH   8  11
ENDBRANCH   6   8
ENDBRANCH   5   6
ENDBRANCH   4   5
ENDBRANCH   3   4
ENDBRANCH   2   3
ENDBRANCH   1   2
BRANCH   1  37
ATOM     37  C   UNL A   1      45.695  40.659  28.541  1.00  0.00     0.188 C 
BRANCH  37  38
ATOM     38  O   UNL A   1      45.324  40.061  27.315  1.00  0.00    -0.376 OA
BRANCH  38  39
ATOM     39  C   UNL A   1      46.388  40.249  26.405  1.00  0.00     0.202 C 
BRANCH  39  40
ATOM     40  C   UNL A   1      46.884  38.909  25.780  1.00  0.00     0.261 C 
BRANCH  40  41
ATOM     41  O   UNL A   1      46.215  37.666  26.242  1.00  0.00    -0.460 OA
BRANCH  41  42
ATOM     42  C   UNL A   1      46.769  36.972  27.286  1.00  0.00     0.338 C 
ATOM     43  O   UNL A   1      47.784  37.328  27.868  1.00  0.00    -0.246 OA
BRANCH  42  44
ATOM     44  C   UNL A   1      45.916  35.812  27.815  1.00  0.00     0.060 A 
ATOM     45  C   UNL A   1      44.759  35.306  27.233  1.00  0.00     0.016 A 
ATOM     46  C   UNL A   1      46.309  35.174  29.009  1.00  0.00     0.016 A 
ATOM     47  C   UNL A   1      43.995  34.277  27.891  1.00  0.00     0.010 A 
ATOM     48  C   UNL A   1      45.526  34.157  29.667  1.00  0.00     0.010 A 
ATOM     49  C   UNL A   1      44.293  33.719  29.176  1.00  0.00    -0.014 A 
BRANCH  49  50
ATOM     50  C   UNL A   1      43.412  32.572  29.790  1.00  0.00     0.031 A 
ATOM     51  C   UNL A   1      43.809  31.268  29.271  1.00  0.00     0.074 A 
ATOM     52  C   UNL A   1      42.278  32.444  30.578  1.00  0.00     0.049 A 
ATOM     53  N   UNL A   1      43.123  30.606  28.398  1.00  0.00    -0.248 NA
ATOM     54  C   UNL A   1      45.131  30.727  29.572  1.00  0.00     0.031 C 
ATOM     55  C   UNL A   1      41.444  33.553  30.848  1.00  0.00     0.029 A 
ATOM     56  N   UNL A   1      41.496  31.414  31.232  1.00  0.00    -0.354 N 
ATOM     57  C   UNL A   1      43.723  29.368  28.410  1.00  0.00     0.074 A 
ATOM     58  C   UNL A   1      45.064  29.573  28.903  1.00  0.00     0.031 C 
ATOM     59  C   UNL A   1      40.503  33.309  31.777  1.00  0.00     0.029 A 
ATOM     60  C   UNL A   1      40.603  31.964  32.236  1.00  0.00     0.049 A 
ATOM     61  H   UNL A   1      41.562  30.455  31.021  1.00  0.00     0.167 HD
ATOM     62  C   UNL A   1      42.908  28.291  28.522  1.00  0.00     0.037 A 
ATOM     63  C   UNL A   1      39.614  31.552  33.105  1.00  0.00     0.037 A 
ATOM     64  C   UNL A   1      41.570  28.543  28.051  1.00  0.00     0.049 A 
ATOM     65  C   UNL A   1      38.922  30.427  32.468  1.00  0.00     0.074 A 
ATOM     66  C   UNL A   1      40.979  28.685  26.824  1.00  0.00     0.029 A 
ATOM     67  N   UNL A   1      40.656  28.961  28.986  1.00  0.00    -0.354 N 
ATOM     68  N   UNL A   1      38.051  30.570  31.512  1.00  0.00    -0.248 NA
ATOM     69  C   UNL A   1      39.534  29.120  32.591  1.00  0.00     0.031 C 
ATOM     70  C   UNL A   1      39.683  29.207  27.066  1.00  0.00     0.029 A 
ATOM     71  C   UNL A   1      39.426  29.272  28.435  1.00  0.00     0.049 A 
ATOM     72  H   UNL A   1      40.856  29.032  29.947  1.00  0.00     0.167 HD
ATOM     73  C   UNL A   1      38.380  29.571  30.627  1.00  0.00     0.074 A 
ATOM     74  C   UNL A   1      39.207  28.636  31.392  1.00  0.00     0.031 C 
ATOM     75  C   UNL A   1      38.325  29.775  29.281  1.00  0.00     0.037 A 
BRANCH  62  76
ATOM     76  C   UNL A   1      43.158  27.188  29.505  1.00  0.00     0.057 A 
ATOM     77  C   UNL A   1      43.643  25.916  29.140  1.00  0.00     0.134 A 
ATOM     78  C   UNL A   1      43.245  27.511  30.866  1.00  0.00     0.134 A 
ATOM     79  F   UNL A   1      43.725  25.515  27.867  1.00  0.00    -0.206 F 
ATOM     80  C   UNL A   1      44.181  25.024  30.065  1.00  0.00     0.040 A 
ATOM     81  C   UNL A   1      43.831  26.646  31.792  1.00  0.00     0.040 A 
ATOM     82  F   UNL A   1      42.841  28.710  31.311  1.00  0.00    -0.206 F 
ATOM     83  C   UNL A   1      44.304  25.400  31.392  1.00  0.00     0.006 A 
ENDBRANCH  62  76
BRANCH  63  84
ATOM     84  C   UNL A   1      39.055  32.223  34.352  1.00  0.00     0.057 A 
ATOM     85  C   UNL A   1      39.306  31.681  35.628  1.00  0.00     0.134 A 
ATOM     86  C   UNL A   1      38.066  33.232  34.346  1.00  0.00     0.134 A 
ATOM     87  F   UNL A   1      40.181  30.680  35.779  1.00  0.00    -0.206 F 
ATOM     88  C   UNL A   1      38.615  32.065  36.793  1.00  0.00     0.040 A 
ATOM     89  C   UNL A   1      37.348  33.616  35.506  1.00  0.00     0.040 A 
ATOM     90  F   UNL A   1      37.711  33.844  33.207  1.00  0.00    -0.206 F 
ATOM     91  C   UNL A   1      37.606  33.015  36.731  1.00  0.00     0.006 A 
ENDBRANCH  63  84
BRANCH  75  92
ATOM     92  C   UNL A   1      37.216  30.660  28.687  1.00  0.00     0.057 A 
ATOM     93  C   UNL A   1      37.452  32.446  28.931  1.00  0.00     0.134 A 
ATOM     94  C   UNL A   1      35.642  30.135  27.935  1.00  0.00     0.134 A 
ATOM     95  F   UNL A   1      38.685  32.932  29.165  1.00  0.00    -0.206 F 
ATOM     96  C   UNL A   1      36.139  33.662  28.687  1.00  0.00     0.040 A 
ATOM     97  C   UNL A   1      34.244  31.353  27.752  1.00  0.00     0.040 A 
ATOM     98  F   UNL A   1      35.347  28.845  27.697  1.00  0.00    -0.206 F 
ATOM     99  C   UNL A   1      34.518  33.104  28.146  1.00  0.00     0.006 A 
ENDBRANCH  75  92
ENDBRANCH  49  50
ENDBRANCH  42  44
ENDBRANCH  41  42
ENDBRANCH  40  41
ENDBRANCH  39  40
ENDBRANCH  38  39
ENDBRANCH  37  38
ENDBRANCH   1  37
TORSDOF 24
ENDMDL
MODEL 3
REMARK VINA RESULT:      -7.3      6.323     11.555
REMARK SMILES CC(C)c1ccc2c(c1)c(SC(C)(C)C)c(CC(C)(C)C(=O)OCCOCCOCCOC(=O)c1ccc(-c3c4nc(c(-c5c(F)cccc5F)c5ccc([nH]5)c(-c5c(F)cccc5F)c5nc(c(-c6c(F)cccc6F)c6ccc3[nH]6)C=C5)C=C4)cc1)n2Cc1ccc(Cl)cc1
REMARK SMILES IDX 27 1 26 2 25 3 24 4 23 5 21 6 22 7 18 8 19 9 20 10 17 11
REMARK SMILES IDX 16 12 4 13 5 14 9 15 6 16 8 17 7 18 10 19 89 20 2 21 1 22
REMARK SMILES IDX 3 23 11 24 12 25 13 26 14 27 15 28 90 29 91 30 92 31 97 32
REMARK SMILES IDX 93 33 96 34 94 35 95 36 28 37 29 38 30 39 31 40 32 41 33 42
REMARK SMILES IDX 34 43 35 44 36 45 88 46 37 47 87 48 38 49 39 50 40 51 81 52
REMARK SMILES IDX 41 53 86 54 80 55 82 56 42 57 85 58 79 59 78 60 43 62 69 63
REMARK SMILES IDX 52 64 68 65 53 66 56 67 67 68 83 69 54 70 55 71 66 73 84 74
REMARK SMILES IDX 57 75 44 76 45 77 50 78 46 79 47 80 49 81 51 82 48 83 70 84
REMARK SMILES IDX 71 85 76 86 72 87 73 88 75 89 77 90 74 91 58 92 59 93 64 94
REMARK SMILES IDX 60 95 61 96 63 97 65 98 62 99
REMARK H PARENT 82 61 56 72
REMARK Flexibility Score: inf
ROOT
ATOM      1  C   UNL A   1      40.689  34.769  36.622  1.00  0.00     0.188 C 
ENDROOT
BRANCH   1   2
ATOM      2  O   UNL A   1      40.192  35.104  35.350  1.00  0.00    -0.376 OA
BRANCH   2   3
ATOM      3  C   UNL A   1      40.413  34.060  34.378  1.00  0.00     0.202 C 
BRANCH   3   4
ATOM      4  C   UNL A   1      39.404  33.678  33.251  1.00  0.00     0.261 C 
BRANCH   4   5
ATOM      5  O   UNL A   1      38.487  32.632  33.591  1.00  0.00    -0.463 OA
BRANCH   5   6
ATOM      6  C   UNL A   1      38.848  31.444  33.039  1.00  0.00     0.311 C 
ATOM      7  O   UNL A   1      39.941  30.933  33.246  1.00  0.00    -0.252 OA
BRANCH   6   8
ATOM      8  C   UNL A   1      37.765  30.848  32.125  1.00  0.00     0.068 C 
ATOM      9  C   UNL A   1      36.597  31.530  32.882  1.00  0.00     0.024 C 
ATOM     10  C   UNL A   1      37.391  29.331  32.176  1.00  0.00     0.024 C 
BRANCH   8  11
ATOM     11  C   UNL A   1      38.246  31.091  30.597  1.00  0.00     0.073 C 
BRANCH  11  12
ATOM     12  C   UNL A   1      37.233  30.935  29.531  1.00  0.00     0.034 A 
ATOM     13  C   UNL A   1      33.893  29.106  26.380  1.00  0.00    -0.045 A 
ATOM     14  C   UNL A   1      33.415  30.454  26.863  1.00  0.00     0.006 A 
ATOM     15  C   UNL A   1      35.246  28.961  27.236  1.00  0.00     0.015 A 
ATOM     16  C   UNL A   1      34.034  31.319  27.806  1.00  0.00     0.027 A 
ATOM     17  C   UNL A   1      35.942  29.823  28.103  1.00  0.00     0.014 A 
ATOM     18  C   UNL A   1      35.281  31.005  28.368  1.00  0.00     0.050 A 
ATOM     19  C   UNL A   1      37.209  29.769  28.799  1.00  0.00     0.037 A 
ATOM     20  N   UNL A   1      36.140  31.775  29.145  1.00  0.00    -0.339 N 
BRANCH  13  21
ATOM     21  C   UNL A   1      33.096  27.707  24.970  1.00  0.00     0.013 C 
ATOM     22  C   UNL A   1      33.384  27.486  23.213  1.00  0.00     0.012 C 
ATOM     23  C   UNL A   1      32.941  25.877  25.074  1.00  0.00     0.012 C 
ENDBRANCH  13  21
BRANCH  19  24
ATOM     24  S   UNL A   1      38.433  28.389  28.846  1.00  0.00    -0.118 SA
BRANCH  24  25
ATOM     25  C   UNL A   1      40.333  28.555  27.978  1.00  0.00     0.012 C 
ATOM     26  C   UNL A   1      41.489  27.523  28.107  1.00  0.00     0.023 C 
ATOM     27  C   UNL A   1      40.547  28.952  26.497  1.00  0.00     0.023 C 
ATOM     28  C   UNL A   1      40.813  29.779  28.798  1.00  0.00     0.023 C 
ENDBRANCH  24  25
ENDBRANCH  19  24
BRANCH  20  29
ATOM     29  C   UNL A   1      36.007  33.250  28.945  1.00  0.00     0.158 C 
BRANCH  29  30
ATOM     30  C   UNL A   1      34.956  34.057  29.686  1.00  0.00    -0.028 A 
ATOM     31  C   UNL A   1      35.006  34.064  31.070  1.00  0.00     0.007 A 
ATOM     32  C   UNL A   1      34.032  34.942  29.102  1.00  0.00     0.007 A 
ATOM     33  C   UNL A   1      34.106  34.789  31.864  1.00  0.00     0.021 A 
ATOM     34  C   UNL A   1      33.105  35.666  29.891  1.00  0.00     0.021 A 
ATOM     35  C   UNL A   1      33.116  35.542  31.273  1.00  0.00     0.041 A 
ATOM     36  Cl  UNL A   1      31.932  36.299  32.261  1.00  0.00    -0.084 Cl
ENDBRANCH  29  30
ENDBRANCH  20  29
ENDBRANCH  11  12
ENDBRANCH   8  11
ENDBRANCH   6   8
ENDBRANCH   5   6
ENDBRANCH   4   5
ENDBRANCH   3   4
ENDBRANCH   2   3
ENDBRANCH   1   2
BRANCH   1  37
ATOM     37  C   UNL A   1      41.657  35.658  37.341  1.00  0.00     0.188 C 
BRANCH  37  38
ATOM     38  O   UNL A   1      41.757  35.379  38.722  1.00  0.00    -0.376 OA
BRANCH  38  39
ATOM     39  C   UNL A   1      42.553  36.388  39.308  1.00  0.00     0.202 C 
BRANCH  39  40
ATOM     40  C   UNL A   1      42.777  37.602  38.355  1.00  0.00     0.261 C 
BRANCH  40  41
ATOM     41  O   UNL A   1      44.179  38.055  38.165  1.00  0.00    -0.460 OA
BRANCH  41  42
ATOM     42  C   UNL A   1      44.401  39.257  37.547  1.00  0.00     0.338 C 
ATOM     43  O   UNL A   1      44.619  40.297  38.152  1.00  0.00    -0.246 OA
BRANCH  42  44
ATOM     44  C   UNL A   1      44.557  39.180  36.022  1.00  0.00     0.060 A 
ATOM     45  C   UNL A   1      44.438  38.038  35.237  1.00  0.00     0.016 A 
ATOM     46  C   UNL A   1      44.857  40.360  35.313  1.00  0.00     0.016 A 
ATOM     47  C   UNL A   1      44.712  38.086  33.824  1.00  0.00     0.010 A 
ATOM     48  C   UNL A   1      45.146  40.392  33.900  1.00  0.00     0.010 A 
ATOM     49  C   UNL A   1      45.163  39.241  33.107  1.00  0.00    -0.014 A 
BRANCH  49  50
ATOM     50  C   UNL A   1      45.398  39.195  31.554  1.00  0.00     0.031 A 
ATOM     51  C   UNL A   1      44.252  39.733  30.832  1.00  0.00     0.074 A 
ATOM     52  C   UNL A   1      46.320  38.671  30.660  1.00  0.00     0.049 A 
ATOM     53  N   UNL A   1      43.402  38.999  30.191  1.00  0.00    -0.248 NA
ATOM     54  C   UNL A   1      43.890  41.141  30.966  1.00  0.00     0.031 C 
ATOM     55  C   UNL A   1      47.289  37.728  31.075  1.00  0.00     0.029 A 
ATOM     56  N   UNL A   1      46.616  38.684  29.242  1.00  0.00    -0.354 N 
ATOM     57  C   UNL A   1      42.676  39.923  29.474  1.00  0.00     0.074 A 
ATOM     58  C   UNL A   1      42.814  41.177  30.175  1.00  0.00     0.031 C 
ATOM     59  C   UNL A   1      48.221  37.466  30.143  1.00  0.00     0.029 A 
ATOM     60  C   UNL A   1      47.964  38.221  28.963  1.00  0.00     0.049 A 
ATOM     61  H   UNL A   1      45.979  38.972  28.549  1.00  0.00     0.167 HD
ATOM     62  C   UNL A   1      42.503  39.678  28.153  1.00  0.00     0.037 A 
ATOM     63  C   UNL A   1      48.783  37.950  27.886  1.00  0.00     0.037 A 
ATOM     64  C   UNL A   1      42.593  38.279  27.821  1.00  0.00     0.049 A 
ATOM     65  C   UNL A   1      47.921  37.479  26.797  1.00  0.00     0.074 A 
ATOM     66  C   UNL A   1      41.787  37.184  27.986  1.00  0.00     0.029 A 
ATOM     67  N   UNL A   1      43.827  37.813  27.443  1.00  0.00    -0.354 N 
ATOM     68  N   UNL A   1      47.421  36.278  26.746  1.00  0.00    -0.248 NA
ATOM     69  C   UNL A   1      47.254  38.488  25.999  1.00  0.00     0.031 C 
ATOM     70  C   UNL A   1      42.591  36.053  27.696  1.00  0.00     0.029 A 
ATOM     71  C   UNL A   1      43.847  36.446  27.236  1.00  0.00     0.049 A 
ATOM     72  H   UNL A   1      44.616  38.393  27.331  1.00  0.00     0.167 HD
ATOM     73  C   UNL A   1      46.124  36.488  26.342  1.00  0.00     0.074 A 
ATOM     74  C   UNL A   1      46.111  37.838  25.776  1.00  0.00     0.031 C 
ATOM     75  C   UNL A   1      45.098  35.757  26.859  1.00  0.00     0.037 A 
BRANCH  62  76
ATOM     76  C   UNL A   1      42.756  40.713  27.100  1.00  0.00     0.057 A 
ATOM     77  C   UNL A   1      44.036  41.223  26.804  1.00  0.00     0.134 A 
ATOM     78  C   UNL A   1      41.764  40.948  26.139  1.00  0.00     0.134 A 
ATOM     79  F   UNL A   1      45.103  40.982  27.573  1.00  0.00    -0.206 F 
ATOM     80  C   UNL A   1      44.314  41.918  25.628  1.00  0.00     0.040 A 
ATOM     81  C   UNL A   1      42.044  41.597  24.935  1.00  0.00     0.040 A 
ATOM     82  F   UNL A   1      40.520  40.476  26.311  1.00  0.00    -0.206 F 
ATOM     83  C   UNL A   1      43.322  42.081  24.675  1.00  0.00     0.006 A 
ENDBRANCH  62  76
BRANCH  63  84
ATOM     84  C   UNL A   1      50.298  37.832  27.805  1.00  0.00     0.057 A 
ATOM     85  C   UNL A   1      51.113  38.972  27.948  1.00  0.00     0.134 A 
ATOM     86  C   UNL A   1      50.990  36.692  27.337  1.00  0.00     0.134 A 
ATOM     87  F   UNL A   1      50.584  40.138  28.333  1.00  0.00    -0.206 F 
ATOM     88  C   UNL A   1      52.482  39.004  27.618  1.00  0.00     0.040 A 
ATOM     89  C   UNL A   1      52.361  36.713  26.982  1.00  0.00     0.040 A 
ATOM     90  F   UNL A   1      50.352  35.528  27.146  1.00  0.00    -0.206 F 
ATOM     91  C   UNL A   1      53.107  37.879  27.101  1.00  0.00     0.006 A 
ENDBRANCH  63  84
BRANCH  75  92
ATOM     92  C   UNL A   1      45.311  34.270  27.195  1.00  0.00     0.057 A 
ATOM     93  C   UNL A   1      44.377  33.112  26.150  1.00  0.00     0.134 A 
ATOM     94  C   UNL A   1      46.233  33.556  28.594  1.00  0.00     0.134 A 
ATOM     95  F   UNL A   1      43.952  33.501  24.934  1.00  0.00    -0.206 F 
ATOM     96  C   UNL A   1      44.141  31.370  26.568  1.00  0.00     0.040 A 
ATOM     97  C   UNL A   1      45.941  31.785  29.095  1.00  0.00     0.040 A 
ATOM     98  F   UNL A   1      46.966  34.304  29.437  1.00  0.00    -0.206 F 
ATOM     99  C   UNL A   1      44.883  30.722  28.072  1.00  0.00     0.006 A 
ENDBRANCH  75  92
ENDBRANCH  49  50
ENDBRANCH  42  44
ENDBRANCH  41  42
ENDBRANCH  40  41
ENDBRANCH  39  40
ENDBRANCH  38  39
ENDBRANCH  37  38
ENDBRANCH   1  37
TORSDOF 24
ENDMDL
