MODEL 1
REMARK VINA RESULT:     -10.5      0.000      0.000
REMARK SMILES O=C(COc1ccc([N+](=O)[O-])cc1)Nc1ccc(C(=O)OCCOCCOCCOC(=O)c2ccc(-c3c4nc(c(-c5c(F)cccc5F)c5ccc([nH]5)c(-c5c(F)cccc5F)c5nc(c(-c6c(F)cccc6F)c6ccc3[nH]6)C=C5)C=C4)cc2)c(O)c1
REMARK SMILES IDX 24 1 23 2 22 3 21 4 19 5 20 6 18 7 15 8 16 9 89 10 17 11
REMARK SMILES IDX 87 12 14 13 1 14 2 15 3 17 4 18 5 19 6 20 13 21 7 22 12 23
REMARK SMILES IDX 8 24 9 25 10 26 11 27 88 28 25 30 26 31 27 32 28 33 29 34
REMARK SMILES IDX 30 35 31 36 32 37 33 38 34 39 86 40 35 41 85 42 36 43 37 44
REMARK SMILES IDX 38 45 79 46 39 47 84 48 78 49 80 50 40 51 83 52 77 53 76 54
REMARK SMILES IDX 41 56 67 57 50 58 66 59 51 60 54 61 65 62 81 63 52 64 53 65
REMARK SMILES IDX 64 67 82 68 55 69 42 70 43 71 48 72 44 73 45 74 47 75 49 76
REMARK SMILES IDX 46 77 68 78 69 79 74 80 70 81 71 82 73 83 75 84 72 85 56 86
REMARK SMILES IDX 57 87 62 88 58 89 59 90 61 91 63 92 60 93
REMARK H PARENT 14 16 88 29 80 55 54 66
REMARK Flexibility Score: inf
ROOT
ATOM      1  O   UNL A   1      35.188  31.869  27.604  1.00  0.00    -0.376 OA
ENDROOT
BRANCH   1   2
ATOM      2  C   UNL A   1      34.046  31.024  27.588  1.00  0.00     0.202 C 
BRANCH   2   3
ATOM      3  C   UNL A   1      32.679  31.540  27.140  1.00  0.00     0.261 C 
BRANCH   3   4
ATOM      4  O   UNL A   1      32.061  30.716  26.147  1.00  0.00    -0.460 OA
BRANCH   4   5
ATOM      5  C   UNL A   1      31.821  29.441  26.531  1.00  0.00     0.341 C 
ATOM      6  O   UNL A   1      31.409  29.071  27.621  1.00  0.00    -0.246 OA
BRANCH   5   7
ATOM      7  C   UNL A   1      31.917  28.512  25.388  1.00  0.00     0.101 A 
ATOM      8  C   UNL A   1      32.029  26.485  23.462  1.00  0.00     0.045 A 
ATOM      9  C   UNL A   1      30.831  26.740  24.137  1.00  0.00     0.027 A 
ATOM     10  C   UNL A   1      33.127  27.327  23.663  1.00  0.00     0.073 A 
ATOM     11  C   UNL A   1      30.783  27.732  25.116  1.00  0.00     0.022 A 
ATOM     12  C   UNL A   1      33.070  28.343  24.622  1.00  0.00     0.132 A 
BRANCH   8  13
ATOM     13  N   UNL A   1      32.091  25.286  22.723  1.00  0.00    -0.323 N 
ATOM     14  O   UNL A   1      33.380  25.931  20.886  1.00  0.00    -0.271 OA
ATOM     15  C   UNL A   1      32.879  25.069  21.602  1.00  0.00     0.262 C 
ATOM     16  H   UNL A   1      31.526  24.539  23.029  1.00  0.00     0.170 HD
BRANCH  15  17
ATOM     17  C   UNL A   1      33.146  23.579  21.349  1.00  0.00     0.329 C 
BRANCH  17  18
ATOM     18  O   UNL A   1      34.153  22.994  22.176  1.00  0.00    -0.484 OA
BRANCH  18  19
ATOM     19  C   UNL A   1      33.791  22.857  23.491  1.00  0.00     0.120 A 
ATOM     20  C   UNL A   1      32.646  22.108  23.765  1.00  0.00     0.053 A 
ATOM     21  C   UNL A   1      34.425  23.562  24.517  1.00  0.00     0.053 A 
ATOM     22  C   UNL A   1      32.129  22.061  25.065  1.00  0.00     0.089 A 
ATOM     23  C   UNL A   1      33.908  23.537  25.815  1.00  0.00     0.089 A 
ATOM     24  C   UNL A   1      32.754  22.793  26.084  1.00  0.00     0.269 A 
BRANCH  24  25
ATOM     25  N   UNL A   1      32.177  22.814  27.434  1.00  0.00     0.062 N 
ATOM     26  O   UNL A   1      32.876  22.392  28.366  1.00  0.00    -0.258 OA
ATOM     27  O   UNL A   1      31.020  23.242  27.559  1.00  0.00    -0.258 OA
ENDBRANCH  24  25
ENDBRANCH  18  19
ENDBRANCH  17  18
ENDBRANCH  15  17
ENDBRANCH   8  13
BRANCH  12  28
ATOM     28  O   UNL A   1      34.169  29.125  24.834  1.00  0.00    -0.507 OA
ATOM     29  H   UNL A   1      34.425  29.756  24.190  1.00  0.00     0.293 HD
ENDBRANCH  12  28
ENDBRANCH   5   7
ENDBRANCH   4   5
ENDBRANCH   3   4
ENDBRANCH   2   3
ENDBRANCH   1   2
BRANCH   1  30
ATOM     30  C   UNL A   1      35.126  33.144  28.213  1.00  0.00     0.188 C 
BRANCH  30  31
ATOM     31  C   UNL A   1      34.379  33.356  29.548  1.00  0.00     0.188 C 
BRANCH  31  32
ATOM     32  O   UNL A   1      34.437  34.581  30.250  1.00  0.00    -0.376 OA
BRANCH  32  33
ATOM     33  C   UNL A   1      34.810  34.610  31.616  1.00  0.00     0.202 C 
BRANCH  33  34
ATOM     34  C   UNL A   1      34.350  33.533  32.601  1.00  0.00     0.261 C 
BRANCH  34  35
ATOM     35  O   UNL A   1      35.013  32.270  32.467  1.00  0.00    -0.460 OA
BRANCH  35  36
ATOM     36  C   UNL A   1      36.183  32.170  33.135  1.00  0.00     0.338 C 
ATOM     37  O   UNL A   1      36.422  32.517  34.287  1.00  0.00    -0.246 OA
BRANCH  36  38
ATOM     38  C   UNL A   1      37.147  31.413  32.326  1.00  0.00     0.060 A 
ATOM     39  C   UNL A   1      38.051  30.569  32.986  1.00  0.00     0.016 A 
ATOM     40  C   UNL A   1      37.205  31.581  30.942  1.00  0.00     0.016 A 
ATOM     41  C   UNL A   1      39.040  29.910  32.263  1.00  0.00     0.010 A 
ATOM     42  C   UNL A   1      38.212  30.936  30.221  1.00  0.00     0.010 A 
ATOM     43  C   UNL A   1      39.150  30.123  30.882  1.00  0.00    -0.014 A 
BRANCH  43  44
ATOM     44  C   UNL A   1      40.345  29.632  30.159  1.00  0.00     0.031 A 
ATOM     45  C   UNL A   1      41.496  30.574  29.949  1.00  0.00     0.074 A 
ATOM     46  C   UNL A   1      40.410  28.369  29.705  1.00  0.00     0.049 A 
ATOM     47  N   UNL A   1      42.617  30.385  29.302  1.00  0.00    -0.248 NA
ATOM     48  C   UNL A   1      41.364  31.912  30.548  1.00  0.00     0.031 C 
ATOM     49  C   UNL A   1      39.374  27.353  29.879  1.00  0.00     0.029 A 
ATOM     50  N   UNL A   1      41.392  27.735  28.988  1.00  0.00    -0.354 N 
ATOM     51  C   UNL A   1      43.320  31.577  29.411  1.00  0.00     0.074 A 
ATOM     52  C   UNL A   1      42.489  32.493  30.164  1.00  0.00     0.031 C 
ATOM     53  C   UNL A   1      39.770  26.223  29.268  1.00  0.00     0.029 A 
ATOM     54  C   UNL A   1      41.068  26.448  28.635  1.00  0.00     0.049 A 
ATOM     55  H   UNL A   1      42.247  28.160  28.750  1.00  0.00     0.167 HD
ATOM     56  C   UNL A   1      44.548  31.881  28.931  1.00  0.00     0.037 A 
ATOM     57  C   UNL A   1      41.736  25.566  27.868  1.00  0.00     0.037 A 
ATOM     58  C   UNL A   1      45.369  30.973  28.174  1.00  0.00     0.049 A 
ATOM     59  C   UNL A   1      43.068  25.953  27.279  1.00  0.00     0.074 A 
ATOM     60  C   UNL A   1      46.636  31.181  27.659  1.00  0.00     0.029 A 
ATOM     61  N   UNL A   1      44.996  29.688  27.813  1.00  0.00    -0.354 N 
ATOM     62  N   UNL A   1      43.739  27.071  27.412  1.00  0.00    -0.248 NA
ATOM     63  C   UNL A   1      43.735  24.951  26.433  1.00  0.00     0.031 C 
ATOM     64  C   UNL A   1      47.010  30.039  26.945  1.00  0.00     0.029 A 
ATOM     65  C   UNL A   1      45.997  29.100  27.059  1.00  0.00     0.049 A 
ATOM     66  H   UNL A   1      44.144  29.257  28.056  1.00  0.00     0.167 HD
ATOM     67  C   UNL A   1      44.916  26.898  26.693  1.00  0.00     0.074 A 
ATOM     68  C   UNL A   1      44.871  25.564  26.134  1.00  0.00     0.031 C 
ATOM     69  C   UNL A   1      45.942  27.766  26.514  1.00  0.00     0.037 A 
BRANCH  56  70
ATOM     70  C   UNL A   1      45.063  33.265  29.188  1.00  0.00     0.057 A 
ATOM     71  C   UNL A   1      44.829  34.321  28.297  1.00  0.00     0.134 A 
ATOM     72  C   UNL A   1      45.788  33.551  30.352  1.00  0.00     0.134 A 
ATOM     73  F   UNL A   1      44.155  34.110  27.156  1.00  0.00    -0.206 F 
ATOM     74  C   UNL A   1      45.318  35.604  28.542  1.00  0.00     0.040 A 
ATOM     75  C   UNL A   1      46.260  34.836  30.621  1.00  0.00     0.040 A 
ATOM     76  F   UNL A   1      46.046  32.586  31.248  1.00  0.00    -0.206 F 
ATOM     77  C   UNL A   1      46.031  35.866  29.711  1.00  0.00     0.006 A 
ENDBRANCH  56  70
BRANCH  57  78
ATOM     78  C   UNL A   1      41.151  24.229  27.593  1.00  0.00     0.057 A 
ATOM     79  C   UNL A   1      41.614  23.085  28.253  1.00  0.00     0.134 A 
ATOM     80  C   UNL A   1      40.129  24.062  26.651  1.00  0.00     0.134 A 
ATOM     81  F   UNL A   1      42.607  23.180  29.149  1.00  0.00    -0.206 F 
ATOM     82  C   UNL A   1      41.095  21.821  27.974  1.00  0.00     0.040 A 
ATOM     83  C   UNL A   1      39.583  22.807  26.379  1.00  0.00     0.040 A 
ATOM     84  F   UNL A   1      39.643  25.119  25.983  1.00  0.00    -0.206 F 
ATOM     85  C   UNL A   1      40.071  21.680  27.037  1.00  0.00     0.006 A 
ENDBRANCH  57  78
BRANCH  69  86
ATOM     86  C   UNL A   1      47.120  27.289  25.714  1.00  0.00     0.057 A 
ATOM     87  C   UNL A   1      47.222  27.519  24.337  1.00  0.00     0.134 A 
ATOM     88  C   UNL A   1      48.186  26.632  26.341  1.00  0.00     0.134 A 
ATOM     89  F   UNL A   1      46.229  28.133  23.674  1.00  0.00    -0.206 F 
ATOM     90  C   UNL A   1      48.335  27.094  23.608  1.00  0.00     0.040 A 
ATOM     91  C   UNL A   1      49.315  26.226  25.628  1.00  0.00     0.040 A 
ATOM     92  F   UNL A   1      48.157  26.389  27.661  1.00  0.00    -0.206 F 
ATOM     93  C   UNL A   1      49.389  26.451  24.255  1.00  0.00     0.006 A 
ENDBRANCH  69  86
ENDBRANCH  43  44
ENDBRANCH  36  38
ENDBRANCH  35  36
ENDBRANCH  34  35
ENDBRANCH  33  34
ENDBRANCH  32  33
ENDBRANCH  31  32
ENDBRANCH  30  31
ENDBRANCH   1  30
TORSDOF 23
ENDMDL
MODEL 2
REMARK VINA RESULT:     -10.4      4.314      9.887
REMARK SMILES O=C(COc1ccc([N+](=O)[O-])cc1)Nc1ccc(C(=O)OCCOCCOCCOC(=O)c2ccc(-c3c4nc(c(-c5c(F)cccc5F)c5ccc([nH]5)c(-c5c(F)cccc5F)c5nc(c(-c6c(F)cccc6F)c6ccc3[nH]6)C=C5)C=C4)cc2)c(O)c1
REMARK SMILES IDX 24 1 23 2 22 3 21 4 19 5 20 6 18 7 15 8 16 9 89 10 17 11
REMARK SMILES IDX 87 12 14 13 1 14 2 15 3 17 4 18 5 19 6 20 13 21 7 22 12 23
REMARK SMILES IDX 8 24 9 25 10 26 11 27 88 28 25 30 26 31 27 32 28 33 29 34
REMARK SMILES IDX 30 35 31 36 32 37 33 38 34 39 86 40 35 41 85 42 36 43 37 44
REMARK SMILES IDX 38 45 79 46 39 47 84 48 78 49 80 50 40 51 83 52 77 53 76 54
REMARK SMILES IDX 41 56 67 57 50 58 66 59 51 60 54 61 65 62 81 63 52 64 53 65
REMARK SMILES IDX 64 67 82 68 55 69 42 70 43 71 48 72 44 73 45 74 47 75 49 76
REMARK SMILES IDX 46 77 68 78 69 79 74 80 70 81 71 82 73 83 75 84 72 85 56 86
REMARK SMILES IDX 57 87 62 88 58 89 59 90 61 91 63 92 60 93
REMARK H PARENT 14 16 88 29 80 55 54 66
REMARK Flexibility Score: inf
ROOT
ATOM      1  O   UNL A   1      33.987  24.216  25.775  1.00  0.00    -0.376 OA
ENDROOT
BRANCH   1   2
ATOM      2  C   UNL A   1      35.400  24.094  25.683  1.00  0.00     0.202 C 
BRANCH   2   3
ATOM      3  C   UNL A   1      36.055  22.831  25.124  1.00  0.00     0.261 C 
BRANCH   3   4
ATOM      4  O   UNL A   1      37.361  22.589  25.655  1.00  0.00    -0.460 OA
BRANCH   4   5
ATOM      5  C   UNL A   1      37.826  21.331  25.479  1.00  0.00     0.341 C 
ATOM      6  O   UNL A   1      37.294  20.438  24.835  1.00  0.00    -0.246 OA
BRANCH   5   7
ATOM      7  C   UNL A   1      39.202  21.192  25.996  1.00  0.00     0.101 A 
ATOM      8  C   UNL A   1      41.902  21.183  26.733  1.00  0.00     0.045 A 
ATOM      9  C   UNL A   1      41.132  22.336  26.918  1.00  0.00     0.027 A 
ATOM     10  C   UNL A   1      41.286  20.005  26.299  1.00  0.00     0.073 A 
ATOM     11  C   UNL A   1      39.794  22.347  26.525  1.00  0.00     0.022 A 
ATOM     12  C   UNL A   1      39.936  20.007  25.936  1.00  0.00     0.132 A 
BRANCH   8  13
ATOM     13  N   UNL A   1      43.297  21.333  26.858  1.00  0.00    -0.323 N 
ATOM     14  O   UNL A   1      43.898  21.980  24.696  1.00  0.00    -0.271 OA
ATOM     15  C   UNL A   1      44.142  21.864  25.894  1.00  0.00     0.262 C 
ATOM     16  H   UNL A   1      43.708  21.034  27.702  1.00  0.00     0.170 HD
BRANCH  15  17
ATOM     17  C   UNL A   1      45.458  22.386  26.485  1.00  0.00     0.329 C 
BRANCH  17  18
ATOM     18  O   UNL A   1      46.381  22.917  25.534  1.00  0.00    -0.484 OA
BRANCH  18  19
ATOM     19  C   UNL A   1      46.796  24.195  25.805  1.00  0.00     0.120 A 
ATOM     20  C   UNL A   1      46.531  24.697  27.081  1.00  0.00     0.053 A 
ATOM     21  C   UNL A   1      47.311  25.039  24.818  1.00  0.00     0.053 A 
ATOM     22  C   UNL A   1      46.780  26.042  27.375  1.00  0.00     0.089 A 
ATOM     23  C   UNL A   1      47.547  26.388  25.095  1.00  0.00     0.089 A 
ATOM     24  C   UNL A   1      47.271  26.889  26.371  1.00  0.00     0.269 A 
BRANCH  24  25
ATOM     25  N   UNL A   1      47.462  28.319  26.645  1.00  0.00     0.062 N 
ATOM     26  O   UNL A   1      46.834  28.813  27.593  1.00  0.00    -0.258 OA
ATOM     27  O   UNL A   1      48.229  28.950  25.904  1.00  0.00    -0.258 OA
ENDBRANCH  24  25
ENDBRANCH  18  19
ENDBRANCH  17  18
ENDBRANCH  15  17
ENDBRANCH   8  13
BRANCH  12  28
ATOM     28  O   UNL A   1      39.366  18.856  25.473  1.00  0.00    -0.507 OA
ATOM     29  H   UNL A   1      39.546  18.563  24.601  1.00  0.00     0.293 HD
ENDBRANCH  12  28
ENDBRANCH   5   7
ENDBRANCH   4   5
ENDBRANCH   3   4
ENDBRANCH   2   3
ENDBRANCH   1   2
BRANCH   1  30
ATOM     30  C   UNL A   1      33.287  25.085  24.906  1.00  0.00     0.188 C 
BRANCH  30  31
ATOM     31  C   UNL A   1      32.493  26.292  25.452  1.00  0.00     0.188 C 
BRANCH  31  32
ATOM     32  O   UNL A   1      32.640  27.589  24.912  1.00  0.00    -0.376 OA
BRANCH  32  33
ATOM     33  C   UNL A   1      31.574  28.520  24.974  1.00  0.00     0.202 C 
BRANCH  33  34
ATOM     34  C   UNL A   1      31.756  29.916  25.574  1.00  0.00     0.261 C 
BRANCH  34  35
ATOM     35  O   UNL A   1      32.489  29.954  26.804  1.00  0.00    -0.460 OA
BRANCH  35  36
ATOM     36  C   UNL A   1      32.980  31.168  27.136  1.00  0.00     0.338 C 
ATOM     37  O   UNL A   1      32.377  32.235  27.177  1.00  0.00    -0.246 OA
BRANCH  36  38
ATOM     38  C   UNL A   1      34.360  31.025  27.616  1.00  0.00     0.060 A 
ATOM     39  C   UNL A   1      34.861  29.733  27.824  1.00  0.00     0.016 A 
ATOM     40  C   UNL A   1      35.129  32.149  27.923  1.00  0.00     0.016 A 
ATOM     41  C   UNL A   1      36.129  29.559  28.370  1.00  0.00     0.010 A 
ATOM     42  C   UNL A   1      36.392  31.973  28.490  1.00  0.00     0.010 A 
ATOM     43  C   UNL A   1      36.884  30.679  28.743  1.00  0.00    -0.014 A 
BRANCH  43  44
ATOM     44  C   UNL A   1      38.112  30.499  29.551  1.00  0.00     0.031 A 
ATOM     45  C   UNL A   1      39.246  29.704  28.969  1.00  0.00     0.074 A 
ATOM     46  C   UNL A   1      38.220  31.038  30.777  1.00  0.00     0.049 A 
ATOM     47  N   UNL A   1      40.390  29.370  29.508  1.00  0.00    -0.248 NA
ATOM     48  C   UNL A   1      39.064  29.218  27.591  1.00  0.00     0.031 C 
ATOM     49  C   UNL A   1      37.205  31.858  31.433  1.00  0.00     0.029 A 
ATOM     50  N   UNL A   1      39.238  30.959  31.692  1.00  0.00    -0.354 N 
ATOM     51  C   UNL A   1      41.061  28.633  28.542  1.00  0.00     0.074 A 
ATOM     52  C   UNL A   1      40.186  28.545  27.391  1.00  0.00     0.031 C 
ATOM     53  C   UNL A   1      37.645  32.194  32.659  1.00  0.00     0.029 A 
ATOM     54  C   UNL A   1      38.956  31.587  32.881  1.00  0.00     0.049 A 
ATOM     55  H   UNL A   1      40.090  30.498  31.515  1.00  0.00     0.167 HD
ATOM     56  C   UNL A   1      42.295  28.082  28.605  1.00  0.00     0.037 A 
ATOM     57  C   UNL A   1      39.667  31.640  34.023  1.00  0.00     0.037 A 
ATOM     58  C   UNL A   1      43.159  28.162  29.752  1.00  0.00     0.049 A 
ATOM     59  C   UNL A   1      41.006  30.954  34.096  1.00  0.00     0.074 A 
ATOM     60  C   UNL A   1      44.436  27.651  29.907  1.00  0.00     0.029 A 
ATOM     61  N   UNL A   1      42.828  28.782  30.946  1.00  0.00    -0.354 N 
ATOM     62  N   UNL A   1      41.646  30.284  33.168  1.00  0.00    -0.248 NA
ATOM     63  C   UNL A   1      41.722  31.032  35.379  1.00  0.00     0.031 C 
ATOM     64  C   UNL A   1      44.858  27.921  31.213  1.00  0.00     0.029 A 
ATOM     65  C   UNL A   1      43.865  28.644  31.854  1.00  0.00     0.049 A 
ATOM     66  H   UNL A   1      41.979  29.250  31.124  1.00  0.00     0.167 HD
ATOM     67  C   UNL A   1      42.849  29.888  33.743  1.00  0.00     0.074 A 
ATOM     68  C   UNL A   1      42.852  30.399  35.097  1.00  0.00     0.031 C 
ATOM     69  C   UNL A   1      43.858  29.166  33.197  1.00  0.00     0.037 A 
BRANCH  56  70
ATOM     70  C   UNL A   1      42.768  27.319  27.404  1.00  0.00     0.057 A 
ATOM     71  C   UNL A   1      42.507  25.952  27.244  1.00  0.00     0.134 A 
ATOM     72  C   UNL A   1      43.480  27.964  26.385  1.00  0.00     0.134 A 
ATOM     73  F   UNL A   1      41.844  25.272  28.191  1.00  0.00    -0.206 F 
ATOM     74  C   UNL A   1      42.958  25.249  26.126  1.00  0.00     0.040 A 
ATOM     75  C   UNL A   1      43.915  27.278  25.250  1.00  0.00     0.040 A 
ATOM     76  F   UNL A   1      43.763  29.273  26.475  1.00  0.00    -0.206 F 
ATOM     77  C   UNL A   1      43.659  25.914  25.122  1.00  0.00     0.006 A 
ENDBRANCH  56  70
BRANCH  57  78
ATOM     78  C   UNL A   1      39.123  32.357  35.203  1.00  0.00     0.057 A 
ATOM     79  C   UNL A   1      38.316  31.703  36.141  1.00  0.00     0.134 A 
ATOM     80  C   UNL A   1      39.380  33.718  35.409  1.00  0.00     0.134 A 
ATOM     81  F   UNL A   1      38.016  30.406  35.983  1.00  0.00    -0.206 F 
ATOM     82  C   UNL A   1      37.772  32.379  37.233  1.00  0.00     0.040 A 
ATOM     83  C   UNL A   1      38.862  34.402  36.510  1.00  0.00     0.040 A 
ATOM     84  F   UNL A   1      40.144  34.402  34.545  1.00  0.00    -0.206 F 
ATOM     85  C   UNL A   1      38.049  33.733  37.423  1.00  0.00     0.006 A 
ENDBRANCH  57  78
BRANCH  69  86
ATOM     86  C   UNL A   1      45.070  28.920  34.048  1.00  0.00     0.057 A 
ATOM     87  C   UNL A   1      46.141  29.821  34.091  1.00  0.00     0.134 A 
ATOM     88  C   UNL A   1      45.144  27.788  34.870  1.00  0.00     0.134 A 
ATOM     89  F   UNL A   1      46.138  30.919  33.319  1.00  0.00    -0.206 F 
ATOM     90  C   UNL A   1      47.252  29.594  34.907  1.00  0.00     0.040 A 
ATOM     91  C   UNL A   1      46.237  27.564  35.710  1.00  0.00     0.040 A 
ATOM     92  F   UNL A   1      44.147  26.889  34.885  1.00  0.00    -0.206 F 
ATOM     93  C   UNL A   1      47.298  28.467  35.725  1.00  0.00     0.006 A 
ENDBRANCH  69  86
ENDBRANCH  43  44
ENDBRANCH  36  38
ENDBRANCH  35  36
ENDBRANCH  34  35
ENDBRANCH  33  34
ENDBRANCH  32  33
ENDBRANCH  31  32
ENDBRANCH  30  31
ENDBRANCH   1  30
TORSDOF 23
ENDMDL
MODEL 3
REMARK VINA RESULT:     -10.3      5.147     11.841
REMARK SMILES O=C(COc1ccc([N+](=O)[O-])cc1)Nc1ccc(C(=O)OCCOCCOCCOC(=O)c2ccc(-c3c4nc(c(-c5c(F)cccc5F)c5ccc([nH]5)c(-c5c(F)cccc5F)c5nc(c(-c6c(F)cccc6F)c6ccc3[nH]6)C=C5)C=C4)cc2)c(O)c1
REMARK SMILES IDX 24 1 23 2 22 3 21 4 19 5 20 6 18 7 15 8 16 9 89 10 17 11
REMARK SMILES IDX 87 12 14 13 1 14 2 15 3 17 4 18 5 19 6 20 13 21 7 22 12 23
REMARK SMILES IDX 8 24 9 25 10 26 11 27 88 28 25 30 26 31 27 32 28 33 29 34
REMARK SMILES IDX 30 35 31 36 32 37 33 38 34 39 86 40 35 41 85 42 36 43 37 44
REMARK SMILES IDX 38 45 79 46 39 47 84 48 78 49 80 50 40 51 83 52 77 53 76 54
REMARK SMILES IDX 41 56 67 57 50 58 66 59 51 60 54 61 65 62 81 63 52 64 53 65
REMARK SMILES IDX 64 67 82 68 55 69 42 70 43 71 48 72 44 73 45 74 47 75 49 76
REMARK SMILES IDX 46 77 68 78 69 79 74 80 70 81 71 82 73 83 75 84 72 85 56 86
REMARK SMILES IDX 57 87 62 88 58 89 59 90 61 91 63 92 60 93
REMARK H PARENT 14 16 88 29 80 55 54 66
REMARK Flexibility Score: inf
ROOT
ATOM      1  O   UNL A   1      44.175  21.133  24.443  1.00  0.00    -0.376 OA
ENDROOT
BRANCH   1   2
ATOM      2  C   UNL A   1      45.274  22.032  24.387  1.00  0.00     0.202 C 
BRANCH   2   3
ATOM      3  C   UNL A   1      45.064  23.545  24.355  1.00  0.00     0.261 C 
BRANCH   3   4
ATOM      4  O   UNL A   1      43.824  23.956  24.938  1.00  0.00    -0.460 OA
BRANCH   4   5
ATOM      5  C   UNL A   1      43.911  24.412  26.208  1.00  0.00     0.341 C 
ATOM      6  O   UNL A   1      43.820  23.748  27.231  1.00  0.00    -0.246 OA
BRANCH   5   7
ATOM      7  C   UNL A   1      44.349  25.821  26.243  1.00  0.00     0.101 A 
ATOM      8  C   UNL A   1      45.091  28.487  26.661  1.00  0.00     0.045 A 
ATOM      9  C   UNL A   1      45.775  27.461  27.320  1.00  0.00     0.027 A 
ATOM     10  C   UNL A   1      44.125  28.166  25.702  1.00  0.00     0.073 A 
ATOM     11  C   UNL A   1      45.387  26.134  27.131  1.00  0.00     0.022 A 
ATOM     12  C   UNL A   1      43.758  26.834  25.489  1.00  0.00     0.132 A 
BRANCH   8  13
ATOM     13  N   UNL A   1      45.324  29.797  27.126  1.00  0.00    -0.323 N 
ATOM     14  O   UNL A   1      47.332  30.326  26.057  1.00  0.00    -0.271 OA
ATOM     15  C   UNL A   1      46.318  30.650  26.670  1.00  0.00     0.262 C 
ATOM     16  H   UNL A   1      44.730  30.135  27.835  1.00  0.00     0.170 HD
BRANCH  15  17
ATOM     17  C   UNL A   1      46.003  32.125  26.948  1.00  0.00     0.329 C 
BRANCH  17  18
ATOM     18  O   UNL A   1      45.951  32.963  25.793  1.00  0.00    -0.484 OA
BRANCH  18  19
ATOM     19  C   UNL A   1      45.216  34.108  25.960  1.00  0.00     0.120 A 
ATOM     20  C   UNL A   1      45.871  35.215  26.502  1.00  0.00     0.053 A 
ATOM     21  C   UNL A   1      43.834  34.144  25.762  1.00  0.00     0.053 A 
ATOM     22  C   UNL A   1      45.148  36.361  26.850  1.00  0.00     0.089 A 
ATOM     23  C   UNL A   1      43.099  35.277  26.121  1.00  0.00     0.089 A 
ATOM     24  C   UNL A   1      43.757  36.381  26.674  1.00  0.00     0.269 A 
BRANCH  24  25
ATOM     25  N   UNL A   1      42.978  37.547  27.107  1.00  0.00     0.062 N 
ATOM     26  O   UNL A   1      41.765  37.387  27.308  1.00  0.00    -0.258 OA
ATOM     27  O   UNL A   1      43.575  38.625  27.234  1.00  0.00    -0.258 OA
ENDBRANCH  24  25
ENDBRANCH  18  19
ENDBRANCH  17  18
ENDBRANCH  15  17
ENDBRANCH   8  13
BRANCH  12  28
ATOM     28  O   UNL A   1      42.781  26.548  24.580  1.00  0.00    -0.507 OA
ATOM     29  H   UNL A   1      41.982  26.146  24.861  1.00  0.00     0.293 HD
ENDBRANCH  12  28
ENDBRANCH   5   7
ENDBRANCH   4   5
ENDBRANCH   3   4
ENDBRANCH   2   3
ENDBRANCH   1   2
BRANCH   1  30
ATOM     30  C   UNL A   1      44.321  19.859  25.040  1.00  0.00     0.188 C 
BRANCH  30  31
ATOM     31  C   UNL A   1      43.093  19.048  25.504  1.00  0.00     0.188 C 
BRANCH  31  32
ATOM     32  O   UNL A   1      41.793  19.601  25.516  1.00  0.00    -0.376 OA
BRANCH  32  33
ATOM     33  C   UNL A   1      41.197  20.012  26.733  1.00  0.00     0.202 C 
BRANCH  33  34
ATOM     34  C   UNL A   1      41.270  21.462  27.218  1.00  0.00     0.261 C 
BRANCH  34  35
ATOM     35  O   UNL A   1      40.893  22.443  26.245  1.00  0.00    -0.460 OA
BRANCH  35  36
ATOM     36  C   UNL A   1      39.627  22.902  26.360  1.00  0.00     0.338 C 
ATOM     37  O   UNL A   1      38.586  22.300  26.119  1.00  0.00    -0.246 OA
BRANCH  36  38
ATOM     38  C   UNL A   1      39.641  24.227  26.991  1.00  0.00     0.060 A 
ATOM     39  C   UNL A   1      40.279  25.277  26.318  1.00  0.00     0.016 A 
ATOM     40  C   UNL A   1      39.092  24.420  28.260  1.00  0.00     0.016 A 
ATOM     41  C   UNL A   1      40.397  26.523  26.926  1.00  0.00     0.010 A 
ATOM     42  C   UNL A   1      39.229  25.664  28.878  1.00  0.00     0.010 A 
ATOM     43  C   UNL A   1      39.907  26.710  28.226  1.00  0.00    -0.014 A 
BRANCH  43  44
ATOM     44  C   UNL A   1      40.254  27.944  28.968  1.00  0.00     0.031 A 
ATOM     45  C   UNL A   1      41.602  28.034  29.624  1.00  0.00     0.074 A 
ATOM     46  C   UNL A   1      39.389  28.969  29.050  1.00  0.00     0.049 A 
ATOM     47  N   UNL A   1      42.103  28.987  30.366  1.00  0.00    -0.248 NA
ATOM     48  C   UNL A   1      42.509  26.893  29.414  1.00  0.00     0.031 C 
ATOM     49  C   UNL A   1      38.069  29.014  28.427  1.00  0.00     0.029 A 
ATOM     50  N   UNL A   1      39.495  30.166  29.710  1.00  0.00    -0.354 N 
ATOM     51  C   UNL A   1      43.377  28.562  30.717  1.00  0.00     0.074 A 
ATOM     52  C   UNL A   1      43.564  27.252  30.128  1.00  0.00     0.031 C 
ATOM     53  C   UNL A   1      37.477  30.178  28.749  1.00  0.00     0.029 A 
ATOM     54  C   UNL A   1      38.364  30.940  29.625  1.00  0.00     0.049 A 
ATOM     55  H   UNL A   1      40.304  30.445  30.197  1.00  0.00     0.167 HD
ATOM     56  C   UNL A   1      44.308  29.203  31.460  1.00  0.00     0.037 A 
ATOM     57  C   UNL A   1      38.074  32.118  30.211  1.00  0.00     0.037 A 
ATOM     58  C   UNL A   1      44.117  30.500  32.053  1.00  0.00     0.049 A 
ATOM     59  C   UNL A   1      39.098  32.779  31.097  1.00  0.00     0.074 A 
ATOM     60  C   UNL A   1      45.008  31.242  32.808  1.00  0.00     0.029 A 
ATOM     61  N   UNL A   1      42.949  31.241  31.969  1.00  0.00    -0.354 N 
ATOM     62  N   UNL A   1      40.311  32.384  31.399  1.00  0.00    -0.248 NA
ATOM     63  C   UNL A   1      38.710  34.052  31.723  1.00  0.00     0.031 C 
ATOM     64  C   UNL A   1      44.360  32.411  33.222  1.00  0.00     0.029 A 
ATOM     65  C   UNL A   1      43.085  32.421  32.681  1.00  0.00     0.049 A 
ATOM     66  H   UNL A   1      42.141  30.967  31.476  1.00  0.00     0.167 HD
ATOM     67  C   UNL A   1      40.840  33.370  32.223  1.00  0.00     0.074 A 
ATOM     68  C   UNL A   1      39.819  34.386  32.367  1.00  0.00     0.031 C 
ATOM     69  C   UNL A   1      42.062  33.428  32.808  1.00  0.00     0.037 A 
BRANCH  56  70
ATOM     70  C   UNL A   1      45.608  28.494  31.694  1.00  0.00     0.057 A 
ATOM     71  C   UNL A   1      46.737  28.735  30.900  1.00  0.00     0.134 A 
ATOM     72  C   UNL A   1      45.737  27.570  32.738  1.00  0.00     0.134 A 
ATOM     73  F   UNL A   1      46.675  29.596  29.874  1.00  0.00    -0.206 F 
ATOM     74  C   UNL A   1      47.941  28.064  31.122  1.00  0.00     0.040 A 
ATOM     75  C   UNL A   1      46.942  26.911  32.986  1.00  0.00     0.040 A 
ATOM     76  F   UNL A   1      44.695  27.293  33.537  1.00  0.00    -0.206 F 
ATOM     77  C   UNL A   1      48.047  27.153  32.172  1.00  0.00     0.006 A 
ENDBRANCH  56  70
BRANCH  57  78
ATOM     78  C   UNL A   1      36.747  32.747  29.995  1.00  0.00     0.057 A 
ATOM     79  C   UNL A   1      36.480  33.502  28.848  1.00  0.00     0.134 A 
ATOM     80  C   UNL A   1      35.721  32.624  30.940  1.00  0.00     0.134 A 
ATOM     81  F   UNL A   1      37.431  33.675  27.919  1.00  0.00    -0.206 F 
ATOM     82  C   UNL A   1      35.248  34.127  28.655  1.00  0.00     0.040 A 
ATOM     83  C   UNL A   1      34.475  33.223  30.750  1.00  0.00     0.040 A 
ATOM     84  F   UNL A   1      35.915  31.915  32.062  1.00  0.00    -0.206 F 
ATOM     85  C   UNL A   1      34.238  33.983  29.606  1.00  0.00     0.006 A 
ENDBRANCH  57  78
BRANCH  69  86
ATOM     86  C   UNL A   1      42.381  34.648  33.623  1.00  0.00     0.057 A 
ATOM     87  C   UNL A   1      42.930  35.800  33.049  1.00  0.00     0.134 A 
ATOM     88  C   UNL A   1      42.090  34.684  34.993  1.00  0.00     0.134 A 
ATOM     89  F   UNL A   1      43.243  35.828  31.743  1.00  0.00    -0.206 F 
ATOM     90  C   UNL A   1      43.198  36.939  33.812  1.00  0.00     0.040 A 
ATOM     91  C   UNL A   1      42.328  35.825  35.761  1.00  0.00     0.040 A 
ATOM     92  F   UNL A   1      41.552  33.617  35.604  1.00  0.00    -0.206 F 
ATOM     93  C   UNL A   1      42.890  36.955  35.171  1.00  0.00     0.006 A 
ENDBRANCH  69  86
ENDBRANCH  43  44
ENDBRANCH  36  38
ENDBRANCH  35  36
ENDBRANCH  34  35
ENDBRANCH  33  34
ENDBRANCH  32  33
ENDBRANCH  31  32
ENDBRANCH  30  31
ENDBRANCH   1  30
TORSDOF 23
ENDMDL
