MODEL 1
REMARK VINA RESULT:     -12.7      0.000      0.000
REMARK SMILES Cc1ccccc1OCCN1C(=O)CC[C@H](C(=O)OCCOCCOCCOC(=O)c2ccc(-c3c4nc(c(-c5c(F)cccc5F)c5ccc([nH]5)c(-c5c(F)cccc5F)c5nc(c(-c6c(F)cccc6F)c6ccc3[nH]6)C=C5)C=C4)cc2)[C@@H]1c1ccco1
REMARK SMILES IDX 23 1 22 2 21 3 20 4 19 5 17 6 18 7 16 8 11 9 12 10 85 11
REMARK SMILES IDX 13 12 14 13 15 14 10 15 9 16 8 17 7 18 1 19 2 20 3 21 4 22
REMARK SMILES IDX 6 23 5 24 86 25 87 26 90 27 88 28 89 29 24 30 25 31 26 32
REMARK SMILES IDX 27 33 28 34 29 35 30 36 31 37 32 38 84 39 33 40 83 41 34 42
REMARK SMILES IDX 35 43 36 44 77 45 37 46 82 47 76 48 78 49 38 50 81 51 75 52
REMARK SMILES IDX 74 53 39 55 65 56 48 57 64 58 49 59 52 60 63 61 79 62 50 63
REMARK SMILES IDX 51 64 62 66 80 67 53 68 40 69 41 70 46 71 42 72 43 73 45 74
REMARK SMILES IDX 47 75 44 76 66 77 67 78 72 79 68 80 69 81 71 82 73 83 70 84
REMARK SMILES IDX 54 85 55 86 60 87 56 88 57 89 59 90 61 91 58 92
REMARK H PARENT 78 54 52 65
REMARK Flexibility Score: inf
ROOT
ATOM      1  C   UNL A   1      40.640  21.588  27.141  1.00  0.00     0.188 C 
ENDROOT
BRANCH   1   2
ATOM      2  O   UNL A   1      39.758  21.603  26.010  1.00  0.00    -0.376 OA
BRANCH   2   3
ATOM      3  C   UNL A   1      38.417  22.157  25.903  1.00  0.00     0.202 C 
BRANCH   3   4
ATOM      4  C   UNL A   1      37.585  23.675  26.260  1.00  0.00     0.261 C 
BRANCH   4   5
ATOM      5  O   UNL A   1      35.908  24.407  25.957  1.00  0.00    -0.463 OA
BRANCH   5   6
ATOM      6  C   UNL A   1      34.552  24.117  25.301  1.00  0.00     0.311 C 
ATOM      7  O   UNL A   1      33.573  23.428  25.666  1.00  0.00    -0.252 OA
BRANCH   6   8
ATOM      8  C   UNL A   1      34.290  24.449  23.932  1.00  0.00     0.130 C 
ATOM      9  N   UNL A   1      33.185  26.280  22.717  1.00  0.00    -0.328 N 
ATOM     10  C   UNL A   1      32.689  25.319  21.826  1.00  0.00     0.223 C 
ATOM     11  C   UNL A   1      33.955  25.956  23.928  1.00  0.00     0.166 C 
ATOM     12  O   UNL A   1      31.951  25.605  20.881  1.00  0.00    -0.275 OA
ATOM     13  C   UNL A   1      33.239  23.906  21.894  1.00  0.00     0.101 C 
ATOM     14  C   UNL A   1      33.467  23.416  23.279  1.00  0.00     0.028 C 
BRANCH   9  15
ATOM     15  C   UNL A   1      33.281  27.631  22.169  1.00  0.00     0.162 C 
BRANCH  15  16
ATOM     16  C   UNL A   1      32.433  28.705  22.915  1.00  0.00     0.251 C 
BRANCH  16  17
ATOM     17  O   UNL A   1      31.435  29.389  22.155  1.00  0.00    -0.491 OA
BRANCH  17  18
ATOM     18  C   UNL A   1      30.086  29.279  22.347  1.00  0.00     0.122 A 
ATOM     19  C   UNL A   1      29.796  26.941  23.433  1.00  0.00     0.048 C 
ATOM     20  C   UNL A   1      29.321  28.294  22.990  1.00  0.00    -0.009 A 
ATOM     21  C   UNL A   1      27.950  28.559  23.241  1.00  0.00     0.007 A 
ATOM     22  C   UNL A   1      27.317  29.705  22.766  1.00  0.00     0.001 A 
ATOM     23  C   UNL A   1      29.404  30.386  21.791  1.00  0.00     0.047 A 
ATOM     24  C   UNL A   1      28.037  30.601  21.996  1.00  0.00     0.004 A 
ENDBRANCH  17  18
ENDBRANCH  16  17
ENDBRANCH  15  16
ENDBRANCH   9  15
BRANCH  11  25
ATOM     25  C   UNL A   1      33.471  26.432  25.309  1.00  0.00     0.127 A 
ATOM     26  C   UNL A   1      32.009  26.436  26.245  1.00  0.00     0.048 A 
ATOM     27  O   UNL A   1      34.401  27.883  25.896  1.00  0.00    -0.467 OA
ATOM     28  C   UNL A   1      31.914  27.867  27.516  1.00  0.00     0.042 A 
ATOM     29  C   UNL A   1      33.340  28.881  27.378  1.00  0.00     0.195 A 
ENDBRANCH  11  25
ENDBRANCH   6   8
ENDBRANCH   5   6
ENDBRANCH   4   5
ENDBRANCH   3   4
ENDBRANCH   2   3
ENDBRANCH   1   2
BRANCH   1  30
ATOM     30  C   UNL A   1      41.284  20.296  27.539  1.00  0.00     0.188 C 
BRANCH  30  31
ATOM     31  O   UNL A   1      42.260  20.051  26.567  1.00  0.00    -0.376 OA
BRANCH  31  32
ATOM     32  C   UNL A   1      42.529  18.735  26.193  1.00  0.00     0.202 C 
BRANCH  32  33
ATOM     33  C   UNL A   1      43.855  18.646  25.445  1.00  0.00     0.261 C 
BRANCH  33  34
ATOM     34  O   UNL A   1      43.977  19.720  24.468  1.00  0.00    -0.460 OA
BRANCH  34  35
ATOM     35  C   UNL A   1      45.198  20.350  24.327  1.00  0.00     0.338 C 
ATOM     36  O   UNL A   1      46.275  19.839  24.572  1.00  0.00    -0.246 OA
BRANCH  35  37
ATOM     37  C   UNL A   1      45.006  21.828  24.094  1.00  0.00     0.060 A 
ATOM     38  C   UNL A   1      46.052  22.764  24.234  1.00  0.00     0.016 A 
ATOM     39  C   UNL A   1      43.779  22.255  24.441  1.00  0.00     0.016 A 
ATOM     40  C   UNL A   1      45.949  23.927  25.102  1.00  0.00     0.010 A 
ATOM     41  C   UNL A   1      43.797  23.200  25.458  1.00  0.00     0.010 A 
ATOM     42  C   UNL A   1      44.833  24.177  25.928  1.00  0.00    -0.014 A 
BRANCH  42  43
ATOM     43  C   UNL A   1      44.535  25.744  26.953  1.00  0.00     0.031 A 
ATOM     44  C   UNL A   1      42.839  26.731  27.042  1.00  0.00     0.074 A 
ATOM     45  C   UNL A   1      45.635  26.075  27.709  1.00  0.00     0.049 A 
ATOM     46  N   UNL A   1      42.339  28.540  27.193  1.00  0.00    -0.248 NA
ATOM     47  C   UNL A   1      41.030  25.901  27.497  1.00  0.00     0.031 C 
ATOM     48  C   UNL A   1      45.771  26.620  29.085  1.00  0.00     0.029 A 
ATOM     49  N   UNL A   1      46.983  25.944  27.373  1.00  0.00    -0.354 N 
ATOM     50  C   UNL A   1      40.672  28.699  27.767  1.00  0.00     0.074 A 
ATOM     51  C   UNL A   1      39.993  26.989  27.787  1.00  0.00     0.031 C 
ATOM     52  C   UNL A   1      46.963  27.225  29.220  1.00  0.00     0.029 A 
ATOM     53  C   UNL A   1      47.654  27.023  27.978  1.00  0.00     0.049 A 
ATOM     54  H   UNL A   1      47.386  25.236  26.820  1.00  0.00     0.167 HD
ATOM     55  C   UNL A   1      40.491  29.629  28.781  1.00  0.00     0.037 A 
ATOM     56  C   UNL A   1      48.354  27.910  27.243  1.00  0.00     0.037 A 
ATOM     57  C   UNL A   1      41.803  30.237  29.225  1.00  0.00     0.049 A 
ATOM     58  C   UNL A   1      47.747  29.295  27.429  1.00  0.00     0.074 A 
ATOM     59  C   UNL A   1      42.541  30.071  30.399  1.00  0.00     0.029 A 
ATOM     60  N   UNL A   1      42.735  30.789  28.314  1.00  0.00    -0.354 N 
ATOM     61  N   UNL A   1      46.526  29.567  27.857  1.00  0.00    -0.248 NA
ATOM     62  C   UNL A   1      48.555  30.494  27.265  1.00  0.00     0.031 C 
ATOM     63  C   UNL A   1      43.892  30.492  30.185  1.00  0.00     0.029 A 
ATOM     64  C   UNL A   1      44.027  30.926  28.873  1.00  0.00     0.049 A 
ATOM     65  H   UNL A   1      42.509  31.048  27.391  1.00  0.00     0.167 HD
ATOM     66  C   UNL A   1      46.336  30.937  27.923  1.00  0.00     0.074 A 
ATOM     67  C   UNL A   1      47.682  31.442  27.646  1.00  0.00     0.031 C 
ATOM     68  C   UNL A   1      45.141  31.603  28.164  1.00  0.00     0.037 A 
BRANCH  55  69
ATOM     69  C   UNL A   1      39.232  29.589  29.644  1.00  0.00     0.057 A 
ATOM     70  C   UNL A   1      39.118  28.734  30.756  1.00  0.00     0.134 A 
ATOM     71  C   UNL A   1      38.098  30.405  29.438  1.00  0.00     0.134 A 
ATOM     72  F   UNL A   1      40.142  27.979  31.173  1.00  0.00    -0.206 F 
ATOM     73  C   UNL A   1      37.951  28.621  31.529  1.00  0.00     0.040 A 
ATOM     74  C   UNL A   1      36.910  30.282  30.182  1.00  0.00     0.040 A 
ATOM     75  F   UNL A   1      38.106  31.395  28.535  1.00  0.00    -0.206 F 
ATOM     76  C   UNL A   1      36.830  29.380  31.231  1.00  0.00     0.006 A 
ENDBRANCH  55  69
BRANCH  56  77
ATOM     77  C   UNL A   1      48.965  27.187  26.064  1.00  0.00     0.057 A 
ATOM     78  C   UNL A   1      48.311  27.369  24.808  1.00  0.00     0.134 A 
ATOM     79  C   UNL A   1      50.326  26.880  25.996  1.00  0.00     0.134 A 
ATOM     80  F   UNL A   1      47.003  27.680  24.771  1.00  0.00    -0.206 F 
ATOM     81  C   UNL A   1      49.007  27.458  23.592  1.00  0.00     0.040 A 
ATOM     82  C   UNL A   1      51.019  26.895  24.768  1.00  0.00     0.040 A 
ATOM     83  F   UNL A   1      51.041  26.719  27.117  1.00  0.00    -0.206 F 
ATOM     84  C   UNL A   1      50.379  27.256  23.577  1.00  0.00     0.006 A 
ENDBRANCH  56  77
BRANCH  68  85
ATOM     85  C   UNL A   1      44.916  33.093  27.868  1.00  0.00     0.057 A 
ATOM     86  C   UNL A   1      45.230  34.158  28.726  1.00  0.00     0.134 A 
ATOM     87  C   UNL A   1      44.453  33.513  26.592  1.00  0.00     0.134 A 
ATOM     88  F   UNL A   1      45.846  33.984  29.900  1.00  0.00    -0.206 F 
ATOM     89  C   UNL A   1      44.986  35.499  28.395  1.00  0.00     0.040 A 
ATOM     90  C   UNL A   1      44.329  34.849  26.210  1.00  0.00     0.040 A 
ATOM     91  F   UNL A   1      44.096  32.660  25.624  1.00  0.00    -0.206 F 
ATOM     92  C   UNL A   1      44.555  35.851  27.127  1.00  0.00     0.006 A 
ENDBRANCH  68  85
ENDBRANCH  42  43
ENDBRANCH  35  37
ENDBRANCH  34  35
ENDBRANCH  33  34
ENDBRANCH  32  33
ENDBRANCH  31  32
ENDBRANCH  30  31
ENDBRANCH   1  30
TORSDOF 22
ENDMDL
MODEL 2
REMARK VINA RESULT:     -12.7      1.253      2.908
REMARK SMILES Cc1ccccc1OCCN1C(=O)CC[C@H](C(=O)OCCOCCOCCOC(=O)c2ccc(-c3c4nc(c(-c5c(F)cccc5F)c5ccc([nH]5)c(-c5c(F)cccc5F)c5nc(c(-c6c(F)cccc6F)c6ccc3[nH]6)C=C5)C=C4)cc2)[C@@H]1c1ccco1
REMARK SMILES IDX 23 1 22 2 21 3 20 4 19 5 17 6 18 7 16 8 11 9 12 10 85 11
REMARK SMILES IDX 13 12 14 13 15 14 10 15 9 16 8 17 7 18 1 19 2 20 3 21 4 22
REMARK SMILES IDX 6 23 5 24 86 25 87 26 90 27 88 28 89 29 24 30 25 31 26 32
REMARK SMILES IDX 27 33 28 34 29 35 30 36 31 37 32 38 84 39 33 40 83 41 34 42
REMARK SMILES IDX 35 43 36 44 77 45 37 46 82 47 76 48 78 49 38 50 81 51 75 52
REMARK SMILES IDX 74 53 39 55 65 56 48 57 64 58 49 59 52 60 63 61 79 62 50 63
REMARK SMILES IDX 51 64 62 66 80 67 53 68 40 69 41 70 46 71 42 72 43 73 45 74
REMARK SMILES IDX 47 75 44 76 66 77 67 78 72 79 68 80 69 81 71 82 73 83 70 84
REMARK SMILES IDX 54 85 55 86 60 87 56 88 57 89 59 90 61 91 58 92
REMARK H PARENT 78 54 52 65
REMARK Flexibility Score: inf
ROOT
ATOM      1  C   UNL A   1      40.740  20.682  26.255  1.00  0.00     0.188 C 
ENDROOT
BRANCH   1   2
ATOM      2  O   UNL A   1      39.434  21.273  26.310  1.00  0.00    -0.376 OA
BRANCH   2   3
ATOM      3  C   UNL A   1      39.069  22.679  26.409  1.00  0.00     0.202 C 
BRANCH   3   4
ATOM      4  C   UNL A   1      37.739  23.735  25.920  1.00  0.00     0.261 C 
BRANCH   4   5
ATOM      5  O   UNL A   1      36.056  23.536  25.168  1.00  0.00    -0.463 OA
BRANCH   5   6
ATOM      6  C   UNL A   1      35.248  23.818  23.895  1.00  0.00     0.311 C 
ATOM      7  O   UNL A   1      35.436  23.512  22.696  1.00  0.00    -0.252 OA
BRANCH   6   8
ATOM      8  C   UNL A   1      34.174  24.767  23.879  1.00  0.00     0.130 C 
ATOM      9  N   UNL A   1      31.717  24.686  23.972  1.00  0.00    -0.328 N 
ATOM     10  C   UNL A   1      31.700  25.737  23.046  1.00  0.00     0.223 C 
ATOM     11  C   UNL A   1      32.943  24.008  24.421  1.00  0.00     0.166 C 
ATOM     12  O   UNL A   1      30.655  26.215  22.599  1.00  0.00    -0.275 OA
ATOM     13  C   UNL A   1      32.999  26.459  22.735  1.00  0.00     0.101 C 
ATOM     14  C   UNL A   1      34.177  25.558  22.636  1.00  0.00     0.028 C 
BRANCH   9  15
ATOM     15  C   UNL A   1      30.517  24.578  24.799  1.00  0.00     0.162 C 
BRANCH  15  16
ATOM     16  C   UNL A   1      30.636  25.212  26.217  1.00  0.00     0.251 C 
BRANCH  16  17
ATOM     17  O   UNL A   1      30.534  26.634  26.304  1.00  0.00    -0.491 OA
BRANCH  17  18
ATOM     18  C   UNL A   1      31.540  27.516  26.024  1.00  0.00     0.122 A 
ATOM     19  C   UNL A   1      30.480  29.152  24.312  1.00  0.00     0.048 C 
ATOM     20  C   UNL A   1      31.554  28.689  25.254  1.00  0.00    -0.009 A 
ATOM     21  C   UNL A   1      32.690  29.535  25.328  1.00  0.00     0.007 A 
ATOM     22  C   UNL A   1      33.832  29.180  26.041  1.00  0.00     0.001 A 
ATOM     23  C   UNL A   1      32.743  27.131  26.660  1.00  0.00     0.047 A 
ATOM     24  C   UNL A   1      33.877  27.949  26.671  1.00  0.00     0.004 A 
ENDBRANCH  17  18
ENDBRANCH  16  17
ENDBRANCH  15  16
ENDBRANCH   9  15
BRANCH  11  25
ATOM     25  C   UNL A   1      33.097  22.486  24.253  1.00  0.00     0.127 A 
ATOM     26  C   UNL A   1      32.679  21.255  23.103  1.00  0.00     0.048 A 
ATOM     27  O   UNL A   1      33.151  21.624  25.856  1.00  0.00    -0.467 OA
ATOM     28  C   UNL A   1      32.467  19.516  23.881  1.00  0.00     0.042 A 
ATOM     29  C   UNL A   1      32.698  19.610  25.619  1.00  0.00     0.195 A 
ENDBRANCH  11  25
ENDBRANCH   6   8
ENDBRANCH   5   6
ENDBRANCH   4   5
ENDBRANCH   3   4
ENDBRANCH   2   3
ENDBRANCH   1   2
BRANCH   1  30
ATOM     30  C   UNL A   1      41.458  20.397  27.538  1.00  0.00     0.188 C 
BRANCH  30  31
ATOM     31  O   UNL A   1      42.521  19.556  27.191  1.00  0.00    -0.376 OA
BRANCH  31  32
ATOM     32  C   UNL A   1      42.390  18.719  26.083  1.00  0.00     0.202 C 
BRANCH  32  33
ATOM     33  C   UNL A   1      43.739  18.502  25.407  1.00  0.00     0.261 C 
BRANCH  33  34
ATOM     34  O   UNL A   1      44.004  19.545  24.424  1.00  0.00    -0.460 OA
BRANCH  34  35
ATOM     35  C   UNL A   1      45.264  20.109  24.381  1.00  0.00     0.338 C 
ATOM     36  O   UNL A   1      46.291  19.539  24.702  1.00  0.00    -0.246 OA
BRANCH  35  37
ATOM     37  C   UNL A   1      45.169  21.596  24.148  1.00  0.00     0.060 A 
ATOM     38  C   UNL A   1      46.235  22.479  24.422  1.00  0.00     0.016 A 
ATOM     39  C   UNL A   1      43.932  22.079  24.357  1.00  0.00     0.016 A 
ATOM     40  C   UNL A   1      46.085  23.639  25.289  1.00  0.00     0.010 A 
ATOM     41  C   UNL A   1      43.876  23.013  25.382  1.00  0.00     0.010 A 
ATOM     42  C   UNL A   1      44.894  23.935  25.983  1.00  0.00    -0.014 A 
BRANCH  42  43
ATOM     43  C   UNL A   1      44.552  25.505  26.989  1.00  0.00     0.031 A 
ATOM     44  C   UNL A   1      42.848  26.480  27.018  1.00  0.00     0.074 A 
ATOM     45  C   UNL A   1      45.625  25.849  27.777  1.00  0.00     0.049 A 
ATOM     46  N   UNL A   1      42.329  28.287  27.142  1.00  0.00    -0.248 NA
ATOM     47  C   UNL A   1      41.031  25.639  27.420  1.00  0.00     0.031 C 
ATOM     48  C   UNL A   1      45.714  26.403  29.153  1.00  0.00     0.029 A 
ATOM     49  N   UNL A   1      46.984  25.726  27.485  1.00  0.00    -0.354 N 
ATOM     50  C   UNL A   1      40.644  28.436  27.662  1.00  0.00     0.074 A 
ATOM     51  C   UNL A   1      39.978  26.722  27.671  1.00  0.00     0.031 C 
ATOM     52  C   UNL A   1      46.896  27.017  29.323  1.00  0.00     0.029 A 
ATOM     53  C   UNL A   1      47.628  26.813  28.104  1.00  0.00     0.049 A 
ATOM     54  H   UNL A   1      47.409  25.018  26.949  1.00  0.00     0.167 HD
ATOM     55  C   UNL A   1      40.424  29.370  28.665  1.00  0.00     0.037 A 
ATOM     56  C   UNL A   1      48.344  27.701  27.387  1.00  0.00     0.037 A 
ATOM     57  C   UNL A   1      41.717  29.991  29.146  1.00  0.00     0.049 A 
ATOM     58  C   UNL A   1      47.722  29.083  27.545  1.00  0.00     0.074 A 
ATOM     59  C   UNL A   1      42.418  29.837  30.344  1.00  0.00     0.029 A 
ATOM     60  N   UNL A   1      42.674  30.544  28.262  1.00  0.00    -0.354 N 
ATOM     61  N   UNL A   1      46.486  29.348  27.933  1.00  0.00    -0.248 NA
ATOM     62  C   UNL A   1      48.526  30.287  27.400  1.00  0.00     0.031 C 
ATOM     63  C   UNL A   1      43.772  30.267  30.171  1.00  0.00     0.029 A 
ATOM     64  C   UNL A   1      43.946  30.694  28.861  1.00  0.00     0.049 A 
ATOM     65  H   UNL A   1      42.475  30.797  27.331  1.00  0.00     0.167 HD
ATOM     66  C   UNL A   1      46.284  30.717  27.985  1.00  0.00     0.074 A 
ATOM     67  C   UNL A   1      47.634  31.230  27.748  1.00  0.00     0.031 C 
ATOM     68  C   UNL A   1      45.077  31.376  28.184  1.00  0.00     0.037 A 
BRANCH  55  69
ATOM     69  C   UNL A   1      39.139  29.326  29.487  1.00  0.00     0.057 A 
ATOM     70  C   UNL A   1      37.957  29.958  29.057  1.00  0.00     0.134 A 
ATOM     71  C   UNL A   1      39.000  28.639  30.714  1.00  0.00     0.134 A 
ATOM     72  F   UNL A   1      37.871  30.552  27.861  1.00  0.00    -0.206 F 
ATOM     73  C   UNL A   1      36.778  29.997  29.820  1.00  0.00     0.040 A 
ATOM     74  C   UNL A   1      37.837  28.694  31.505  1.00  0.00     0.040 A 
ATOM     75  F   UNL A   1      39.970  27.841  31.180  1.00  0.00    -0.206 F 
ATOM     76  C   UNL A   1      36.719  29.382  31.061  1.00  0.00     0.006 A 
ENDBRANCH  55  69
BRANCH  56  77
ATOM     77  C   UNL A   1      48.998  26.976  26.232  1.00  0.00     0.057 A 
ATOM     78  C   UNL A   1      48.426  27.204  24.944  1.00  0.00     0.134 A 
ATOM     79  C   UNL A   1      50.348  26.620  26.238  1.00  0.00     0.134 A 
ATOM     80  F   UNL A   1      47.135  27.564  24.836  1.00  0.00    -0.206 F 
ATOM     81  C   UNL A   1      49.197  27.288  23.773  1.00  0.00     0.040 A 
ATOM     82  C   UNL A   1      51.113  26.630  25.054  1.00  0.00     0.040 A 
ATOM     83  F   UNL A   1      50.989  26.414  27.396  1.00  0.00    -0.206 F 
ATOM     84  C   UNL A   1      50.559  27.035  23.834  1.00  0.00     0.006 A 
ENDBRANCH  56  77
BRANCH  68  85
ATOM     85  C   UNL A   1      44.851  32.862  27.872  1.00  0.00     0.057 A 
ATOM     86  C   UNL A   1      44.448  33.390  26.636  1.00  0.00     0.134 A 
ATOM     87  C   UNL A   1      44.934  33.837  28.903  1.00  0.00     0.134 A 
ATOM     88  F   UNL A   1      44.137  32.621  25.588  1.00  0.00    -0.206 F 
ATOM     89  C   UNL A   1      44.271  34.764  26.417  1.00  0.00     0.040 A 
ATOM     90  C   UNL A   1      44.635  35.187  28.723  1.00  0.00     0.040 A 
ATOM     91  F   UNL A   1      45.303  33.548  30.157  1.00  0.00    -0.206 F 
ATOM     92  C   UNL A   1      44.343  35.666  27.465  1.00  0.00     0.006 A 
ENDBRANCH  68  85
ENDBRANCH  42  43
ENDBRANCH  35  37
ENDBRANCH  34  35
ENDBRANCH  33  34
ENDBRANCH  32  33
ENDBRANCH  31  32
ENDBRANCH  30  31
ENDBRANCH   1  30
TORSDOF 22
ENDMDL
MODEL 3
REMARK VINA RESULT:     -11.7      1.716      2.736
REMARK SMILES Cc1ccccc1OCCN1C(=O)CC[C@H](C(=O)OCCOCCOCCOC(=O)c2ccc(-c3c4nc(c(-c5c(F)cccc5F)c5ccc([nH]5)c(-c5c(F)cccc5F)c5nc(c(-c6c(F)cccc6F)c6ccc3[nH]6)C=C5)C=C4)cc2)[C@@H]1c1ccco1
REMARK SMILES IDX 23 1 22 2 21 3 20 4 19 5 17 6 18 7 16 8 11 9 12 10 85 11
REMARK SMILES IDX 13 12 14 13 15 14 10 15 9 16 8 17 7 18 1 19 2 20 3 21 4 22
REMARK SMILES IDX 6 23 5 24 86 25 87 26 90 27 88 28 89 29 24 30 25 31 26 32
REMARK SMILES IDX 27 33 28 34 29 35 30 36 31 37 32 38 84 39 33 40 83 41 34 42
REMARK SMILES IDX 35 43 36 44 77 45 37 46 82 47 76 48 78 49 38 50 81 51 75 52
REMARK SMILES IDX 74 53 39 55 65 56 48 57 64 58 49 59 52 60 63 61 79 62 50 63
REMARK SMILES IDX 51 64 62 66 80 67 53 68 40 69 41 70 46 71 42 72 43 73 45 74
REMARK SMILES IDX 47 75 44 76 66 77 67 78 72 79 68 80 69 81 71 82 73 83 70 84
REMARK SMILES IDX 54 85 55 86 60 87 56 88 57 89 59 90 61 91 58 92
REMARK H PARENT 78 54 52 65
REMARK Flexibility Score: inf
ROOT
ATOM      1  C   UNL A   1      40.881  21.239  27.359  1.00  0.00     0.188 C 
ENDROOT
BRANCH   1   2
ATOM      2  O   UNL A   1      39.856  21.692  26.462  1.00  0.00    -0.376 OA
BRANCH   2   3
ATOM      3  C   UNL A   1      38.980  20.908  25.604  1.00  0.00     0.202 C 
BRANCH   3   4
ATOM      4  C   UNL A   1      37.303  20.942  25.047  1.00  0.00     0.261 C 
BRANCH   4   5
ATOM      5  O   UNL A   1      36.175  22.156  24.214  1.00  0.00    -0.463 OA
BRANCH   5   6
ATOM      6  C   UNL A   1      34.714  22.380  23.806  1.00  0.00     0.311 C 
ATOM      7  O   UNL A   1      33.702  21.648  23.875  1.00  0.00    -0.252 OA
BRANCH   6   8
ATOM      8  C   UNL A   1      34.320  23.493  22.994  1.00  0.00     0.130 C 
ATOM      9  N   UNL A   1      33.368  25.730  23.369  1.00  0.00    -0.328 N 
ATOM     10  C   UNL A   1      32.603  25.541  22.211  1.00  0.00     0.223 C 
ATOM     11  C   UNL A   1      34.237  24.698  23.956  1.00  0.00     0.166 C 
ATOM     12  O   UNL A   1      31.796  26.378  21.802  1.00  0.00    -0.275 OA
ATOM     13  C   UNL A   1      32.920  24.362  21.310  1.00  0.00     0.101 C 
ATOM     14  C   UNL A   1      33.258  23.116  22.047  1.00  0.00     0.028 C 
BRANCH   9  15
ATOM     15  C   UNL A   1      33.604  27.127  23.726  1.00  0.00     0.162 C 
BRANCH  15  16
ATOM     16  C   UNL A   1      33.066  27.549  25.126  1.00  0.00     0.251 C 
BRANCH  16  17
ATOM     17  O   UNL A   1      34.034  27.833  26.137  1.00  0.00    -0.491 OA
BRANCH  17  18
ATOM     18  C   UNL A   1      34.185  29.036  26.770  1.00  0.00     0.122 A 
ATOM     19  C   UNL A   1      36.637  28.995  27.616  1.00  0.00     0.048 C 
ATOM     20  C   UNL A   1      35.314  29.646  27.337  1.00  0.00    -0.009 A 
ATOM     21  C   UNL A   1      35.225  31.008  27.722  1.00  0.00     0.007 A 
ATOM     22  C   UNL A   1      34.028  31.718  27.666  1.00  0.00     0.001 A 
ATOM     23  C   UNL A   1      32.961  29.742  26.812  1.00  0.00     0.047 A 
ATOM     24  C   UNL A   1      32.879  31.067  27.254  1.00  0.00     0.004 A 
ENDBRANCH  17  18
ENDBRANCH  16  17
ENDBRANCH  15  16
ENDBRANCH   9  15
BRANCH  11  25
ATOM     25  C   UNL A   1      34.035  24.247  25.413  1.00  0.00     0.127 A 
ATOM     26  C   UNL A   1      34.931  23.443  26.663  1.00  0.00     0.048 A 
ATOM     27  O   UNL A   1      32.292  23.861  25.772  1.00  0.00    -0.467 OA
ATOM     28  C   UNL A   1      33.828  22.514  27.926  1.00  0.00     0.042 A 
ATOM     29  C   UNL A   1      32.141  22.662  27.463  1.00  0.00     0.195 A 
ENDBRANCH  11  25
ENDBRANCH   6   8
ENDBRANCH   5   6
ENDBRANCH   4   5
ENDBRANCH   3   4
ENDBRANCH   2   3
ENDBRANCH   1   2
BRANCH   1  30
ATOM     30  C   UNL A   1      40.981  19.776  27.661  1.00  0.00     0.188 C 
BRANCH  30  31
ATOM     31  O   UNL A   1      42.269  19.401  27.264  1.00  0.00    -0.376 OA
BRANCH  31  32
ATOM     32  C   UNL A   1      42.450  18.825  26.007  1.00  0.00     0.202 C 
BRANCH  32  33
ATOM     33  C   UNL A   1      43.934  18.697  25.680  1.00  0.00     0.261 C 
BRANCH  33  34
ATOM     34  O   UNL A   1      44.270  19.440  24.472  1.00  0.00    -0.460 OA
BRANCH  34  35
ATOM     35  C   UNL A   1      45.263  20.397  24.539  1.00  0.00     0.338 C 
ATOM     36  O   UNL A   1      46.402  20.190  24.916  1.00  0.00    -0.246 OA
BRANCH  35  37
ATOM     37  C   UNL A   1      44.682  21.776  24.347  1.00  0.00     0.060 A 
ATOM     38  C   UNL A   1      45.477  22.903  24.049  1.00  0.00     0.016 A 
ATOM     39  C   UNL A   1      43.603  21.999  25.118  1.00  0.00     0.016 A 
ATOM     40  C   UNL A   1      45.444  24.116  24.852  1.00  0.00     0.010 A 
ATOM     41  C   UNL A   1      43.783  23.039  26.019  1.00  0.00     0.010 A 
ATOM     42  C   UNL A   1      44.678  24.241  26.030  1.00  0.00    -0.014 A 
BRANCH  42  43
ATOM     43  C   UNL A   1      44.439  25.829  27.038  1.00  0.00     0.031 A 
ATOM     44  C   UNL A   1      42.737  26.785  27.252  1.00  0.00     0.074 A 
ATOM     45  C   UNL A   1      45.593  26.200  27.686  1.00  0.00     0.049 A 
ATOM     46  N   UNL A   1      42.214  28.589  27.402  1.00  0.00    -0.248 NA
ATOM     47  C   UNL A   1      40.992  25.934  27.885  1.00  0.00     0.031 C 
ATOM     48  C   UNL A   1      45.838  26.784  29.031  1.00  0.00     0.029 A 
ATOM     49  N   UNL A   1      46.909  26.086  27.236  1.00  0.00    -0.354 N 
ATOM     50  C   UNL A   1      40.600  28.731  28.116  1.00  0.00     0.074 A 
ATOM     51  C   UNL A   1      39.962  27.010  28.238  1.00  0.00     0.031 C 
ATOM     52  C   UNL A   1      47.024  27.414  29.046  1.00  0.00     0.029 A 
ATOM     53  C   UNL A   1      47.608  27.192  27.753  1.00  0.00     0.049 A 
ATOM     54  H   UNL A   1      47.277  25.371  26.668  1.00  0.00     0.167 HD
ATOM     55  C   UNL A   1      40.489  29.684  29.120  1.00  0.00     0.037 A 
ATOM     56  C   UNL A   1      48.222  28.073  26.938  1.00  0.00     0.037 A 
ATOM     57  C   UNL A   1      41.822  30.328  29.431  1.00  0.00     0.049 A 
ATOM     58  C   UNL A   1      47.605  29.451  27.142  1.00  0.00     0.074 A 
ATOM     59  C   UNL A   1      42.663  30.207  30.539  1.00  0.00     0.029 A 
ATOM     60  N   UNL A   1      42.659  30.873  28.428  1.00  0.00    -0.354 N 
ATOM     61  N   UNL A   1      46.421  29.711  27.669  1.00  0.00    -0.248 NA
ATOM     62  C   UNL A   1      48.370  30.660  26.878  1.00  0.00     0.031 C 
ATOM     63  C   UNL A   1      43.981  30.648  30.197  1.00  0.00     0.029 A 
ATOM     64  C   UNL A   1      43.992  31.049  28.868  1.00  0.00     0.049 A 
ATOM     65  H   UNL A   1      42.348  31.104  27.523  1.00  0.00     0.167 HD
ATOM     66  C   UNL A   1      46.208  31.078  27.718  1.00  0.00     0.074 A 
ATOM     67  C   UNL A   1      47.513  31.601  27.311  1.00  0.00     0.031 C 
ATOM     68  C   UNL A   1      45.025  31.728  28.047  1.00  0.00     0.037 A 
BRANCH  55  69
ATOM     69  C   UNL A   1      39.312  29.643  30.090  1.00  0.00     0.057 A 
ATOM     70  C   UNL A   1      39.232  28.692  31.125  1.00  0.00     0.134 A 
ATOM     71  C   UNL A   1      38.229  30.550  30.069  1.00  0.00     0.134 A 
ATOM     72  F   UNL A   1      40.228  27.832  31.370  1.00  0.00    -0.206 F 
ATOM     73  C   UNL A   1      38.132  28.581  31.991  1.00  0.00     0.040 A 
ATOM     74  C   UNL A   1      37.105  30.433  30.908  1.00  0.00     0.040 A 
ATOM     75  F   UNL A   1      38.232  31.622  29.265  1.00  0.00    -0.206 F 
ATOM     76  C   UNL A   1      37.050  29.440  31.872  1.00  0.00     0.006 A 
ENDBRANCH  55  69
BRANCH  56  77
ATOM     77  C   UNL A   1      48.742  27.330  25.728  1.00  0.00     0.057 A 
ATOM     78  C   UNL A   1      47.974  27.464  24.531  1.00  0.00     0.134 A 
ATOM     79  C   UNL A   1      50.098  27.051  25.545  1.00  0.00     0.134 A 
ATOM     80  F   UNL A   1      46.661  27.744  24.605  1.00  0.00    -0.206 F 
ATOM     81  C   UNL A   1      48.557  27.533  23.256  1.00  0.00     0.040 A 
ATOM     82  C   UNL A   1      50.679  27.047  24.261  1.00  0.00     0.040 A 
ATOM     83  F   UNL A   1      50.915  26.938  26.601  1.00  0.00    -0.206 F 
ATOM     84  C   UNL A   1      49.926  27.361  23.122  1.00  0.00     0.006 A 
ENDBRANCH  56  77
BRANCH  68  85
ATOM     85  C   UNL A   1      44.744  33.205  27.735  1.00  0.00     0.057 A 
ATOM     86  C   UNL A   1      44.195  33.703  26.544  1.00  0.00     0.134 A 
ATOM     87  C   UNL A   1      44.932  34.202  28.731  1.00  0.00     0.134 A 
ATOM     88  F   UNL A   1      43.776  32.910  25.553  1.00  0.00    -0.206 F 
ATOM     89  C   UNL A   1      43.974  35.070  26.321  1.00  0.00     0.040 A 
ATOM     90  C   UNL A   1      44.595  35.545  28.561  1.00  0.00     0.040 A 
ATOM     91  F   UNL A   1      45.446  33.943  29.939  1.00  0.00    -0.206 F 
ATOM     92  C   UNL A   1      44.154  35.994  27.336  1.00  0.00     0.006 A 
ENDBRANCH  68  85
ENDBRANCH  42  43
ENDBRANCH  35  37
ENDBRANCH  34  35
ENDBRANCH  33  34
ENDBRANCH  32  33
ENDBRANCH  31  32
ENDBRANCH  30  31
ENDBRANCH   1  30
TORSDOF 22
ENDMDL
