MODEL 1
REMARK VINA RESULT:     -11.1      0.000      0.000
REMARK SMILES Cc1cccc(-n2c(C)cc(/C=N\c3ccc(O)c(C(=O)OCCOCCOCCOC(=O)c4ccc(-c5c6nc(c(-c7c(F)cccc7F)c7ccc([nH]7)c(-c7c(F)cccc7F)c7nc(c(-c8c(F)cccc8F)c8ccc5[nH]8)C=C7)C=C6)cc4)c3)c2C)c1
REMARK SMILES IDX 26 1 25 2 24 3 23 4 22 5 20 6 21 7 19 8 14 9 15 10 88 11
REMARK SMILES IDX 16 12 17 13 13 14 12 15 11 16 7 17 8 18 89 19 9 20 10 21
REMARK SMILES IDX 90 22 6 23 1 24 2 25 3 26 91 27 4 28 5 29 18 30 27 32 28 33
REMARK SMILES IDX 29 34 30 35 31 36 32 37 33 38 34 39 35 40 87 41 36 42 86 43
REMARK SMILES IDX 37 44 38 45 39 46 80 47 40 48 85 49 79 50 81 51 41 52 84 53
REMARK SMILES IDX 78 54 77 55 42 57 68 58 51 59 67 60 52 61 55 62 66 63 82 64
REMARK SMILES IDX 53 65 54 66 65 68 83 69 56 70 43 71 44 72 49 73 45 74 46 75
REMARK SMILES IDX 48 76 50 77 47 78 69 79 70 80 75 81 71 82 72 83 74 84 76 85
REMARK SMILES IDX 73 86 57 87 58 88 63 89 59 90 60 91 62 92 64 93 61 94
REMARK H PARENT 18 31 81 56 55 67
REMARK Flexibility Score: inf
ROOT
ATOM      1  C   UNL A   1      34.743  33.951  30.938  1.00  0.00     0.188 C 
ENDROOT
BRANCH   1   2
ATOM      2  O   UNL A   1      34.525  34.279  29.560  1.00  0.00    -0.376 OA
BRANCH   2   3
ATOM      3  C   UNL A   1      33.736  33.476  28.668  1.00  0.00     0.202 C 
BRANCH   3   4
ATOM      4  C   UNL A   1      34.277  32.160  27.885  1.00  0.00     0.261 C 
BRANCH   4   5
ATOM      5  O   UNL A   1      33.380  30.973  27.598  1.00  0.00    -0.460 OA
BRANCH   5   6
ATOM      6  C   UNL A   1      33.590  29.648  27.320  1.00  0.00     0.342 C 
ATOM      7  O   UNL A   1      34.685  29.138  27.547  1.00  0.00    -0.246 OA
BRANCH   6   8
ATOM      8  C   UNL A   1      32.412  28.710  26.598  1.00  0.00     0.103 A 
ATOM      9  C   UNL A   1      31.038  26.574  26.009  1.00  0.00     0.064 A 
ATOM     10  C   UNL A   1      30.413  27.285  25.011  1.00  0.00     0.032 A 
ATOM     11  C   UNL A   1      31.947  27.338  26.814  1.00  0.00     0.048 A 
ATOM     12  C   UNL A   1      30.767  28.627  24.780  1.00  0.00     0.049 A 
ATOM     13  C   UNL A   1      31.763  29.304  25.522  1.00  0.00     0.130 A 
BRANCH   9  14
ATOM     14  N   UNL A   1      30.633  25.252  26.347  1.00  0.00    -0.256 NA
ATOM     15  C   UNL A   1      31.156  24.079  26.066  1.00  0.00     0.121 C 
BRANCH  15  16
ATOM     16  C   UNL A   1      32.435  23.656  25.466  1.00  0.00     0.014 A 
ATOM     17  N   UNL A   1      34.510  22.735  25.274  1.00  0.00    -0.318 N 
ATOM     18  C   UNL A   1      34.151  23.146  24.007  1.00  0.00     0.021 A 
ATOM     19  C   UNL A   1      33.434  22.954  26.104  1.00  0.00     0.029 A 
ATOM     20  C   UNL A   1      35.052  22.952  22.835  1.00  0.00     0.065 C 
ATOM     21  C   UNL A   1      32.857  23.662  24.092  1.00  0.00     0.033 A 
ATOM     22  C   UNL A   1      33.419  22.531  27.492  1.00  0.00     0.065 C 
BRANCH  17  23
ATOM     23  C   UNL A   1      35.796  22.368  25.760  1.00  0.00     0.046 A 
ATOM     24  C   UNL A   1      38.148  19.489  24.979  1.00  0.00     0.044 C 
ATOM     25  C   UNL A   1      37.628  20.833  25.392  1.00  0.00    -0.049 A 
ATOM     26  C   UNL A   1      38.533  21.874  25.655  1.00  0.00     0.003 A 
ATOM     27  C   UNL A   1      36.250  21.083  25.450  1.00  0.00     0.030 A 
ATOM     28  C   UNL A   1      38.073  23.133  26.039  1.00  0.00     0.002 A 
ATOM     29  C   UNL A   1      36.703  23.373  26.123  1.00  0.00     0.026 A 
ENDBRANCH  17  23
ENDBRANCH  15  16
ENDBRANCH   9  14
BRANCH  13  30
ATOM     30  O   UNL A   1      32.041  30.577  25.098  1.00  0.00    -0.507 OA
ATOM     31  H   UNL A   1      31.418  31.264  25.237  1.00  0.00     0.293 HD
ENDBRANCH  13  30
ENDBRANCH   6   8
ENDBRANCH   5   6
ENDBRANCH   4   5
ENDBRANCH   3   4
ENDBRANCH   2   3
ENDBRANCH   1   2
BRANCH   1  32
ATOM     32  C   UNL A   1      36.004  33.293  31.458  1.00  0.00     0.188 C 
BRANCH  32  33
ATOM     33  O   UNL A   1      36.134  33.554  32.842  1.00  0.00    -0.376 OA
BRANCH  33  34
ATOM     34  C   UNL A   1      36.605  32.464  33.615  1.00  0.00     0.202 C 
BRANCH  34  35
ATOM     35  C   UNL A   1      37.892  31.823  33.056  1.00  0.00     0.261 C 
BRANCH  35  36
ATOM     36  O   UNL A   1      37.870  30.383  33.248  1.00  0.00    -0.460 OA
BRANCH  36  37
ATOM     37  C   UNL A   1      37.574  29.586  32.178  1.00  0.00     0.338 C 
ATOM     38  O   UNL A   1      36.465  29.531  31.635  1.00  0.00    -0.246 OA
BRANCH  37  39
ATOM     39  C   UNL A   1      38.685  28.608  31.918  1.00  0.00     0.060 A 
ATOM     40  C   UNL A   1      40.031  28.756  32.303  1.00  0.00     0.016 A 
ATOM     41  C   UNL A   1      38.451  27.725  30.913  1.00  0.00     0.016 A 
ATOM     42  C   UNL A   1      41.117  28.158  31.540  1.00  0.00     0.010 A 
ATOM     43  C   UNL A   1      39.515  27.489  30.052  1.00  0.00     0.010 A 
ATOM     44  C   UNL A   1      40.906  27.562  30.290  1.00  0.00    -0.014 A 
BRANCH  44  45
ATOM     45  C   UNL A   1      41.990  27.152  29.171  1.00  0.00     0.031 A 
ATOM     46  C   UNL A   1      42.642  25.736  28.760  1.00  0.00     0.074 A 
ATOM     47  C   UNL A   1      42.163  28.073  28.198  1.00  0.00     0.049 A 
ATOM     48  N   UNL A   1      42.937  25.354  27.542  1.00  0.00    -0.248 NA
ATOM     49  C   UNL A   1      42.943  24.584  29.608  1.00  0.00     0.031 C 
ATOM     50  C   UNL A   1      42.676  27.936  26.832  1.00  0.00     0.029 A 
ATOM     51  N   UNL A   1      42.005  29.451  28.313  1.00  0.00    -0.354 N 
ATOM     52  C   UNL A   1      43.255  24.002  27.496  1.00  0.00     0.074 A 
ATOM     53  C   UNL A   1      43.198  23.537  28.827  1.00  0.00     0.031 C 
ATOM     54  C   UNL A   1      43.150  29.122  26.423  1.00  0.00     0.029 A 
ATOM     55  C   UNL A   1      43.056  30.011  27.559  1.00  0.00     0.049 A 
ATOM     56  H   UNL A   1      41.306  29.932  28.813  1.00  0.00     0.167 HD
ATOM     57  C   UNL A   1      43.796  23.399  26.406  1.00  0.00     0.037 A 
ATOM     58  C   UNL A   1      44.071  30.584  28.262  1.00  0.00     0.037 A 
ATOM     59  C   UNL A   1      44.596  24.405  25.730  1.00  0.00     0.049 A 
ATOM     60  C   UNL A   1      45.319  29.720  28.180  1.00  0.00     0.074 A 
ATOM     61  C   UNL A   1      44.396  25.323  24.723  1.00  0.00     0.029 A 
ATOM     62  N   UNL A   1      45.699  24.849  26.443  1.00  0.00    -0.354 N 
ATOM     63  N   UNL A   1      45.374  28.585  27.527  1.00  0.00    -0.248 NA
ATOM     64  C   UNL A   1      46.597  30.040  28.804  1.00  0.00     0.031 C 
ATOM     65  C   UNL A   1      45.265  26.437  25.001  1.00  0.00     0.029 A 
ATOM     66  C   UNL A   1      46.013  26.158  26.139  1.00  0.00     0.049 A 
ATOM     67  H   UNL A   1      46.200  24.297  27.087  1.00  0.00     0.167 HD
ATOM     68  C   UNL A   1      46.613  28.037  27.610  1.00  0.00     0.074 A 
ATOM     69  C   UNL A   1      47.346  28.977  28.449  1.00  0.00     0.031 C 
ATOM     70  C   UNL A   1      46.967  26.869  26.993  1.00  0.00     0.037 A 
BRANCH  57  71
ATOM     71  C   UNL A   1      43.760  21.916  26.076  1.00  0.00     0.057 A 
ATOM     72  C   UNL A   1      44.870  21.316  25.449  1.00  0.00     0.134 A 
ATOM     73  C   UNL A   1      42.639  21.060  26.188  1.00  0.00     0.134 A 
ATOM     74  F   UNL A   1      45.992  22.014  25.216  1.00  0.00    -0.206 F 
ATOM     75  C   UNL A   1      44.870  19.989  24.981  1.00  0.00     0.040 A 
ATOM     76  C   UNL A   1      42.639  19.720  25.757  1.00  0.00     0.040 A 
ATOM     77  F   UNL A   1      41.466  21.476  26.677  1.00  0.00    -0.206 F 
ATOM     78  C   UNL A   1      43.754  19.181  25.139  1.00  0.00     0.006 A 
ENDBRANCH  57  71
BRANCH  58  79
ATOM     79  C   UNL A   1      43.482  31.397  29.388  1.00  0.00     0.057 A 
ATOM     80  C   UNL A   1      43.594  30.838  30.693  1.00  0.00     0.134 A 
ATOM     81  C   UNL A   1      43.269  32.775  29.337  1.00  0.00     0.134 A 
ATOM     82  F   UNL A   1      43.805  29.518  30.841  1.00  0.00    -0.206 F 
ATOM     83  C   UNL A   1      43.692  31.619  31.849  1.00  0.00     0.040 A 
ATOM     84  C   UNL A   1      43.282  33.561  30.510  1.00  0.00     0.040 A 
ATOM     85  F   UNL A   1      43.194  33.414  28.162  1.00  0.00    -0.206 F 
ATOM     86  C   UNL A   1      43.562  32.995  31.756  1.00  0.00     0.006 A 
ENDBRANCH  58  79
BRANCH  70  87
ATOM     87  C   UNL A   1      48.341  26.324  27.185  1.00  0.00     0.057 A 
ATOM     88  C   UNL A   1      49.319  26.477  26.198  1.00  0.00     0.134 A 
ATOM     89  C   UNL A   1      48.700  25.577  28.321  1.00  0.00     0.134 A 
ATOM     90  F   UNL A   1      49.050  27.149  25.068  1.00  0.00    -0.206 F 
ATOM     91  C   UNL A   1      50.604  25.958  26.352  1.00  0.00     0.040 A 
ATOM     92  C   UNL A   1      49.960  24.997  28.457  1.00  0.00     0.040 A 
ATOM     93  F   UNL A   1      47.846  25.401  29.342  1.00  0.00    -0.206 F 
ATOM     94  C   UNL A   1      50.923  25.203  27.478  1.00  0.00     0.006 A 
ENDBRANCH  70  87
ENDBRANCH  44  45
ENDBRANCH  37  39
ENDBRANCH  36  37
ENDBRANCH  35  36
ENDBRANCH  34  35
ENDBRANCH  33  34
ENDBRANCH  32  33
ENDBRANCH   1  32
TORSDOF 21
ENDMDL
MODEL 2
REMARK VINA RESULT:     -10.6      2.620      4.486
REMARK SMILES Cc1cccc(-n2c(C)cc(/C=N\c3ccc(O)c(C(=O)OCCOCCOCCOC(=O)c4ccc(-c5c6nc(c(-c7c(F)cccc7F)c7ccc([nH]7)c(-c7c(F)cccc7F)c7nc(c(-c8c(F)cccc8F)c8ccc5[nH]8)C=C7)C=C6)cc4)c3)c2C)c1
REMARK SMILES IDX 26 1 25 2 24 3 23 4 22 5 20 6 21 7 19 8 14 9 15 10 88 11
REMARK SMILES IDX 16 12 17 13 13 14 12 15 11 16 7 17 8 18 89 19 9 20 10 21
REMARK SMILES IDX 90 22 6 23 1 24 2 25 3 26 91 27 4 28 5 29 18 30 27 32 28 33
REMARK SMILES IDX 29 34 30 35 31 36 32 37 33 38 34 39 35 40 87 41 36 42 86 43
REMARK SMILES IDX 37 44 38 45 39 46 80 47 40 48 85 49 79 50 81 51 41 52 84 53
REMARK SMILES IDX 78 54 77 55 42 57 68 58 51 59 67 60 52 61 55 62 66 63 82 64
REMARK SMILES IDX 53 65 54 66 65 68 83 69 56 70 43 71 44 72 49 73 45 74 46 75
REMARK SMILES IDX 48 76 50 77 47 78 69 79 70 80 75 81 71 82 72 83 74 84 76 85
REMARK SMILES IDX 73 86 57 87 58 88 63 89 59 90 60 91 62 92 64 93 61 94
REMARK H PARENT 18 31 81 56 55 67
REMARK Flexibility Score: inf
ROOT
ATOM      1  C   UNL A   1      32.838  35.027  29.920  1.00  0.00     0.188 C 
ENDROOT
BRANCH   1   2
ATOM      2  O   UNL A   1      32.883  34.996  28.488  1.00  0.00    -0.376 OA
BRANCH   2   3
ATOM      3  C   UNL A   1      32.624  33.817  27.710  1.00  0.00     0.202 C 
BRANCH   3   4
ATOM      4  C   UNL A   1      33.384  32.394  27.907  1.00  0.00     0.261 C 
BRANCH   4   5
ATOM      5  O   UNL A   1      33.062  31.188  27.048  1.00  0.00    -0.460 OA
BRANCH   5   6
ATOM      6  C   UNL A   1      33.254  29.837  27.169  1.00  0.00     0.342 C 
ATOM      7  O   UNL A   1      34.245  29.407  27.755  1.00  0.00    -0.246 OA
BRANCH   6   8
ATOM      8  C   UNL A   1      32.209  28.740  26.467  1.00  0.00     0.103 A 
ATOM      9  C   UNL A   1      30.867  26.526  26.158  1.00  0.00     0.064 A 
ATOM     10  C   UNL A   1      30.526  26.942  24.892  1.00  0.00     0.032 A 
ATOM     11  C   UNL A   1      31.621  27.478  26.922  1.00  0.00     0.048 A 
ATOM     12  C   UNL A   1      31.007  28.172  24.405  1.00  0.00     0.049 A 
ATOM     13  C   UNL A   1      31.854  29.023  25.153  1.00  0.00     0.130 A 
BRANCH   9  14
ATOM     14  N   UNL A   1      30.313  25.345  26.728  1.00  0.00    -0.256 NA
ATOM     15  C   UNL A   1      30.420  24.079  26.390  1.00  0.00     0.121 C 
BRANCH  15  16
ATOM     16  C   UNL A   1      31.274  23.353  25.431  1.00  0.00     0.014 A 
ATOM     17  N   UNL A   1      33.050  22.203  24.590  1.00  0.00    -0.318 N 
ATOM     18  C   UNL A   1      32.099  22.228  23.591  1.00  0.00     0.021 A 
ATOM     19  C   UNL A   1      32.499  22.787  25.707  1.00  0.00     0.029 A 
ATOM     20  C   UNL A   1      32.332  21.577  22.270  1.00  0.00     0.065 C 
ATOM     21  C   UNL A   1      30.978  22.879  24.107  1.00  0.00     0.033 A 
ATOM     22  C   UNL A   1      33.183  22.830  26.986  1.00  0.00     0.065 C 
BRANCH  17  23
ATOM     23  C   UNL A   1      34.432  21.873  24.495  1.00  0.00     0.046 A 
ATOM     24  C   UNL A   1      37.618  23.718  25.432  1.00  0.00     0.044 C 
ATOM     25  C   UNL A   1      36.639  22.620  25.142  1.00  0.00    -0.049 A 
ATOM     26  C   UNL A   1      36.997  21.287  25.402  1.00  0.00     0.003 A 
ATOM     27  C   UNL A   1      35.348  22.912  24.680  1.00  0.00     0.030 A 
ATOM     28  C   UNL A   1      36.103  20.249  25.142  1.00  0.00     0.002 A 
ATOM     29  C   UNL A   1      34.830  20.539  24.657  1.00  0.00     0.026 A 
ENDBRANCH  17  23
ENDBRANCH  15  16
ENDBRANCH   9  14
BRANCH  13  30
ATOM     30  O   UNL A   1      32.300  30.134  24.486  1.00  0.00    -0.507 OA
ATOM     31  H   UNL A   1      31.800  30.486  23.776  1.00  0.00     0.293 HD
ENDBRANCH  13  30
ENDBRANCH   6   8
ENDBRANCH   5   6
ENDBRANCH   4   5
ENDBRANCH   3   4
ENDBRANCH   2   3
ENDBRANCH   1   2
BRANCH   1  32
ATOM     32  C   UNL A   1      33.275  36.215  30.751  1.00  0.00     0.188 C 
BRANCH  32  33
ATOM     33  O   UNL A   1      34.097  35.769  31.812  1.00  0.00    -0.376 OA
BRANCH  33  34
ATOM     34  C   UNL A   1      33.618  34.626  32.499  1.00  0.00     0.202 C 
BRANCH  34  35
ATOM     35  C   UNL A   1      34.637  33.469  32.555  1.00  0.00     0.261 C 
BRANCH  35  36
ATOM     36  O   UNL A   1      34.642  32.732  31.303  1.00  0.00    -0.460 OA
BRANCH  36  37
ATOM     37  C   UNL A   1      35.690  32.910  30.445  1.00  0.00     0.338 C 
ATOM     38  O   UNL A   1      35.929  33.963  29.842  1.00  0.00    -0.246 OA
BRANCH  37  39
ATOM     39  C   UNL A   1      36.352  31.597  30.134  1.00  0.00     0.060 A 
ATOM     40  C   UNL A   1      36.400  30.469  30.975  1.00  0.00     0.016 A 
ATOM     41  C   UNL A   1      37.291  31.644  29.154  1.00  0.00     0.016 A 
ATOM     42  C   UNL A   1      37.505  29.523  30.926  1.00  0.00     0.010 A 
ATOM     43  C   UNL A   1      38.457  30.928  29.395  1.00  0.00     0.010 A 
ATOM     44  C   UNL A   1      38.664  29.771  30.178  1.00  0.00    -0.014 A 
BRANCH  44  45
ATOM     45  C   UNL A   1      40.091  29.030  30.253  1.00  0.00     0.031 A 
ATOM     46  C   UNL A   1      40.611  27.615  29.678  1.00  0.00     0.074 A 
ATOM     47  C   UNL A   1      41.125  29.839  30.572  1.00  0.00     0.049 A 
ATOM     48  N   UNL A   1      41.803  27.380  29.186  1.00  0.00    -0.248 NA
ATOM     49  C   UNL A   1      39.868  26.370  29.498  1.00  0.00     0.031 C 
ATOM     50  C   UNL A   1      42.563  29.696  30.325  1.00  0.00     0.029 A 
ATOM     51  N   UNL A   1      41.076  30.989  31.353  1.00  0.00    -0.354 N 
ATOM     52  C   UNL A   1      41.858  26.143  28.557  1.00  0.00     0.074 A 
ATOM     53  C   UNL A   1      40.589  25.552  28.735  1.00  0.00     0.031 C 
ATOM     54  C   UNL A   1      43.234  30.425  31.228  1.00  0.00     0.029 A 
ATOM     55  C   UNL A   1      42.245  30.956  32.140  1.00  0.00     0.049 A 
ATOM     56  H   UNL A   1      40.374  31.680  31.355  1.00  0.00     0.167 HD
ATOM     57  C   UNL A   1      43.017  25.565  28.148  1.00  0.00     0.037 A 
ATOM     58  C   UNL A   1      42.082  30.668  33.460  1.00  0.00     0.037 A 
ATOM     59  C   UNL A   1      44.050  26.013  29.064  1.00  0.00     0.049 A 
ATOM     60  C   UNL A   1      42.600  29.271  33.761  1.00  0.00     0.074 A 
ATOM     61  C   UNL A   1      44.959  27.047  29.110  1.00  0.00     0.029 A 
ATOM     62  N   UNL A   1      43.903  25.570  30.371  1.00  0.00    -0.354 N 
ATOM     63  N   UNL A   1      43.114  28.477  32.854  1.00  0.00    -0.248 NA
ATOM     64  C   UNL A   1      42.596  28.646  35.078  1.00  0.00     0.031 C 
ATOM     65  C   UNL A   1      45.166  27.353  30.501  1.00  0.00     0.029 A 
ATOM     66  C   UNL A   1      44.424  26.471  31.278  1.00  0.00     0.049 A 
ATOM     67  H   UNL A   1      43.481  24.717  30.621  1.00  0.00     0.167 HD
ATOM     68  C   UNL A   1      43.507  27.301  33.406  1.00  0.00     0.074 A 
ATOM     69  C   UNL A   1      43.137  27.441  34.808  1.00  0.00     0.031 C 
ATOM     70  C   UNL A   1      44.110  26.298  32.699  1.00  0.00     0.037 A 
BRANCH  57  71
ATOM     71  C   UNL A   1      43.170  24.488  27.086  1.00  0.00     0.057 A 
ATOM     72  C   UNL A   1      42.988  23.136  27.436  1.00  0.00     0.134 A 
ATOM     73  C   UNL A   1      43.645  24.675  25.766  1.00  0.00     0.134 A 
ATOM     74  F   UNL A   1      42.597  22.789  28.671  1.00  0.00    -0.206 F 
ATOM     75  C   UNL A   1      43.247  22.068  26.557  1.00  0.00     0.040 A 
ATOM     76  C   UNL A   1      43.873  23.617  24.866  1.00  0.00     0.040 A 
ATOM     77  F   UNL A   1      43.959  25.881  25.282  1.00  0.00    -0.206 F 
ATOM     78  C   UNL A   1      43.686  22.305  25.263  1.00  0.00     0.006 A 
ENDBRANCH  57  71
BRANCH  58  79
ATOM     79  C   UNL A   1      40.890  31.433  33.979  1.00  0.00     0.057 A 
ATOM     80  C   UNL A   1      41.051  32.843  34.101  1.00  0.00     0.134 A 
ATOM     81  C   UNL A   1      39.572  30.979  33.913  1.00  0.00     0.134 A 
ATOM     82  F   UNL A   1      42.285  33.373  34.168  1.00  0.00    -0.206 F 
ATOM     83  C   UNL A   1      39.991  33.744  33.959  1.00  0.00     0.040 A 
ATOM     84  C   UNL A   1      38.489  31.883  33.854  1.00  0.00     0.040 A 
ATOM     85  F   UNL A   1      39.303  29.676  33.752  1.00  0.00    -0.206 F 
ATOM     86  C   UNL A   1      38.702  33.263  33.807  1.00  0.00     0.006 A 
ENDBRANCH  58  79
BRANCH  70  87
ATOM     87  C   UNL A   1      44.461  25.023  33.386  1.00  0.00     0.057 A 
ATOM     88  C   UNL A   1      45.768  24.526  33.357  1.00  0.00     0.134 A 
ATOM     89  C   UNL A   1      43.498  24.228  34.031  1.00  0.00     0.134 A 
ATOM     90  F   UNL A   1      46.743  25.207  32.734  1.00  0.00    -0.206 F 
ATOM     91  C   UNL A   1      46.111  23.326  33.978  1.00  0.00     0.040 A 
ATOM     92  C   UNL A   1      43.815  22.995  34.599  1.00  0.00     0.040 A 
ATOM     93  F   UNL A   1      42.222  24.631  34.146  1.00  0.00    -0.206 F 
ATOM     94  C   UNL A   1      45.130  22.550  34.589  1.00  0.00     0.006 A 
ENDBRANCH  70  87
ENDBRANCH  44  45
ENDBRANCH  37  39
ENDBRANCH  36  37
ENDBRANCH  35  36
ENDBRANCH  34  35
ENDBRANCH  33  34
ENDBRANCH  32  33
ENDBRANCH   1  32
TORSDOF 21
ENDMDL
MODEL 3
REMARK VINA RESULT:     -10.3      4.423     10.832
REMARK SMILES Cc1cccc(-n2c(C)cc(/C=N\c3ccc(O)c(C(=O)OCCOCCOCCOC(=O)c4ccc(-c5c6nc(c(-c7c(F)cccc7F)c7ccc([nH]7)c(-c7c(F)cccc7F)c7nc(c(-c8c(F)cccc8F)c8ccc5[nH]8)C=C7)C=C6)cc4)c3)c2C)c1
REMARK SMILES IDX 26 1 25 2 24 3 23 4 22 5 20 6 21 7 19 8 14 9 15 10 88 11
REMARK SMILES IDX 16 12 17 13 13 14 12 15 11 16 7 17 8 18 89 19 9 20 10 21
REMARK SMILES IDX 90 22 6 23 1 24 2 25 3 26 91 27 4 28 5 29 18 30 27 32 28 33
REMARK SMILES IDX 29 34 30 35 31 36 32 37 33 38 34 39 35 40 87 41 36 42 86 43
REMARK SMILES IDX 37 44 38 45 39 46 80 47 40 48 85 49 79 50 81 51 41 52 84 53
REMARK SMILES IDX 78 54 77 55 42 57 68 58 51 59 67 60 52 61 55 62 66 63 82 64
REMARK SMILES IDX 53 65 54 66 65 68 83 69 56 70 43 71 44 72 49 73 45 74 46 75
REMARK SMILES IDX 48 76 50 77 47 78 69 79 70 80 75 81 71 82 72 83 74 84 76 85
REMARK SMILES IDX 73 86 57 87 58 88 63 89 59 90 60 91 62 92 64 93 61 94
REMARK H PARENT 18 31 81 56 55 67
REMARK Flexibility Score: inf
ROOT
ATOM      1  C   UNL A   1      40.096  21.725  26.903  1.00  0.00     0.188 C 
ENDROOT
BRANCH   1   2
ATOM      2  O   UNL A   1      40.127  20.813  25.798  1.00  0.00    -0.376 OA
BRANCH   2   3
ATOM      3  C   UNL A   1      39.195  19.734  25.632  1.00  0.00     0.202 C 
BRANCH   3   4
ATOM      4  C   UNL A   1      37.889  19.778  24.667  1.00  0.00     0.261 C 
BRANCH   4   5
ATOM      5  O   UNL A   1      36.626  19.009  24.992  1.00  0.00    -0.460 OA
BRANCH   5   6
ATOM      6  C   UNL A   1      35.285  19.237  24.826  1.00  0.00     0.342 C 
ATOM      7  O   UNL A   1      34.586  18.402  24.255  1.00  0.00    -0.246 OA
BRANCH   6   8
ATOM      8  C   UNL A   1      34.575  20.668  25.310  1.00  0.00     0.103 A 
ATOM      9  C   UNL A   1      34.408  23.165  26.043  1.00  0.00     0.064 A 
ATOM     10  C   UNL A   1      33.091  22.951  26.375  1.00  0.00     0.032 A 
ATOM     11  C   UNL A   1      35.069  22.041  25.446  1.00  0.00     0.048 A 
ATOM     12  C   UNL A   1      32.528  21.670  26.219  1.00  0.00     0.049 A 
ATOM     13  C   UNL A   1      33.259  20.557  25.741  1.00  0.00     0.130 A 
BRANCH   9  14
ATOM     14  N   UNL A   1      34.983  24.467  26.081  1.00  0.00    -0.256 NA
ATOM     15  C   UNL A   1      34.737  25.552  25.381  1.00  0.00     0.121 C 
BRANCH  15  16
ATOM     16  C   UNL A   1      33.677  25.924  24.426  1.00  0.00     0.014 A 
ATOM     17  N   UNL A   1      31.889  27.013  23.528  1.00  0.00    -0.318 N 
ATOM     18  C   UNL A   1      32.341  26.146  22.555  1.00  0.00     0.021 A 
ATOM     19  C   UNL A   1      32.759  26.938  24.592  1.00  0.00     0.029 A 
ATOM     20  C   UNL A   1      31.685  26.056  21.219  1.00  0.00     0.065 C 
ATOM     21  C   UNL A   1      33.474  25.510  23.065  1.00  0.00     0.033 A 
ATOM     22  C   UNL A   1      32.653  27.803  25.752  1.00  0.00     0.065 C 
BRANCH  17  23
ATOM     23  C   UNL A   1      30.647  27.706  23.596  1.00  0.00     0.046 A 
ATOM     24  C   UNL A   1      29.172  30.602  21.629  1.00  0.00     0.044 C 
ATOM     25  C   UNL A   1      29.298  29.357  22.456  1.00  0.00    -0.049 A 
ATOM     26  C   UNL A   1      28.154  28.592  22.735  1.00  0.00     0.003 A 
ATOM     27  C   UNL A   1      30.552  28.911  22.896  1.00  0.00     0.030 A 
ATOM     28  C   UNL A   1      28.246  27.432  23.501  1.00  0.00     0.002 A 
ATOM     29  C   UNL A   1      29.490  27.004  23.961  1.00  0.00     0.026 A 
ENDBRANCH  17  23
ENDBRANCH  15  16
ENDBRANCH   9  14
BRANCH  13  30
ATOM     30  O   UNL A   1      32.576  19.368  25.742  1.00  0.00    -0.507 OA
ATOM     31  H   UNL A   1      32.674  18.771  25.027  1.00  0.00     0.293 HD
ENDBRANCH  13  30
ENDBRANCH   6   8
ENDBRANCH   5   6
ENDBRANCH   4   5
ENDBRANCH   3   4
ENDBRANCH   2   3
ENDBRANCH   1   2
BRANCH   1  32
ATOM     32  C   UNL A   1      41.327  22.164  27.668  1.00  0.00     0.188 C 
BRANCH  32  33
ATOM     33  O   UNL A   1      41.601  23.521  27.377  1.00  0.00    -0.376 OA
BRANCH  33  34
ATOM     34  C   UNL A   1      42.396  23.738  26.225  1.00  0.00     0.202 C 
BRANCH  34  35
ATOM     35  C   UNL A   1      43.365  24.931  26.361  1.00  0.00     0.261 C 
BRANCH  35  36
ATOM     36  O   UNL A   1      42.647  26.129  26.759  1.00  0.00    -0.460 OA
BRANCH  36  37
ATOM     37  C   UNL A   1      42.413  27.093  25.818  1.00  0.00     0.338 C 
ATOM     38  O   UNL A   1      42.722  26.994  24.625  1.00  0.00    -0.246 OA
BRANCH  37  39
ATOM     39  C   UNL A   1      41.972  28.375  26.468  1.00  0.00     0.060 A 
ATOM     40  C   UNL A   1      42.769  29.227  27.255  1.00  0.00     0.016 A 
ATOM     41  C   UNL A   1      40.629  28.506  26.627  1.00  0.00     0.016 A 
ATOM     42  C   UNL A   1      42.200  30.046  28.314  1.00  0.00     0.010 A 
ATOM     43  C   UNL A   1      40.211  29.021  27.848  1.00  0.00     0.010 A 
ATOM     44  C   UNL A   1      40.871  29.902  28.733  1.00  0.00    -0.014 A 
BRANCH  44  45
ATOM     45  C   UNL A   1      40.168  30.462  30.069  1.00  0.00     0.031 A 
ATOM     46  C   UNL A   1      39.230  31.745  30.346  1.00  0.00     0.074 A 
ATOM     47  C   UNL A   1      40.071  29.560  31.070  1.00  0.00     0.049 A 
ATOM     48  N   UNL A   1      38.210  31.785  31.168  1.00  0.00    -0.248 NA
ATOM     49  C   UNL A   1      39.252  33.053  29.696  1.00  0.00     0.031 C 
ATOM     50  C   UNL A   1      39.163  29.499  32.219  1.00  0.00     0.029 A 
ATOM     51  N   UNL A   1      40.932  28.496  31.322  1.00  0.00    -0.354 N 
ATOM     52  C   UNL A   1      37.468  32.947  31.001  1.00  0.00     0.074 A 
ATOM     53  C   UNL A   1      38.138  33.706  30.017  1.00  0.00     0.031 C 
ATOM     54  C   UNL A   1      39.736  28.771  33.190  1.00  0.00     0.029 A 
ATOM     55  C   UNL A   1      41.067  28.450  32.725  1.00  0.00     0.049 A 
ATOM     56  H   UNL A   1      41.356  27.901  30.662  1.00  0.00     0.167 HD
ATOM     57  C   UNL A   1      36.490  33.338  31.858  1.00  0.00     0.037 A 
ATOM     58  C   UNL A   1      42.257  28.868  33.236  1.00  0.00     0.037 A 
ATOM     59  C   UNL A   1      36.867  32.844  33.170  1.00  0.00     0.049 A 
ATOM     60  C   UNL A   1      42.088  30.209  33.930  1.00  0.00     0.074 A 
ATOM     61  C   UNL A   1      36.621  31.712  33.915  1.00  0.00     0.029 A 
ATOM     62  N   UNL A   1      38.016  33.412  33.699  1.00  0.00    -0.354 N 
ATOM     63  N   UNL A   1      40.948  30.852  34.000  1.00  0.00    -0.248 NA
ATOM     64  C   UNL A   1      43.155  30.941  34.602  1.00  0.00     0.031 C 
ATOM     65  C   UNL A   1      37.780  31.503  34.743  1.00  0.00     0.029 A 
ATOM     66  C   UNL A   1      38.687  32.535  34.528  1.00  0.00     0.049 A 
ATOM     67  H   UNL A   1      38.317  34.330  33.509  1.00  0.00     0.167 HD
ATOM     68  C   UNL A   1      41.086  32.013  34.690  1.00  0.00     0.074 A 
ATOM     69  C   UNL A   1      42.503  32.041  35.029  1.00  0.00     0.031 C 
ATOM     70  C   UNL A   1      40.050  32.867  34.947  1.00  0.00     0.037 A 
BRANCH  57  71
ATOM     71  C   UNL A   1      35.345  34.292  31.557  1.00  0.00     0.057 A 
ATOM     72  C   UNL A   1      34.941  35.223  32.534  1.00  0.00     0.134 A 
ATOM     73  C   UNL A   1      34.499  34.253  30.424  1.00  0.00     0.134 A 
ATOM     74  F   UNL A   1      35.606  35.341  33.693  1.00  0.00    -0.206 F 
ATOM     75  C   UNL A   1      33.806  36.044  32.397  1.00  0.00     0.040 A 
ATOM     76  C   UNL A   1      33.382  35.094  30.259  1.00  0.00     0.040 A 
ATOM     77  F   UNL A   1      34.671  33.373  29.432  1.00  0.00    -0.206 F 
ATOM     78  C   UNL A   1      33.023  35.987  31.254  1.00  0.00     0.006 A 
ENDBRANCH  57  71
BRANCH  58  79
ATOM     79  C   UNL A   1      43.372  28.307  32.389  1.00  0.00     0.057 A 
ATOM     80  C   UNL A   1      43.584  26.900  32.479  1.00  0.00     0.134 A 
ATOM     81  C   UNL A   1      43.880  28.922  31.244  1.00  0.00     0.134 A 
ATOM     82  F   UNL A   1      43.125  26.221  33.545  1.00  0.00    -0.206 F 
ATOM     83  C   UNL A   1      44.077  26.137  31.416  1.00  0.00     0.040 A 
ATOM     84  C   UNL A   1      44.457  28.165  30.202  1.00  0.00     0.040 A 
ATOM     85  F   UNL A   1      43.699  30.233  31.034  1.00  0.00    -0.206 F 
ATOM     86  C   UNL A   1      44.493  26.769  30.257  1.00  0.00     0.006 A 
ENDBRANCH  58  79
BRANCH  70  87
ATOM     87  C   UNL A   1      40.313  34.143  35.673  1.00  0.00     0.057 A 
ATOM     88  C   UNL A   1      40.652  35.308  34.978  1.00  0.00     0.134 A 
ATOM     89  C   UNL A   1      40.304  34.223  37.076  1.00  0.00     0.134 A 
ATOM     90  F   UNL A   1      40.715  35.310  33.637  1.00  0.00    -0.206 F 
ATOM     91  C   UNL A   1      40.920  36.505  35.640  1.00  0.00     0.040 A 
ATOM     92  C   UNL A   1      40.634  35.397  37.752  1.00  0.00     0.040 A 
ATOM     93  F   UNL A   1      39.958  33.171  37.835  1.00  0.00    -0.206 F 
ATOM     94  C   UNL A   1      40.925  36.548  37.032  1.00  0.00     0.006 A 
ENDBRANCH  70  87
ENDBRANCH  44  45
ENDBRANCH  37  39
ENDBRANCH  36  37
ENDBRANCH  35  36
ENDBRANCH  34  35
ENDBRANCH  33  34
ENDBRANCH  32  33
ENDBRANCH   1  32
TORSDOF 21
ENDMDL
