MODEL 1
REMARK VINA RESULT:     -10.4      0.000      0.000
REMARK SMILES CC(C)(C)OC(=O)N1CCN(c2ccc([N+](=O)[O-])c(Br)c2)C[C@H]1C(=O)OCCOCCOCCOC(=O)c1ccc(-c2c3nc(c(-c4c(F)cccc4F)c4ccc([nH]4)c(-c4c(F)cccc4F)c4nc(c(-c5c(F)cccc5F)c5ccc2[nH]5)C=C4)C=C3)cc1
REMARK SMILES IDX 30 1 29 2 28 3 27 4 26 5 24 6 25 7 23 8 8 9 9 10 10 11 22 12
REMARK SMILES IDX 11 13 6 14 7 15 5 16 2 17 1 18 3 19 4 20 12 21 13 22 21 23
REMARK SMILES IDX 14 24 19 25 15 26 20 27 16 28 17 29 18 30 31 31 32 32 33 33
REMARK SMILES IDX 34 34 35 35 36 36 37 37 38 38 39 39 91 40 40 41 90 42 41 43
REMARK SMILES IDX 42 44 43 45 84 46 44 47 89 48 83 49 85 50 45 51 88 52 82 53
REMARK SMILES IDX 81 54 46 56 72 57 55 58 71 59 56 60 59 61 70 62 86 63 57 64
REMARK SMILES IDX 58 65 69 67 87 68 60 69 47 70 48 71 53 72 49 73 50 74 52 75
REMARK SMILES IDX 54 76 51 77 73 78 74 79 79 80 75 81 76 82 78 83 80 84 77 85
REMARK SMILES IDX 61 86 62 87 67 88 63 89 64 90 66 91 68 92 65 93
REMARK H PARENT 85 55 59 66
REMARK Flexibility Score: inf
ROOT
ATOM      1  C   UNL A   1      39.355  21.288  26.070  1.00  0.00     0.188 C 
ENDROOT
BRANCH   1   2
ATOM      2  O   UNL A   1      38.905  22.640  26.088  1.00  0.00    -0.376 OA
BRANCH   2   3
ATOM      3  C   UNL A   1      37.548  22.887  25.752  1.00  0.00     0.202 C 
BRANCH   3   4
ATOM      4  C   UNL A   1      36.902  21.738  24.957  1.00  0.00     0.261 C 
BRANCH   4   5
ATOM      5  O   UNL A   1      36.177  20.769  25.755  1.00  0.00    -0.462 OA
BRANCH   5   6
ATOM      6  C   UNL A   1      34.904  21.134  26.024  1.00  0.00     0.330 C 
ATOM      7  O   UNL A   1      34.520  21.389  27.170  1.00  0.00    -0.250 OA
BRANCH   6   8
ATOM      8  C   UNL A   1      33.939  21.314  24.821  1.00  0.00     0.217 C 
ATOM      9  N   UNL A   1      32.813  20.478  24.251  1.00  0.00    -0.291 N 
ATOM     10  C   UNL A   1      32.102  21.132  23.131  1.00  0.00     0.145 C 
ATOM     11  C   UNL A   1      31.568  22.524  23.473  1.00  0.00     0.138 C 
ATOM     12  C   UNL A   1      33.385  22.749  25.122  1.00  0.00     0.154 C 
ATOM     13  N   UNL A   1      32.688  23.319  23.960  1.00  0.00    -0.367 N 
BRANCH   9  14
ATOM     14  C   UNL A   1      32.822  19.096  24.106  1.00  0.00     0.411 C 
ATOM     15  O   UNL A   1      31.796  18.445  23.935  1.00  0.00    -0.224 OA
BRANCH  14  16
ATOM     16  O   UNL A   1      34.029  18.542  24.354  1.00  0.00    -0.444 OA
BRANCH  16  17
ATOM     17  C   UNL A   1      34.132  17.090  24.489  1.00  0.00     0.106 C 
ATOM     18  C   UNL A   1      34.166  16.571  23.043  1.00  0.00     0.056 C 
ATOM     19  C   UNL A   1      32.967  16.450  25.262  1.00  0.00     0.056 C 
ATOM     20  C   UNL A   1      35.453  16.694  25.169  1.00  0.00     0.056 C 
ENDBRANCH  16  17
ENDBRANCH  14  16
ENDBRANCH   9  14
BRANCH  13  21
ATOM     21  C   UNL A   1      32.675  24.696  23.881  1.00  0.00     0.038 A 
ATOM     22  C   UNL A   1      32.302  25.293  22.674  1.00  0.00     0.033 A 
ATOM     23  C   UNL A   1      33.061  25.522  24.937  1.00  0.00     0.048 A 
ATOM     24  C   UNL A   1      32.299  26.678  22.527  1.00  0.00     0.089 A 
ATOM     25  C   UNL A   1      33.082  26.924  24.809  1.00  0.00     0.097 A 
ATOM     26  C   UNL A   1      32.692  27.507  23.594  1.00  0.00     0.283 A 
ATOM     27  Br  UNL A   1      33.670  27.841  26.371  1.00  0.00    -0.043 Br
BRANCH  26  28
ATOM     28  N   UNL A   1      32.663  28.959  23.345  1.00  0.00     0.063 N 
ATOM     29  O   UNL A   1      33.636  29.451  22.751  1.00  0.00    -0.258 OA
ATOM     30  O   UNL A   1      31.700  29.626  23.734  1.00  0.00    -0.258 OA
ENDBRANCH  26  28
ENDBRANCH  13  21
ENDBRANCH   6   8
ENDBRANCH   5   6
ENDBRANCH   4   5
ENDBRANCH   3   4
ENDBRANCH   2   3
ENDBRANCH   1   2
BRANCH   1  31
ATOM     31  C   UNL A   1      40.838  21.021  26.325  1.00  0.00     0.188 C 
BRANCH  31  32
ATOM     32  O   UNL A   1      41.765  22.079  26.145  1.00  0.00    -0.376 OA
BRANCH  32  33
ATOM     33  C   UNL A   1      43.082  21.826  25.678  1.00  0.00     0.202 C 
BRANCH  33  34
ATOM     34  C   UNL A   1      43.738  22.826  24.726  1.00  0.00     0.261 C 
BRANCH  34  35
ATOM     35  O   UNL A   1      43.221  24.149  24.895  1.00  0.00    -0.460 OA
BRANCH  35  36
ATOM     36  C   UNL A   1      44.114  25.069  25.336  1.00  0.00     0.338 C 
ATOM     37  O   UNL A   1      45.198  25.360  24.862  1.00  0.00    -0.246 OA
BRANCH  36  38
ATOM     38  C   UNL A   1      43.469  25.807  26.430  1.00  0.00     0.060 A 
ATOM     39  C   UNL A   1      43.866  27.124  26.709  1.00  0.00     0.016 A 
ATOM     40  C   UNL A   1      42.462  25.182  27.161  1.00  0.00     0.016 A 
ATOM     41  C   UNL A   1      43.251  27.820  27.746  1.00  0.00     0.010 A 
ATOM     42  C   UNL A   1      41.860  25.873  28.202  1.00  0.00     0.010 A 
ATOM     43  C   UNL A   1      42.266  27.183  28.512  1.00  0.00    -0.014 A 
BRANCH  43  44
ATOM     44  C   UNL A   1      41.721  27.803  29.734  1.00  0.00     0.031 A 
ATOM     45  C   UNL A   1      40.496  28.657  29.611  1.00  0.00     0.074 A 
ATOM     46  C   UNL A   1      42.379  27.692  30.899  1.00  0.00     0.049 A 
ATOM     47  N   UNL A   1      39.953  29.462  30.485  1.00  0.00    -0.248 NA
ATOM     48  C   UNL A   1      39.805  28.618  28.311  1.00  0.00     0.031 C 
ATOM     49  C   UNL A   1      43.577  26.884  31.120  1.00  0.00     0.029 A 
ATOM     50  N   UNL A   1      42.150  28.301  32.106  1.00  0.00    -0.354 N 
ATOM     51  C   UNL A   1      38.874  30.045  29.835  1.00  0.00     0.074 A 
ATOM     52  C   UNL A   1      38.855  29.524  28.485  1.00  0.00     0.031 C 
ATOM     53  C   UNL A   1      43.999  27.072  32.381  1.00  0.00     0.029 A 
ATOM     54  C   UNL A   1      43.126  28.043  33.036  1.00  0.00     0.049 A 
ATOM     55  H   UNL A   1      41.366  28.866  32.286  1.00  0.00     0.167 HD
ATOM     56  C   UNL A   1      37.982  30.937  30.325  1.00  0.00     0.037 A 
ATOM     57  C   UNL A   1      43.310  28.567  34.263  1.00  0.00     0.037 A 
ATOM     58  C   UNL A   1      38.022  31.447  31.669  1.00  0.00     0.049 A 
ATOM     59  C   UNL A   1      42.328  29.587  34.774  1.00  0.00     0.074 A 
ATOM     60  C   UNL A   1      37.143  32.314  32.292  1.00  0.00     0.029 A 
ATOM     61  N   UNL A   1      39.011  31.145  32.597  1.00  0.00    -0.354 N 
ATOM     62  N   UNL A   1      41.279  30.100  34.176  1.00  0.00    -0.248 NA
ATOM     63  C   UNL A   1      42.555  30.100  36.132  1.00  0.00     0.031 C 
ATOM     64  C   UNL A   1      37.633  32.586  33.573  1.00  0.00     0.029 A 
ATOM     65  C   UNL A   1      38.781  31.836  33.775  1.00  0.00     0.049 A 
ATOM     66  H   UNL A   1      39.763  30.530  32.440  1.00  0.00     0.167 HD
ATOM     67  C   UNL A   1      40.707  30.975  35.090  1.00  0.00     0.074 A 
ATOM     68  C   UNL A   1      41.518  30.911  36.290  1.00  0.00     0.031 C 
ATOM     69  C   UNL A   1      39.608  31.759  34.954  1.00  0.00     0.037 A 
BRANCH  56  70
ATOM     70  C   UNL A   1      36.917  31.436  29.391  1.00  0.00     0.057 A 
ATOM     71  C   UNL A   1      35.832  30.639  29.001  1.00  0.00     0.134 A 
ATOM     72  C   UNL A   1      36.973  32.740  28.880  1.00  0.00     0.134 A 
ATOM     73  F   UNL A   1      35.724  29.375  29.438  1.00  0.00    -0.206 F 
ATOM     74  C   UNL A   1      34.862  31.108  28.113  1.00  0.00     0.040 A 
ATOM     75  C   UNL A   1      35.992  33.231  28.018  1.00  0.00     0.040 A 
ATOM     76  F   UNL A   1      37.982  33.559  29.213  1.00  0.00    -0.206 F 
ATOM     77  C   UNL A   1      34.937  32.411  27.624  1.00  0.00     0.006 A 
ENDBRANCH  56  70
BRANCH  57  78
ATOM     78  C   UNL A   1      44.472  28.140  35.080  1.00  0.00     0.057 A 
ATOM     79  C   UNL A   1      45.676  28.852  35.050  1.00  0.00     0.134 A 
ATOM     80  C   UNL A   1      44.405  27.022  35.922  1.00  0.00     0.134 A 
ATOM     81  F   UNL A   1      45.807  29.921  34.250  1.00  0.00    -0.206 F 
ATOM     82  C   UNL A   1      46.776  28.463  35.817  1.00  0.00     0.040 A 
ATOM     83  C   UNL A   1      45.488  26.638  36.714  1.00  0.00     0.040 A 
ATOM     84  F   UNL A   1      43.278  26.300  36.002  1.00  0.00    -0.206 F 
ATOM     85  C   UNL A   1      46.680  27.357  36.658  1.00  0.00     0.006 A 
ENDBRANCH  57  78
BRANCH  69  86
ATOM     86  C   UNL A   1      39.204  32.586  36.142  1.00  0.00     0.057 A 
ATOM     87  C   UNL A   1      38.330  32.101  37.122  1.00  0.00     0.134 A 
ATOM     88  C   UNL A   1      39.735  33.870  36.328  1.00  0.00     0.134 A 
ATOM     89  F   UNL A   1      37.778  30.884  37.000  1.00  0.00    -0.206 F 
ATOM     90  C   UNL A   1      37.976  32.874  38.230  1.00  0.00     0.040 A 
ATOM     91  C   UNL A   1      39.413  34.639  37.446  1.00  0.00     0.040 A 
ATOM     92  F   UNL A   1      40.589  34.390  35.432  1.00  0.00    -0.206 F 
ATOM     93  C   UNL A   1      38.525  34.144  38.398  1.00  0.00     0.006 A 
ENDBRANCH  69  86
ENDBRANCH  43  44
ENDBRANCH  36  38
ENDBRANCH  35  36
ENDBRANCH  34  35
ENDBRANCH  33  34
ENDBRANCH  32  33
ENDBRANCH  31  32
ENDBRANCH   1  31
TORSDOF 22
ENDMDL
MODEL 2
REMARK VINA RESULT:     -10.1      1.017      5.953
REMARK SMILES CC(C)(C)OC(=O)N1CCN(c2ccc([N+](=O)[O-])c(Br)c2)C[C@H]1C(=O)OCCOCCOCCOC(=O)c1ccc(-c2c3nc(c(-c4c(F)cccc4F)c4ccc([nH]4)c(-c4c(F)cccc4F)c4nc(c(-c5c(F)cccc5F)c5ccc2[nH]5)C=C4)C=C3)cc1
REMARK SMILES IDX 30 1 29 2 28 3 27 4 26 5 24 6 25 7 23 8 8 9 9 10 10 11 22 12
REMARK SMILES IDX 11 13 6 14 7 15 5 16 2 17 1 18 3 19 4 20 12 21 13 22 21 23
REMARK SMILES IDX 14 24 19 25 15 26 20 27 16 28 17 29 18 30 31 31 32 32 33 33
REMARK SMILES IDX 34 34 35 35 36 36 37 37 38 38 39 39 91 40 40 41 90 42 41 43
REMARK SMILES IDX 42 44 43 45 84 46 44 47 89 48 83 49 85 50 45 51 88 52 82 53
REMARK SMILES IDX 81 54 46 56 72 57 55 58 71 59 56 60 59 61 70 62 86 63 57 64
REMARK SMILES IDX 58 65 69 67 87 68 60 69 47 70 48 71 53 72 49 73 50 74 52 75
REMARK SMILES IDX 54 76 51 77 73 78 74 79 79 80 75 81 76 82 78 83 80 84 77 85
REMARK SMILES IDX 61 86 62 87 67 88 63 89 64 90 66 91 68 92 65 93
REMARK H PARENT 85 55 59 66
REMARK Flexibility Score: inf
ROOT
ATOM      1  C   UNL A   1      38.896  21.175  26.080  1.00  0.00     0.188 C 
ENDROOT
BRANCH   1   2
ATOM      2  O   UNL A   1      38.880  22.552  25.711  1.00  0.00    -0.376 OA
BRANCH   2   3
ATOM      3  C   UNL A   1      37.768  23.332  26.124  1.00  0.00     0.202 C 
BRANCH   3   4
ATOM      4  C   UNL A   1      36.418  22.759  25.654  1.00  0.00     0.261 C 
BRANCH   4   5
ATOM      5  O   UNL A   1      35.906  21.659  26.446  1.00  0.00    -0.462 OA
BRANCH   5   6
ATOM      6  C   UNL A   1      34.594  21.774  26.748  1.00  0.00     0.330 C 
ATOM      7  O   UNL A   1      34.189  21.842  27.912  1.00  0.00    -0.250 OA
BRANCH   6   8
ATOM      8  C   UNL A   1      33.596  21.910  25.566  1.00  0.00     0.217 C 
ATOM      9  N   UNL A   1      32.534  21.001  24.985  1.00  0.00    -0.291 N 
ATOM     10  C   UNL A   1      31.751  21.629  23.899  1.00  0.00     0.145 C 
ATOM     11  C   UNL A   1      31.108  22.958  24.296  1.00  0.00     0.138 C 
ATOM     12  C   UNL A   1      32.929  23.283  25.923  1.00  0.00     0.154 C 
ATOM     13  N   UNL A   1      32.165  23.829  24.793  1.00  0.00    -0.367 N 
BRANCH   9  14
ATOM     14  C   UNL A   1      32.657  19.630  24.793  1.00  0.00     0.411 C 
ATOM     15  O   UNL A   1      31.842  18.827  25.237  1.00  0.00    -0.224 OA
BRANCH  14  16
ATOM     16  O   UNL A   1      33.838  19.273  24.244  1.00  0.00    -0.444 OA
BRANCH  16  17
ATOM     17  C   UNL A   1      34.262  17.875  24.312  1.00  0.00     0.106 C 
ATOM     18  C   UNL A   1      33.364  17.253  25.392  1.00  0.00     0.056 C 
ATOM     19  C   UNL A   1      35.745  17.688  24.673  1.00  0.00     0.056 C 
ATOM     20  C   UNL A   1      33.982  17.151  22.984  1.00  0.00     0.056 C 
ENDBRANCH  16  17
ENDBRANCH  14  16
ENDBRANCH   9  14
BRANCH  13  21
ATOM     21  C   UNL A   1      32.035  25.202  24.759  1.00  0.00     0.038 A 
ATOM     22  C   UNL A   1      31.003  25.794  25.491  1.00  0.00     0.033 A 
ATOM     23  C   UNL A   1      32.860  26.024  23.991  1.00  0.00     0.048 A 
ATOM     24  C   UNL A   1      30.807  27.173  25.471  1.00  0.00     0.089 A 
ATOM     25  C   UNL A   1      32.672  27.419  23.941  1.00  0.00     0.097 A 
ATOM     26  C   UNL A   1      31.638  27.999  24.693  1.00  0.00     0.283 A 
ATOM     27  Br  UNL A   1      33.898  28.331  22.805  1.00  0.00    -0.043 Br
BRANCH  26  28
ATOM     28  N   UNL A   1      31.352  29.443  24.729  1.00  0.00     0.063 N 
ATOM     29  O   UNL A   1      32.085  30.149  25.439  1.00  0.00    -0.258 OA
ATOM     30  O   UNL A   1      30.406  29.894  24.074  1.00  0.00    -0.258 OA
ENDBRANCH  26  28
ENDBRANCH  13  21
ENDBRANCH   6   8
ENDBRANCH   5   6
ENDBRANCH   4   5
ENDBRANCH   3   4
ENDBRANCH   2   3
ENDBRANCH   1   2
BRANCH   1  31
ATOM     31  C   UNL A   1      40.245  20.534  26.404  1.00  0.00     0.188 C 
BRANCH  31  32
ATOM     32  O   UNL A   1      41.395  21.359  26.478  1.00  0.00    -0.376 OA
BRANCH  32  33
ATOM     33  C   UNL A   1      42.661  20.894  26.031  1.00  0.00     0.202 C 
BRANCH  33  34
ATOM     34  C   UNL A   1      43.569  21.844  25.253  1.00  0.00     0.261 C 
BRANCH  34  35
ATOM     35  O   UNL A   1      43.017  23.159  25.156  1.00  0.00    -0.460 OA
BRANCH  35  36
ATOM     36  C   UNL A   1      43.918  24.172  25.182  1.00  0.00     0.338 C 
ATOM     37  O   UNL A   1      44.910  24.320  24.489  1.00  0.00    -0.246 OA
BRANCH  36  38
ATOM     38  C   UNL A   1      43.401  25.188  26.107  1.00  0.00     0.060 A 
ATOM     39  C   UNL A   1      43.750  26.535  25.926  1.00  0.00     0.016 A 
ATOM     40  C   UNL A   1      42.559  24.790  27.142  1.00  0.00     0.016 A 
ATOM     41  C   UNL A   1      43.256  27.496  26.805  1.00  0.00     0.010 A 
ATOM     42  C   UNL A   1      42.078  25.747  28.024  1.00  0.00     0.010 A 
ATOM     43  C   UNL A   1      42.442  27.097  27.872  1.00  0.00    -0.014 A 
BRANCH  43  44
ATOM     44  C   UNL A   1      42.051  28.040  28.936  1.00  0.00     0.031 A 
ATOM     45  C   UNL A   1      42.821  28.018  30.222  1.00  0.00     0.074 A 
ATOM     46  C   UNL A   1      40.961  28.810  28.789  1.00  0.00     0.049 A 
ATOM     47  N   UNL A   1      42.548  28.593  31.363  1.00  0.00    -0.248 NA
ATOM     48  C   UNL A   1      44.053  27.212  30.227  1.00  0.00     0.031 C 
ATOM     49  C   UNL A   1      40.148  28.902  27.578  1.00  0.00     0.029 A 
ATOM     50  N   UNL A   1      40.329  29.629  29.688  1.00  0.00    -0.354 N 
ATOM     51  C   UNL A   1      43.559  28.199  32.229  1.00  0.00     0.074 A 
ATOM     52  C   UNL A   1      44.434  27.314  31.491  1.00  0.00     0.031 C 
ATOM     53  C   UNL A   1      39.102  29.710  27.820  1.00  0.00     0.029 A 
ATOM     54  C   UNL A   1      39.154  30.153  29.211  1.00  0.00     0.049 A 
ATOM     55  H   UNL A   1      40.683  29.822  30.586  1.00  0.00     0.167 HD
ATOM     56  C   UNL A   1      43.736  28.547  33.525  1.00  0.00     0.037 A 
ATOM     57  C   UNL A   1      38.210  30.875  29.844  1.00  0.00     0.037 A 
ATOM     58  C   UNL A   1      42.850  29.424  34.242  1.00  0.00     0.049 A 
ATOM     59  C   UNL A   1      38.406  31.218  31.296  1.00  0.00     0.074 A 
ATOM     60  C   UNL A   1      42.956  29.887  35.541  1.00  0.00     0.029 A 
ATOM     61  N   UNL A   1      41.679  29.960  33.720  1.00  0.00    -0.354 N 
ATOM     62  N   UNL A   1      39.388  30.886  32.100  1.00  0.00    -0.248 NA
ATOM     63  C   UNL A   1      37.364  32.037  31.929  1.00  0.00     0.031 C 
ATOM     64  C   UNL A   1      41.819  30.650  35.825  1.00  0.00     0.029 A 
ATOM     65  C   UNL A   1      41.037  30.720  34.683  1.00  0.00     0.049 A 
ATOM     66  H   UNL A   1      41.355  29.820  32.802  1.00  0.00     0.167 HD
ATOM     67  C   UNL A   1      39.097  31.475  33.324  1.00  0.00     0.074 A 
ATOM     68  C   UNL A   1      37.853  32.198  33.150  1.00  0.00     0.031 C 
ATOM     69  C   UNL A   1      39.795  31.427  34.487  1.00  0.00     0.037 A 
BRANCH  56  70
ATOM     70  C   UNL A   1      44.908  27.949  34.249  1.00  0.00     0.057 A 
ATOM     71  C   UNL A   1      44.817  26.736  34.944  1.00  0.00     0.134 A 
ATOM     72  C   UNL A   1      46.153  28.594  34.241  1.00  0.00     0.134 A 
ATOM     73  F   UNL A   1      43.652  26.074  35.007  1.00  0.00    -0.206 F 
ATOM     74  C   UNL A   1      45.909  26.204  35.633  1.00  0.00     0.040 A 
ATOM     75  C   UNL A   1      47.260  28.056  34.899  1.00  0.00     0.040 A 
ATOM     76  F   UNL A   1      46.313  29.758  33.594  1.00  0.00    -0.206 F 
ATOM     77  C   UNL A   1      47.137  26.861  35.606  1.00  0.00     0.006 A 
ENDBRANCH  56  70
BRANCH  57  78
ATOM     78  C   UNL A   1      36.997  31.310  29.108  1.00  0.00     0.057 A 
ATOM     79  C   UNL A   1      36.881  32.615  28.615  1.00  0.00     0.134 A 
ATOM     80  C   UNL A   1      35.933  30.432  28.864  1.00  0.00     0.134 A 
ATOM     81  F   UNL A   1      37.858  33.506  28.832  1.00  0.00    -0.206 F 
ATOM     82  C   UNL A   1      35.747  33.035  27.918  1.00  0.00     0.040 A 
ATOM     83  C   UNL A   1      34.805  30.831  28.145  1.00  0.00     0.040 A 
ATOM     84  F   UNL A   1      35.985  29.166  29.304  1.00  0.00    -0.206 F 
ATOM     85  C   UNL A   1      34.708  32.139  27.675  1.00  0.00     0.006 A 
ENDBRANCH  57  78
BRANCH  69  86
ATOM     86  C   UNL A   1      39.243  32.201  35.650  1.00  0.00     0.057 A 
ATOM     87  C   UNL A   1      39.522  33.560  35.838  1.00  0.00     0.134 A 
ATOM     88  C   UNL A   1      38.385  31.584  36.571  1.00  0.00     0.134 A 
ATOM     89  F   UNL A   1      40.345  34.207  34.999  1.00  0.00    -0.206 F 
ATOM     90  C   UNL A   1      38.989  34.272  36.914  1.00  0.00     0.040 A 
ATOM     91  C   UNL A   1      37.821  32.292  37.632  1.00  0.00     0.040 A 
ATOM     92  F   UNL A   1      38.066  30.287  36.442  1.00  0.00    -0.206 F 
ATOM     93  C   UNL A   1      38.129  33.639  37.810  1.00  0.00     0.006 A 
ENDBRANCH  69  86
ENDBRANCH  43  44
ENDBRANCH  36  38
ENDBRANCH  35  36
ENDBRANCH  34  35
ENDBRANCH  33  34
ENDBRANCH  32  33
ENDBRANCH  31  32
ENDBRANCH   1  31
TORSDOF 22
ENDMDL
MODEL 3
REMARK VINA RESULT:      -9.5      6.593     11.874
REMARK SMILES CC(C)(C)OC(=O)N1CCN(c2ccc([N+](=O)[O-])c(Br)c2)C[C@H]1C(=O)OCCOCCOCCOC(=O)c1ccc(-c2c3nc(c(-c4c(F)cccc4F)c4ccc([nH]4)c(-c4c(F)cccc4F)c4nc(c(-c5c(F)cccc5F)c5ccc2[nH]5)C=C4)C=C3)cc1
REMARK SMILES IDX 30 1 29 2 28 3 27 4 26 5 24 6 25 7 23 8 8 9 9 10 10 11 22 12
REMARK SMILES IDX 11 13 6 14 7 15 5 16 2 17 1 18 3 19 4 20 12 21 13 22 21 23
REMARK SMILES IDX 14 24 19 25 15 26 20 27 16 28 17 29 18 30 31 31 32 32 33 33
REMARK SMILES IDX 34 34 35 35 36 36 37 37 38 38 39 39 91 40 40 41 90 42 41 43
REMARK SMILES IDX 42 44 43 45 84 46 44 47 89 48 83 49 85 50 45 51 88 52 82 53
REMARK SMILES IDX 81 54 46 56 72 57 55 58 71 59 56 60 59 61 70 62 86 63 57 64
REMARK SMILES IDX 58 65 69 67 87 68 60 69 47 70 48 71 53 72 49 73 50 74 52 75
REMARK SMILES IDX 54 76 51 77 73 78 74 79 79 80 75 81 76 82 78 83 80 84 77 85
REMARK SMILES IDX 61 86 62 87 67 88 63 89 64 90 66 91 68 92 65 93
REMARK H PARENT 85 55 59 66
REMARK Flexibility Score: inf
ROOT
ATOM      1  C   UNL A   1      41.453  28.002  28.185  1.00  0.00     0.188 C 
ENDROOT
BRANCH   1   2
ATOM      2  O   UNL A   1      41.127  27.412  29.441  1.00  0.00    -0.376 OA
BRANCH   2   3
ATOM      3  C   UNL A   1      40.307  28.159  30.327  1.00  0.00     0.202 C 
BRANCH   3   4
ATOM      4  C   UNL A   1      38.821  27.762  30.257  1.00  0.00     0.261 C 
BRANCH   4   5
ATOM      5  O   UNL A   1      37.950  28.743  29.641  1.00  0.00    -0.462 OA
BRANCH   5   6
ATOM      6  C   UNL A   1      37.065  29.297  30.500  1.00  0.00     0.330 C 
ATOM      7  O   UNL A   1      36.998  28.958  31.685  1.00  0.00    -0.250 OA
BRANCH   6   8
ATOM      8  C   UNL A   1      36.178  30.455  29.968  1.00  0.00     0.217 C 
ATOM      9  N   UNL A   1      36.393  31.944  29.804  1.00  0.00    -0.291 N 
ATOM     10  C   UNL A   1      35.264  32.632  29.139  1.00  0.00     0.145 C 
ATOM     11  C   UNL A   1      34.890  32.028  27.785  1.00  0.00     0.138 C 
ATOM     12  C   UNL A   1      35.751  29.862  28.582  1.00  0.00     0.154 C 
ATOM     13  N   UNL A   1      34.632  30.609  27.990  1.00  0.00    -0.367 N 
BRANCH   9  14
ATOM     14  C   UNL A   1      37.025  32.777  30.718  1.00  0.00     0.411 C 
ATOM     15  O   UNL A   1      37.757  33.700  30.371  1.00  0.00    -0.224 OA
BRANCH  14  16
ATOM     16  O   UNL A   1      36.903  32.358  31.996  1.00  0.00    -0.444 OA
BRANCH  16  17
ATOM     17  C   UNL A   1      38.090  32.315  32.849  1.00  0.00     0.106 C 
ATOM     18  C   UNL A   1      37.706  31.370  33.997  1.00  0.00     0.056 C 
ATOM     19  C   UNL A   1      38.513  33.687  33.401  1.00  0.00     0.056 C 
ATOM     20  C   UNL A   1      39.282  31.696  32.100  1.00  0.00     0.056 C 
ENDBRANCH  16  17
ENDBRANCH  14  16
ENDBRANCH   9  14
BRANCH  13  21
ATOM     21  C   UNL A   1      33.819  29.899  27.131  1.00  0.00     0.038 A 
ATOM     22  C   UNL A   1      32.663  30.513  26.644  1.00  0.00     0.033 A 
ATOM     23  C   UNL A   1      34.074  28.578  26.762  1.00  0.00     0.048 A 
ATOM     24  C   UNL A   1      31.790  29.834  25.797  1.00  0.00     0.089 A 
ATOM     25  C   UNL A   1      33.200  27.864  25.919  1.00  0.00     0.097 A 
ATOM     26  C   UNL A   1      32.049  28.501  25.429  1.00  0.00     0.283 A 
ATOM     27  Br  UNL A   1      33.738  26.071  25.576  1.00  0.00    -0.043 Br
BRANCH  26  28
ATOM     28  N   UNL A   1      31.068  27.862  24.536  1.00  0.00     0.063 N 
ATOM     29  O   UNL A   1      30.910  28.367  23.413  1.00  0.00    -0.258 OA
ATOM     30  O   UNL A   1      30.440  26.873  24.927  1.00  0.00    -0.258 OA
ENDBRANCH  26  28
ENDBRANCH  13  21
ENDBRANCH   6   8
ENDBRANCH   5   6
ENDBRANCH   4   5
ENDBRANCH   3   4
ENDBRANCH   2   3
ENDBRANCH   1   2
BRANCH   1  31
ATOM     31  C   UNL A   1      40.523  27.734  27.003  1.00  0.00     0.188 C 
BRANCH  31  32
ATOM     32  O   UNL A   1      40.394  26.406  26.521  1.00  0.00    -0.376 OA
BRANCH  32  33
ATOM     33  C   UNL A   1      39.497  25.490  27.131  1.00  0.00     0.202 C 
BRANCH  33  34
ATOM     34  C   UNL A   1      40.030  24.144  27.621  1.00  0.00     0.261 C 
BRANCH  34  35
ATOM     35  O   UNL A   1      41.368  24.242  28.116  1.00  0.00    -0.460 OA
BRANCH  35  36
ATOM     36  C   UNL A   1      42.321  23.688  27.328  1.00  0.00     0.338 C 
ATOM     37  O   UNL A   1      42.309  22.602  26.775  1.00  0.00    -0.246 OA
BRANCH  36  38
ATOM     38  C   UNL A   1      43.347  24.715  27.102  1.00  0.00     0.060 A 
ATOM     39  C   UNL A   1      44.035  25.262  28.195  1.00  0.00     0.016 A 
ATOM     40  C   UNL A   1      43.623  25.114  25.796  1.00  0.00     0.016 A 
ATOM     41  C   UNL A   1      45.007  26.235  27.976  1.00  0.00     0.010 A 
ATOM     42  C   UNL A   1      44.584  26.091  25.582  1.00  0.00     0.010 A 
ATOM     43  C   UNL A   1      45.262  26.670  26.670  1.00  0.00    -0.014 A 
BRANCH  43  44
ATOM     44  C   UNL A   1      46.139  27.825  26.400  1.00  0.00     0.031 A 
ATOM     45  C   UNL A   1      47.605  27.574  26.217  1.00  0.00     0.074 A 
ATOM     46  C   UNL A   1      45.643  29.072  26.435  1.00  0.00     0.049 A 
ATOM     47  N   UNL A   1      48.594  28.427  26.174  1.00  0.00    -0.248 NA
ATOM     48  C   UNL A   1      48.013  26.165  26.094  1.00  0.00     0.031 C 
ATOM     49  C   UNL A   1      44.234  29.417  26.605  1.00  0.00     0.029 A 
ATOM     50  N   UNL A   1      46.286  30.281  26.371  1.00  0.00    -0.354 N 
ATOM     51  C   UNL A   1      49.743  27.658  26.046  1.00  0.00     0.074 A 
ATOM     52  C   UNL A   1      49.332  26.271  26.046  1.00  0.00     0.031 C 
ATOM     53  C   UNL A   1      44.120  30.754  26.665  1.00  0.00     0.029 A 
ATOM     54  C   UNL A   1      45.451  31.350  26.579  1.00  0.00     0.049 A 
ATOM     55  H   UNL A   1      47.250  30.373  26.195  1.00  0.00     0.167 HD
ATOM     56  C   UNL A   1      51.025  28.078  25.938  1.00  0.00     0.037 A 
ATOM     57  C   UNL A   1      45.741  32.657  26.725  1.00  0.00     0.037 A 
ATOM     58  C   UNL A   1      51.413  29.463  25.947  1.00  0.00     0.049 A 
ATOM     59  C   UNL A   1      47.177  33.099  26.642  1.00  0.00     0.074 A 
ATOM     60  C   UNL A   1      52.675  30.008  25.794  1.00  0.00     0.029 A 
ATOM     61  N   UNL A   1      50.537  30.525  26.133  1.00  0.00    -0.354 N 
ATOM     62  N   UNL A   1      48.258  32.375  26.470  1.00  0.00    -0.248 NA
ATOM     63  C   UNL A   1      47.434  34.539  26.771  1.00  0.00     0.031 C 
ATOM     64  C   UNL A   1      52.571  31.394  25.951  1.00  0.00     0.029 A 
ATOM     65  C   UNL A   1      51.237  31.720  26.135  1.00  0.00     0.049 A 
ATOM     66  H   UNL A   1      49.564  30.440  26.248  1.00  0.00     0.167 HD
ATOM     67  C   UNL A   1      49.319  33.271  26.446  1.00  0.00     0.074 A 
ATOM     68  C   UNL A   1      48.748  34.594  26.605  1.00  0.00     0.031 C 
ATOM     69  C   UNL A   1      50.646  33.025  26.301  1.00  0.00     0.037 A 
BRANCH  56  70
ATOM     70  C   UNL A   1      52.092  27.026  25.840  1.00  0.00     0.057 A 
ATOM     71  C   UNL A   1      52.808  26.580  26.959  1.00  0.00     0.134 A 
ATOM     72  C   UNL A   1      52.403  26.441  24.604  1.00  0.00     0.134 A 
ATOM     73  F   UNL A   1      52.575  27.109  28.170  1.00  0.00    -0.206 F 
ATOM     74  C   UNL A   1      53.815  25.619  26.849  1.00  0.00     0.040 A 
ATOM     75  C   UNL A   1      53.384  25.456  24.486  1.00  0.00     0.040 A 
ATOM     76  F   UNL A   1      51.756  26.818  23.490  1.00  0.00    -0.206 F 
ATOM     77  C   UNL A   1      54.100  25.048  25.610  1.00  0.00     0.006 A 
ENDBRANCH  56  70
BRANCH  57  78
ATOM     78  C   UNL A   1      44.649  33.631  26.970  1.00  0.00     0.057 A 
ATOM     79  C   UNL A   1      44.222  33.924  28.270  1.00  0.00     0.134 A 
ATOM     80  C   UNL A   1      44.016  34.304  25.917  1.00  0.00     0.134 A 
ATOM     81  F   UNL A   1      44.777  33.299  29.319  1.00  0.00    -0.206 F 
ATOM     82  C   UNL A   1      43.199  34.842  28.515  1.00  0.00     0.040 A 
ATOM     83  C   UNL A   1      43.010  35.243  26.149  1.00  0.00     0.040 A 
ATOM     84  F   UNL A   1      44.382  34.073  24.648  1.00  0.00    -0.206 F 
ATOM     85  C   UNL A   1      42.595  35.510  27.452  1.00  0.00     0.006 A 
ENDBRANCH  57  78
BRANCH  69  86
ATOM     86  C   UNL A   1      51.564  34.214  26.279  1.00  0.00     0.057 A 
ATOM     87  C   UNL A   1      52.162  34.712  27.443  1.00  0.00     0.134 A 
ATOM     88  C   UNL A   1      51.887  34.841  25.067  1.00  0.00     0.134 A 
ATOM     89  F   UNL A   1      51.887  34.165  28.636  1.00  0.00    -0.206 F 
ATOM     90  C   UNL A   1      53.027  35.807  27.406  1.00  0.00     0.040 A 
ATOM     91  C   UNL A   1      52.774  35.915  25.014  1.00  0.00     0.040 A 
ATOM     92  F   UNL A   1      51.359  34.405  23.913  1.00  0.00    -0.206 F 
ATOM     93  C   UNL A   1      53.342  36.406  26.188  1.00  0.00     0.006 A 
ENDBRANCH  69  86
ENDBRANCH  43  44
ENDBRANCH  36  38
ENDBRANCH  35  36
ENDBRANCH  34  35
ENDBRANCH  33  34
ENDBRANCH  32  33
ENDBRANCH  31  32
ENDBRANCH   1  31
TORSDOF 22
ENDMDL
