MODEL 1
REMARK VINA RESULT:     -10.9      0.000      0.000
REMARK SMILES Cc1nc(CC(=O)N2Cc3nc[nH]c3C[C@H]2C(=O)OCCOCCOCCOC(=O)c2ccc(-c3c4nc(c(-c5c(F)cccc5F)c5ccc([nH]5)c(-c5c(F)cccc5F)c5nc(c(-c6c(F)cccc6F)c6ccc3[nH]6)C=C5)C=C4)cc2)cs1
REMARK SMILES IDX 23 1 22 2 21 3 20 4 19 5 17 6 18 7 16 8 8 9 9 10 10 11 15 12
REMARK SMILES IDX 11 13 14 14 12 15 13 16 6 18 7 19 5 20 4 21 1 22 2 23 3 24
REMARK SMILES IDX 86 25 85 26 24 27 25 28 26 29 27 30 28 31 29 32 30 33 31 34
REMARK SMILES IDX 32 35 84 36 33 37 83 38 34 39 35 40 36 41 77 42 37 43 82 44
REMARK SMILES IDX 76 45 78 46 38 47 81 48 75 49 74 50 39 52 65 53 48 54 64 55
REMARK SMILES IDX 49 56 52 57 63 58 79 59 50 60 51 61 62 63 80 64 53 65 40 66
REMARK SMILES IDX 41 67 46 68 42 69 43 70 45 71 47 72 44 73 66 74 67 75 72 76
REMARK SMILES IDX 68 77 69 78 71 79 73 80 70 81 54 82 55 83 60 84 56 85 57 86
REMARK SMILES IDX 59 87 61 88 58 89
REMARK H PARENT 13 17 78 51 52 62
REMARK Flexibility Score: inf
ROOT
ATOM      1  C   UNL A   1      40.258  21.234  26.493  1.00  0.00     0.188 C 
ENDROOT
BRANCH   1   2
ATOM      2  O   UNL A   1      39.317  22.240  26.777  1.00  0.00    -0.376 OA
BRANCH   2   3
ATOM      3  C   UNL A   1      38.386  22.603  25.773  1.00  0.00     0.202 C 
BRANCH   3   4
ATOM      4  C   UNL A   1      36.908  22.156  25.794  1.00  0.00     0.261 C 
BRANCH   4   5
ATOM      5  O   UNL A   1      35.957  23.101  26.323  1.00  0.00    -0.462 OA
BRANCH   5   6
ATOM      6  C   UNL A   1      35.004  23.551  25.470  1.00  0.00     0.329 C 
ATOM      7  O   UNL A   1      35.209  23.758  24.275  1.00  0.00    -0.250 OA
BRANCH   6   8
ATOM      8  C   UNL A   1      33.606  23.803  26.100  1.00  0.00     0.201 C 
ATOM      9  N   UNL A   1      32.326  23.923  25.307  1.00  0.00    -0.322 N 
ATOM     10  C   UNL A   1      31.923  22.735  24.506  1.00  0.00     0.178 C 
ATOM     11  C   UNL A   1      32.321  21.487  25.214  1.00  0.00     0.081 A 
ATOM     12  C   UNL A   1      33.424  22.672  27.159  1.00  0.00     0.093 C 
ATOM     13  N   UNL A   1      32.210  20.225  24.700  1.00  0.00    -0.240 NA
ATOM     14  C   UNL A   1      33.002  21.462  26.411  1.00  0.00     0.042 A 
ATOM     15  C   UNL A   1      32.813  19.448  25.575  1.00  0.00     0.197 A 
ATOM     16  N   UNL A   1      33.308  20.156  26.639  1.00  0.00    -0.348 N 
ATOM     17  H   UNL A   1      33.790  19.791  27.416  1.00  0.00     0.167 HD
BRANCH   9  18
ATOM     18  C   UNL A   1      31.331  24.872  25.548  1.00  0.00     0.229 C 
ATOM     19  O   UNL A   1      31.229  25.413  26.657  1.00  0.00    -0.274 OA
BRANCH  18  20
ATOM     20  C   UNL A   1      30.207  25.133  24.547  1.00  0.00     0.157 C 
BRANCH  20  21
ATOM     21  C   UNL A   1      30.130  26.482  23.933  1.00  0.00     0.061 A 
ATOM     22  C   UNL A   1      27.826  29.073  22.770  1.00  0.00     0.079 C 
ATOM     23  C   UNL A   1      28.980  28.219  23.163  1.00  0.00     0.090 A 
ATOM     24  N   UNL A   1      28.870  27.013  23.677  1.00  0.00    -0.246 NA
ATOM     25  S   UNL A   1      30.589  28.776  22.936  1.00  0.00    -0.127 S 
ATOM     26  C   UNL A   1      31.182  27.315  23.605  1.00  0.00     0.091 A 
ENDBRANCH  20  21
ENDBRANCH  18  20
ENDBRANCH   9  18
ENDBRANCH   6   8
ENDBRANCH   5   6
ENDBRANCH   4   5
ENDBRANCH   3   4
ENDBRANCH   2   3
ENDBRANCH   1   2
BRANCH   1  27
ATOM     27  C   UNL A   1      41.264  20.800  27.567  1.00  0.00     0.188 C 
BRANCH  27  28
ATOM     28  O   UNL A   1      41.921  19.554  27.616  1.00  0.00    -0.376 OA
BRANCH  28  29
ATOM     29  C   UNL A   1      42.253  18.688  26.549  1.00  0.00     0.202 C 
BRANCH  29  30
ATOM     30  C   UNL A   1      43.413  18.906  25.590  1.00  0.00     0.261 C 
BRANCH  30  31
ATOM     31  O   UNL A   1      43.429  20.190  25.031  1.00  0.00    -0.460 OA
BRANCH  31  32
ATOM     32  C   UNL A   1      44.333  20.319  24.045  1.00  0.00     0.338 C 
ATOM     33  O   UNL A   1      44.556  19.550  23.118  1.00  0.00    -0.246 OA
BRANCH  32  34
ATOM     34  C   UNL A   1      45.042  21.575  24.270  1.00  0.00     0.060 A 
ATOM     35  C   UNL A   1      46.005  21.553  25.279  1.00  0.00     0.016 A 
ATOM     36  C   UNL A   1      44.430  22.746  23.807  1.00  0.00     0.016 A 
ATOM     37  C   UNL A   1      46.074  22.652  26.088  1.00  0.00     0.010 A 
ATOM     38  C   UNL A   1      44.458  23.819  24.641  1.00  0.00     0.010 A 
ATOM     39  C   UNL A   1      45.189  23.697  25.822  1.00  0.00    -0.014 A 
BRANCH  39  40
ATOM     40  C   UNL A   1      45.039  24.729  26.810  1.00  0.00     0.031 A 
ATOM     41  C   UNL A   1      46.233  25.590  26.889  1.00  0.00     0.074 A 
ATOM     42  C   UNL A   1      43.850  24.897  27.419  1.00  0.00     0.049 A 
ATOM     43  N   UNL A   1      46.979  25.809  27.916  1.00  0.00    -0.248 NA
ATOM     44  C   UNL A   1      46.775  26.121  25.623  1.00  0.00     0.031 C 
ATOM     45  C   UNL A   1      42.589  24.193  27.152  1.00  0.00     0.029 A 
ATOM     46  N   UNL A   1      43.482  25.840  28.321  1.00  0.00    -0.354 N 
ATOM     47  C   UNL A   1      47.951  26.695  27.470  1.00  0.00     0.074 A 
ATOM     48  C   UNL A   1      47.909  26.679  26.036  1.00  0.00     0.031 C 
ATOM     49  C   UNL A   1      41.566  24.892  27.695  1.00  0.00     0.029 A 
ATOM     50  C   UNL A   1      42.109  26.021  28.426  1.00  0.00     0.049 A 
ATOM     51  H   UNL A   1      44.133  26.353  28.854  1.00  0.00     0.167 HD
ATOM     52  C   UNL A   1      48.494  27.602  28.320  1.00  0.00     0.037 A 
ATOM     53  C   UNL A   1      41.501  27.099  28.982  1.00  0.00     0.037 A 
ATOM     54  C   UNL A   1      48.343  27.186  29.690  1.00  0.00     0.049 A 
ATOM     55  C   UNL A   1      42.524  27.803  29.805  1.00  0.00     0.074 A 
ATOM     56  C   UNL A   1      48.741  26.071  30.402  1.00  0.00     0.029 A 
ATOM     57  N   UNL A   1      47.353  27.778  30.436  1.00  0.00    -0.354 N 
ATOM     58  N   UNL A   1      43.021  27.318  30.910  1.00  0.00    -0.248 NA
ATOM     59  C   UNL A   1      43.345  28.811  29.147  1.00  0.00     0.031 C 
ATOM     60  C   UNL A   1      47.668  25.796  31.296  1.00  0.00     0.029 A 
ATOM     61  C   UNL A   1      46.703  26.788  31.128  1.00  0.00     0.049 A 
ATOM     62  H   UNL A   1      47.147  28.741  30.467  1.00  0.00     0.167 HD
ATOM     63  C   UNL A   1      44.373  27.628  30.859  1.00  0.00     0.074 A 
ATOM     64  C   UNL A   1      44.498  28.619  29.794  1.00  0.00     0.031 C 
ATOM     65  C   UNL A   1      45.300  26.835  31.473  1.00  0.00     0.037 A 
BRANCH  52  66
ATOM     66  C   UNL A   1      48.768  29.025  27.916  1.00  0.00     0.057 A 
ATOM     67  C   UNL A   1      50.030  29.572  28.187  1.00  0.00     0.134 A 
ATOM     68  C   UNL A   1      47.773  29.959  27.546  1.00  0.00     0.134 A 
ATOM     69  F   UNL A   1      51.052  28.787  28.564  1.00  0.00    -0.206 F 
ATOM     70  C   UNL A   1      50.265  30.950  28.168  1.00  0.00     0.040 A 
ATOM     71  C   UNL A   1      48.013  31.331  27.470  1.00  0.00     0.040 A 
ATOM     72  F   UNL A   1      46.497  29.617  27.340  1.00  0.00    -0.206 F 
ATOM     73  C   UNL A   1      49.253  31.835  27.815  1.00  0.00     0.006 A 
ENDBRANCH  52  66
BRANCH  53  74
ATOM     74  C   UNL A   1      40.216  27.730  28.601  1.00  0.00     0.057 A 
ATOM     75  C   UNL A   1      39.135  27.761  29.493  1.00  0.00     0.134 A 
ATOM     76  C   UNL A   1      40.087  28.537  27.455  1.00  0.00     0.134 A 
ATOM     77  F   UNL A   1      39.175  27.061  30.635  1.00  0.00    -0.206 F 
ATOM     78  C   UNL A   1      38.004  28.560  29.269  1.00  0.00     0.040 A 
ATOM     79  C   UNL A   1      38.961  29.328  27.213  1.00  0.00     0.040 A 
ATOM     80  F   UNL A   1      41.087  28.655  26.569  1.00  0.00    -0.206 F 
ATOM     81  C   UNL A   1      37.918  29.353  28.130  1.00  0.00     0.006 A 
ENDBRANCH  53  74
BRANCH  65  82
ATOM     82  C   UNL A   1      44.798  25.758  32.395  1.00  0.00     0.057 A 
ATOM     83  C   UNL A   1      44.521  24.443  31.986  1.00  0.00     0.134 A 
ATOM     84  C   UNL A   1      44.746  26.015  33.768  1.00  0.00     0.134 A 
ATOM     85  F   UNL A   1      44.649  24.076  30.705  1.00  0.00    -0.206 F 
ATOM     86  C   UNL A   1      44.163  23.446  32.897  1.00  0.00     0.040 A 
ATOM     87  C   UNL A   1      44.425  25.018  34.693  1.00  0.00     0.040 A 
ATOM     88  F   UNL A   1      45.059  27.232  34.239  1.00  0.00    -0.206 F 
ATOM     89  C   UNL A   1      44.121  23.731  34.258  1.00  0.00     0.006 A 
ENDBRANCH  65  82
ENDBRANCH  39  40
ENDBRANCH  32  34
ENDBRANCH  31  32
ENDBRANCH  30  31
ENDBRANCH  29  30
ENDBRANCH  28  29
ENDBRANCH  27  28
ENDBRANCH   1  27
TORSDOF 20
ENDMDL
MODEL 2
REMARK VINA RESULT:     -10.3      3.571      7.897
REMARK SMILES Cc1nc(CC(=O)N2Cc3nc[nH]c3C[C@H]2C(=O)OCCOCCOCCOC(=O)c2ccc(-c3c4nc(c(-c5c(F)cccc5F)c5ccc([nH]5)c(-c5c(F)cccc5F)c5nc(c(-c6c(F)cccc6F)c6ccc3[nH]6)C=C5)C=C4)cc2)cs1
REMARK SMILES IDX 23 1 22 2 21 3 20 4 19 5 17 6 18 7 16 8 8 9 9 10 10 11 15 12
REMARK SMILES IDX 11 13 14 14 12 15 13 16 6 18 7 19 5 20 4 21 1 22 2 23 3 24
REMARK SMILES IDX 86 25 85 26 24 27 25 28 26 29 27 30 28 31 29 32 30 33 31 34
REMARK SMILES IDX 32 35 84 36 33 37 83 38 34 39 35 40 36 41 77 42 37 43 82 44
REMARK SMILES IDX 76 45 78 46 38 47 81 48 75 49 74 50 39 52 65 53 48 54 64 55
REMARK SMILES IDX 49 56 52 57 63 58 79 59 50 60 51 61 62 63 80 64 53 65 40 66
REMARK SMILES IDX 41 67 46 68 42 69 43 70 45 71 47 72 44 73 66 74 67 75 72 76
REMARK SMILES IDX 68 77 69 78 71 79 73 80 70 81 54 82 55 83 60 84 56 85 57 86
REMARK SMILES IDX 59 87 61 88 58 89
REMARK H PARENT 13 17 78 51 52 62
REMARK Flexibility Score: inf
ROOT
ATOM      1  C   UNL A   1      34.877  32.487  28.151  1.00  0.00     0.188 C 
ENDROOT
BRANCH   1   2
ATOM      2  O   UNL A   1      33.834  31.705  27.626  1.00  0.00    -0.376 OA
BRANCH   2   3
ATOM      3  C   UNL A   1      34.085  30.340  27.340  1.00  0.00     0.202 C 
BRANCH   3   4
ATOM      4  C   UNL A   1      33.199  29.502  26.393  1.00  0.00     0.261 C 
BRANCH   4   5
ATOM      5  O   UNL A   1      33.041  28.108  26.723  1.00  0.00    -0.462 OA
BRANCH   5   6
ATOM      6  C   UNL A   1      31.771  27.648  26.843  1.00  0.00     0.329 C 
ATOM      7  O   UNL A   1      31.151  27.642  27.906  1.00  0.00    -0.250 OA
BRANCH   6   8
ATOM      8  C   UNL A   1      31.128  27.109  25.536  1.00  0.00     0.201 C 
ATOM      9  N   UNL A   1      31.912  26.680  24.318  1.00  0.00    -0.322 N 
ATOM     10  C   UNL A   1      32.864  25.550  24.501  1.00  0.00     0.178 C 
ATOM     11  C   UNL A   1      32.318  24.583  25.492  1.00  0.00     0.081 A 
ATOM     12  C   UNL A   1      30.225  25.917  25.984  1.00  0.00     0.093 C 
ATOM     13  N   UNL A   1      32.992  23.498  25.982  1.00  0.00    -0.240 NA
ATOM     14  C   UNL A   1      31.127  24.753  26.163  1.00  0.00     0.042 A 
ATOM     15  C   UNL A   1      32.218  23.018  26.933  1.00  0.00     0.197 A 
ATOM     16  N   UNL A   1      31.066  23.747  27.077  1.00  0.00    -0.348 N 
ATOM     17  H   UNL A   1      30.338  23.576  27.717  1.00  0.00     0.167 HD
BRANCH   9  18
ATOM     18  C   UNL A   1      31.561  26.985  23.002  1.00  0.00     0.229 C 
ATOM     19  O   UNL A   1      31.511  26.098  22.139  1.00  0.00    -0.274 OA
BRANCH  18  20
ATOM     20  C   UNL A   1      31.427  28.428  22.518  1.00  0.00     0.157 C 
BRANCH  20  21
ATOM     21  C   UNL A   1      30.061  28.997  22.414  1.00  0.00     0.061 A 
ATOM     22  C   UNL A   1      28.044  31.560  20.758  1.00  0.00     0.079 C 
ATOM     23  C   UNL A   1      28.601  30.437  21.561  1.00  0.00     0.090 A 
ATOM     24  N   UNL A   1      29.866  30.076  21.558  1.00  0.00    -0.246 NA
ATOM     25  S   UNL A   1      27.580  29.525  22.601  1.00  0.00    -0.127 S 
ATOM     26  C   UNL A   1      28.918  28.555  23.053  1.00  0.00     0.091 A 
ENDBRANCH  20  21
ENDBRANCH  18  20
ENDBRANCH   9  18
ENDBRANCH   6   8
ENDBRANCH   5   6
ENDBRANCH   4   5
ENDBRANCH   3   4
ENDBRANCH   2   3
ENDBRANCH   1   2
BRANCH   1  27
ATOM     27  C   UNL A   1      34.556  33.751  28.958  1.00  0.00     0.188 C 
BRANCH  27  28
ATOM     28  O   UNL A   1      34.735  33.902  30.349  1.00  0.00    -0.376 OA
BRANCH  28  29
ATOM     29  C   UNL A   1      35.896  33.665  31.120  1.00  0.00     0.202 C 
BRANCH  29  30
ATOM     30  C   UNL A   1      36.392  32.287  31.530  1.00  0.00     0.261 C 
BRANCH  30  31
ATOM     31  O   UNL A   1      37.249  31.709  30.586  1.00  0.00    -0.460 OA
BRANCH  31  32
ATOM     32  C   UNL A   1      37.120  30.372  30.513  1.00  0.00     0.338 C 
ATOM     33  O   UNL A   1      36.386  29.646  31.172  1.00  0.00    -0.246 OA
BRANCH  32  34
ATOM     34  C   UNL A   1      38.043  29.906  29.482  1.00  0.00     0.060 A 
ATOM     35  C   UNL A   1      37.850  28.595  29.047  1.00  0.00     0.016 A 
ATOM     36  C   UNL A   1      39.252  30.599  29.345  1.00  0.00     0.016 A 
ATOM     37  C   UNL A   1      38.973  27.848  28.826  1.00  0.00     0.010 A 
ATOM     38  C   UNL A   1      40.370  29.846  29.179  1.00  0.00     0.010 A 
ATOM     39  C   UNL A   1      40.205  28.469  29.042  1.00  0.00    -0.014 A 
BRANCH  39  40
ATOM     40  C   UNL A   1      41.380  27.645  29.097  1.00  0.00     0.031 A 
ATOM     41  C   UNL A   1      42.113  27.821  30.363  1.00  0.00     0.074 A 
ATOM     42  C   UNL A   1      41.602  26.740  28.126  1.00  0.00     0.049 A 
ATOM     43  N   UNL A   1      43.334  28.202  30.519  1.00  0.00    -0.248 NA
ATOM     44  C   UNL A   1      41.337  27.750  31.617  1.00  0.00     0.031 C 
ATOM     45  C   UNL A   1      40.733  26.396  26.992  1.00  0.00     0.029 A 
ATOM     46  N   UNL A   1      42.603  25.830  28.023  1.00  0.00    -0.354 N 
ATOM     47  C   UNL A   1      43.540  28.190  31.893  1.00  0.00     0.074 A 
ATOM     48  C   UNL A   1      42.247  28.121  32.512  1.00  0.00     0.031 C 
ATOM     49  C   UNL A   1      41.126  25.211  26.474  1.00  0.00     0.029 A 
ATOM     50  C   UNL A   1      42.324  24.773  27.166  1.00  0.00     0.049 A 
ATOM     51  H   UNL A   1      43.453  25.913  28.514  1.00  0.00     0.167 HD
ATOM     52  C   UNL A   1      44.769  27.921  32.400  1.00  0.00     0.037 A 
ATOM     53  C   UNL A   1      42.986  23.589  27.142  1.00  0.00     0.037 A 
ATOM     54  C   UNL A   1      45.800  28.176  31.427  1.00  0.00     0.049 A 
ATOM     55  C   UNL A   1      44.275  23.793  27.861  1.00  0.00     0.074 A 
ATOM     56  C   UNL A   1      46.185  29.292  30.710  1.00  0.00     0.029 A 
ATOM     57  N   UNL A   1      46.348  27.098  30.775  1.00  0.00    -0.354 N 
ATOM     58  N   UNL A   1      45.251  24.526  27.400  1.00  0.00    -0.248 NA
ATOM     59  C   UNL A   1      44.285  23.582  29.302  1.00  0.00     0.031 C 
ATOM     60  C   UNL A   1      46.549  28.802  29.424  1.00  0.00     0.029 A 
ATOM     61  C   UNL A   1      46.427  27.413  29.442  1.00  0.00     0.049 A 
ATOM     62  H   UNL A   1      46.633  26.251  31.190  1.00  0.00     0.167 HD
ATOM     63  C   UNL A   1      45.736  25.210  28.508  1.00  0.00     0.074 A 
ATOM     64  C   UNL A   1      45.159  24.526  29.662  1.00  0.00     0.031 C 
ATOM     65  C   UNL A   1      46.308  26.443  28.377  1.00  0.00     0.037 A 
BRANCH  52  66
ATOM     66  C   UNL A   1      44.971  27.044  33.605  1.00  0.00     0.057 A 
ATOM     67  C   UNL A   1      44.445  25.744  33.588  1.00  0.00     0.134 A 
ATOM     68  C   UNL A   1      45.395  27.506  34.872  1.00  0.00     0.134 A 
ATOM     69  F   UNL A   1      43.995  25.201  32.447  1.00  0.00    -0.206 F 
ATOM     70  C   UNL A   1      44.280  24.991  34.754  1.00  0.00     0.040 A 
ATOM     71  C   UNL A   1      45.286  26.740  36.033  1.00  0.00     0.040 A 
ATOM     72  F   UNL A   1      45.838  28.751  35.080  1.00  0.00    -0.206 F 
ATOM     73  C   UNL A   1      44.695  25.491  35.983  1.00  0.00     0.006 A 
ENDBRANCH  52  66
BRANCH  53  74
ATOM     74  C   UNL A   1      42.453  22.242  26.831  1.00  0.00     0.057 A 
ATOM     75  C   UNL A   1      43.068  21.426  25.872  1.00  0.00     0.134 A 
ATOM     76  C   UNL A   1      41.482  21.616  27.635  1.00  0.00     0.134 A 
ATOM     77  F   UNL A   1      44.036  21.914  25.083  1.00  0.00    -0.206 F 
ATOM     78  C   UNL A   1      42.752  20.067  25.733  1.00  0.00     0.040 A 
ATOM     79  C   UNL A   1      41.149  20.265  27.500  1.00  0.00     0.040 A 
ATOM     80  F   UNL A   1      40.884  22.269  28.642  1.00  0.00    -0.206 F 
ATOM     81  C   UNL A   1      41.796  19.480  26.555  1.00  0.00     0.006 A 
ENDBRANCH  53  74
BRANCH  65  82
ATOM     82  C   UNL A   1      46.609  26.931  26.986  1.00  0.00     0.057 A 
ATOM     83  C   UNL A   1      47.782  26.615  26.283  1.00  0.00     0.134 A 
ATOM     84  C   UNL A   1      45.611  27.607  26.278  1.00  0.00     0.134 A 
ATOM     85  F   UNL A   1      48.749  25.878  26.843  1.00  0.00    -0.206 F 
ATOM     86  C   UNL A   1      47.971  26.998  24.951  1.00  0.00     0.040 A 
ATOM     87  C   UNL A   1      45.773  27.964  24.937  1.00  0.00     0.040 A 
ATOM     88  F   UNL A   1      44.438  27.888  26.866  1.00  0.00    -0.206 F 
ATOM     89  C   UNL A   1      46.960  27.670  24.272  1.00  0.00     0.006 A 
ENDBRANCH  65  82
ENDBRANCH  39  40
ENDBRANCH  32  34
ENDBRANCH  31  32
ENDBRANCH  30  31
ENDBRANCH  29  30
ENDBRANCH  28  29
ENDBRANCH  27  28
ENDBRANCH   1  27
TORSDOF 20
ENDMDL
MODEL 3
REMARK VINA RESULT:     -10.2      4.141      8.163
REMARK SMILES Cc1nc(CC(=O)N2Cc3nc[nH]c3C[C@H]2C(=O)OCCOCCOCCOC(=O)c2ccc(-c3c4nc(c(-c5c(F)cccc5F)c5ccc([nH]5)c(-c5c(F)cccc5F)c5nc(c(-c6c(F)cccc6F)c6ccc3[nH]6)C=C5)C=C4)cc2)cs1
REMARK SMILES IDX 23 1 22 2 21 3 20 4 19 5 17 6 18 7 16 8 8 9 9 10 10 11 15 12
REMARK SMILES IDX 11 13 14 14 12 15 13 16 6 18 7 19 5 20 4 21 1 22 2 23 3 24
REMARK SMILES IDX 86 25 85 26 24 27 25 28 26 29 27 30 28 31 29 32 30 33 31 34
REMARK SMILES IDX 32 35 84 36 33 37 83 38 34 39 35 40 36 41 77 42 37 43 82 44
REMARK SMILES IDX 76 45 78 46 38 47 81 48 75 49 74 50 39 52 65 53 48 54 64 55
REMARK SMILES IDX 49 56 52 57 63 58 79 59 50 60 51 61 62 63 80 64 53 65 40 66
REMARK SMILES IDX 41 67 46 68 42 69 43 70 45 71 47 72 44 73 66 74 67 75 72 76
REMARK SMILES IDX 68 77 69 78 71 79 73 80 70 81 54 82 55 83 60 84 56 85 57 86
REMARK SMILES IDX 59 87 61 88 58 89
REMARK H PARENT 13 17 78 51 52 62
REMARK Flexibility Score: inf
ROOT
ATOM      1  C   UNL A   1      38.851  23.037  26.497  1.00  0.00     0.188 C 
ENDROOT
BRANCH   1   2
ATOM      2  O   UNL A   1      37.635  23.256  25.828  1.00  0.00    -0.376 OA
BRANCH   2   3
ATOM      3  C   UNL A   1      37.270  22.381  24.775  1.00  0.00     0.202 C 
BRANCH   3   4
ATOM      4  C   UNL A   1      36.315  22.790  23.633  1.00  0.00     0.261 C 
BRANCH   4   5
ATOM      5  O   UNL A   1      35.096  23.453  24.020  1.00  0.00    -0.462 OA
BRANCH   5   6
ATOM      6  C   UNL A   1      34.191  23.691  23.038  1.00  0.00     0.329 C 
ATOM      7  O   UNL A   1      34.046  22.959  22.060  1.00  0.00    -0.250 OA
BRANCH   6   8
ATOM      8  C   UNL A   1      33.334  24.975  23.214  1.00  0.00     0.201 C 
ATOM      9  N   UNL A   1      31.883  25.089  22.810  1.00  0.00    -0.322 N 
ATOM     10  C   UNL A   1      30.927  24.170  23.488  1.00  0.00     0.178 C 
ATOM     11  C   UNL A   1      31.360  23.936  24.893  1.00  0.00     0.081 A 
ATOM     12  C   UNL A   1      33.454  25.344  24.725  1.00  0.00     0.093 C 
ATOM     13  N   UNL A   1      30.776  23.048  25.755  1.00  0.00    -0.240 NA
ATOM     14  C   UNL A   1      32.504  24.465  25.448  1.00  0.00     0.042 A 
ATOM     15  C   UNL A   1      31.555  23.043  26.816  1.00  0.00     0.197 A 
ATOM     16  N   UNL A   1      32.619  23.896  26.679  1.00  0.00    -0.348 N 
ATOM     17  H   UNL A   1      33.328  24.063  27.340  1.00  0.00     0.167 HD
BRANCH   9  18
ATOM     18  C   UNL A   1      31.325  26.194  22.164  1.00  0.00     0.229 C 
ATOM     19  O   UNL A   1      31.584  26.428  20.976  1.00  0.00    -0.274 OA
BRANCH  18  20
ATOM     20  C   UNL A   1      30.550  27.266  22.927  1.00  0.00     0.157 C 
BRANCH  20  21
ATOM     21  C   UNL A   1      31.264  28.000  24.001  1.00  0.00     0.061 A 
ATOM     22  C   UNL A   1      31.621  28.323  27.627  1.00  0.00     0.079 C 
ATOM     23  C   UNL A   1      31.694  28.404  26.142  1.00  0.00     0.090 A 
ATOM     24  N   UNL A   1      30.955  27.689  25.322  1.00  0.00    -0.246 NA
ATOM     25  S   UNL A   1      32.777  29.503  25.386  1.00  0.00    -0.127 S 
ATOM     26  C   UNL A   1      32.247  28.959  23.850  1.00  0.00     0.091 A 
ENDBRANCH  20  21
ENDBRANCH  18  20
ENDBRANCH   9  18
ENDBRANCH   6   8
ENDBRANCH   5   6
ENDBRANCH   4   5
ENDBRANCH   3   4
ENDBRANCH   2   3
ENDBRANCH   1   2
BRANCH   1  27
ATOM     27  C   UNL A   1      39.745  21.856  26.096  1.00  0.00     0.188 C 
BRANCH  27  28
ATOM     28  O   UNL A   1      41.135  21.770  26.315  1.00  0.00    -0.376 OA
BRANCH  28  29
ATOM     29  C   UNL A   1      42.168  22.547  25.745  1.00  0.00     0.202 C 
BRANCH  29  30
ATOM     30  C   UNL A   1      42.763  23.793  26.382  1.00  0.00     0.261 C 
BRANCH  30  31
ATOM     31  O   UNL A   1      41.795  24.728  26.769  1.00  0.00    -0.460 OA
BRANCH  31  32
ATOM     32  C   UNL A   1      41.719  25.778  25.933  1.00  0.00     0.338 C 
ATOM     33  O   UNL A   1      42.349  25.969  24.900  1.00  0.00    -0.246 OA
BRANCH  32  34
ATOM     34  C   UNL A   1      40.727  26.697  26.483  1.00  0.00     0.060 A 
ATOM     35  C   UNL A   1      40.886  28.038  26.136  1.00  0.00     0.016 A 
ATOM     36  C   UNL A   1      40.011  26.266  27.607  1.00  0.00     0.016 A 
ATOM     37  C   UNL A   1      40.661  28.959  27.119  1.00  0.00     0.010 A 
ATOM     38  C   UNL A   1      39.837  27.174  28.603  1.00  0.00     0.010 A 
ATOM     39  C   UNL A   1      40.278  28.476  28.371  1.00  0.00    -0.014 A 
BRANCH  39  40
ATOM     40  C   UNL A   1      40.310  29.379  29.487  1.00  0.00     0.031 A 
ATOM     41  C   UNL A   1      39.117  30.244  29.527  1.00  0.00     0.074 A 
ATOM     42  C   UNL A   1      41.280  29.257  30.413  1.00  0.00     0.049 A 
ATOM     43  N   UNL A   1      39.076  31.531  29.498  1.00  0.00    -0.248 NA
ATOM     44  C   UNL A   1      37.799  29.593  29.390  1.00  0.00     0.031 C 
ATOM     45  C   UNL A   1      42.325  28.228  30.497  1.00  0.00     0.029 A 
ATOM     46  N   UNL A   1      41.452  29.956  31.561  1.00  0.00    -0.354 N 
ATOM     47  C   UNL A   1      37.725  31.848  29.574  1.00  0.00     0.074 A 
ATOM     48  C   UNL A   1      36.994  30.647  29.288  1.00  0.00     0.031 C 
ATOM     49  C   UNL A   1      42.854  28.233  31.742  1.00  0.00     0.029 A 
ATOM     50  C   UNL A   1      42.261  29.322  32.496  1.00  0.00     0.049 A 
ATOM     51  H   UNL A   1      41.040  30.836  31.719  1.00  0.00     0.167 HD
ATOM     52  C   UNL A   1      37.323  32.996  30.174  1.00  0.00     0.037 A 
ATOM     53  C   UNL A   1      42.321  29.628  33.816  1.00  0.00     0.037 A 
ATOM     54  C   UNL A   1      38.388  33.966  30.207  1.00  0.00     0.049 A 
ATOM     55  C   UNL A   1      41.722  30.982  33.979  1.00  0.00     0.074 A 
ATOM     56  C   UNL A   1      39.157  34.577  29.236  1.00  0.00     0.029 A 
ATOM     57  N   UNL A   1      39.065  34.136  31.390  1.00  0.00    -0.354 N 
ATOM     58  N   UNL A   1      42.280  32.077  33.540  1.00  0.00    -0.248 NA
ATOM     59  C   UNL A   1      40.283  31.063  34.194  1.00  0.00     0.031 C 
ATOM     60  C   UNL A   1      40.460  34.676  29.800  1.00  0.00     0.029 A 
ATOM     61  C   UNL A   1      40.405  34.179  31.101  1.00  0.00     0.049 A 
ATOM     62  H   UNL A   1      38.660  34.213  32.285  1.00  0.00     0.167 HD
ATOM     63  C   UNL A   1      41.233  32.828  33.023  1.00  0.00     0.074 A 
ATOM     64  C   UNL A   1      40.020  32.192  33.529  1.00  0.00     0.031 C 
ATOM     65  C   UNL A   1      41.437  33.703  31.995  1.00  0.00     0.037 A 
BRANCH  52  66
ATOM     66  C   UNL A   1      36.124  33.057  31.081  1.00  0.00     0.057 A 
ATOM     67  C   UNL A   1      35.111  33.984  30.797  1.00  0.00     0.134 A 
ATOM     68  C   UNL A   1      36.056  32.463  32.361  1.00  0.00     0.134 A 
ATOM     69  F   UNL A   1      35.078  34.627  29.620  1.00  0.00    -0.206 F 
ATOM     70  C   UNL A   1      34.150  34.351  31.744  1.00  0.00     0.040 A 
ATOM     71  C   UNL A   1      35.068  32.781  33.293  1.00  0.00     0.040 A 
ATOM     72  F   UNL A   1      36.991  31.625  32.824  1.00  0.00    -0.206 F 
ATOM     73  C   UNL A   1      34.130  33.753  32.999  1.00  0.00     0.006 A 
ENDBRANCH  52  66
BRANCH  53  74
ATOM     74  C   UNL A   1      42.558  28.720  34.963  1.00  0.00     0.057 A 
ATOM     75  C   UNL A   1      41.882  27.496  35.066  1.00  0.00     0.134 A 
ATOM     76  C   UNL A   1      43.629  28.904  35.857  1.00  0.00     0.134 A 
ATOM     77  F   UNL A   1      40.874  27.204  34.232  1.00  0.00    -0.206 F 
ATOM     78  C   UNL A   1      42.260  26.509  35.987  1.00  0.00     0.040 A 
ATOM     79  C   UNL A   1      44.009  27.933  36.788  1.00  0.00     0.040 A 
ATOM     80  F   UNL A   1      44.404  29.997  35.801  1.00  0.00    -0.206 F 
ATOM     81  C   UNL A   1      43.332  26.723  36.846  1.00  0.00     0.006 A 
ENDBRANCH  53  74
BRANCH  65  82
ATOM     82  C   UNL A   1      42.858  34.001  31.600  1.00  0.00     0.057 A 
ATOM     83  C   UNL A   1      43.583  33.251  30.661  1.00  0.00     0.134 A 
ATOM     84  C   UNL A   1      43.455  35.176  32.065  1.00  0.00     0.134 A 
ATOM     85  F   UNL A   1      43.051  32.169  30.079  1.00  0.00    -0.206 F 
ATOM     86  C   UNL A   1      44.862  33.629  30.242  1.00  0.00     0.040 A 
ATOM     87  C   UNL A   1      44.717  35.584  31.628  1.00  0.00     0.040 A 
ATOM     88  F   UNL A   1      42.796  35.977  32.918  1.00  0.00    -0.206 F 
ATOM     89  C   UNL A   1      45.430  34.804  30.722  1.00  0.00     0.006 A 
ENDBRANCH  65  82
ENDBRANCH  39  40
ENDBRANCH  32  34
ENDBRANCH  31  32
ENDBRANCH  30  31
ENDBRANCH  29  30
ENDBRANCH  28  29
ENDBRANCH  27  28
ENDBRANCH   1  27
TORSDOF 20
ENDMDL
