MODEL 1
REMARK VINA RESULT:     -11.1      0.000      0.000
REMARK SMILES COc1cc(/C=N/NC(=O)c2cccnc2)ccc1OCC(=O)OCCOCCOCCOC(=O)c1ccc(-c2c3nc(c(-c4c(F)cccc4F)c4ccc([nH]4)c(-c4c(F)cccc4F)c4nc(c(-c5c(F)cccc5F)c5ccc2[nH]5)C=C4)C=C3)cc1
REMARK SMILES IDX 27 1 26 2 25 3 24 4 22 5 23 6 21 7 20 8 19 9 3 10 4 11 5 12
REMARK SMILES IDX 18 13 17 14 2 15 1 16 6 17 7 18 8 19 9 20 10 22 11 23 12 24
REMARK SMILES IDX 16 25 13 26 15 27 14 28 28 29 29 30 30 31 31 32 32 33 33 34
REMARK SMILES IDX 34 35 35 36 36 37 37 38 89 39 38 40 88 41 39 42 40 43 41 44
REMARK SMILES IDX 82 45 42 46 87 47 81 48 83 49 43 50 86 51 80 52 79 53 44 55
REMARK SMILES IDX 70 56 53 57 69 58 54 59 57 60 68 61 84 62 55 63 56 64 67 66
REMARK SMILES IDX 85 67 58 68 45 69 46 70 51 71 47 72 48 73 50 74 52 75 49 76
REMARK SMILES IDX 71 77 72 78 77 79 73 80 74 81 76 82 78 83 75 84 59 85 60 86
REMARK SMILES IDX 65 87 61 88 62 89 64 90 66 91 63 92
REMARK H PARENT 8 21 83 54 57 65
REMARK Flexibility Score: inf
ROOT
ATOM      1  O   UNL A   1      37.719  21.765  25.609  1.00  0.00    -0.376 OA
ENDROOT
BRANCH   1   2
ATOM      2  C   UNL A   1      37.264  20.566  24.997  1.00  0.00     0.202 C 
BRANCH   2   3
ATOM      3  C   UNL A   1      35.745  20.400  24.961  1.00  0.00     0.261 C 
BRANCH   3   4
ATOM      4  O   UNL A   1      35.042  21.646  24.755  1.00  0.00    -0.461 OA
BRANCH   4   5
ATOM      5  C   UNL A   1      34.335  22.130  25.817  1.00  0.00     0.344 C 
ATOM      6  O   UNL A   1      33.310  21.625  26.264  1.00  0.00    -0.248 OA
BRANCH   5   7
ATOM      7  C   UNL A   1      34.902  23.456  26.332  1.00  0.00     0.352 C 
BRANCH   7   8
ATOM      8  O   UNL A   1      34.916  24.586  25.484  1.00  0.00    -0.478 OA
BRANCH   8   9
ATOM      9  C   UNL A   1      33.766  25.153  25.015  1.00  0.00     0.162 A 
ATOM     10  C   UNL A   1      33.242  25.162  23.715  1.00  0.00     0.161 A 
ATOM     11  C   UNL A   1      31.989  25.757  23.465  1.00  0.00     0.060 A 
ATOM     12  C   UNL A   1      31.237  26.281  24.526  1.00  0.00    -0.002 A 
ATOM     13  C   UNL A   1      33.049  25.796  26.035  1.00  0.00     0.051 A 
ATOM     14  C   UNL A   1      31.790  26.344  25.803  1.00  0.00     0.014 A 
BRANCH  10  15
ATOM     15  O   UNL A   1      33.999  24.688  22.681  1.00  0.00    -0.493 OA
ATOM     16  C   UNL A   1      33.522  23.484  22.083  1.00  0.00     0.278 C 
ENDBRANCH  10  15
BRANCH  12  17
ATOM     17  C   UNL A   1      29.811  26.652  24.407  1.00  0.00     0.141 C 
ATOM     18  N   UNL A   1      29.330  27.346  23.425  1.00  0.00    -0.180 NA
BRANCH  18  19
ATOM     19  N   UNL A   1      27.967  27.514  23.405  1.00  0.00    -0.243 N 
ATOM     20  C   UNL A   1      27.196  28.631  23.154  1.00  0.00     0.272 C 
ATOM     21  H   UNL A   1      27.452  26.699  23.604  1.00  0.00     0.194 HD
ATOM     22  O   UNL A   1      25.970  28.577  23.241  1.00  0.00    -0.267 OA
BRANCH  20  23
ATOM     23  C   UNL A   1      27.824  29.908  22.797  1.00  0.00     0.059 A 
ATOM     24  C   UNL A   1      28.161  30.882  23.736  1.00  0.00     0.017 A 
ATOM     25  C   UNL A   1      28.037  30.173  21.452  1.00  0.00     0.124 A 
ATOM     26  C   UNL A   1      28.632  32.111  23.287  1.00  0.00     0.021 A 
ATOM     27  N   UNL A   1      28.490  31.364  20.991  1.00  0.00    -0.264 NA
ATOM     28  C   UNL A   1      28.770  32.305  21.920  1.00  0.00     0.111 A 
ENDBRANCH  20  23
ENDBRANCH  18  19
ENDBRANCH  12  17
ENDBRANCH   8   9
ENDBRANCH   7   8
ENDBRANCH   5   7
ENDBRANCH   4   5
ENDBRANCH   3   4
ENDBRANCH   2   3
ENDBRANCH   1   2
BRANCH   1  29
ATOM     29  C   UNL A   1      39.108  21.853  25.905  1.00  0.00     0.188 C 
BRANCH  29  30
ATOM     30  C   UNL A   1      39.860  20.540  26.151  1.00  0.00     0.188 C 
BRANCH  30  31
ATOM     31  O   UNL A   1      40.533  20.497  27.406  1.00  0.00    -0.376 OA
BRANCH  31  32
ATOM     32  C   UNL A   1      41.876  20.018  27.344  1.00  0.00     0.202 C 
BRANCH  32  33
ATOM     33  C   UNL A   1      42.665  20.720  26.244  1.00  0.00     0.261 C 
BRANCH  33  34
ATOM     34  O   UNL A   1      43.081  22.044  26.637  1.00  0.00    -0.460 OA
BRANCH  34  35
ATOM     35  C   UNL A   1      42.887  23.011  25.719  1.00  0.00     0.338 C 
ATOM     36  O   UNL A   1      43.205  22.969  24.536  1.00  0.00    -0.246 OA
BRANCH  35  37
ATOM     37  C   UNL A   1      42.255  24.192  26.338  1.00  0.00     0.060 A 
ATOM     38  C   UNL A   1      42.692  25.482  26.037  1.00  0.00     0.016 A 
ATOM     39  C   UNL A   1      41.336  23.998  27.369  1.00  0.00     0.016 A 
ATOM     40  C   UNL A   1      42.316  26.559  26.853  1.00  0.00     0.010 A 
ATOM     41  C   UNL A   1      40.906  25.087  28.136  1.00  0.00     0.010 A 
ATOM     42  C   UNL A   1      41.445  26.372  27.937  1.00  0.00    -0.014 A 
BRANCH  42  43
ATOM     43  C   UNL A   1      41.209  27.438  28.963  1.00  0.00     0.031 A 
ATOM     44  C   UNL A   1      42.087  27.483  30.193  1.00  0.00     0.074 A 
ATOM     45  C   UNL A   1      40.263  28.387  28.836  1.00  0.00     0.049 A 
ATOM     46  N   UNL A   1      41.898  28.056  31.353  1.00  0.00    -0.248 NA
ATOM     47  C   UNL A   1      43.357  26.757  30.095  1.00  0.00     0.031 C 
ATOM     48  C   UNL A   1      39.391  28.586  27.680  1.00  0.00     0.029 A 
ATOM     49  N   UNL A   1      39.876  29.367  29.720  1.00  0.00    -0.354 N 
ATOM     50  C   UNL A   1      42.982  27.677  32.143  1.00  0.00     0.074 A 
ATOM     51  C   UNL A   1      43.829  26.838  31.328  1.00  0.00     0.031 C 
ATOM     52  C   UNL A   1      38.579  29.629  27.921  1.00  0.00     0.029 A 
ATOM     53  C   UNL A   1      38.810  30.113  29.281  1.00  0.00     0.049 A 
ATOM     54  H   UNL A   1      40.321  29.519  30.585  1.00  0.00     0.167 HD
ATOM     55  C   UNL A   1      43.250  28.000  33.430  1.00  0.00     0.037 A 
ATOM     56  C   UNL A   1      38.067  31.038  29.921  1.00  0.00     0.037 A 
ATOM     57  C   UNL A   1      42.474  28.924  34.210  1.00  0.00     0.049 A 
ATOM     58  C   UNL A   1      38.352  31.367  31.363  1.00  0.00     0.074 A 
ATOM     59  C   UNL A   1      42.650  29.308  35.528  1.00  0.00     0.029 A 
ATOM     60  N   UNL A   1      41.398  29.644  33.721  1.00  0.00    -0.354 N 
ATOM     61  N   UNL A   1      39.292  30.904  32.152  1.00  0.00    -0.248 NA
ATOM     62  C   UNL A   1      37.455  32.336  32.010  1.00  0.00     0.031 C 
ATOM     63  C   UNL A   1      41.669  30.255  35.841  1.00  0.00     0.029 A 
ATOM     64  C   UNL A   1      40.906  30.479  34.708  1.00  0.00     0.049 A 
ATOM     65  H   UNL A   1      41.038  29.573  32.809  1.00  0.00     0.167 HD
ATOM     66  C   UNL A   1      39.108  31.536  33.376  1.00  0.00     0.074 A 
ATOM     67  C   UNL A   1      37.981  32.430  33.223  1.00  0.00     0.031 C 
ATOM     68  C   UNL A   1      39.803  31.384  34.530  1.00  0.00     0.037 A 
BRANCH  55  69
ATOM     69  C   UNL A   1      44.412  27.321  34.093  1.00  0.00     0.057 A 
ATOM     70  C   UNL A   1      45.691  27.888  34.134  1.00  0.00     0.134 A 
ATOM     71  C   UNL A   1      44.228  26.091  34.737  1.00  0.00     0.134 A 
ATOM     72  F   UNL A   1      45.936  29.056  33.520  1.00  0.00    -0.206 F 
ATOM     73  C   UNL A   1      46.750  27.248  34.781  1.00  0.00     0.040 A 
ATOM     74  C   UNL A   1      45.273  25.453  35.408  1.00  0.00     0.040 A 
ATOM     75  F   UNL A   1      43.025  25.495  34.738  1.00  0.00    -0.206 F 
ATOM     76  C   UNL A   1      46.539  26.031  35.428  1.00  0.00     0.006 A 
ENDBRANCH  55  69
BRANCH  56  77
ATOM     77  C   UNL A   1      36.922  31.681  29.228  1.00  0.00     0.057 A 
ATOM     78  C   UNL A   1      35.716  30.999  29.035  1.00  0.00     0.134 A 
ATOM     79  C   UNL A   1      37.022  32.975  28.702  1.00  0.00     0.134 A 
ATOM     80  F   UNL A   1      35.571  29.744  29.488  1.00  0.00    -0.206 F 
ATOM     81  C   UNL A   1      34.656  31.571  28.329  1.00  0.00     0.040 A 
ATOM     82  C   UNL A   1      35.960  33.572  28.020  1.00  0.00     0.040 A 
ATOM     83  F   UNL A   1      38.153  33.681  28.849  1.00  0.00    -0.206 F 
ATOM     84  C   UNL A   1      34.777  32.865  27.824  1.00  0.00     0.006 A 
ENDBRANCH  56  77
BRANCH  68  85
ATOM     85  C   UNL A   1      39.403  32.238  35.694  1.00  0.00     0.057 A 
ATOM     86  C   UNL A   1      39.901  33.535  35.865  1.00  0.00     0.134 A 
ATOM     87  C   UNL A   1      38.480  31.767  36.637  1.00  0.00     0.134 A 
ATOM     88  F   UNL A   1      40.796  34.038  35.001  1.00  0.00    -0.206 F 
ATOM     89  C   UNL A   1      39.513  34.327  36.947  1.00  0.00     0.040 A 
ATOM     90  C   UNL A   1      38.068  32.557  37.711  1.00  0.00     0.040 A 
ATOM     91  F   UNL A   1      37.957  30.537  36.524  1.00  0.00    -0.206 F 
ATOM     92  C   UNL A   1      38.590  33.840  37.871  1.00  0.00     0.006 A 
ENDBRANCH  68  85
ENDBRANCH  42  43
ENDBRANCH  35  37
ENDBRANCH  34  35
ENDBRANCH  33  34
ENDBRANCH  32  33
ENDBRANCH  31  32
ENDBRANCH  30  31
ENDBRANCH  29  30
ENDBRANCH   1  29
TORSDOF 23
ENDMDL
MODEL 2
REMARK VINA RESULT:      -9.9      1.625      2.337
REMARK SMILES COc1cc(/C=N/NC(=O)c2cccnc2)ccc1OCC(=O)OCCOCCOCCOC(=O)c1ccc(-c2c3nc(c(-c4c(F)cccc4F)c4ccc([nH]4)c(-c4c(F)cccc4F)c4nc(c(-c5c(F)cccc5F)c5ccc2[nH]5)C=C4)C=C3)cc1
REMARK SMILES IDX 27 1 26 2 25 3 24 4 22 5 23 6 21 7 20 8 19 9 3 10 4 11 5 12
REMARK SMILES IDX 18 13 17 14 2 15 1 16 6 17 7 18 8 19 9 20 10 22 11 23 12 24
REMARK SMILES IDX 16 25 13 26 15 27 14 28 28 29 29 30 30 31 31 32 32 33 33 34
REMARK SMILES IDX 34 35 35 36 36 37 37 38 89 39 38 40 88 41 39 42 40 43 41 44
REMARK SMILES IDX 82 45 42 46 87 47 81 48 83 49 43 50 86 51 80 52 79 53 44 55
REMARK SMILES IDX 70 56 53 57 69 58 54 59 57 60 68 61 84 62 55 63 56 64 67 66
REMARK SMILES IDX 85 67 58 68 45 69 46 70 51 71 47 72 48 73 50 74 52 75 49 76
REMARK SMILES IDX 71 77 72 78 77 79 73 80 74 81 76 82 78 83 75 84 59 85 60 86
REMARK SMILES IDX 65 87 61 88 62 89 64 90 66 91 63 92
REMARK H PARENT 8 21 83 54 57 65
REMARK Flexibility Score: inf
ROOT
ATOM      1  O   UNL A   1      36.785  22.062  25.829  1.00  0.00    -0.376 OA
ENDROOT
BRANCH   1   2
ATOM      2  C   UNL A   1      36.427  21.222  24.740  1.00  0.00     0.202 C 
BRANCH   2   3
ATOM      3  C   UNL A   1      35.774  19.898  25.138  1.00  0.00     0.261 C 
BRANCH   3   4
ATOM      4  O   UNL A   1      34.613  19.574  24.341  1.00  0.00    -0.461 OA
BRANCH   4   5
ATOM      5  C   UNL A   1      33.552  20.428  24.433  1.00  0.00     0.344 C 
ATOM      6  O   UNL A   1      33.226  21.233  23.567  1.00  0.00    -0.248 OA
BRANCH   5   7
ATOM      7  C   UNL A   1      32.867  20.351  25.800  1.00  0.00     0.352 C 
BRANCH   7   8
ATOM      8  O   UNL A   1      33.118  21.354  26.764  1.00  0.00    -0.478 OA
BRANCH   8   9
ATOM      9  C   UNL A   1      32.791  22.662  26.548  1.00  0.00     0.162 A 
ATOM     10  C   UNL A   1      31.528  23.262  26.457  1.00  0.00     0.161 A 
ATOM     11  C   UNL A   1      31.421  24.657  26.296  1.00  0.00     0.060 A 
ATOM     12  C   UNL A   1      32.575  25.454  26.293  1.00  0.00    -0.002 A 
ATOM     13  C   UNL A   1      33.931  23.469  26.416  1.00  0.00     0.051 A 
ATOM     14  C   UNL A   1      33.831  24.853  26.305  1.00  0.00     0.014 A 
BRANCH  10  15
ATOM     15  O   UNL A   1      30.410  22.475  26.417  1.00  0.00    -0.493 OA
ATOM     16  C   UNL A   1      29.393  22.821  27.355  1.00  0.00     0.278 C 
ENDBRANCH  10  15
BRANCH  12  17
ATOM     17  C   UNL A   1      32.547  26.926  26.425  1.00  0.00     0.141 C 
ATOM     18  N   UNL A   1      31.503  27.593  26.804  1.00  0.00    -0.180 NA
BRANCH  18  19
ATOM     19  N   UNL A   1      31.672  28.944  26.978  1.00  0.00    -0.243 N 
ATOM     20  C   UNL A   1      31.629  29.987  26.074  1.00  0.00     0.272 C 
ATOM     21  H   UNL A   1      31.856  29.217  27.906  1.00  0.00     0.194 HD
ATOM     22  O   UNL A   1      31.864  31.139  26.436  1.00  0.00    -0.267 OA
BRANCH  20  23
ATOM     23  C   UNL A   1      31.320  29.738  24.661  1.00  0.00     0.059 A 
ATOM     24  C   UNL A   1      30.066  29.977  24.102  1.00  0.00     0.017 A 
ATOM     25  C   UNL A   1      32.313  29.184  23.866  1.00  0.00     0.124 A 
ATOM     26  C   UNL A   1      29.833  29.587  22.786  1.00  0.00     0.021 A 
ATOM     27  N   UNL A   1      32.109  28.793  22.585  1.00  0.00    -0.264 NA
ATOM     28  C   UNL A   1      30.872  28.998  22.080  1.00  0.00     0.111 A 
ENDBRANCH  20  23
ENDBRANCH  18  19
ENDBRANCH  12  17
ENDBRANCH   8   9
ENDBRANCH   7   8
ENDBRANCH   5   7
ENDBRANCH   4   5
ENDBRANCH   3   4
ENDBRANCH   2   3
ENDBRANCH   1   2
BRANCH   1  29
ATOM     29  C   UNL A   1      38.107  22.588  25.831  1.00  0.00     0.188 C 
BRANCH  29  30
ATOM     30  C   UNL A   1      39.264  21.589  25.707  1.00  0.00     0.188 C 
BRANCH  30  31
ATOM     31  O   UNL A   1      39.820  21.205  26.960  1.00  0.00    -0.376 OA
BRANCH  31  32
ATOM     32  C   UNL A   1      40.877  20.250  26.873  1.00  0.00     0.202 C 
BRANCH  32  33
ATOM     33  C   UNL A   1      42.065  20.806  26.097  1.00  0.00     0.261 C 
BRANCH  33  34
ATOM     34  O   UNL A   1      42.750  21.845  26.826  1.00  0.00    -0.460 OA
BRANCH  34  35
ATOM     35  C   UNL A   1      43.067  22.944  26.115  1.00  0.00     0.338 C 
ATOM     36  O   UNL A   1      43.808  22.995  25.140  1.00  0.00    -0.246 OA
BRANCH  35  37
ATOM     37  C   UNL A   1      42.419  24.138  26.693  1.00  0.00     0.060 A 
ATOM     38  C   UNL A   1      42.860  25.421  26.371  1.00  0.00     0.016 A 
ATOM     39  C   UNL A   1      41.478  23.965  27.708  1.00  0.00     0.016 A 
ATOM     40  C   UNL A   1      42.465  26.516  27.154  1.00  0.00     0.010 A 
ATOM     41  C   UNL A   1      41.030  25.071  28.440  1.00  0.00     0.010 A 
ATOM     42  C   UNL A   1      41.571  26.352  28.222  1.00  0.00    -0.014 A 
BRANCH  42  43
ATOM     43  C   UNL A   1      41.311  27.441  29.218  1.00  0.00     0.031 A 
ATOM     44  C   UNL A   1      42.168  27.523  30.461  1.00  0.00     0.074 A 
ATOM     45  C   UNL A   1      40.359  28.380  29.052  1.00  0.00     0.049 A 
ATOM     46  N   UNL A   1      41.956  28.123  31.603  1.00  0.00    -0.248 NA
ATOM     47  C   UNL A   1      43.445  26.805  30.401  1.00  0.00     0.031 C 
ATOM     48  C   UNL A   1      39.506  28.544  27.878  1.00  0.00     0.029 A 
ATOM     49  N   UNL A   1      39.952  29.379  29.906  1.00  0.00    -0.354 N 
ATOM     50  C   UNL A   1      43.029  27.771  32.420  1.00  0.00     0.074 A 
ATOM     51  C   UNL A   1      43.896  26.919  31.639  1.00  0.00     0.031 C 
ATOM     52  C   UNL A   1      38.682  29.587  28.081  1.00  0.00     0.029 A 
ATOM     53  C   UNL A   1      38.888  30.106  29.432  1.00  0.00     0.049 A 
ATOM     54  H   UNL A   1      40.381  29.554  30.774  1.00  0.00     0.167 HD
ATOM     55  C   UNL A   1      43.275  28.127  33.702  1.00  0.00     0.037 A 
ATOM     56  C   UNL A   1      38.128  31.040  30.037  1.00  0.00     0.037 A 
ATOM     57  C   UNL A   1      42.479  29.064  34.446  1.00  0.00     0.049 A 
ATOM     58  C   UNL A   1      38.387  31.406  31.474  1.00  0.00     0.074 A 
ATOM     59  C   UNL A   1      42.631  29.482  35.757  1.00  0.00     0.029 A 
ATOM     60  N   UNL A   1      41.406  29.765  33.923  1.00  0.00    -0.354 N 
ATOM     61  N   UNL A   1      39.317  30.969  32.289  1.00  0.00    -0.248 NA
ATOM     62  C   UNL A   1      37.473  32.384  32.083  1.00  0.00     0.031 C 
ATOM     63  C   UNL A   1      41.639  30.429  36.032  1.00  0.00     0.029 A 
ATOM     64  C   UNL A   1      40.892  30.620  34.881  1.00  0.00     0.049 A 
ATOM     65  H   UNL A   1      41.061  29.669  33.007  1.00  0.00     0.167 HD
ATOM     66  C   UNL A   1      39.109  31.631  33.495  1.00  0.00     0.074 A 
ATOM     67  C   UNL A   1      37.978  32.512  33.301  1.00  0.00     0.031 C 
ATOM     68  C   UNL A   1      39.786  31.511  34.663  1.00  0.00     0.037 A 
BRANCH  55  69
ATOM     69  C   UNL A   1      44.430  27.473  34.400  1.00  0.00     0.057 A 
ATOM     70  C   UNL A   1      44.312  26.243  35.057  1.00  0.00     0.134 A 
ATOM     71  C   UNL A   1      45.694  28.075  34.373  1.00  0.00     0.134 A 
ATOM     72  F   UNL A   1      43.125  25.624  35.134  1.00  0.00    -0.206 F 
ATOM     73  C   UNL A   1      45.410  25.642  35.676  1.00  0.00     0.040 A 
ATOM     74  C   UNL A   1      46.804  27.473  34.968  1.00  0.00     0.040 A 
ATOM     75  F   UNL A   1      45.875  29.254  33.756  1.00  0.00    -0.206 F 
ATOM     76  C   UNL A   1      46.662  26.253  35.624  1.00  0.00     0.006 A 
ENDBRANCH  55  69
BRANCH  56  77
ATOM     77  C   UNL A   1      36.989  31.657  29.309  1.00  0.00     0.057 A 
ATOM     78  C   UNL A   1      35.805  30.948  29.082  1.00  0.00     0.134 A 
ATOM     79  C   UNL A   1      37.076  32.953  28.786  1.00  0.00     0.134 A 
ATOM     80  F   UNL A   1      35.674  29.691  29.532  1.00  0.00    -0.206 F 
ATOM     81  C   UNL A   1      34.754  31.497  28.345  1.00  0.00     0.040 A 
ATOM     82  C   UNL A   1      36.022  33.526  28.072  1.00  0.00     0.040 A 
ATOM     83  F   UNL A   1      38.186  33.684  28.965  1.00  0.00    -0.206 F 
ATOM     84  C   UNL A   1      34.861  32.793  27.842  1.00  0.00     0.006 A 
ENDBRANCH  56  77
BRANCH  68  85
ATOM     85  C   UNL A   1      39.361  32.391  35.800  1.00  0.00     0.057 A 
ATOM     86  C   UNL A   1      39.863  33.688  35.958  1.00  0.00     0.134 A 
ATOM     87  C   UNL A   1      38.410  31.944  36.727  1.00  0.00     0.134 A 
ATOM     88  F   UNL A   1      40.783  34.169  35.108  1.00  0.00    -0.206 F 
ATOM     89  C   UNL A   1      39.451  34.503  37.013  1.00  0.00     0.040 A 
ATOM     90  C   UNL A   1      37.976  32.758  37.773  1.00  0.00     0.040 A 
ATOM     91  F   UNL A   1      37.883  30.715  36.624  1.00  0.00    -0.206 F 
ATOM     92  C   UNL A   1      38.502  34.040  37.922  1.00  0.00     0.006 A 
ENDBRANCH  68  85
ENDBRANCH  42  43
ENDBRANCH  35  37
ENDBRANCH  34  35
ENDBRANCH  33  34
ENDBRANCH  32  33
ENDBRANCH  31  32
ENDBRANCH  30  31
ENDBRANCH  29  30
ENDBRANCH   1  29
TORSDOF 23
ENDMDL
MODEL 3
REMARK VINA RESULT:      -9.2      5.163      7.930
REMARK SMILES COc1cc(/C=N/NC(=O)c2cccnc2)ccc1OCC(=O)OCCOCCOCCOC(=O)c1ccc(-c2c3nc(c(-c4c(F)cccc4F)c4ccc([nH]4)c(-c4c(F)cccc4F)c4nc(c(-c5c(F)cccc5F)c5ccc2[nH]5)C=C4)C=C3)cc1
REMARK SMILES IDX 27 1 26 2 25 3 24 4 22 5 23 6 21 7 20 8 19 9 3 10 4 11 5 12
REMARK SMILES IDX 18 13 17 14 2 15 1 16 6 17 7 18 8 19 9 20 10 22 11 23 12 24
REMARK SMILES IDX 16 25 13 26 15 27 14 28 28 29 29 30 30 31 31 32 32 33 33 34
REMARK SMILES IDX 34 35 35 36 36 37 37 38 89 39 38 40 88 41 39 42 40 43 41 44
REMARK SMILES IDX 82 45 42 46 87 47 81 48 83 49 43 50 86 51 80 52 79 53 44 55
REMARK SMILES IDX 70 56 53 57 69 58 54 59 57 60 68 61 84 62 55 63 56 64 67 66
REMARK SMILES IDX 85 67 58 68 45 69 46 70 51 71 47 72 48 73 50 74 52 75 49 76
REMARK SMILES IDX 71 77 72 78 77 79 73 80 74 81 76 82 78 83 75 84 59 85 60 86
REMARK SMILES IDX 65 87 61 88 62 89 64 90 66 91 63 92
REMARK H PARENT 8 21 83 54 57 65
REMARK Flexibility Score: inf
ROOT
ATOM      1  O   UNL A   1      38.499  22.037  25.524  1.00  0.00    -0.376 OA
ENDROOT
BRANCH   1   2
ATOM      2  C   UNL A   1      37.492  23.038  25.478  1.00  0.00     0.202 C 
BRANCH   2   3
ATOM      3  C   UNL A   1      36.285  22.694  24.603  1.00  0.00     0.261 C 
BRANCH   3   4
ATOM      4  O   UNL A   1      35.495  23.850  24.245  1.00  0.00    -0.461 OA
BRANCH   4   5
ATOM      5  C   UNL A   1      34.285  23.977  24.864  1.00  0.00     0.344 C 
ATOM      6  O   UNL A   1      33.771  23.120  25.577  1.00  0.00    -0.248 OA
BRANCH   5   7
ATOM      7  C   UNL A   1      33.574  25.276  24.479  1.00  0.00     0.352 C 
BRANCH   7   8
ATOM      8  O   UNL A   1      32.675  25.877  25.389  1.00  0.00    -0.478 OA
BRANCH   8   9
ATOM      9  C   UNL A   1      32.657  27.226  25.604  1.00  0.00     0.162 A 
ATOM     10  C   UNL A   1      31.685  28.171  25.249  1.00  0.00     0.161 A 
ATOM     11  C   UNL A   1      31.841  29.518  25.633  1.00  0.00     0.060 A 
ATOM     12  C   UNL A   1      32.932  29.900  26.426  1.00  0.00    -0.002 A 
ATOM     13  C   UNL A   1      33.802  27.659  26.288  1.00  0.00     0.051 A 
ATOM     14  C   UNL A   1      33.937  28.979  26.712  1.00  0.00     0.014 A 
BRANCH  10  15
ATOM     15  O   UNL A   1      30.647  27.799  24.441  1.00  0.00    -0.493 OA
ATOM     16  C   UNL A   1      30.840  28.058  23.051  1.00  0.00     0.278 C 
ENDBRANCH  10  15
BRANCH  12  17
ATOM     17  C   UNL A   1      33.020  31.206  27.113  1.00  0.00     0.141 C 
ATOM     18  N   UNL A   1      33.972  31.524  27.931  1.00  0.00    -0.180 NA
BRANCH  18  19
ATOM     19  N   UNL A   1      33.968  32.814  28.402  1.00  0.00    -0.243 N 
ATOM     20  C   UNL A   1      34.595  33.382  29.493  1.00  0.00     0.272 C 
ATOM     21  H   UNL A   1      33.423  33.441  27.873  1.00  0.00     0.194 HD
ATOM     22  O   UNL A   1      34.413  34.566  29.773  1.00  0.00    -0.267 OA
BRANCH  20  23
ATOM     23  C   UNL A   1      35.478  32.580  30.348  1.00  0.00     0.059 A 
ATOM     24  C   UNL A   1      36.646  31.977  29.885  1.00  0.00     0.017 A 
ATOM     25  C   UNL A   1      35.092  32.371  31.665  1.00  0.00     0.124 A 
ATOM     26  C   UNL A   1      37.347  31.130  30.739  1.00  0.00     0.021 A 
ATOM     27  N   UNL A   1      35.755  31.548  32.512  1.00  0.00    -0.264 NA
ATOM     28  C   UNL A   1      36.862  30.943  32.026  1.00  0.00     0.111 A 
ENDBRANCH  20  23
ENDBRANCH  18  19
ENDBRANCH  12  17
ENDBRANCH   8   9
ENDBRANCH   7   8
ENDBRANCH   5   7
ENDBRANCH   4   5
ENDBRANCH   3   4
ENDBRANCH   2   3
ENDBRANCH   1   2
BRANCH   1  29
ATOM     29  C   UNL A   1      38.090  20.696  25.282  1.00  0.00     0.188 C 
BRANCH  29  30
ATOM     30  C   UNL A   1      39.158  19.602  25.389  1.00  0.00     0.188 C 
BRANCH  30  31
ATOM     31  O   UNL A   1      40.283  19.982  26.176  1.00  0.00    -0.376 OA
BRANCH  31  32
ATOM     32  C   UNL A   1      41.402  19.101  26.077  1.00  0.00     0.202 C 
BRANCH  32  33
ATOM     33  C   UNL A   1      42.698  19.873  25.854  1.00  0.00     0.261 C 
BRANCH  33  34
ATOM     34  O   UNL A   1      43.786  19.004  25.477  1.00  0.00    -0.460 OA
BRANCH  34  35
ATOM     35  C   UNL A   1      44.483  19.383  24.389  1.00  0.00     0.338 C 
ATOM     36  O   UNL A   1      44.686  18.714  23.382  1.00  0.00    -0.246 OA
BRANCH  35  37
ATOM     37  C   UNL A   1      45.029  20.742  24.572  1.00  0.00     0.060 A 
ATOM     38  C   UNL A   1      45.710  21.093  25.737  1.00  0.00     0.016 A 
ATOM     39  C   UNL A   1      44.697  21.729  23.643  1.00  0.00     0.016 A 
ATOM     40  C   UNL A   1      45.937  22.443  26.039  1.00  0.00     0.010 A 
ATOM     41  C   UNL A   1      44.991  23.070  23.914  1.00  0.00     0.010 A 
ATOM     42  C   UNL A   1      45.550  23.455  25.148  1.00  0.00    -0.014 A 
BRANCH  42  43
ATOM     43  C   UNL A   1      45.559  24.903  25.533  1.00  0.00     0.031 A 
ATOM     44  C   UNL A   1      46.844  25.690  25.408  1.00  0.00     0.074 A 
ATOM     45  C   UNL A   1      44.465  25.558  25.966  1.00  0.00     0.049 A 
ATOM     46  N   UNL A   1      47.212  26.814  25.966  1.00  0.00    -0.248 NA
ATOM     47  C   UNL A   1      47.866  25.106  24.533  1.00  0.00     0.031 C 
ATOM     48  C   UNL A   1      43.112  25.014  26.051  1.00  0.00     0.029 A 
ATOM     49  N   UNL A   1      44.338  26.847  26.430  1.00  0.00    -0.354 N 
ATOM     50  C   UNL A   1      48.536  27.013  25.580  1.00  0.00     0.074 A 
ATOM     51  C   UNL A   1      48.902  25.902  24.732  1.00  0.00     0.031 C 
ATOM     52  C   UNL A   1      42.289  25.963  26.527  1.00  0.00     0.029 A 
ATOM     53  C   UNL A   1      43.072  27.151  26.866  1.00  0.00     0.049 A 
ATOM     54  H   UNL A   1      45.083  27.489  26.448  1.00  0.00     0.167 HD
ATOM     55  C   UNL A   1      49.372  28.028  25.900  1.00  0.00     0.037 A 
ATOM     56  C   UNL A   1      42.608  28.235  27.518  1.00  0.00     0.037 A 
ATOM     57  C   UNL A   1      48.981  29.190  26.648  1.00  0.00     0.049 A 
ATOM     58  C   UNL A   1      43.552  29.346  27.898  1.00  0.00     0.074 A 
ATOM     59  C   UNL A   1      49.754  30.270  27.040  1.00  0.00     0.029 A 
ATOM     60  N   UNL A   1      47.690  29.445  27.075  1.00  0.00    -0.354 N 
ATOM     61  N   UNL A   1      44.835  29.467  27.655  1.00  0.00    -0.248 NA
ATOM     62  C   UNL A   1      42.983  30.463  28.667  1.00  0.00     0.031 C 
ATOM     63  C   UNL A   1      48.930  31.173  27.719  1.00  0.00     0.029 A 
ATOM     64  C   UNL A   1      47.641  30.668  27.719  1.00  0.00     0.049 A 
ATOM     65  H   UNL A   1      46.922  28.845  26.941  1.00  0.00     0.167 HD
ATOM     66  C   UNL A   1      45.218  30.677  28.223  1.00  0.00     0.074 A 
ATOM     67  C   UNL A   1      44.031  31.262  28.807  1.00  0.00     0.031 C 
ATOM     68  C   UNL A   1      46.446  31.249  28.268  1.00  0.00     0.037 A 
BRANCH  55  69
ATOM     69  C   UNL A   1      50.806  27.912  25.476  1.00  0.00     0.057 A 
ATOM     70  C   UNL A   1      51.807  27.439  26.332  1.00  0.00     0.134 A 
ATOM     71  C   UNL A   1      51.177  28.245  24.167  1.00  0.00     0.134 A 
ATOM     72  F   UNL A   1      51.520  27.120  27.603  1.00  0.00    -0.206 F 
ATOM     73  C   UNL A   1      53.130  27.314  25.904  1.00  0.00     0.040 A 
ATOM     74  C   UNL A   1      52.492  28.102  23.721  1.00  0.00     0.040 A 
ATOM     75  F   UNL A   1      50.264  28.701  23.295  1.00  0.00    -0.206 F 
ATOM     76  C   UNL A   1      53.473  27.638  24.592  1.00  0.00     0.006 A 
ENDBRANCH  55  69
BRANCH  56  77
ATOM     77  C   UNL A   1      41.181  28.305  27.924  1.00  0.00     0.057 A 
ATOM     78  C   UNL A   1      40.213  28.858  27.078  1.00  0.00     0.134 A 
ATOM     79  C   UNL A   1      40.760  27.863  29.185  1.00  0.00     0.134 A 
ATOM     80  F   UNL A   1      40.562  29.327  25.871  1.00  0.00    -0.206 F 
ATOM     81  C   UNL A   1      38.882  28.986  27.476  1.00  0.00     0.040 A 
ATOM     82  C   UNL A   1      39.426  27.958  29.584  1.00  0.00     0.040 A 
ATOM     83  F   UNL A   1      41.639  27.328  30.044  1.00  0.00    -0.206 F 
ATOM     84  C   UNL A   1      38.485  28.530  28.732  1.00  0.00     0.006 A 
ENDBRANCH  56  77
BRANCH  68  85
ATOM     85  C   UNL A   1      46.557  32.595  28.919  1.00  0.00     0.057 A 
ATOM     86  C   UNL A   1      46.836  32.735  30.283  1.00  0.00     0.134 A 
ATOM     87  C   UNL A   1      46.415  33.764  28.161  1.00  0.00     0.134 A 
ATOM     88  F   UNL A   1      46.973  31.652  31.064  1.00  0.00    -0.206 F 
ATOM     89  C   UNL A   1      46.949  33.993  30.877  1.00  0.00     0.040 A 
ATOM     90  C   UNL A   1      46.545  35.027  28.739  1.00  0.00     0.040 A 
ATOM     91  F   UNL A   1      46.156  33.697  26.846  1.00  0.00    -0.206 F 
ATOM     92  C   UNL A   1      46.807  35.144  30.103  1.00  0.00     0.006 A 
ENDBRANCH  68  85
ENDBRANCH  42  43
ENDBRANCH  35  37
ENDBRANCH  34  35
ENDBRANCH  33  34
ENDBRANCH  32  33
ENDBRANCH  31  32
ENDBRANCH  30  31
ENDBRANCH  29  30
ENDBRANCH   1  29
TORSDOF 23
ENDMDL
