MODEL 1
REMARK VINA RESULT:     -11.1      0.000      0.000
REMARK SMILES CC(C)(C)c1cc2c(cc1Cl)C=C(C(=O)OCCOCCOCCOC(=O)c1ccc(-c3c4nc(c(-c5c(F)cccc5F)c5ccc([nH]5)c(-c5c(F)cccc5F)c5nc(c(-c6c(F)cccc6F)c6ccc3[nH]6)C=C5)C=C4)cc1)[C@@H](C(F)(F)F)O2
REMARK SMILES IDX 21 1 20 2 19 3 18 4 17 5 16 6 14 7 15 8 13 9 5 10 6 11 10 12
REMARK SMILES IDX 7 13 9 14 11 15 8 16 87 17 12 18 82 19 2 20 1 21 3 22 4 23
REMARK SMILES IDX 83 24 84 25 85 26 86 27 22 28 23 29 24 30 25 31 26 32 27 33
REMARK SMILES IDX 28 34 29 35 81 36 30 37 80 38 31 39 32 40 33 41 74 42 34 43
REMARK SMILES IDX 79 44 73 45 75 46 35 47 78 48 72 49 71 50 36 52 62 53 45 54
REMARK SMILES IDX 61 55 46 56 49 57 60 58 76 59 47 60 48 61 59 63 77 64 50 65
REMARK SMILES IDX 37 66 38 67 43 68 39 69 40 70 42 71 44 72 41 73 63 74 64 75
REMARK SMILES IDX 69 76 65 77 66 78 68 79 70 80 67 81 51 82 52 83 57 84 53 85
REMARK SMILES IDX 54 86 56 87 58 88 55 89
REMARK H PARENT 75 51 49 62
REMARK Flexibility Score: inf
ROOT
ATOM      1  C   UNL A   1      41.072  20.299  27.195  1.00  0.00     0.188 C 
ENDROOT
BRANCH   1   2
ATOM      2  C   UNL A   1      40.153  21.499  26.884  1.00  0.00     0.188 C 
BRANCH   2   3
ATOM      3  O   UNL A   1      39.364  21.542  25.713  1.00  0.00    -0.376 OA
BRANCH   3   4
ATOM      4  C   UNL A   1      38.025  22.008  25.733  1.00  0.00     0.202 C 
BRANCH   4   5
ATOM      5  C   UNL A   1      36.824  21.083  25.513  1.00  0.00     0.261 C 
BRANCH   5   6
ATOM      6  O   UNL A   1      35.963  21.459  24.433  1.00  0.00    -0.460 OA
BRANCH   6   7
ATOM      7  C   UNL A   1      34.655  21.169  24.624  1.00  0.00     0.338 C 
ATOM      8  O   UNL A   1      34.157  20.062  24.734  1.00  0.00    -0.246 OA
BRANCH   7   9
ATOM      9  C   UNL A   1      33.899  22.417  24.833  1.00  0.00     0.087 C 
ATOM     10  C   UNL A   1      32.474  27.261  24.810  1.00  0.00    -0.020 A 
ATOM     11  C   UNL A   1      32.173  26.116  25.588  1.00  0.00     0.053 A 
ATOM     12  C   UNL A   1      33.173  27.018  23.608  1.00  0.00     0.045 A 
ATOM     13  C   UNL A   1      32.671  24.845  25.284  1.00  0.00     0.128 A 
ATOM     14  C   UNL A   1      33.691  25.745  23.314  1.00  0.00     0.032 A 
ATOM     15  Cl  UNL A   1      33.424  28.191  22.364  1.00  0.00    -0.084 Cl
ATOM     16  C   UNL A   1      33.482  24.671  24.176  1.00  0.00     0.019 A 
ATOM     17  O   UNL A   1      32.328  23.843  26.146  1.00  0.00    -0.475 OA
ATOM     18  C   UNL A   1      34.139  23.397  23.954  1.00  0.00     0.027 C 
ATOM     19  C   UNL A   1      32.936  22.530  25.983  1.00  0.00     0.316 C 
BRANCH  10  20
ATOM     20  C   UNL A   1      32.024  28.651  25.329  1.00  0.00    -0.012 C 
ATOM     21  C   UNL A   1      30.910  29.321  24.487  1.00  0.00     0.016 C 
ATOM     22  C   UNL A   1      33.192  29.679  25.304  1.00  0.00     0.016 C 
ATOM     23  C   UNL A   1      31.543  28.510  26.783  1.00  0.00     0.016 C 
ENDBRANCH  10  20
BRANCH  19  24
ATOM     24  C   UNL A   1      33.566  22.130  27.325  1.00  0.00     0.430 C 
ATOM     25  F   UNL A   1      34.801  22.669  27.467  1.00  0.00    -0.167 F 
ATOM     26  F   UNL A   1      32.832  22.565  28.377  1.00  0.00    -0.167 F 
ATOM     27  F   UNL A   1      33.691  20.790  27.445  1.00  0.00    -0.167 F 
ENDBRANCH  19  24
ENDBRANCH   7   9
ENDBRANCH   6   7
ENDBRANCH   5   6
ENDBRANCH   4   5
ENDBRANCH   3   4
ENDBRANCH   2   3
ENDBRANCH   1   2
BRANCH   1  28
ATOM     28  O   UNL A   1      42.405  20.262  26.725  1.00  0.00    -0.376 OA
BRANCH  28  29
ATOM     29  C   UNL A   1      43.128  21.478  26.590  1.00  0.00     0.202 C 
BRANCH  29  30
ATOM     30  C   UNL A   1      43.423  22.050  25.201  1.00  0.00     0.261 C 
BRANCH  30  31
ATOM     31  O   UNL A   1      42.831  23.339  24.979  1.00  0.00    -0.460 OA
BRANCH  31  32
ATOM     32  C   UNL A   1      43.644  24.398  25.209  1.00  0.00     0.338 C 
ATOM     33  O   UNL A   1      44.667  24.693  24.613  1.00  0.00    -0.246 OA
BRANCH  32  34
ATOM     34  C   UNL A   1      42.997  25.296  26.183  1.00  0.00     0.060 A 
ATOM     35  C   UNL A   1      41.913  24.866  26.949  1.00  0.00     0.016 A 
ATOM     36  C   UNL A   1      43.506  26.594  26.328  1.00  0.00     0.016 A 
ATOM     37  C   UNL A   1      41.360  25.733  27.895  1.00  0.00     0.010 A 
ATOM     38  C   UNL A   1      42.940  27.464  27.259  1.00  0.00     0.010 A 
ATOM     39  C   UNL A   1      41.881  27.028  28.067  1.00  0.00    -0.014 A 
BRANCH  39  40
ATOM     40  C   UNL A   1      41.441  27.853  29.216  1.00  0.00     0.031 A 
ATOM     41  C   UNL A   1      40.270  28.780  29.128  1.00  0.00     0.074 A 
ATOM     42  C   UNL A   1      42.148  27.761  30.358  1.00  0.00     0.049 A 
ATOM     43  N   UNL A   1      39.722  29.502  30.074  1.00  0.00    -0.248 NA
ATOM     44  C   UNL A   1      39.634  28.924  27.812  1.00  0.00     0.031 C 
ATOM     45  C   UNL A   1      43.332  26.920  30.546  1.00  0.00     0.029 A 
ATOM     46  N   UNL A   1      41.975  28.375  31.570  1.00  0.00    -0.354 N 
ATOM     47  C   UNL A   1      38.659  30.165  29.480  1.00  0.00     0.074 A 
ATOM     48  C   UNL A   1      38.670  29.798  28.076  1.00  0.00     0.031 C 
ATOM     49  C   UNL A   1      43.770  27.060  31.806  1.00  0.00     0.029 A 
ATOM     50  C   UNL A   1      42.911  28.009  32.506  1.00  0.00     0.049 A 
ATOM     51  H   UNL A   1      41.250  29.017  31.753  1.00  0.00     0.167 HD
ATOM     52  C   UNL A   1      37.749  30.988  30.059  1.00  0.00     0.037 A 
ATOM     53  C   UNL A   1      43.057  28.392  33.786  1.00  0.00     0.037 A 
ATOM     54  C   UNL A   1      37.764  31.372  31.450  1.00  0.00     0.049 A 
ATOM     55  C   UNL A   1      42.068  29.351  34.384  1.00  0.00     0.074 A 
ATOM     56  C   UNL A   1      36.856  32.160  32.138  1.00  0.00     0.029 A 
ATOM     57  N   UNL A   1      38.749  31.018  32.360  1.00  0.00    -0.354 N 
ATOM     58  N   UNL A   1      41.007  29.892  33.839  1.00  0.00    -0.248 NA
ATOM     59  C   UNL A   1      42.296  29.744  35.781  1.00  0.00     0.031 C 
ATOM     60  C   UNL A   1      37.320  32.326  33.450  1.00  0.00     0.029 A 
ATOM     61  C   UNL A   1      38.491  31.601  33.593  1.00  0.00     0.049 A 
ATOM     62  H   UNL A   1      39.519  30.438  32.160  1.00  0.00     0.167 HD
ATOM     63  C   UNL A   1      40.428  30.673  34.830  1.00  0.00     0.074 A 
ATOM     64  C   UNL A   1      41.245  30.514  36.016  1.00  0.00     0.031 C 
ATOM     65  C   UNL A   1      39.320  31.452  34.763  1.00  0.00     0.037 A 
BRANCH  52  66
ATOM     66  C   UNL A   1      36.652  31.529  29.187  1.00  0.00     0.057 A 
ATOM     67  C   UNL A   1      36.644  32.871  28.789  1.00  0.00     0.134 A 
ATOM     68  C   UNL A   1      35.572  30.730  28.788  1.00  0.00     0.134 A 
ATOM     69  F   UNL A   1      37.642  33.694  29.146  1.00  0.00    -0.206 F 
ATOM     70  C   UNL A   1      35.602  33.400  28.025  1.00  0.00     0.040 A 
ATOM     71  C   UNL A   1      34.535  31.242  28.005  1.00  0.00     0.040 A 
ATOM     72  F   UNL A   1      35.520  29.435  29.134  1.00  0.00    -0.206 F 
ATOM     73  C   UNL A   1      34.546  32.583  27.626  1.00  0.00     0.006 A 
ENDBRANCH  52  66
BRANCH  53  74
ATOM     74  C   UNL A   1      44.171  27.849  34.598  1.00  0.00     0.057 A 
ATOM     75  C   UNL A   1      45.402  28.510  34.680  1.00  0.00     0.134 A 
ATOM     76  C   UNL A   1      44.024  26.660  35.321  1.00  0.00     0.134 A 
ATOM     77  F   UNL A   1      45.605  29.649  34.003  1.00  0.00    -0.206 F 
ATOM     78  C   UNL A   1      46.450  28.007  35.452  1.00  0.00     0.040 A 
ATOM     79  C   UNL A   1      45.054  26.159  36.116  1.00  0.00     0.040 A 
ATOM     80  F   UNL A   1      42.862  25.993  35.292  1.00  0.00    -0.206 F 
ATOM     81  C   UNL A   1      46.273  26.832  36.180  1.00  0.00     0.006 A 
ENDBRANCH  53  74
BRANCH  65  82
ATOM     82  C   UNL A   1      38.932  32.180  36.016  1.00  0.00     0.057 A 
ATOM     83  C   UNL A   1      39.323  33.509  36.225  1.00  0.00     0.134 A 
ATOM     84  C   UNL A   1      38.162  31.570  37.016  1.00  0.00     0.134 A 
ATOM     85  F   UNL A   1      40.064  34.153  35.311  1.00  0.00    -0.206 F 
ATOM     86  C   UNL A   1      38.958  34.205  37.379  1.00  0.00     0.040 A 
ATOM     87  C   UNL A   1      37.767  32.263  38.161  1.00  0.00     0.040 A 
ATOM     88  F   UNL A   1      37.738  30.305  36.870  1.00  0.00    -0.206 F 
ATOM     89  C   UNL A   1      38.169  33.585  38.346  1.00  0.00     0.006 A 
ENDBRANCH  65  82
ENDBRANCH  39  40
ENDBRANCH  32  34
ENDBRANCH  31  32
ENDBRANCH  30  31
ENDBRANCH  29  30
ENDBRANCH  28  29
ENDBRANCH   1  28
TORSDOF 19
ENDMDL
MODEL 2
REMARK VINA RESULT:     -11.0      0.731      6.067
REMARK SMILES CC(C)(C)c1cc2c(cc1Cl)C=C(C(=O)OCCOCCOCCOC(=O)c1ccc(-c3c4nc(c(-c5c(F)cccc5F)c5ccc([nH]5)c(-c5c(F)cccc5F)c5nc(c(-c6c(F)cccc6F)c6ccc3[nH]6)C=C5)C=C4)cc1)[C@@H](C(F)(F)F)O2
REMARK SMILES IDX 21 1 20 2 19 3 18 4 17 5 16 6 14 7 15 8 13 9 5 10 6 11 10 12
REMARK SMILES IDX 7 13 9 14 11 15 8 16 87 17 12 18 82 19 2 20 1 21 3 22 4 23
REMARK SMILES IDX 83 24 84 25 85 26 86 27 22 28 23 29 24 30 25 31 26 32 27 33
REMARK SMILES IDX 28 34 29 35 81 36 30 37 80 38 31 39 32 40 33 41 74 42 34 43
REMARK SMILES IDX 79 44 73 45 75 46 35 47 78 48 72 49 71 50 36 52 62 53 45 54
REMARK SMILES IDX 61 55 46 56 49 57 60 58 76 59 47 60 48 61 59 63 77 64 50 65
REMARK SMILES IDX 37 66 38 67 43 68 39 69 40 70 42 71 44 72 41 73 63 74 64 75
REMARK SMILES IDX 69 76 65 77 66 78 68 79 70 80 67 81 51 82 52 83 57 84 53 85
REMARK SMILES IDX 54 86 56 87 58 88 55 89
REMARK H PARENT 75 51 49 62
REMARK Flexibility Score: inf
ROOT
ATOM      1  C   UNL A   1      42.153  20.667  26.169  1.00  0.00     0.188 C 
ENDROOT
BRANCH   1   2
ATOM      2  C   UNL A   1      40.912  21.583  26.186  1.00  0.00     0.188 C 
BRANCH   2   3
ATOM      3  O   UNL A   1      39.602  21.055  26.146  1.00  0.00    -0.376 OA
BRANCH   3   4
ATOM      4  C   UNL A   1      38.511  21.805  25.641  1.00  0.00     0.202 C 
BRANCH   4   5
ATOM      5  C   UNL A   1      37.078  21.263  25.612  1.00  0.00     0.261 C 
BRANCH   5   6
ATOM      6  O   UNL A   1      36.275  21.744  24.528  1.00  0.00    -0.460 OA
BRANCH   6   7
ATOM      7  C   UNL A   1      34.962  21.424  24.611  1.00  0.00     0.338 C 
ATOM      8  O   UNL A   1      34.476  20.306  24.594  1.00  0.00    -0.246 OA
BRANCH   7   9
ATOM      9  C   UNL A   1      34.175  22.641  24.878  1.00  0.00     0.087 C 
ATOM     10  C   UNL A   1      32.652  27.449  25.131  1.00  0.00    -0.020 A 
ATOM     11  C   UNL A   1      32.350  26.248  25.821  1.00  0.00     0.053 A 
ATOM     12  C   UNL A   1      33.392  27.299  23.938  1.00  0.00     0.045 A 
ATOM     13  C   UNL A   1      32.884  25.010  25.450  1.00  0.00     0.128 A 
ATOM     14  C   UNL A   1      33.945  26.058  23.578  1.00  0.00     0.032 A 
ATOM     15  Cl  UNL A   1      33.656  28.557  22.783  1.00  0.00    -0.084 Cl
ATOM     16  C   UNL A   1      33.732  24.925  24.359  1.00  0.00     0.019 A 
ATOM     17  O   UNL A   1      32.536  23.947  26.232  1.00  0.00    -0.475 OA
ATOM     18  C   UNL A   1      34.421  23.682  24.074  1.00  0.00     0.027 C 
ATOM     19  C   UNL A   1      33.175  22.659  26.002  1.00  0.00     0.316 C 
BRANCH  10  20
ATOM     20  C   UNL A   1      32.158  28.792  25.726  1.00  0.00    -0.012 C 
ATOM     21  C   UNL A   1      33.272  29.846  25.942  1.00  0.00     0.016 C 
ATOM     22  C   UNL A   1      31.534  28.600  27.139  1.00  0.00     0.016 C 
ATOM     23  C   UNL A   1      31.077  29.381  24.803  1.00  0.00     0.016 C 
ENDBRANCH  10  20
BRANCH  19  24
ATOM     24  C   UNL A   1      33.772  22.182  27.334  1.00  0.00     0.430 C 
ATOM     25  F   UNL A   1      35.035  22.645  27.499  1.00  0.00    -0.167 F 
ATOM     26  F   UNL A   1      33.057  22.625  28.395  1.00  0.00    -0.167 F 
ATOM     27  F   UNL A   1      33.821  20.833  27.412  1.00  0.00    -0.167 F 
ENDBRANCH  19  24
ENDBRANCH   7   9
ENDBRANCH   6   7
ENDBRANCH   5   6
ENDBRANCH   4   5
ENDBRANCH   3   4
ENDBRANCH   2   3
ENDBRANCH   1   2
BRANCH   1  28
ATOM     28  O   UNL A   1      43.059  20.688  25.083  1.00  0.00    -0.376 OA
BRANCH  28  29
ATOM     29  C   UNL A   1      44.446  20.868  25.338  1.00  0.00     0.202 C 
BRANCH  29  30
ATOM     30  C   UNL A   1      45.055  22.272  25.333  1.00  0.00     0.261 C 
BRANCH  30  31
ATOM     31  O   UNL A   1      44.077  23.318  25.436  1.00  0.00    -0.460 OA
BRANCH  31  32
ATOM     32  C   UNL A   1      44.574  24.578  25.434  1.00  0.00     0.338 C 
ATOM     33  O   UNL A   1      45.360  25.067  24.639  1.00  0.00    -0.246 OA
BRANCH  32  34
ATOM     34  C   UNL A   1      43.856  25.377  26.445  1.00  0.00     0.060 A 
ATOM     35  C   UNL A   1      42.823  24.822  27.200  1.00  0.00     0.016 A 
ATOM     36  C   UNL A   1      44.247  26.709  26.637  1.00  0.00     0.016 A 
ATOM     37  C   UNL A   1      42.201  25.599  28.181  1.00  0.00     0.010 A 
ATOM     38  C   UNL A   1      43.612  27.489  27.603  1.00  0.00     0.010 A 
ATOM     39  C   UNL A   1      42.604  26.928  28.399  1.00  0.00    -0.014 A 
BRANCH  39  40
ATOM     40  C   UNL A   1      42.101  27.667  29.581  1.00  0.00     0.031 A 
ATOM     41  C   UNL A   1      42.746  27.552  30.926  1.00  0.00     0.074 A 
ATOM     42  C   UNL A   1      41.015  28.445  29.414  1.00  0.00     0.049 A 
ATOM     43  N   UNL A   1      42.465  28.201  32.028  1.00  0.00    -0.248 NA
ATOM     44  C   UNL A   1      43.842  26.583  31.056  1.00  0.00     0.031 C 
ATOM     45  C   UNL A   1      40.280  28.602  28.157  1.00  0.00     0.029 A 
ATOM     46  N   UNL A   1      40.343  29.247  30.299  1.00  0.00    -0.354 N 
ATOM     47  C   UNL A   1      43.364  27.744  32.979  1.00  0.00     0.074 A 
ATOM     48  C   UNL A   1      44.169  26.723  32.335  1.00  0.00     0.031 C 
ATOM     49  C   UNL A   1      39.267  29.461  28.349  1.00  0.00     0.029 A 
ATOM     50  C   UNL A   1      39.273  29.900  29.740  1.00  0.00     0.049 A 
ATOM     51  H   UNL A   1      40.603  29.346  31.244  1.00  0.00     0.167 HD
ATOM     52  C   UNL A   1      43.514  28.153  34.264  1.00  0.00     0.037 A 
ATOM     53  C   UNL A   1      38.397  30.761  30.286  1.00  0.00     0.037 A 
ATOM     54  C   UNL A   1      42.688  29.147  34.905  1.00  0.00     0.049 A 
ATOM     55  C   UNL A   1      38.552  31.151  31.728  1.00  0.00     0.074 A 
ATOM     56  C   UNL A   1      42.795  29.663  36.187  1.00  0.00     0.029 A 
ATOM     57  N   UNL A   1      41.587  29.759  34.325  1.00  0.00    -0.354 N 
ATOM     58  N   UNL A   1      39.470  30.788  32.590  1.00  0.00    -0.248 NA
ATOM     59  C   UNL A   1      37.550  32.080  32.269  1.00  0.00     0.031 C 
ATOM     60  C   UNL A   1      41.728  30.546  36.398  1.00  0.00     0.029 A 
ATOM     61  C   UNL A   1      40.984  30.618  35.232  1.00  0.00     0.049 A 
ATOM     62  H   UNL A   1      41.277  29.605  33.402  1.00  0.00     0.167 HD
ATOM     63  C   UNL A   1      39.170  31.458  33.767  1.00  0.00     0.074 A 
ATOM     64  C   UNL A   1      37.998  32.268  33.500  1.00  0.00     0.031 C 
ATOM     65  C   UNL A   1      39.808  31.406  34.963  1.00  0.00     0.037 A 
BRANCH  52  66
ATOM     66  C   UNL A   1      44.619  27.527  35.065  1.00  0.00     0.057 A 
ATOM     67  C   UNL A   1      44.385  26.392  35.851  1.00  0.00     0.134 A 
ATOM     68  C   UNL A   1      45.905  28.083  35.101  1.00  0.00     0.134 A 
ATOM     69  F   UNL A   1      43.174  25.815  35.873  1.00  0.00    -0.206 F 
ATOM     70  C   UNL A   1      45.389  25.834  36.645  1.00  0.00     0.040 A 
ATOM     71  C   UNL A   1      46.923  27.520  35.872  1.00  0.00     0.040 A 
ATOM     72  F   UNL A   1      46.196  29.169  34.368  1.00  0.00    -0.206 F 
ATOM     73  C   UNL A   1      46.665  26.394  36.651  1.00  0.00     0.006 A 
ENDBRANCH  52  66
BRANCH  53  74
ATOM     74  C   UNL A   1      37.308  31.332  29.460  1.00  0.00     0.057 A 
ATOM     75  C   UNL A   1      37.416  32.606  28.892  1.00  0.00     0.134 A 
ATOM     76  C   UNL A   1      36.137  30.608  29.210  1.00  0.00     0.134 A 
ATOM     77  F   UNL A   1      38.511  33.351  29.103  1.00  0.00    -0.206 F 
ATOM     78  C   UNL A   1      36.397  33.143  28.105  1.00  0.00     0.040 A 
ATOM     79  C   UNL A   1      35.121  31.121  28.405  1.00  0.00     0.040 A 
ATOM     80  F   UNL A   1      35.985  29.375  29.715  1.00  0.00    -0.206 F 
ATOM     81  C   UNL A   1      35.248  32.395  27.852  1.00  0.00     0.006 A 
ENDBRANCH  53  74
BRANCH  65  82
ATOM     82  C   UNL A   1      39.247  32.260  36.063  1.00  0.00     0.057 A 
ATOM     83  C   UNL A   1      38.279  31.756  36.941  1.00  0.00     0.134 A 
ATOM     84  C   UNL A   1      39.671  33.582  36.260  1.00  0.00     0.134 A 
ATOM     85  F   UNL A   1      37.825  30.501  36.807  1.00  0.00    -0.206 F 
ATOM     86  C   UNL A   1      37.759  32.532  37.978  1.00  0.00     0.040 A 
ATOM     87  C   UNL A   1      39.179  34.359  37.310  1.00  0.00     0.040 A 
ATOM     88  F   UNL A   1      40.610  34.120  35.466  1.00  0.00    -0.206 F 
ATOM     89  C   UNL A   1      38.216  33.834  38.170  1.00  0.00     0.006 A 
ENDBRANCH  65  82
ENDBRANCH  39  40
ENDBRANCH  32  34
ENDBRANCH  31  32
ENDBRANCH  30  31
ENDBRANCH  29  30
ENDBRANCH  28  29
ENDBRANCH   1  28
TORSDOF 19
ENDMDL
MODEL 3
REMARK VINA RESULT:     -11.0      1.517      2.319
REMARK SMILES CC(C)(C)c1cc2c(cc1Cl)C=C(C(=O)OCCOCCOCCOC(=O)c1ccc(-c3c4nc(c(-c5c(F)cccc5F)c5ccc([nH]5)c(-c5c(F)cccc5F)c5nc(c(-c6c(F)cccc6F)c6ccc3[nH]6)C=C5)C=C4)cc1)[C@@H](C(F)(F)F)O2
REMARK SMILES IDX 21 1 20 2 19 3 18 4 17 5 16 6 14 7 15 8 13 9 5 10 6 11 10 12
REMARK SMILES IDX 7 13 9 14 11 15 8 16 87 17 12 18 82 19 2 20 1 21 3 22 4 23
REMARK SMILES IDX 83 24 84 25 85 26 86 27 22 28 23 29 24 30 25 31 26 32 27 33
REMARK SMILES IDX 28 34 29 35 81 36 30 37 80 38 31 39 32 40 33 41 74 42 34 43
REMARK SMILES IDX 79 44 73 45 75 46 35 47 78 48 72 49 71 50 36 52 62 53 45 54
REMARK SMILES IDX 61 55 46 56 49 57 60 58 76 59 47 60 48 61 59 63 77 64 50 65
REMARK SMILES IDX 37 66 38 67 43 68 39 69 40 70 42 71 44 72 41 73 63 74 64 75
REMARK SMILES IDX 69 76 65 77 66 78 68 79 70 80 67 81 51 82 52 83 57 84 53 85
REMARK SMILES IDX 54 86 56 87 58 88 55 89
REMARK H PARENT 75 51 49 62
REMARK Flexibility Score: inf
ROOT
ATOM      1  C   UNL A   1      40.209  21.096  26.752  1.00  0.00     0.188 C 
ENDROOT
BRANCH   1   2
ATOM      2  C   UNL A   1      39.283  22.180  26.162  1.00  0.00     0.188 C 
BRANCH   2   3
ATOM      3  O   UNL A   1      37.904  21.946  25.962  1.00  0.00    -0.376 OA
BRANCH   3   4
ATOM      4  C   UNL A   1      36.988  23.010  25.769  1.00  0.00     0.202 C 
BRANCH   4   5
ATOM      5  C   UNL A   1      35.566  22.791  25.244  1.00  0.00     0.261 C 
BRANCH   5   6
ATOM      6  O   UNL A   1      34.889  23.981  24.825  1.00  0.00    -0.460 OA
BRANCH   6   7
ATOM      7  C   UNL A   1      33.780  24.284  25.540  1.00  0.00     0.338 C 
ATOM      8  O   UNL A   1      33.525  23.939  26.681  1.00  0.00    -0.246 OA
BRANCH   7   9
ATOM      9  C   UNL A   1      32.952  25.240  24.783  1.00  0.00     0.087 C 
ATOM     10  C   UNL A   1      30.000  29.143  23.537  1.00  0.00    -0.020 A 
ATOM     11  C   UNL A   1      30.290  27.870  22.985  1.00  0.00     0.053 A 
ATOM     12  C   UNL A   1      30.861  29.573  24.569  1.00  0.00     0.045 A 
ATOM     13  C   UNL A   1      31.256  27.016  23.526  1.00  0.00     0.128 A 
ATOM     14  C   UNL A   1      31.817  28.707  25.126  1.00  0.00     0.032 A 
ATOM     15  Cl  UNL A   1      30.890  31.174  25.218  1.00  0.00    -0.084 Cl
ATOM     16  C   UNL A   1      31.980  27.412  24.637  1.00  0.00     0.019 A 
ATOM     17  O   UNL A   1      31.401  25.805  22.913  1.00  0.00    -0.475 OA
ATOM     18  C   UNL A   1      32.857  26.469  25.305  1.00  0.00     0.027 C 
ATOM     19  C   UNL A   1      32.272  24.805  23.513  1.00  0.00     0.316 C 
BRANCH  10  20
ATOM     20  C   UNL A   1      28.791  29.936  22.978  1.00  0.00    -0.012 C 
ATOM     21  C   UNL A   1      28.458  31.232  23.757  1.00  0.00     0.016 C 
ATOM     22  C   UNL A   1      27.478  29.104  23.042  1.00  0.00     0.016 C 
ATOM     23  C   UNL A   1      29.062  30.288  21.505  1.00  0.00     0.016 C 
ENDBRANCH  10  20
BRANCH  19  24
ATOM     24  C   UNL A   1      31.461  23.514  23.687  1.00  0.00     0.430 C 
ATOM     25  F   UNL A   1      32.220  22.420  23.436  1.00  0.00    -0.167 F 
ATOM     26  F   UNL A   1      30.995  23.378  24.951  1.00  0.00    -0.167 F 
ATOM     27  F   UNL A   1      30.396  23.469  22.856  1.00  0.00    -0.167 F 
ENDBRANCH  19  24
ENDBRANCH   7   9
ENDBRANCH   6   7
ENDBRANCH   5   6
ENDBRANCH   4   5
ENDBRANCH   3   4
ENDBRANCH   2   3
ENDBRANCH   1   2
BRANCH   1  28
ATOM     28  O   UNL A   1      41.293  20.578  26.005  1.00  0.00    -0.376 OA
BRANCH  28  29
ATOM     29  C   UNL A   1      42.621  20.904  26.391  1.00  0.00     0.202 C 
BRANCH  29  30
ATOM     30  C   UNL A   1      43.462  21.854  25.536  1.00  0.00     0.261 C 
BRANCH  30  31
ATOM     31  O   UNL A   1      42.772  23.062  25.181  1.00  0.00    -0.460 OA
BRANCH  31  32
ATOM     32  C   UNL A   1      43.523  24.189  25.212  1.00  0.00     0.338 C 
ATOM     33  O   UNL A   1      44.451  24.486  24.477  1.00  0.00    -0.246 OA
BRANCH  32  34
ATOM     34  C   UNL A   1      42.918  25.140  26.163  1.00  0.00     0.060 A 
ATOM     35  C   UNL A   1      41.705  24.858  26.790  1.00  0.00     0.016 A 
ATOM     36  C   UNL A   1      43.602  26.335  26.431  1.00  0.00     0.016 A 
ATOM     37  C   UNL A   1      41.191  25.765  27.722  1.00  0.00     0.010 A 
ATOM     38  C   UNL A   1      43.077  27.246  27.346  1.00  0.00     0.010 A 
ATOM     39  C   UNL A   1      41.882  26.953  28.017  1.00  0.00    -0.014 A 
BRANCH  39  40
ATOM     40  C   UNL A   1      41.451  27.793  29.158  1.00  0.00     0.031 A 
ATOM     41  C   UNL A   1      40.281  28.721  29.067  1.00  0.00     0.074 A 
ATOM     42  C   UNL A   1      42.164  27.713  30.297  1.00  0.00     0.049 A 
ATOM     43  N   UNL A   1      39.741  29.455  30.007  1.00  0.00    -0.248 NA
ATOM     44  C   UNL A   1      39.638  28.851  27.753  1.00  0.00     0.031 C 
ATOM     45  C   UNL A   1      43.348  26.871  30.488  1.00  0.00     0.029 A 
ATOM     46  N   UNL A   1      42.001  28.341  31.503  1.00  0.00    -0.354 N 
ATOM     47  C   UNL A   1      38.675  30.113  29.412  1.00  0.00     0.074 A 
ATOM     48  C   UNL A   1      38.678  29.730  28.013  1.00  0.00     0.031 C 
ATOM     49  C   UNL A   1      43.794  27.025  31.744  1.00  0.00     0.029 A 
ATOM     50  C   UNL A   1      42.941  27.984  32.437  1.00  0.00     0.049 A 
ATOM     51  H   UNL A   1      41.278  28.986  31.683  1.00  0.00     0.167 HD
ATOM     52  C   UNL A   1      37.771  30.945  29.987  1.00  0.00     0.037 A 
ATOM     53  C   UNL A   1      43.096  28.382  33.712  1.00  0.00     0.037 A 
ATOM     54  C   UNL A   1      37.796  31.346  31.373  1.00  0.00     0.049 A 
ATOM     55  C   UNL A   1      42.112  29.350  34.305  1.00  0.00     0.074 A 
ATOM     56  C   UNL A   1      36.894  32.144  32.058  1.00  0.00     0.029 A 
ATOM     57  N   UNL A   1      38.785  31.000  32.281  1.00  0.00    -0.354 N 
ATOM     58  N   UNL A   1      41.049  29.887  33.759  1.00  0.00    -0.248 NA
ATOM     59  C   UNL A   1      42.350  29.758  35.695  1.00  0.00     0.031 C 
ATOM     60  C   UNL A   1      37.365  32.324  33.364  1.00  0.00     0.029 A 
ATOM     61  C   UNL A   1      38.536  31.598  33.509  1.00  0.00     0.049 A 
ATOM     62  H   UNL A   1      39.553  30.416  32.084  1.00  0.00     0.167 HD
ATOM     63  C   UNL A   1      40.478  30.680  34.745  1.00  0.00     0.074 A 
ATOM     64  C   UNL A   1      41.302  30.534  35.928  1.00  0.00     0.031 C 
ATOM     65  C   UNL A   1      39.372  31.461  34.675  1.00  0.00     0.037 A 
BRANCH  52  66
ATOM     66  C   UNL A   1      36.670  31.479  29.116  1.00  0.00     0.057 A 
ATOM     67  C   UNL A   1      36.668  32.813  28.693  1.00  0.00     0.134 A 
ATOM     68  C   UNL A   1      35.580  30.681  28.740  1.00  0.00     0.134 A 
ATOM     69  F   UNL A   1      37.674  33.636  29.027  1.00  0.00    -0.206 F 
ATOM     70  C   UNL A   1      35.621  33.336  27.930  1.00  0.00     0.040 A 
ATOM     71  C   UNL A   1      34.541  31.186  27.957  1.00  0.00     0.040 A 
ATOM     72  F   UNL A   1      35.523  29.392  29.109  1.00  0.00    -0.206 F 
ATOM     73  C   UNL A   1      34.557  32.519  27.555  1.00  0.00     0.006 A 
ENDBRANCH  52  66
BRANCH  53  74
ATOM     74  C   UNL A   1      44.214  27.846  34.523  1.00  0.00     0.057 A 
ATOM     75  C   UNL A   1      44.101  26.629  35.205  1.00  0.00     0.134 A 
ATOM     76  C   UNL A   1      45.427  28.536  34.623  1.00  0.00     0.134 A 
ATOM     77  F   UNL A   1      42.961  25.927  35.153  1.00  0.00    -0.206 F 
ATOM     78  C   UNL A   1      45.156  26.117  35.961  1.00  0.00     0.040 A 
ATOM     79  C   UNL A   1      46.498  28.024  35.355  1.00  0.00     0.040 A 
ATOM     80  F   UNL A   1      45.598  29.698  33.978  1.00  0.00    -0.206 F 
ATOM     81  C   UNL A   1      46.363  26.812  36.030  1.00  0.00     0.006 A 
ENDBRANCH  53  74
BRANCH  65  82
ATOM     82  C   UNL A   1      38.993  32.205  35.923  1.00  0.00     0.057 A 
ATOM     83  C   UNL A   1      39.413  33.526  36.127  1.00  0.00     0.134 A 
ATOM     84  C   UNL A   1      38.203  31.618  36.921  1.00  0.00     0.134 A 
ATOM     85  F   UNL A   1      40.174  34.147  35.214  1.00  0.00    -0.206 F 
ATOM     86  C   UNL A   1      39.057  34.236  37.274  1.00  0.00     0.040 A 
ATOM     87  C   UNL A   1      37.817  32.326  38.060  1.00  0.00     0.040 A 
ATOM     88  F   UNL A   1      37.750  30.362  36.778  1.00  0.00    -0.206 F 
ATOM     89  C   UNL A   1      38.248  33.639  38.240  1.00  0.00     0.006 A 
ENDBRANCH  65  82
ENDBRANCH  39  40
ENDBRANCH  32  34
ENDBRANCH  31  32
ENDBRANCH  30  31
ENDBRANCH  29  30
ENDBRANCH  28  29
ENDBRANCH   1  28
TORSDOF 19
ENDMDL
