MODEL 1
REMARK VINA RESULT:      -9.5      0.000      0.000
REMARK SMILES CC(C)(Cn1ccnc1C(N)=S)C(=O)OCCOCCOCCOC(=O)c1ccc(-c2c3nc(c(-c4c(F)cccc4F)c4ccc([nH]4)c(-c4c(F)cccc4F)c4nc(c(-c5c(F)cccc5F)c5ccc2[nH]5)C=C4)C=C3)cc1
REMARK SMILES IDX 19 1 18 2 17 3 16 4 15 5 13 6 14 7 2 8 1 9 3 10 4 11 5 12
REMARK SMILES IDX 6 13 9 14 7 15 8 16 10 17 12 18 11 19 20 22 21 23 22 24
REMARK SMILES IDX 23 25 24 26 25 27 26 28 27 29 28 30 80 31 29 32 79 33 30 34
REMARK SMILES IDX 31 35 32 36 73 37 33 38 78 39 72 40 74 41 34 42 77 43 71 44
REMARK SMILES IDX 70 45 35 47 61 48 44 49 60 50 45 51 48 52 59 53 75 54 46 55
REMARK SMILES IDX 47 56 58 58 76 59 49 60 36 61 37 62 42 63 38 64 39 65 41 66
REMARK SMILES IDX 43 67 40 68 62 69 63 70 68 71 64 72 65 73 67 74 69 75 66 76
REMARK SMILES IDX 50 77 51 78 56 79 52 80 53 81 55 82 57 83 54 84
REMARK H PARENT 11 20 11 21 74 46 48 57
REMARK Flexibility Score: inf
ROOT
ATOM      1  C   UNL A   1      33.688  30.756  27.528  1.00  0.00     0.188 C 
ENDROOT
BRANCH   1   2
ATOM      2  O   UNL A   1      32.642  30.997  26.602  1.00  0.00    -0.376 OA
BRANCH   2   3
ATOM      3  C   UNL A   1      31.779  29.922  26.254  1.00  0.00     0.202 C 
BRANCH   3   4
ATOM      4  C   UNL A   1      31.909  29.256  24.866  1.00  0.00     0.261 C 
BRANCH   4   5
ATOM      5  O   UNL A   1      30.903  28.265  24.510  1.00  0.00    -0.463 OA
BRANCH   5   6
ATOM      6  C   UNL A   1      31.206  26.989  24.833  1.00  0.00     0.313 C 
ATOM      7  O   UNL A   1      32.265  26.681  25.380  1.00  0.00    -0.252 OA
BRANCH   6   8
ATOM      8  C   UNL A   1      30.162  25.902  24.476  1.00  0.00     0.080 C 
ATOM      9  C   UNL A   1      28.922  26.692  24.031  1.00  0.00     0.025 C 
ATOM     10  C   UNL A   1      29.873  25.248  25.855  1.00  0.00     0.025 C 
BRANCH   8  11
ATOM     11  C   UNL A   1      30.536  24.693  23.542  1.00  0.00     0.142 C 
BRANCH  11  12
ATOM     12  N   UNL A   1      31.900  24.289  23.208  1.00  0.00    -0.328 N 
ATOM     13  C   UNL A   1      32.377  23.025  23.499  1.00  0.00     0.108 A 
ATOM     14  C   UNL A   1      32.882  24.886  22.433  1.00  0.00     0.167 A 
ATOM     15  C   UNL A   1      33.697  23.027  23.136  1.00  0.00     0.131 A 
ATOM     16  N   UNL A   1      34.025  24.221  22.569  1.00  0.00    -0.235 NA
BRANCH  14  17
ATOM     17  C   UNL A   1      32.853  26.035  21.556  1.00  0.00     0.140 C 
ATOM     18  S   UNL A   1      33.590  27.474  21.947  1.00  0.00    -0.057 S 
BRANCH  17  19
ATOM     19  N   UNL A   1      32.084  25.906  20.431  1.00  0.00    -0.387 N 
ATOM     20  H   UNL A   1      32.501  25.963  19.540  1.00  0.00     0.157 HD
ATOM     21  H   UNL A   1      31.114  25.755  20.512  1.00  0.00     0.157 HD
ENDBRANCH  17  19
ENDBRANCH  14  17
ENDBRANCH  11  12
ENDBRANCH   8  11
ENDBRANCH   6   8
ENDBRANCH   5   6
ENDBRANCH   4   5
ENDBRANCH   3   4
ENDBRANCH   2   3
ENDBRANCH   1   2
BRANCH   1  22
ATOM     22  C   UNL A   1      34.248  31.917  28.362  1.00  0.00     0.188 C 
BRANCH  22  23
ATOM     23  O   UNL A   1      34.525  33.114  27.651  1.00  0.00    -0.376 OA
BRANCH  23  24
ATOM     24  C   UNL A   1      33.838  34.302  28.015  1.00  0.00     0.202 C 
BRANCH  24  25
ATOM     25  C   UNL A   1      34.122  34.766  29.444  1.00  0.00     0.261 C 
BRANCH  25  26
ATOM     26  O   UNL A   1      33.005  34.572  30.309  1.00  0.00    -0.460 OA
BRANCH  26  27
ATOM     27  C   UNL A   1      33.101  35.207  31.497  1.00  0.00     0.338 C 
ATOM     28  O   UNL A   1      32.395  36.102  31.926  1.00  0.00    -0.246 OA
BRANCH  27  29
ATOM     29  C   UNL A   1      34.183  34.588  32.263  1.00  0.00     0.060 A 
ATOM     30  C   UNL A   1      35.165  35.435  32.786  1.00  0.00     0.016 A 
ATOM     31  C   UNL A   1      34.319  33.197  32.255  1.00  0.00     0.016 A 
ATOM     32  C   UNL A   1      36.402  34.906  33.072  1.00  0.00     0.010 A 
ATOM     33  C   UNL A   1      35.555  32.668  32.538  1.00  0.00     0.010 A 
ATOM     34  C   UNL A   1      36.603  33.553  32.813  1.00  0.00    -0.014 A 
BRANCH  34  35
ATOM     35  C   UNL A   1      37.965  33.130  32.545  1.00  0.00     0.031 A 
ATOM     36  C   UNL A   1      38.933  33.205  33.656  1.00  0.00     0.074 A 
ATOM     37  C   UNL A   1      38.232  32.550  31.357  1.00  0.00     0.049 A 
ATOM     38  N   UNL A   1      40.134  33.686  33.638  1.00  0.00    -0.248 NA
ATOM     39  C   UNL A   1      38.496  32.704  34.968  1.00  0.00     0.031 C 
ATOM     40  C   UNL A   1      37.270  32.180  30.308  1.00  0.00     0.029 A 
ATOM     41  N   UNL A   1      39.399  32.024  30.899  1.00  0.00    -0.354 N 
ATOM     42  C   UNL A   1      40.670  33.393  34.885  1.00  0.00     0.074 A 
ATOM     43  C   UNL A   1      39.595  32.879  35.698  1.00  0.00     0.031 C 
ATOM     44  C   UNL A   1      37.843  31.282  29.481  1.00  0.00     0.029 A 
ATOM     45  C   UNL A   1      39.227  31.098  29.881  1.00  0.00     0.049 A 
ATOM     46  H   UNL A   1      40.281  32.275  31.257  1.00  0.00     0.167 HD
ATOM     47  C   UNL A   1      42.005  33.392  35.125  1.00  0.00     0.037 A 
ATOM     48  C   UNL A   1      40.124  30.168  29.476  1.00  0.00     0.037 A 
ATOM     49  C   UNL A   1      42.750  34.163  34.174  1.00  0.00     0.049 A 
ATOM     50  C   UNL A   1      41.457  30.574  29.989  1.00  0.00     0.074 A 
ATOM     51  C   UNL A   1      42.713  35.485  33.771  1.00  0.00     0.029 A 
ATOM     52  N   UNL A   1      43.497  33.511  33.225  1.00  0.00    -0.354 N 
ATOM     53  N   UNL A   1      42.143  31.592  29.549  1.00  0.00    -0.248 NA
ATOM     54  C   UNL A   1      41.859  30.070  31.294  1.00  0.00     0.031 C 
ATOM     55  C   UNL A   1      43.014  35.461  32.380  1.00  0.00     0.029 A 
ATOM     56  C   UNL A   1      43.230  34.129  32.028  1.00  0.00     0.049 A 
ATOM     57  H   UNL A   1      44.105  32.751  33.373  1.00  0.00     0.167 HD
ATOM     58  C   UNL A   1      42.772  32.108  30.673  1.00  0.00     0.074 A 
ATOM     59  C   UNL A   1      42.649  31.070  31.691  1.00  0.00     0.031 C 
ATOM     60  C   UNL A   1      43.087  33.433  30.771  1.00  0.00     0.037 A 
BRANCH  47  61
ATOM     61  C   UNL A   1      42.626  32.434  36.092  1.00  0.00     0.057 A 
ATOM     62  C   UNL A   1      43.389  32.893  37.171  1.00  0.00     0.134 A 
ATOM     63  C   UNL A   1      42.667  31.045  35.851  1.00  0.00     0.134 A 
ATOM     64  F   UNL A   1      43.470  34.203  37.446  1.00  0.00    -0.206 F 
ATOM     65  C   UNL A   1      44.137  32.019  37.969  1.00  0.00     0.040 A 
ATOM     66  C   UNL A   1      43.367  30.159  36.669  1.00  0.00     0.040 A 
ATOM     67  F   UNL A   1      42.092  30.502  34.768  1.00  0.00    -0.206 F 
ATOM     68  C   UNL A   1      44.119  30.648  37.726  1.00  0.00     0.006 A 
ENDBRANCH  47  61
BRANCH  48  69
ATOM     69  C   UNL A   1      39.852  28.823  28.919  1.00  0.00     0.057 A 
ATOM     70  C   UNL A   1      40.294  28.470  27.638  1.00  0.00     0.134 A 
ATOM     71  C   UNL A   1      39.346  27.769  29.706  1.00  0.00     0.134 A 
ATOM     72  F   UNL A   1      40.844  29.388  26.832  1.00  0.00    -0.206 F 
ATOM     73  C   UNL A   1      40.236  27.151  27.166  1.00  0.00     0.040 A 
ATOM     74  C   UNL A   1      39.262  26.454  29.240  1.00  0.00     0.040 A 
ATOM     75  F   UNL A   1      38.991  27.957  30.985  1.00  0.00    -0.206 F 
ATOM     76  C   UNL A   1      39.719  26.138  27.968  1.00  0.00     0.006 A 
ENDBRANCH  48  69
BRANCH  60  77
ATOM     77  C   UNL A   1      42.967  34.284  29.537  1.00  0.00     0.057 A 
ATOM     78  C   UNL A   1      41.791  34.959  29.175  1.00  0.00     0.134 A 
ATOM     79  C   UNL A   1      44.112  34.565  28.784  1.00  0.00     0.134 A 
ATOM     80  F   UNL A   1      40.673  34.843  29.904  1.00  0.00    -0.206 F 
ATOM     81  C   UNL A   1      41.745  35.832  28.084  1.00  0.00     0.040 A 
ATOM     82  C   UNL A   1      44.088  35.461  27.712  1.00  0.00     0.040 A 
ATOM     83  F   UNL A   1      45.290  34.009  29.111  1.00  0.00    -0.206 F 
ATOM     84  C   UNL A   1      42.899  36.090  27.352  1.00  0.00     0.006 A 
ENDBRANCH  60  77
ENDBRANCH  34  35
ENDBRANCH  27  29
ENDBRANCH  26  27
ENDBRANCH  25  26
ENDBRANCH  24  25
ENDBRANCH  23  24
ENDBRANCH  22  23
ENDBRANCH   1  22
TORSDOF 21
ENDMDL
MODEL 2
REMARK VINA RESULT:      -9.3      4.714      9.594
REMARK SMILES CC(C)(Cn1ccnc1C(N)=S)C(=O)OCCOCCOCCOC(=O)c1ccc(-c2c3nc(c(-c4c(F)cccc4F)c4ccc([nH]4)c(-c4c(F)cccc4F)c4nc(c(-c5c(F)cccc5F)c5ccc2[nH]5)C=C4)C=C3)cc1
REMARK SMILES IDX 19 1 18 2 17 3 16 4 15 5 13 6 14 7 2 8 1 9 3 10 4 11 5 12
REMARK SMILES IDX 6 13 9 14 7 15 8 16 10 17 12 18 11 19 20 22 21 23 22 24
REMARK SMILES IDX 23 25 24 26 25 27 26 28 27 29 28 30 80 31 29 32 79 33 30 34
REMARK SMILES IDX 31 35 32 36 73 37 33 38 78 39 72 40 74 41 34 42 77 43 71 44
REMARK SMILES IDX 70 45 35 47 61 48 44 49 60 50 45 51 48 52 59 53 75 54 46 55
REMARK SMILES IDX 47 56 58 58 76 59 49 60 36 61 37 62 42 63 38 64 39 65 41 66
REMARK SMILES IDX 43 67 40 68 62 69 63 70 68 71 64 72 65 73 67 74 69 75 66 76
REMARK SMILES IDX 50 77 51 78 56 79 52 80 53 81 55 82 57 83 54 84
REMARK H PARENT 11 20 11 21 74 46 48 57
REMARK Flexibility Score: inf
ROOT
ATOM      1  C   UNL A   1      37.651  21.342  25.014  1.00  0.00     0.188 C 
ENDROOT
BRANCH   1   2
ATOM      2  O   UNL A   1      36.427  22.056  25.050  1.00  0.00    -0.376 OA
BRANCH   2   3
ATOM      3  C   UNL A   1      36.467  23.470  25.192  1.00  0.00     0.202 C 
BRANCH   3   4
ATOM      4  C   UNL A   1      35.149  24.261  25.344  1.00  0.00     0.261 C 
BRANCH   4   5
ATOM      5  O   UNL A   1      34.010  23.807  24.559  1.00  0.00    -0.463 OA
BRANCH   5   6
ATOM      6  C   UNL A   1      32.797  24.052  25.099  1.00  0.00     0.313 C 
ATOM      7  O   UNL A   1      32.636  24.854  26.019  1.00  0.00    -0.252 OA
BRANCH   6   8
ATOM      8  C   UNL A   1      31.593  23.271  24.520  1.00  0.00     0.080 C 
ATOM      9  C   UNL A   1      30.868  22.712  25.754  1.00  0.00     0.025 C 
ATOM     10  C   UNL A   1      32.283  22.098  23.768  1.00  0.00     0.025 C 
BRANCH   8  11
ATOM     11  C   UNL A   1      30.646  23.919  23.444  1.00  0.00     0.142 C 
BRANCH  11  12
ATOM     12  N   UNL A   1      30.387  25.351  23.317  1.00  0.00    -0.328 N 
ATOM     13  C   UNL A   1      29.525  26.014  24.171  1.00  0.00     0.108 A 
ATOM     14  C   UNL A   1      30.997  26.343  22.565  1.00  0.00     0.167 A 
ATOM     15  C   UNL A   1      29.454  27.301  23.711  1.00  0.00     0.131 A 
ATOM     16  N   UNL A   1      30.294  27.467  22.652  1.00  0.00    -0.235 NA
BRANCH  14  17
ATOM     17  C   UNL A   1      32.200  26.342  21.763  1.00  0.00     0.140 C 
ATOM     18  S   UNL A   1      33.593  27.114  22.244  1.00  0.00    -0.057 S 
BRANCH  17  19
ATOM     19  N   UNL A   1      32.092  25.763  20.527  1.00  0.00    -0.387 N 
ATOM     20  H   UNL A   1      32.900  25.593  19.991  1.00  0.00     0.157 HD
ATOM     21  H   UNL A   1      31.207  25.516  20.175  1.00  0.00     0.157 HD
ENDBRANCH  17  19
ENDBRANCH  14  17
ENDBRANCH  11  12
ENDBRANCH   8  11
ENDBRANCH   6   8
ENDBRANCH   5   6
ENDBRANCH   4   5
ENDBRANCH   3   4
ENDBRANCH   2   3
ENDBRANCH   1   2
BRANCH   1  22
ATOM     22  C   UNL A   1      38.862  21.866  25.800  1.00  0.00     0.188 C 
BRANCH  22  23
ATOM     23  O   UNL A   1      39.520  20.920  26.627  1.00  0.00    -0.376 OA
BRANCH  23  24
ATOM     24  C   UNL A   1      40.787  21.253  27.176  1.00  0.00     0.202 C 
BRANCH  24  25
ATOM     25  C   UNL A   1      41.916  20.324  26.728  1.00  0.00     0.261 C 
BRANCH  25  26
ATOM     26  O   UNL A   1      42.419  20.664  25.438  1.00  0.00    -0.460 OA
BRANCH  26  27
ATOM     27  C   UNL A   1      43.767  20.700  25.355  1.00  0.00     0.338 C 
ATOM     28  O   UNL A   1      44.535  19.761  25.261  1.00  0.00    -0.246 OA
BRANCH  27  29
ATOM     29  C   UNL A   1      44.188  22.101  25.319  1.00  0.00     0.060 A 
ATOM     30  C   UNL A   1      45.378  22.431  25.977  1.00  0.00     0.016 A 
ATOM     31  C   UNL A   1      43.302  23.071  24.839  1.00  0.00     0.016 A 
ATOM     32  C   UNL A   1      45.562  23.731  26.384  1.00  0.00     0.010 A 
ATOM     33  C   UNL A   1      43.485  24.370  25.248  1.00  0.00     0.010 A 
ATOM     34  C   UNL A   1      44.543  24.643  26.123  1.00  0.00    -0.014 A 
BRANCH  34  35
ATOM     35  C   UNL A   1      44.442  25.788  27.008  1.00  0.00     0.031 A 
ATOM     36  C   UNL A   1      45.465  26.843  26.877  1.00  0.00     0.074 A 
ATOM     37  C   UNL A   1      43.343  25.902  27.784  1.00  0.00     0.049 A 
ATOM     38  N   UNL A   1      46.132  27.430  27.818  1.00  0.00    -0.248 NA
ATOM     39  C   UNL A   1      45.811  27.284  25.517  1.00  0.00     0.031 C 
ATOM     40  C   UNL A   1      42.148  25.046  27.768  1.00  0.00     0.029 A 
ATOM     41  N   UNL A   1      42.994  26.898  28.640  1.00  0.00    -0.354 N 
ATOM     42  C   UNL A   1      46.855  28.434  27.188  1.00  0.00     0.074 A 
ATOM     43  C   UNL A   1      46.702  28.240  25.767  1.00  0.00     0.031 C 
ATOM     44  C   UNL A   1      41.132  25.697  28.371  1.00  0.00     0.029 A 
ATOM     45  C   UNL A   1      41.633  26.954  28.897  1.00  0.00     0.049 A 
ATOM     46  H   UNL A   1      43.645  27.520  29.038  1.00  0.00     0.167 HD
ATOM     47  C   UNL A   1      47.374  29.493  27.860  1.00  0.00     0.037 A 
ATOM     48  C   UNL A   1      40.950  28.009  29.401  1.00  0.00     0.037 A 
ATOM     49  C   UNL A   1      47.536  29.247  29.263  1.00  0.00     0.049 A 
ATOM     50  C   UNL A   1      41.935  28.924  30.032  1.00  0.00     0.074 A 
ATOM     51  C   UNL A   1      48.229  28.302  29.997  1.00  0.00     0.029 A 
ATOM     52  N   UNL A   1      46.669  29.837  30.148  1.00  0.00    -0.354 N 
ATOM     53  N   UNL A   1      42.582  28.672  31.134  1.00  0.00    -0.248 NA
ATOM     54  C   UNL A   1      42.505  29.976  29.201  1.00  0.00     0.031 C 
ATOM     55  C   UNL A   1      47.415  28.042  31.135  1.00  0.00     0.029 A 
ATOM     56  C   UNL A   1      46.287  28.855  31.030  1.00  0.00     0.049 A 
ATOM     57  H   UNL A   1      46.379  30.777  30.151  1.00  0.00     0.167 HD
ATOM     58  C   UNL A   1      43.840  29.226  30.942  1.00  0.00     0.074 A 
ATOM     59  C   UNL A   1      43.698  30.105  29.787  1.00  0.00     0.031 C 
ATOM     60  C   UNL A   1      44.948  28.713  31.553  1.00  0.00     0.037 A 
BRANCH  47  61
ATOM     61  C   UNL A   1      47.462  30.849  27.235  1.00  0.00     0.057 A 
ATOM     62  C   UNL A   1      48.683  31.526  27.153  1.00  0.00     0.134 A 
ATOM     63  C   UNL A   1      46.314  31.600  26.906  1.00  0.00     0.134 A 
ATOM     64  F   UNL A   1      49.828  30.922  27.506  1.00  0.00    -0.206 F 
ATOM     65  C   UNL A   1      48.758  32.866  26.755  1.00  0.00     0.040 A 
ATOM     66  C   UNL A   1      46.381  32.920  26.460  1.00  0.00     0.040 A 
ATOM     67  F   UNL A   1      45.079  31.108  27.079  1.00  0.00    -0.206 F 
ATOM     68  C   UNL A   1      47.607  33.563  26.397  1.00  0.00     0.006 A 
ENDBRANCH  47  61
BRANCH  48  69
ATOM     69  C   UNL A   1      39.548  28.402  29.125  1.00  0.00     0.057 A 
ATOM     70  C   UNL A   1      38.588  28.407  30.144  1.00  0.00     0.134 A 
ATOM     71  C   UNL A   1      39.157  28.997  27.910  1.00  0.00     0.134 A 
ATOM     72  F   UNL A   1      38.879  27.917  31.356  1.00  0.00    -0.206 F 
ATOM     73  C   UNL A   1      37.315  28.967  29.966  1.00  0.00     0.040 A 
ATOM     74  C   UNL A   1      37.884  29.538  27.711  1.00  0.00     0.040 A 
ATOM     75  F   UNL A   1      40.019  29.150  26.895  1.00  0.00    -0.206 F 
ATOM     76  C   UNL A   1      36.959  29.535  28.746  1.00  0.00     0.006 A 
ENDBRANCH  48  69
BRANCH  60  77
ATOM     77  C   UNL A   1      44.751  27.690  32.637  1.00  0.00     0.057 A 
ATOM     78  C   UNL A   1      44.582  26.320  32.385  1.00  0.00     0.134 A 
ATOM     79  C   UNL A   1      44.902  28.071  33.974  1.00  0.00     0.134 A 
ATOM     80  F   UNL A   1      44.544  25.845  31.133  1.00  0.00    -0.206 F 
ATOM     81  C   UNL A   1      44.516  25.380  33.418  1.00  0.00     0.040 A 
ATOM     82  C   UNL A   1      44.871  27.138  35.015  1.00  0.00     0.040 A 
ATOM     83  F   UNL A   1      45.134  29.355  34.291  1.00  0.00    -0.206 F 
ATOM     84  C   UNL A   1      44.666  25.788  34.739  1.00  0.00     0.006 A 
ENDBRANCH  60  77
ENDBRANCH  34  35
ENDBRANCH  27  29
ENDBRANCH  26  27
ENDBRANCH  25  26
ENDBRANCH  24  25
ENDBRANCH  23  24
ENDBRANCH  22  23
ENDBRANCH   1  22
TORSDOF 21
ENDMDL
MODEL 3
REMARK VINA RESULT:      -9.2      3.947      8.076
REMARK SMILES CC(C)(Cn1ccnc1C(N)=S)C(=O)OCCOCCOCCOC(=O)c1ccc(-c2c3nc(c(-c4c(F)cccc4F)c4ccc([nH]4)c(-c4c(F)cccc4F)c4nc(c(-c5c(F)cccc5F)c5ccc2[nH]5)C=C4)C=C3)cc1
REMARK SMILES IDX 19 1 18 2 17 3 16 4 15 5 13 6 14 7 2 8 1 9 3 10 4 11 5 12
REMARK SMILES IDX 6 13 9 14 7 15 8 16 10 17 12 18 11 19 20 22 21 23 22 24
REMARK SMILES IDX 23 25 24 26 25 27 26 28 27 29 28 30 80 31 29 32 79 33 30 34
REMARK SMILES IDX 31 35 32 36 73 37 33 38 78 39 72 40 74 41 34 42 77 43 71 44
REMARK SMILES IDX 70 45 35 47 61 48 44 49 60 50 45 51 48 52 59 53 75 54 46 55
REMARK SMILES IDX 47 56 58 58 76 59 49 60 36 61 37 62 42 63 38 64 39 65 41 66
REMARK SMILES IDX 43 67 40 68 62 69 63 70 68 71 64 72 65 73 67 74 69 75 66 76
REMARK SMILES IDX 50 77 51 78 56 79 52 80 53 81 55 82 57 83 54 84
REMARK H PARENT 11 20 11 21 74 46 48 57
REMARK Flexibility Score: inf
ROOT
ATOM      1  C   UNL A   1      32.864  34.531  28.109  1.00  0.00     0.188 C 
ENDROOT
BRANCH   1   2
ATOM      2  O   UNL A   1      32.692  33.190  27.681  1.00  0.00    -0.376 OA
BRANCH   2   3
ATOM      3  C   UNL A   1      31.765  32.922  26.636  1.00  0.00     0.202 C 
BRANCH   3   4
ATOM      4  C   UNL A   1      31.371  31.462  26.320  1.00  0.00     0.261 C 
BRANCH   4   5
ATOM      5  O   UNL A   1      31.806  30.440  27.260  1.00  0.00    -0.463 OA
BRANCH   5   6
ATOM      6  C   UNL A   1      32.923  29.767  26.911  1.00  0.00     0.313 C 
ATOM      7  O   UNL A   1      34.041  30.095  27.310  1.00  0.00    -0.252 OA
BRANCH   6   8
ATOM      8  C   UNL A   1      32.752  28.551  25.968  1.00  0.00     0.080 C 
ATOM      9  C   UNL A   1      31.537  27.798  26.529  1.00  0.00     0.025 C 
ATOM     10  C   UNL A   1      34.034  27.720  26.253  1.00  0.00     0.025 C 
BRANCH   8  11
ATOM     11  C   UNL A   1      32.745  28.731  24.405  1.00  0.00     0.142 C 
BRANCH  11  12
ATOM     12  N   UNL A   1      32.098  27.819  23.465  1.00  0.00    -0.328 N 
ATOM     13  C   UNL A   1      32.321  26.455  23.504  1.00  0.00     0.108 A 
ATOM     14  C   UNL A   1      31.072  28.000  22.551  1.00  0.00     0.167 A 
ATOM     15  C   UNL A   1      31.637  25.930  22.440  1.00  0.00     0.131 A 
ATOM     16  N   UNL A   1      30.948  26.913  21.796  1.00  0.00    -0.235 NA
BRANCH  14  17
ATOM     17  C   UNL A   1      30.176  29.109  22.315  1.00  0.00     0.140 C 
ATOM     18  S   UNL A   1      28.576  29.075  22.769  1.00  0.00    -0.057 S 
BRANCH  17  19
ATOM     19  N   UNL A   1      30.693  30.150  21.591  1.00  0.00    -0.387 N 
ATOM     20  H   UNL A   1      30.295  31.048  21.667  1.00  0.00     0.157 HD
ATOM     21  H   UNL A   1      31.463  30.001  20.996  1.00  0.00     0.157 HD
ENDBRANCH  17  19
ENDBRANCH  14  17
ENDBRANCH  11  12
ENDBRANCH   8  11
ENDBRANCH   6   8
ENDBRANCH   5   6
ENDBRANCH   4   5
ENDBRANCH   3   4
ENDBRANCH   2   3
ENDBRANCH   1   2
BRANCH   1  22
ATOM     22  C   UNL A   1      33.922  34.860  29.172  1.00  0.00     0.188 C 
BRANCH  22  23
ATOM     23  O   UNL A   1      33.780  34.190  30.415  1.00  0.00    -0.376 OA
BRANCH  23  24
ATOM     24  C   UNL A   1      34.824  33.334  30.855  1.00  0.00     0.202 C 
BRANCH  24  25
ATOM     25  C   UNL A   1      35.033  32.108  29.964  1.00  0.00     0.261 C 
BRANCH  25  26
ATOM     26  O   UNL A   1      36.352  31.576  30.075  1.00  0.00    -0.460 OA
BRANCH  26  27
ATOM     27  C   UNL A   1      36.461  30.523  30.913  1.00  0.00     0.338 C 
ATOM     28  O   UNL A   1      35.928  30.372  31.998  1.00  0.00    -0.246 OA
BRANCH  27  29
ATOM     29  C   UNL A   1      37.293  29.506  30.269  1.00  0.00     0.060 A 
ATOM     30  C   UNL A   1      37.786  28.475  31.074  1.00  0.00     0.016 A 
ATOM     31  C   UNL A   1      37.739  29.715  28.960  1.00  0.00     0.016 A 
ATOM     32  C   UNL A   1      38.914  27.805  30.663  1.00  0.00     0.010 A 
ATOM     33  C   UNL A   1      38.868  29.048  28.549  1.00  0.00     0.010 A 
ATOM     34  C   UNL A   1      39.504  28.204  29.466  1.00  0.00    -0.014 A 
BRANCH  34  35
ATOM     35  C   UNL A   1      40.926  27.955  29.319  1.00  0.00     0.031 A 
ATOM     36  C   UNL A   1      41.336  26.650  28.765  1.00  0.00     0.074 A 
ATOM     37  C   UNL A   1      41.780  28.975  29.545  1.00  0.00     0.049 A 
ATOM     38  N   UNL A   1      42.252  25.848  29.204  1.00  0.00    -0.248 NA
ATOM     39  C   UNL A   1      40.612  26.160  27.582  1.00  0.00     0.031 C 
ATOM     40  C   UNL A   1      41.440  30.378  29.822  1.00  0.00     0.029 A 
ATOM     41  N   UNL A   1      43.132  29.008  29.418  1.00  0.00    -0.354 N 
ATOM     42  C   UNL A   1      42.343  24.836  28.258  1.00  0.00     0.074 A 
ATOM     43  C   UNL A   1      41.250  25.019  27.335  1.00  0.00     0.031 C 
ATOM     44  C   UNL A   1      42.522  31.148  29.589  1.00  0.00     0.029 A 
ATOM     45  C   UNL A   1      43.641  30.287  29.250  1.00  0.00     0.049 A 
ATOM     46  H   UNL A   1      43.697  28.202  29.442  1.00  0.00     0.167 HD
ATOM     47  C   UNL A   1      43.424  24.023  28.159  1.00  0.00     0.037 A 
ATOM     48  C   UNL A   1      44.859  30.613  28.756  1.00  0.00     0.037 A 
ATOM     49  C   UNL A   1      44.203  23.970  29.361  1.00  0.00     0.049 A 
ATOM     50  C   UNL A   1      45.715  29.402  28.829  1.00  0.00     0.074 A 
ATOM     51  C   UNL A   1      43.924  23.622  30.670  1.00  0.00     0.029 A 
ATOM     52  N   UNL A   1      45.410  24.623  29.404  1.00  0.00    -0.354 N 
ATOM     53  N   UNL A   1      46.175  28.885  29.934  1.00  0.00    -0.248 NA
ATOM     54  C   UNL A   1      45.729  28.516  27.674  1.00  0.00     0.031 C 
ATOM     55  C   UNL A   1      44.717  24.495  31.467  1.00  0.00     0.029 A 
ATOM     56  C   UNL A   1      45.438  25.309  30.594  1.00  0.00     0.049 A 
ATOM     57  H   UNL A   1      46.115  24.603  28.718  1.00  0.00     0.167 HD
ATOM     58  C   UNL A   1      46.151  27.514  29.721  1.00  0.00     0.074 A 
ATOM     59  C   UNL A   1      45.973  27.353  28.282  1.00  0.00     0.031 C 
ATOM     60  C   UNL A   1      45.993  26.633  30.752  1.00  0.00     0.037 A 
BRANCH  47  61
ATOM     61  C   UNL A   1      43.894  23.503  26.838  1.00  0.00     0.057 A 
ATOM     62  C   UNL A   1      44.459  24.359  25.887  1.00  0.00     0.134 A 
ATOM     63  C   UNL A   1      43.596  22.197  26.395  1.00  0.00     0.134 A 
ATOM     64  F   UNL A   1      44.721  25.640  26.186  1.00  0.00    -0.206 F 
ATOM     65  C   UNL A   1      44.723  23.936  24.579  1.00  0.00     0.040 A 
ATOM     66  C   UNL A   1      43.901  21.750  25.110  1.00  0.00     0.040 A 
ATOM     67  F   UNL A   1      42.927  21.328  27.168  1.00  0.00    -0.206 F 
ATOM     68  C   UNL A   1      44.454  22.626  24.191  1.00  0.00     0.006 A 
ENDBRANCH  47  61
BRANCH  48  69
ATOM     69  C   UNL A   1      45.233  31.815  27.975  1.00  0.00     0.057 A 
ATOM     70  C   UNL A   1      46.351  32.583  28.325  1.00  0.00     0.134 A 
ATOM     71  C   UNL A   1      44.641  32.124  26.734  1.00  0.00     0.134 A 
ATOM     72  F   UNL A   1      47.020  32.332  29.458  1.00  0.00    -0.206 F 
ATOM     73  C   UNL A   1      46.849  33.596  27.495  1.00  0.00     0.040 A 
ATOM     74  C   UNL A   1      45.114  33.146  25.907  1.00  0.00     0.040 A 
ATOM     75  F   UNL A   1      43.633  31.393  26.238  1.00  0.00    -0.206 F 
ATOM     76  C   UNL A   1      46.231  33.881  26.281  1.00  0.00     0.006 A 
ENDBRANCH  48  69
BRANCH  60  77
ATOM     77  C   UNL A   1      46.094  27.160  32.157  1.00  0.00     0.057 A 
ATOM     78  C   UNL A   1      47.307  27.269  32.855  1.00  0.00     0.134 A 
ATOM     79  C   UNL A   1      44.966  27.725  32.760  1.00  0.00     0.134 A 
ATOM     80  F   UNL A   1      48.460  26.861  32.310  1.00  0.00    -0.206 F 
ATOM     81  C   UNL A   1      47.382  27.869  34.116  1.00  0.00     0.040 A 
ATOM     82  C   UNL A   1      45.034  28.357  34.005  1.00  0.00     0.040 A 
ATOM     83  F   UNL A   1      43.783  27.719  32.124  1.00  0.00    -0.206 F 
ATOM     84  C   UNL A   1      46.243  28.420  34.693  1.00  0.00     0.006 A 
ENDBRANCH  60  77
ENDBRANCH  34  35
ENDBRANCH  27  29
ENDBRANCH  26  27
ENDBRANCH  25  26
ENDBRANCH  24  25
ENDBRANCH  23  24
ENDBRANCH  22  23
ENDBRANCH   1  22
TORSDOF 21
ENDMDL
