MODEL 1
REMARK VINA RESULT:     -12.6      0.000      0.000
REMARK SMILES O=C(C[C@]12CSc3[nH]c(=O)sc3[C@H]1c1cc(Cl)ccc1OC2=O)OCCOCCOCCOC(=O)c1ccc(-c2c3nc(c(-c4c(F)cccc4F)c4ccc([nH]4)c(-c4c(F)cccc4F)c4nc(c(-c5c(F)cccc5F)c5ccc2[nH]5)C=C4)C=C3)cc1
REMARK SMILES IDX 29 1 28 2 27 3 26 4 25 5 24 6 2 7 1 8 3 9 4 10 5 11 13 12
REMARK SMILES IDX 22 13 6 14 12 15 14 16 21 17 23 18 7 19 11 20 15 21 20 22
REMARK SMILES IDX 8 23 9 24 16 25 19 26 10 28 17 29 18 30 30 31 31 32 32 33
REMARK SMILES IDX 33 34 34 35 35 36 36 37 37 38 89 39 38 40 88 41 39 42 40 43
REMARK SMILES IDX 41 44 82 45 42 46 87 47 81 48 83 49 43 50 86 51 80 52 79 53
REMARK SMILES IDX 44 55 70 56 53 57 69 58 54 59 57 60 68 61 84 62 55 63 56 64
REMARK SMILES IDX 67 66 85 67 58 68 45 69 46 70 51 71 47 72 48 73 50 74 52 75
REMARK SMILES IDX 49 76 71 77 72 78 77 79 73 80 74 81 76 82 78 83 75 84 59 85
REMARK SMILES IDX 60 86 65 87 61 88 62 89 64 90 66 91 63 92
REMARK H PARENT 8 27 83 54 57 65
REMARK Flexibility Score: inf
ROOT
ATOM      1  C   UNL A   1      34.036  34.449  29.957  1.00  0.00     0.188 C 
ENDROOT
BRANCH   1   2
ATOM      2  C   UNL A   1      33.752  34.002  28.482  1.00  0.00     0.188 C 
BRANCH   2   3
ATOM      3  O   UNL A   1      34.317  32.823  27.918  1.00  0.00    -0.376 OA
BRANCH   3   4
ATOM      4  C   UNL A   1      33.753  31.520  27.749  1.00  0.00     0.202 C 
BRANCH   4   5
ATOM      5  C   UNL A   1      34.659  30.096  27.711  1.00  0.00     0.261 C 
BRANCH   5   6
ATOM      6  O   UNL A   1      34.298  28.750  26.663  1.00  0.00    -0.463 OA
BRANCH   6   7
ATOM      7  C   UNL A   1      34.182  28.188  24.893  1.00  0.00     0.307 C 
ATOM      8  O   UNL A   1      34.804  28.523  23.877  1.00  0.00    -0.252 OA
BRANCH   7   9
ATOM      9  C   UNL A   1      33.429  26.972  24.778  1.00  0.00     0.143 C 
BRANCH   9  10
ATOM     10  C   UNL A   1      32.767  27.805  23.807  1.00  0.00     0.100 C 
ATOM     11  C   UNL A   1      33.013  29.226  24.298  1.00  0.00     0.097 C 
ATOM     12  C   UNL A   1      31.155  26.842  24.216  1.00  0.00     0.085 C 
ATOM     13  C   UNL A   1      33.639  27.503  22.094  1.00  0.00     0.319 C 
ATOM     14  S   UNL A   1      31.649  29.859  25.266  1.00  0.00    -0.106 SA
ATOM     15  C   UNL A   1      30.147  28.096  23.811  1.00  0.00     0.049 A 
ATOM     16  C   UNL A   1      31.436  24.989  23.607  1.00  0.00     0.006 A 
ATOM     17  O   UNL A   1      33.398  25.870  21.554  1.00  0.00    -0.426 OA
ATOM     18  O   UNL A   1      34.324  28.288  21.468  1.00  0.00    -0.251 OA
ATOM     19  C   UNL A   1      30.417  29.366  24.212  1.00  0.00     0.090 A 
ATOM     20  S   UNL A   1      28.729  28.266  22.750  1.00  0.00    -0.077 S 
ATOM     21  C   UNL A   1      31.224  23.870  24.380  1.00  0.00     0.028 A 
ATOM     22  C   UNL A   1      32.437  24.549  22.287  1.00  0.00     0.134 A 
ATOM     23  N   UNL A   1      29.674  30.378  23.677  1.00  0.00    -0.307 N 
ATOM     24  C   UNL A   1      28.681  30.016  22.826  1.00  0.00     0.305 A 
ATOM     25  C   UNL A   1      31.983  22.666  24.218  1.00  0.00     0.041 A 
ATOM     26  C   UNL A   1      33.109  23.336  22.130  1.00  0.00     0.049 A 
ATOM     27  H   UNL A   1      29.849  31.320  23.897  1.00  0.00     0.171 HD
ATOM     28  O   UNL A   1      27.914  30.745  22.227  1.00  0.00    -0.257 OA
ATOM     29  Cl  UNL A   1      31.678  21.406  25.377  1.00  0.00    -0.084 Cl
ATOM     30  C   UNL A   1      32.908  22.427  23.174  1.00  0.00     0.024 A 
ENDBRANCH   9  10
ENDBRANCH   7   9
ENDBRANCH   6   7
ENDBRANCH   5   6
ENDBRANCH   4   5
ENDBRANCH   3   4
ENDBRANCH   2   3
ENDBRANCH   1   2
BRANCH   1  31
ATOM     31  O   UNL A   1      34.103  33.418  30.903  1.00  0.00    -0.376 OA
BRANCH  31  32
ATOM     32  C   UNL A   1      35.212  33.561  31.774  1.00  0.00     0.202 C 
BRANCH  32  33
ATOM     33  C   UNL A   1      36.334  32.476  31.661  1.00  0.00     0.261 C 
BRANCH  33  34
ATOM     34  O   UNL A   1      36.394  31.748  30.378  1.00  0.00    -0.460 OA
BRANCH  34  35
ATOM     35  C   UNL A   1      37.368  32.054  29.463  1.00  0.00     0.338 C 
ATOM     36  O   UNL A   1      37.522  33.153  28.955  1.00  0.00    -0.246 OA
BRANCH  35  37
ATOM     37  C   UNL A   1      38.456  30.986  29.419  1.00  0.00     0.060 A 
ATOM     38  C   UNL A   1      39.808  31.204  29.690  1.00  0.00     0.016 A 
ATOM     39  C   UNL A   1      38.088  29.697  28.973  1.00  0.00     0.016 A 
ATOM     40  C   UNL A   1      40.754  30.162  29.479  1.00  0.00     0.010 A 
ATOM     41  C   UNL A   1      39.040  28.677  28.721  1.00  0.00     0.010 A 
ATOM     42  C   UNL A   1      40.400  28.894  28.947  1.00  0.00    -0.014 A 
BRANCH  42  43
ATOM     43  C   UNL A   1      41.409  27.773  28.957  1.00  0.00     0.031 A 
ATOM     44  C   UNL A   1      42.231  27.811  30.196  1.00  0.00     0.074 A 
ATOM     45  C   UNL A   1      41.610  26.692  28.147  1.00  0.00     0.049 A 
ATOM     46  N   UNL A   1      43.492  28.072  30.299  1.00  0.00    -0.248 NA
ATOM     47  C   UNL A   1      41.525  27.684  31.479  1.00  0.00     0.031 C 
ATOM     48  C   UNL A   1      40.782  26.271  27.036  1.00  0.00     0.029 A 
ATOM     49  N   UNL A   1      42.583  25.701  28.139  1.00  0.00    -0.354 N 
ATOM     50  C   UNL A   1      43.785  27.941  31.653  1.00  0.00     0.074 A 
ATOM     51  C   UNL A   1      42.521  27.887  32.341  1.00  0.00     0.031 C 
ATOM     52  C   UNL A   1      41.138  25.053  26.573  1.00  0.00     0.029 A 
ATOM     53  C   UNL A   1      42.314  24.607  27.291  1.00  0.00     0.049 A 
ATOM     54  H   UNL A   1      43.400  25.759  28.684  1.00  0.00     0.167 HD
ATOM     55  C   UNL A   1      45.037  27.624  32.078  1.00  0.00     0.037 A 
ATOM     56  C   UNL A   1      42.972  23.416  27.145  1.00  0.00     0.037 A 
ATOM     57  C   UNL A   1      46.022  27.891  31.061  1.00  0.00     0.049 A 
ATOM     58  C   UNL A   1      44.328  23.564  27.709  1.00  0.00     0.074 A 
ATOM     59  C   UNL A   1      46.438  29.004  30.356  1.00  0.00     0.029 A 
ATOM     60  N   UNL A   1      46.563  26.820  30.398  1.00  0.00    -0.354 N 
ATOM     61  N   UNL A   1      45.282  24.251  27.158  1.00  0.00    -0.248 NA
ATOM     62  C   UNL A   1      44.472  23.311  29.130  1.00  0.00     0.031 C 
ATOM     63  C   UNL A   1      46.776  28.518  29.058  1.00  0.00     0.029 A 
ATOM     64  C   UNL A   1      46.614  27.134  29.066  1.00  0.00     0.049 A 
ATOM     65  H   UNL A   1      46.862  25.975  30.806  1.00  0.00     0.167 HD
ATOM     66  C   UNL A   1      45.855  24.939  28.213  1.00  0.00     0.074 A 
ATOM     67  C   UNL A   1      45.356  24.270  29.414  1.00  0.00     0.031 C 
ATOM     68  C   UNL A   1      46.448  26.153  28.020  1.00  0.00     0.037 A 
BRANCH  55  69
ATOM     69  C   UNL A   1      45.313  26.688  33.234  1.00  0.00     0.057 A 
ATOM     70  C   UNL A   1      44.971  25.319  33.250  1.00  0.00     0.134 A 
ATOM     71  C   UNL A   1      46.239  27.080  34.218  1.00  0.00     0.134 A 
ATOM     72  F   UNL A   1      44.151  24.768  32.348  1.00  0.00    -0.206 F 
ATOM     73  C   UNL A   1      45.541  24.404  34.138  1.00  0.00     0.040 A 
ATOM     74  C   UNL A   1      46.855  26.163  35.077  1.00  0.00     0.040 A 
ATOM     75  F   UNL A   1      46.648  28.354  34.308  1.00  0.00    -0.206 F 
ATOM     76  C   UNL A   1      46.516  24.816  35.029  1.00  0.00     0.006 A 
ENDBRANCH  55  69
BRANCH  56  77
ATOM     77  C   UNL A   1      42.457  22.059  26.777  1.00  0.00     0.057 A 
ATOM     78  C   UNL A   1      41.470  21.427  27.551  1.00  0.00     0.134 A 
ATOM     79  C   UNL A   1      43.114  21.225  25.848  1.00  0.00     0.134 A 
ATOM     80  F   UNL A   1      40.834  22.090  28.527  1.00  0.00    -0.206 F 
ATOM     81  C   UNL A   1      41.160  20.065  27.426  1.00  0.00     0.040 A 
ATOM     82  C   UNL A   1      42.816  19.856  25.716  1.00  0.00     0.040 A 
ATOM     83  F   UNL A   1      44.113  21.698  25.089  1.00  0.00    -0.206 F 
ATOM     84  C   UNL A   1      41.842  19.268  26.514  1.00  0.00     0.006 A 
ENDBRANCH  56  77
BRANCH  68  85
ATOM     85  C   UNL A   1      46.730  26.590  26.607  1.00  0.00     0.057 A 
ATOM     86  C   UNL A   1      48.018  26.417  26.089  1.00  0.00     0.134 A 
ATOM     87  C   UNL A   1      45.817  27.276  25.796  1.00  0.00     0.134 A 
ATOM     88  F   UNL A   1      48.952  25.775  26.807  1.00  0.00    -0.206 F 
ATOM     89  C   UNL A   1      48.390  26.924  24.841  1.00  0.00     0.040 A 
ATOM     90  C   UNL A   1      46.169  27.776  24.537  1.00  0.00     0.040 A 
ATOM     91  F   UNL A   1      44.572  27.529  26.221  1.00  0.00    -0.206 F 
ATOM     92  C   UNL A   1      47.465  27.611  24.062  1.00  0.00     0.006 A 
ENDBRANCH  68  85
ENDBRANCH  42  43
ENDBRANCH  35  37
ENDBRANCH  34  35
ENDBRANCH  33  34
ENDBRANCH  32  33
ENDBRANCH  31  32
ENDBRANCH   1  31
TORSDOF 18
ENDMDL
MODEL 2
REMARK VINA RESULT:     -12.5      2.011      3.328
REMARK SMILES O=C(C[C@]12CSc3[nH]c(=O)sc3[C@H]1c1cc(Cl)ccc1OC2=O)OCCOCCOCCOC(=O)c1ccc(-c2c3nc(c(-c4c(F)cccc4F)c4ccc([nH]4)c(-c4c(F)cccc4F)c4nc(c(-c5c(F)cccc5F)c5ccc2[nH]5)C=C4)C=C3)cc1
REMARK SMILES IDX 29 1 28 2 27 3 26 4 25 5 24 6 2 7 1 8 3 9 4 10 5 11 13 12
REMARK SMILES IDX 22 13 6 14 12 15 14 16 21 17 23 18 7 19 11 20 15 21 20 22
REMARK SMILES IDX 8 23 9 24 16 25 19 26 10 28 17 29 18 30 30 31 31 32 32 33
REMARK SMILES IDX 33 34 34 35 35 36 36 37 37 38 89 39 38 40 88 41 39 42 40 43
REMARK SMILES IDX 41 44 82 45 42 46 87 47 81 48 83 49 43 50 86 51 80 52 79 53
REMARK SMILES IDX 44 55 70 56 53 57 69 58 54 59 57 60 68 61 84 62 55 63 56 64
REMARK SMILES IDX 67 66 85 67 58 68 45 69 46 70 51 71 47 72 48 73 50 74 52 75
REMARK SMILES IDX 49 76 71 77 72 78 77 79 73 80 74 81 76 82 78 83 75 84 59 85
REMARK SMILES IDX 60 86 65 87 61 88 62 89 64 90 66 91 63 92
REMARK H PARENT 8 27 83 54 57 65
REMARK Flexibility Score: inf
ROOT
ATOM      1  C   UNL A   1      34.093  34.509  29.682  1.00  0.00     0.188 C 
ENDROOT
BRANCH   1   2
ATOM      2  C   UNL A   1      33.880  33.986  28.221  1.00  0.00     0.188 C 
BRANCH   2   3
ATOM      3  O   UNL A   1      34.365  32.720  27.783  1.00  0.00    -0.376 OA
BRANCH   3   4
ATOM      4  C   UNL A   1      33.816  31.412  27.957  1.00  0.00     0.202 C 
BRANCH   4   5
ATOM      5  C   UNL A   1      34.500  30.008  27.316  1.00  0.00     0.261 C 
BRANCH   5   6
ATOM      6  O   UNL A   1      33.563  28.651  26.747  1.00  0.00    -0.463 OA
BRANCH   6   7
ATOM      7  C   UNL A   1      31.860  27.908  26.658  1.00  0.00     0.307 C 
ATOM      8  O   UNL A   1      31.181  27.296  27.492  1.00  0.00    -0.252 OA
BRANCH   7   9
ATOM      9  C   UNL A   1      31.142  28.381  25.510  1.00  0.00     0.143 C 
BRANCH   9  10
ATOM     10  C   UNL A   1      31.353  27.000  25.160  1.00  0.00     0.100 C 
ATOM     11  C   UNL A   1      32.452  26.534  26.105  1.00  0.00     0.097 C 
ATOM     12  C   UNL A   1      31.724  27.606  23.373  1.00  0.00     0.085 C 
ATOM     13  C   UNL A   1      29.689  26.052  25.509  1.00  0.00     0.319 C 
ATOM     14  S   UNL A   1      34.075  26.617  25.359  1.00  0.00    -0.106 SA
ATOM     15  C   UNL A   1      32.714  26.327  23.004  1.00  0.00     0.049 A 
ATOM     16  C   UNL A   1      30.040  28.351  22.670  1.00  0.00     0.006 A 
ATOM     17  O   UNL A   1      28.422  26.613  24.462  1.00  0.00    -0.426 OA
ATOM     18  O   UNL A   1      29.484  25.217  26.369  1.00  0.00    -0.251 OA
ATOM     19  C   UNL A   1      33.650  25.891  23.888  1.00  0.00     0.090 A 
ATOM     20  S   UNL A   1      32.787  25.148  21.674  1.00  0.00    -0.077 S 
ATOM     21  C   UNL A   1      29.913  29.594  22.095  1.00  0.00     0.028 A 
ATOM     22  C   UNL A   1      28.479  27.811  23.133  1.00  0.00     0.134 A 
ATOM     23  N   UNL A   1      34.286  24.715  23.618  1.00  0.00    -0.307 N 
ATOM     24  C   UNL A   1      33.965  24.107  22.449  1.00  0.00     0.305 A 
ATOM     25  C   UNL A   1      28.709  30.364  22.179  1.00  0.00     0.041 A 
ATOM     26  C   UNL A   1      27.311  28.574  23.137  1.00  0.00     0.049 A 
ATOM     27  H   UNL A   1      34.944  24.328  24.239  1.00  0.00     0.171 HD
ATOM     28  O   UNL A   1      34.393  23.052  22.018  1.00  0.00    -0.257 OA
ATOM     29  Cl  UNL A   1      28.779  31.972  21.518  1.00  0.00    -0.084 Cl
ATOM     30  C   UNL A   1      27.485  29.895  22.711  1.00  0.00     0.024 A 
ENDBRANCH   9  10
ENDBRANCH   7   9
ENDBRANCH   6   7
ENDBRANCH   5   6
ENDBRANCH   4   5
ENDBRANCH   3   4
ENDBRANCH   2   3
ENDBRANCH   1   2
BRANCH   1  31
ATOM     31  O   UNL A   1      34.030  33.539  30.692  1.00  0.00    -0.376 OA
BRANCH  31  32
ATOM     32  C   UNL A   1      35.071  33.686  31.642  1.00  0.00     0.202 C 
BRANCH  32  33
ATOM     33  C   UNL A   1      36.210  32.613  31.602  1.00  0.00     0.261 C 
BRANCH  33  34
ATOM     34  O   UNL A   1      36.285  31.805  30.368  1.00  0.00    -0.460 OA
BRANCH  34  35
ATOM     35  C   UNL A   1      37.244  32.081  29.428  1.00  0.00     0.338 C 
ATOM     36  O   UNL A   1      37.385  33.162  28.878  1.00  0.00    -0.246 OA
BRANCH  35  37
ATOM     37  C   UNL A   1      38.335  31.016  29.406  1.00  0.00     0.060 A 
ATOM     38  C   UNL A   1      39.677  31.234  29.721  1.00  0.00     0.016 A 
ATOM     39  C   UNL A   1      37.984  29.731  28.935  1.00  0.00     0.016 A 
ATOM     40  C   UNL A   1      40.632  30.196  29.528  1.00  0.00     0.010 A 
ATOM     41  C   UNL A   1      38.946  28.716  28.701  1.00  0.00     0.010 A 
ATOM     42  C   UNL A   1      40.298  28.933  28.971  1.00  0.00    -0.014 A 
BRANCH  42  43
ATOM     43  C   UNL A   1      41.310  27.815  29.000  1.00  0.00     0.031 A 
ATOM     44  C   UNL A   1      42.068  27.820  30.279  1.00  0.00     0.074 A 
ATOM     45  C   UNL A   1      41.554  26.757  28.171  1.00  0.00     0.049 A 
ATOM     46  N   UNL A   1      43.322  28.080  30.453  1.00  0.00    -0.248 NA
ATOM     47  C   UNL A   1      41.300  27.656  31.522  1.00  0.00     0.031 C 
ATOM     48  C   UNL A   1      40.784  26.366  27.009  1.00  0.00     0.029 A 
ATOM     49  N   UNL A   1      42.530  25.769  28.185  1.00  0.00    -0.354 N 
ATOM     50  C   UNL A   1      43.547  27.912  31.816  1.00  0.00     0.074 A 
ATOM     51  C   UNL A   1      42.250  27.836  32.438  1.00  0.00     0.031 C 
ATOM     52  C   UNL A   1      41.167  25.163  26.531  1.00  0.00     0.029 A 
ATOM     53  C   UNL A   1      42.307  24.698  27.294  1.00  0.00     0.049 A 
ATOM     54  H   UNL A   1      43.319  25.813  28.772  1.00  0.00     0.167 HD
ATOM     55  C   UNL A   1      44.778  27.586  32.293  1.00  0.00     0.037 A 
ATOM     56  C   UNL A   1      42.975  23.513  27.148  1.00  0.00     0.037 A 
ATOM     57  C   UNL A   1      45.811  27.883  31.335  1.00  0.00     0.049 A 
ATOM     58  C   UNL A   1      44.301  23.648  27.783  1.00  0.00     0.074 A 
ATOM     59  C   UNL A   1      46.258  29.016  30.683  1.00  0.00     0.029 A 
ATOM     60  N   UNL A   1      46.388  26.832  30.670  1.00  0.00    -0.354 N 
ATOM     61  N   UNL A   1      45.279  24.353  27.299  1.00  0.00    -0.248 NA
ATOM     62  C   UNL A   1      44.375  23.356  29.202  1.00  0.00     0.031 C 
ATOM     63  C   UNL A   1      46.662  28.568  29.390  1.00  0.00     0.029 A 
ATOM     64  C   UNL A   1      46.505  27.183  29.352  1.00  0.00     0.049 A 
ATOM     65  H   UNL A   1      46.670  25.977  31.069  1.00  0.00     0.167 HD
ATOM     66  C   UNL A   1      45.796  25.012  28.400  1.00  0.00     0.074 A 
ATOM     67  C   UNL A   1      45.240  24.308  29.556  1.00  0.00     0.031 C 
ATOM     68  C   UNL A   1      46.394  26.232  28.272  1.00  0.00     0.037 A 
BRANCH  55  69
ATOM     69  C   UNL A   1      44.999  26.618  33.435  1.00  0.00     0.057 A 
ATOM     70  C   UNL A   1      44.694  25.241  33.383  1.00  0.00     0.134 A 
ATOM     71  C   UNL A   1      45.843  26.999  34.493  1.00  0.00     0.134 A 
ATOM     72  F   UNL A   1      43.953  24.701  32.409  1.00  0.00    -0.206 F 
ATOM     73  C   UNL A   1      45.227  24.311  34.279  1.00  0.00     0.040 A 
ATOM     74  C   UNL A   1      46.424  26.069  35.364  1.00  0.00     0.040 A 
ATOM     75  F   UNL A   1      46.211  28.280  34.653  1.00  0.00    -0.206 F 
ATOM     76  C   UNL A   1      46.127  24.717  35.248  1.00  0.00     0.006 A 
ENDBRANCH  55  69
BRANCH  56  77
ATOM     77  C   UNL A   1      42.485  22.167  26.717  1.00  0.00     0.057 A 
ATOM     78  C   UNL A   1      41.460  21.511  27.421  1.00  0.00     0.134 A 
ATOM     79  C   UNL A   1      43.191  21.359  25.800  1.00  0.00     0.134 A 
ATOM     80  F   UNL A   1      40.773  22.147  28.381  1.00  0.00    -0.206 F 
ATOM     81  C   UNL A   1      41.162  20.153  27.243  1.00  0.00     0.040 A 
ATOM     82  C   UNL A   1      42.904  19.994  25.615  1.00  0.00     0.040 A 
ATOM     83  F   UNL A   1      44.226  21.855  25.107  1.00  0.00    -0.206 F 
ATOM     84  C   UNL A   1      41.892  19.383  26.346  1.00  0.00     0.006 A 
ENDBRANCH  56  77
BRANCH  68  85
ATOM     85  C   UNL A   1      46.745  26.709  26.887  1.00  0.00     0.057 A 
ATOM     86  C   UNL A   1      45.768  27.362  26.128  1.00  0.00     0.134 A 
ATOM     87  C   UNL A   1      47.961  26.443  26.245  1.00  0.00     0.134 A 
ATOM     88  F   UNL A   1      44.574  27.648  26.670  1.00  0.00    -0.206 F 
ATOM     89  C   UNL A   1      45.976  27.707  24.790  1.00  0.00     0.040 A 
ATOM     90  C   UNL A   1      48.191  26.797  24.910  1.00  0.00     0.040 A 
ATOM     91  F   UNL A   1      48.943  25.785  26.875  1.00  0.00    -0.206 F 
ATOM     92  C   UNL A   1      47.190  27.420  24.175  1.00  0.00     0.006 A 
ENDBRANCH  68  85
ENDBRANCH  42  43
ENDBRANCH  35  37
ENDBRANCH  34  35
ENDBRANCH  33  34
ENDBRANCH  32  33
ENDBRANCH  31  32
ENDBRANCH   1  31
TORSDOF 18
ENDMDL
MODEL 3
REMARK VINA RESULT:     -12.4      3.921      5.814
REMARK SMILES O=C(C[C@]12CSc3[nH]c(=O)sc3[C@H]1c1cc(Cl)ccc1OC2=O)OCCOCCOCCOC(=O)c1ccc(-c2c3nc(c(-c4c(F)cccc4F)c4ccc([nH]4)c(-c4c(F)cccc4F)c4nc(c(-c5c(F)cccc5F)c5ccc2[nH]5)C=C4)C=C3)cc1
REMARK SMILES IDX 29 1 28 2 27 3 26 4 25 5 24 6 2 7 1 8 3 9 4 10 5 11 13 12
REMARK SMILES IDX 22 13 6 14 12 15 14 16 21 17 23 18 7 19 11 20 15 21 20 22
REMARK SMILES IDX 8 23 9 24 16 25 19 26 10 28 17 29 18 30 30 31 31 32 32 33
REMARK SMILES IDX 33 34 34 35 35 36 36 37 37 38 89 39 38 40 88 41 39 42 40 43
REMARK SMILES IDX 41 44 82 45 42 46 87 47 81 48 83 49 43 50 86 51 80 52 79 53
REMARK SMILES IDX 44 55 70 56 53 57 69 58 54 59 57 60 68 61 84 62 55 63 56 64
REMARK SMILES IDX 67 66 85 67 58 68 45 69 46 70 51 71 47 72 48 73 50 74 52 75
REMARK SMILES IDX 49 76 71 77 72 78 77 79 73 80 74 81 76 82 78 83 75 84 59 85
REMARK SMILES IDX 60 86 65 87 61 88 62 89 64 90 66 91 63 92
REMARK H PARENT 8 27 83 54 57 65
REMARK Flexibility Score: inf
ROOT
ATOM      1  C   UNL A   1      34.428  34.931  28.063  1.00  0.00     0.188 C 
ENDROOT
BRANCH   1   2
ATOM      2  C   UNL A   1      34.152  33.570  28.787  1.00  0.00     0.188 C 
BRANCH   2   3
ATOM      3  O   UNL A   1      33.343  32.547  28.212  1.00  0.00    -0.376 OA
BRANCH   3   4
ATOM      4  C   UNL A   1      33.635  31.622  27.163  1.00  0.00     0.202 C 
BRANCH   4   5
ATOM      5  C   UNL A   1      34.292  30.086  27.412  1.00  0.00     0.261 C 
BRANCH   5   6
ATOM      6  O   UNL A   1      33.363  28.614  27.322  1.00  0.00    -0.463 OA
BRANCH   6   7
ATOM      7  C   UNL A   1      31.715  27.878  26.868  1.00  0.00     0.307 C 
ATOM      8  O   UNL A   1      30.886  27.240  27.528  1.00  0.00    -0.252 OA
BRANCH   7   9
ATOM      9  C   UNL A   1      31.239  28.393  25.617  1.00  0.00     0.143 C 
BRANCH   9  10
ATOM     10  C   UNL A   1      31.459  27.009  25.285  1.00  0.00     0.100 C 
ATOM     11  C   UNL A   1      32.553  26.560  26.244  1.00  0.00     0.097 C 
ATOM     12  C   UNL A   1      31.840  27.595  23.494  1.00  0.00     0.085 C 
ATOM     13  C   UNL A   1      29.797  26.059  25.636  1.00  0.00     0.319 C 
ATOM     14  S   UNL A   1      34.181  26.641  25.508  1.00  0.00    -0.106 SA
ATOM     15  C   UNL A   1      32.838  26.315  23.148  1.00  0.00     0.049 A 
ATOM     16  C   UNL A   1      30.157  28.323  22.770  1.00  0.00     0.006 A 
ATOM     17  O   UNL A   1      28.535  26.602  24.573  1.00  0.00    -0.426 OA
ATOM     18  O   UNL A   1      29.589  25.234  26.504  1.00  0.00    -0.251 OA
ATOM     19  C   UNL A   1      33.769  25.895  24.044  1.00  0.00     0.090 A 
ATOM     20  S   UNL A   1      32.925  25.120  21.834  1.00  0.00    -0.077 S 
ATOM     21  C   UNL A   1      30.030  29.559  22.179  1.00  0.00     0.028 A 
ATOM     22  C   UNL A   1      28.596  27.783  23.229  1.00  0.00     0.134 A 
ATOM     23  N   UNL A   1      34.412  24.717  23.793  1.00  0.00    -0.307 N 
ATOM     24  C   UNL A   1      34.102  24.093  22.629  1.00  0.00     0.305 A 
ATOM     25  C   UNL A   1      28.822  30.325  22.244  1.00  0.00     0.041 A 
ATOM     26  C   UNL A   1      27.424  28.541  23.215  1.00  0.00     0.049 A 
ATOM     27  H   UNL A   1      35.067  24.341  24.423  1.00  0.00     0.171 HD
ATOM     28  O   UNL A   1      34.537  23.036  22.215  1.00  0.00    -0.257 OA
ATOM     29  Cl  UNL A   1      28.890  31.925  21.564  1.00  0.00    -0.084 Cl
ATOM     30  C   UNL A   1      27.596  29.858  22.773  1.00  0.00     0.024 A 
ENDBRANCH   9  10
ENDBRANCH   7   9
ENDBRANCH   6   7
ENDBRANCH   5   6
ENDBRANCH   4   5
ENDBRANCH   3   4
ENDBRANCH   2   3
ENDBRANCH   1   2
BRANCH   1  31
ATOM     31  O   UNL A   1      33.709  36.034  28.543  1.00  0.00    -0.376 OA
BRANCH  31  32
ATOM     32  C   UNL A   1      32.973  35.724  29.714  1.00  0.00     0.202 C 
BRANCH  32  33
ATOM     33  C   UNL A   1      33.064  36.755  30.889  1.00  0.00     0.261 C 
BRANCH  33  34
ATOM     34  O   UNL A   1      33.838  36.317  32.067  1.00  0.00    -0.460 OA
BRANCH  34  35
ATOM     35  C   UNL A   1      33.617  35.077  32.608  1.00  0.00     0.338 C 
ATOM     36  O   UNL A   1      32.533  34.675  33.000  1.00  0.00    -0.246 OA
BRANCH  35  37
ATOM     37  C   UNL A   1      34.780  34.129  32.338  1.00  0.00     0.060 A 
ATOM     38  C   UNL A   1      34.667  32.749  32.159  1.00  0.00     0.016 A 
ATOM     39  C   UNL A   1      36.084  34.669  32.372  1.00  0.00     0.016 A 
ATOM     40  C   UNL A   1      35.837  31.946  32.055  1.00  0.00     0.010 A 
ATOM     41  C   UNL A   1      37.247  33.859  32.313  1.00  0.00     0.010 A 
ATOM     42  C   UNL A   1      37.150  32.474  32.177  1.00  0.00    -0.014 A 
BRANCH  42  43
ATOM     43  C   UNL A   1      38.337  31.607  31.839  1.00  0.00     0.031 A 
ATOM     44  C   UNL A   1      39.120  31.281  33.061  1.00  0.00     0.074 A 
ATOM     45  C   UNL A   1      38.733  30.973  30.696  1.00  0.00     0.049 A 
ATOM     46  N   UNL A   1      40.316  31.670  33.358  1.00  0.00    -0.248 NA
ATOM     47  C   UNL A   1      38.427  30.557  34.136  1.00  0.00     0.031 C 
ATOM     48  C   UNL A   1      38.007  30.900  29.445  1.00  0.00     0.029 A 
ATOM     49  N   UNL A   1      39.862  30.224  30.389  1.00  0.00    -0.354 N 
ATOM     50  C   UNL A   1      40.605  31.065  34.578  1.00  0.00     0.074 A 
ATOM     51  C   UNL A   1      39.359  30.555  35.088  1.00  0.00     0.031 C 
ATOM     52  C   UNL A   1      38.575  30.030  28.582  1.00  0.00     0.029 A 
ATOM     53  C   UNL A   1      39.798  29.523  29.167  1.00  0.00     0.049 A 
ATOM     54  H   UNL A   1      40.648  30.188  30.979  1.00  0.00     0.167 HD
ATOM     55  C   UNL A   1      41.887  30.802  34.950  1.00  0.00     0.037 A 
ATOM     56  C   UNL A   1      40.653  28.599  28.630  1.00  0.00     0.037 A 
ATOM     57  C   UNL A   1      42.827  31.592  34.196  1.00  0.00     0.049 A 
ATOM     58  C   UNL A   1      41.954  28.718  29.317  1.00  0.00     0.074 A 
ATOM     59  C   UNL A   1      43.056  32.941  34.009  1.00  0.00     0.029 A 
ATOM     60  N   UNL A   1      43.554  30.961  33.221  1.00  0.00    -0.354 N 
ATOM     61  N   UNL A   1      42.785  29.703  29.150  1.00  0.00    -0.248 NA
ATOM     62  C   UNL A   1      42.117  27.955  30.539  1.00  0.00     0.031 C 
ATOM     63  C   UNL A   1      43.493  33.059  32.656  1.00  0.00     0.029 A 
ATOM     64  C   UNL A   1      43.572  31.775  32.119  1.00  0.00     0.049 A 
ATOM     65  H   UNL A   1      43.987  30.080  33.297  1.00  0.00     0.167 HD
ATOM     66  C   UNL A   1      43.214  30.002  30.431  1.00  0.00     0.074 A 
ATOM     67  C   UNL A   1      42.819  28.848  31.239  1.00  0.00     0.031 C 
ATOM     68  C   UNL A   1      43.593  31.269  30.768  1.00  0.00     0.037 A 
BRANCH  55  69
ATOM     69  C   UNL A   1      42.301  29.541  35.677  1.00  0.00     0.057 A 
ATOM     70  C   UNL A   1      42.065  28.234  35.203  1.00  0.00     0.134 A 
ATOM     71  C   UNL A   1      43.251  29.636  36.710  1.00  0.00     0.134 A 
ATOM     72  F   UNL A   1      41.237  27.971  34.186  1.00  0.00    -0.206 F 
ATOM     73  C   UNL A   1      42.755  27.117  35.680  1.00  0.00     0.040 A 
ATOM     74  C   UNL A   1      43.985  28.532  37.159  1.00  0.00     0.040 A 
ATOM     75  F   UNL A   1      43.567  30.824  37.246  1.00  0.00    -0.206 F 
ATOM     76  C   UNL A   1      43.747  27.268  36.632  1.00  0.00     0.006 A 
ENDBRANCH  55  69
BRANCH  56  77
ATOM     77  C   UNL A   1      40.385  27.434  27.730  1.00  0.00     0.057 A 
ATOM     78  C   UNL A   1      39.702  26.299  28.200  1.00  0.00     0.134 A 
ATOM     79  C   UNL A   1      41.037  27.267  26.490  1.00  0.00     0.134 A 
ATOM     80  F   UNL A   1      39.114  26.303  29.405  1.00  0.00    -0.206 F 
ATOM     81  C   UNL A   1      39.673  25.084  27.503  1.00  0.00     0.040 A 
ATOM     82  C   UNL A   1      41.020  26.051  25.782  1.00  0.00     0.040 A 
ATOM     83  F   UNL A   1      41.767  28.260  25.962  1.00  0.00    -0.206 F 
ATOM     84  C   UNL A   1      40.344  24.949  26.293  1.00  0.00     0.006 A 
ENDBRANCH  56  77
BRANCH  68  85
ATOM     85  C   UNL A   1      43.818  32.262  29.658  1.00  0.00     0.057 A 
ATOM     86  C   UNL A   1      45.083  32.341  29.066  1.00  0.00     0.134 A 
ATOM     87  C   UNL A   1      42.874  33.211  29.244  1.00  0.00     0.134 A 
ATOM     88  F   UNL A   1      46.045  31.472  29.414  1.00  0.00    -0.206 F 
ATOM     89  C   UNL A   1      45.405  33.329  28.132  1.00  0.00     0.040 A 
ATOM     90  C   UNL A   1      43.175  34.196  28.298  1.00  0.00     0.040 A 
ATOM     91  F   UNL A   1      41.648  33.242  29.783  1.00  0.00    -0.206 F 
ATOM     92  C   UNL A   1      44.450  34.265  27.748  1.00  0.00     0.006 A 
ENDBRANCH  68  85
ENDBRANCH  42  43
ENDBRANCH  35  37
ENDBRANCH  34  35
ENDBRANCH  33  34
ENDBRANCH  32  33
ENDBRANCH  31  32
ENDBRANCH   1  31
TORSDOF 18
ENDMDL
