MODEL 1
REMARK VINA RESULT:     -11.2      0.000      0.000
REMARK SMILES O=C(OCCOCCOCCOC(=O)c1ccc(-n2cc(CSc3nc4ccccc4c(=O)n3-c3ccccc3)nn2)cc1)c1ccc(-c2c3nc(c(-c4c(F)cccc4F)c4ccc([nH]4)c(-c4c(F)cccc4F)c4nc(c(-c5c(F)cccc5F)c5ccc2[nH]5)C=C4)C=C3)cc1
REMARK SMILES IDX 9 1 8 2 7 3 6 4 5 5 4 6 3 7 2 8 1 9 45 10 46 11 98 12 47 13
REMARK SMILES IDX 97 14 48 15 49 16 50 17 91 18 51 19 96 20 90 21 92 22 52 23
REMARK SMILES IDX 95 24 89 25 88 26 53 28 79 29 62 30 78 31 63 32 66 33 77 34
REMARK SMILES IDX 93 35 64 36 65 37 76 39 94 40 67 41 54 42 55 43 60 44 56 45
REMARK SMILES IDX 57 46 59 47 61 48 58 49 80 50 81 51 86 52 82 53 83 54 85 55
REMARK SMILES IDX 87 56 84 57 68 58 69 59 74 60 70 61 71 62 73 63 75 64 72 65
REMARK SMILES IDX 10 66 11 67 12 68 13 69 14 70 15 71 16 72 44 73 17 74 43 75
REMARK SMILES IDX 18 76 19 77 20 78 42 79 21 80 41 81 22 82 23 83 24 84 25 85
REMARK SMILES IDX 34 86 26 87 32 88 27 89 31 90 33 91 28 92 30 93 29 94 35 95
REMARK SMILES IDX 36 96 40 97 37 98 39 99 38 100
REMARK H PARENT 92 27 66 38
REMARK Flexibility Score: inf
ROOT
ATOM      1  O   UNL A   1      33.678  35.647  30.049  1.00  0.00    -0.376 OA
ENDROOT
BRANCH   1   2
ATOM      2  C   UNL A   1      33.807  35.148  31.375  1.00  0.00     0.188 C 
BRANCH   2   3
ATOM      3  C   UNL A   1      35.207  35.002  32.018  1.00  0.00     0.188 C 
BRANCH   3   4
ATOM      4  O   UNL A   1      35.299  33.965  32.970  1.00  0.00    -0.376 OA
BRANCH   4   5
ATOM      5  C   UNL A   1      34.758  32.688  32.698  1.00  0.00     0.202 C 
BRANCH   5   6
ATOM      6  C   UNL A   1      35.102  31.920  31.414  1.00  0.00     0.261 C 
BRANCH   6   7
ATOM      7  O   UNL A   1      36.436  31.418  31.308  1.00  0.00    -0.460 OA
BRANCH   7   8
ATOM      8  C   UNL A   1      36.947  30.202  31.573  1.00  0.00     0.338 C 
ATOM      9  O   UNL A   1      36.606  29.635  32.610  1.00  0.00    -0.246 OA
BRANCH   8  10
ATOM     10  C   UNL A   1      38.025  29.558  30.767  1.00  0.00     0.060 A 
ATOM     11  C   UNL A   1      38.329  28.195  30.723  1.00  0.00     0.016 A 
ATOM     12  C   UNL A   1      38.820  30.452  30.022  1.00  0.00     0.016 A 
ATOM     13  C   UNL A   1      39.501  27.765  30.117  1.00  0.00     0.010 A 
ATOM     14  C   UNL A   1      39.978  30.026  29.394  1.00  0.00     0.010 A 
ATOM     15  C   UNL A   1      40.356  28.698  29.533  1.00  0.00    -0.014 A 
BRANCH  15  16
ATOM     16  C   UNL A   1      41.681  28.250  29.138  1.00  0.00     0.031 A 
ATOM     17  C   UNL A   1      41.752  26.926  28.472  1.00  0.00     0.074 A 
ATOM     18  C   UNL A   1      42.757  29.040  29.325  1.00  0.00     0.049 A 
ATOM     19  N   UNL A   1      42.380  25.866  28.865  1.00  0.00    -0.248 NA
ATOM     20  C   UNL A   1      40.944  26.731  27.258  1.00  0.00     0.031 C 
ATOM     21  C   UNL A   1      42.778  30.453  29.724  1.00  0.00     0.029 A 
ATOM     22  N   UNL A   1      44.070  28.773  29.092  1.00  0.00    -0.354 N 
ATOM     23  C   UNL A   1      42.205  24.923  27.854  1.00  0.00     0.074 A 
ATOM     24  C   UNL A   1      41.205  25.457  26.965  1.00  0.00     0.031 C 
ATOM     25  C   UNL A   1      44.000  30.969  29.473  1.00  0.00     0.029 A 
ATOM     26  C   UNL A   1      44.876  29.900  29.027  1.00  0.00     0.049 A 
ATOM     27  H   UNL A   1      44.418  27.858  28.980  1.00  0.00     0.167 HD
ATOM     28  C   UNL A   1      43.058  23.873  27.701  1.00  0.00     0.037 A 
ATOM     29  C   UNL A   1      46.148  29.957  28.562  1.00  0.00     0.037 A 
ATOM     30  C   UNL A   1      43.808  23.615  28.901  1.00  0.00     0.049 A 
ATOM     31  C   UNL A   1      46.693  28.577  28.569  1.00  0.00     0.074 A 
ATOM     32  C   UNL A   1      43.481  23.269  30.198  1.00  0.00     0.029 A 
ATOM     33  N   UNL A   1      45.116  24.025  28.944  1.00  0.00    -0.354 N 
ATOM     34  N   UNL A   1      46.973  27.907  29.652  1.00  0.00    -0.248 NA
ATOM     35  C   UNL A   1      46.513  27.773  27.369  1.00  0.00     0.031 C 
ATOM     36  C   UNL A   1      44.436  23.946  31.011  1.00  0.00     0.029 A 
ATOM     37  C   UNL A   1      45.310  24.623  30.161  1.00  0.00     0.049 A 
ATOM     38  H   UNL A   1      45.789  23.910  28.235  1.00  0.00     0.167 HD
ATOM     39  C   UNL A   1      46.583  26.606  29.374  1.00  0.00     0.074 A 
ATOM     40  C   UNL A   1      46.400  26.564  27.925  1.00  0.00     0.031 C 
ATOM     41  C   UNL A   1      46.168  25.766  30.367  1.00  0.00     0.037 A 
BRANCH  28  42
ATOM     42  C   UNL A   1      43.475  23.317  26.363  1.00  0.00     0.057 A 
ATOM     43  C   UNL A   1      43.410  21.930  26.139  1.00  0.00     0.134 A 
ATOM     44  C   UNL A   1      44.219  24.044  25.412  1.00  0.00     0.134 A 
ATOM     45  F   UNL A   1      42.748  21.126  26.985  1.00  0.00    -0.206 F 
ATOM     46  C   UNL A   1      44.097  21.306  25.090  1.00  0.00     0.040 A 
ATOM     47  C   UNL A   1      44.865  23.438  24.332  1.00  0.00     0.040 A 
ATOM     48  F   UNL A   1      44.451  25.357  25.534  1.00  0.00    -0.206 F 
ATOM     49  C   UNL A   1      44.835  22.061  24.187  1.00  0.00     0.006 A 
ENDBRANCH  28  42
BRANCH  29  50
ATOM     50  C   UNL A   1      46.796  31.064  27.823  1.00  0.00     0.057 A 
ATOM     51  C   UNL A   1      46.124  31.748  26.800  1.00  0.00     0.134 A 
ATOM     52  C   UNL A   1      47.991  31.653  28.275  1.00  0.00     0.134 A 
ATOM     53  F   UNL A   1      44.954  31.291  26.332  1.00  0.00    -0.206 F 
ATOM     54  C   UNL A   1      46.603  32.955  26.272  1.00  0.00     0.040 A 
ATOM     55  C   UNL A   1      48.485  32.850  27.750  1.00  0.00     0.040 A 
ATOM     56  F   UNL A   1      48.677  31.134  29.304  1.00  0.00    -0.206 F 
ATOM     57  C   UNL A   1      47.782  33.514  26.754  1.00  0.00     0.006 A 
ENDBRANCH  29  50
BRANCH  41  58
ATOM     58  C   UNL A   1      46.389  26.197  31.789  1.00  0.00     0.057 A 
ATOM     59  C   UNL A   1      45.420  26.846  32.568  1.00  0.00     0.134 A 
ATOM     60  C   UNL A   1      47.563  25.802  32.440  1.00  0.00     0.134 A 
ATOM     61  F   UNL A   1      44.223  27.167  32.061  1.00  0.00    -0.206 F 
ATOM     62  C   UNL A   1      45.630  27.131  33.920  1.00  0.00     0.040 A 
ATOM     63  C   UNL A   1      47.771  26.050  33.798  1.00  0.00     0.040 A 
ATOM     64  F   UNL A   1      48.508  25.121  31.774  1.00  0.00    -0.206 F 
ATOM     65  C   UNL A   1      46.807  26.726  34.541  1.00  0.00     0.006 A 
ENDBRANCH  41  58
ENDBRANCH  15  16
ENDBRANCH   8  10
ENDBRANCH   7   8
ENDBRANCH   6   7
ENDBRANCH   5   6
ENDBRANCH   4   5
ENDBRANCH   3   4
ENDBRANCH   2   3
ENDBRANCH   1   2
BRANCH   1  66
ATOM     66  C   UNL A   1      33.203  34.788  29.023  1.00  0.00     0.202 C 
BRANCH  66  67
ATOM     67  C   UNL A   1      34.189  33.822  28.347  1.00  0.00     0.261 C 
BRANCH  67  68
ATOM     68  O   UNL A   1      33.808  32.432  28.375  1.00  0.00    -0.460 OA
BRANCH  68  69
ATOM     69  C   UNL A   1      34.663  31.560  27.782  1.00  0.00     0.338 C 
ATOM     70  O   UNL A   1      35.876  31.548  27.843  1.00  0.00    -0.246 OA
BRANCH  69  71
ATOM     71  C   UNL A   1      33.880  30.490  27.123  1.00  0.00     0.060 A 
ATOM     72  C   UNL A   1      34.491  29.248  26.890  1.00  0.00     0.018 A 
ATOM     73  C   UNL A   1      32.561  30.715  26.725  1.00  0.00     0.018 A 
ATOM     74  C   UNL A   1      33.780  28.218  26.269  1.00  0.00     0.029 A 
ATOM     75  C   UNL A   1      31.835  29.678  26.127  1.00  0.00     0.029 A 
ATOM     76  C   UNL A   1      32.449  28.435  25.900  1.00  0.00     0.066 A 
BRANCH  76  77
ATOM     77  N   UNL A   1      31.737  27.430  25.212  1.00  0.00    -0.220 N 
ATOM     78  C   UNL A   1      31.853  26.067  25.404  1.00  0.00     0.141 A 
ATOM     79  N   UNL A   1      31.041  27.676  24.087  1.00  0.00    -0.062 NA
ATOM     80  C   UNL A   1      31.359  25.504  24.247  1.00  0.00     0.093 A 
ATOM     81  N   UNL A   1      30.747  26.513  23.529  1.00  0.00    -0.134 NA
BRANCH  80  82
ATOM     82  C   UNL A   1      31.613  24.244  23.500  1.00  0.00     0.138 C 
BRANCH  82  83
ATOM     83  S   UNL A   1      33.151  23.450  23.109  1.00  0.00    -0.081 SA
BRANCH  83  84
ATOM     84  C   UNL A   1      33.421  21.926  23.887  1.00  0.00     0.176 A 
ATOM     85  N   UNL A   1      32.768  20.977  23.281  1.00  0.00    -0.223 NA
ATOM     86  N   UNL A   1      34.206  21.680  25.002  1.00  0.00    -0.255 N 
ATOM     87  C   UNL A   1      32.760  19.699  23.840  1.00  0.00     0.079 A 
ATOM     88  C   UNL A   1      33.683  20.686  25.845  1.00  0.00     0.266 A 
ATOM     89  C   UNL A   1      32.331  18.594  23.106  1.00  0.00     0.029 A 
ATOM     90  C   UNL A   1      33.056  19.536  25.183  1.00  0.00     0.066 A 
ATOM     91  O   UNL A   1      33.657  20.724  27.075  1.00  0.00    -0.268 OA
ATOM     92  C   UNL A   1      32.139  17.362  23.742  1.00  0.00     0.002 A 
ATOM     93  C   UNL A   1      32.816  18.331  25.846  1.00  0.00     0.016 A 
ATOM     94  C   UNL A   1      32.345  17.241  25.118  1.00  0.00     0.001 A 
BRANCH  86  95
ATOM     95  C   UNL A   1      35.412  22.375  25.423  1.00  0.00     0.051 A 
ATOM     96  C   UNL A   1      35.347  23.739  25.780  1.00  0.00     0.027 A 
ATOM     97  C   UNL A   1      36.678  21.791  25.517  1.00  0.00     0.027 A 
ATOM     98  C   UNL A   1      36.489  24.514  26.000  1.00  0.00     0.002 A 
ATOM     99  C   UNL A   1      37.836  22.569  25.678  1.00  0.00     0.002 A 
ATOM    100  C   UNL A   1      37.742  23.937  25.887  1.00  0.00     0.000 A 
ENDBRANCH  86  95
ENDBRANCH  83  84
ENDBRANCH  82  83
ENDBRANCH  80  82
ENDBRANCH  76  77
ENDBRANCH  69  71
ENDBRANCH  68  69
ENDBRANCH  67  68
ENDBRANCH  66  67
ENDBRANCH   1  66
TORSDOF 22
ENDMDL
MODEL 2
REMARK VINA RESULT:     -11.2      4.249      9.518
REMARK SMILES O=C(OCCOCCOCCOC(=O)c1ccc(-n2cc(CSc3nc4ccccc4c(=O)n3-c3ccccc3)nn2)cc1)c1ccc(-c2c3nc(c(-c4c(F)cccc4F)c4ccc([nH]4)c(-c4c(F)cccc4F)c4nc(c(-c5c(F)cccc5F)c5ccc2[nH]5)C=C4)C=C3)cc1
REMARK SMILES IDX 9 1 8 2 7 3 6 4 5 5 4 6 3 7 2 8 1 9 45 10 46 11 98 12 47 13
REMARK SMILES IDX 97 14 48 15 49 16 50 17 91 18 51 19 96 20 90 21 92 22 52 23
REMARK SMILES IDX 95 24 89 25 88 26 53 28 79 29 62 30 78 31 63 32 66 33 77 34
REMARK SMILES IDX 93 35 64 36 65 37 76 39 94 40 67 41 54 42 55 43 60 44 56 45
REMARK SMILES IDX 57 46 59 47 61 48 58 49 80 50 81 51 86 52 82 53 83 54 85 55
REMARK SMILES IDX 87 56 84 57 68 58 69 59 74 60 70 61 71 62 73 63 75 64 72 65
REMARK SMILES IDX 10 66 11 67 12 68 13 69 14 70 15 71 16 72 44 73 17 74 43 75
REMARK SMILES IDX 18 76 19 77 20 78 42 79 21 80 41 81 22 82 23 83 24 84 25 85
REMARK SMILES IDX 34 86 26 87 32 88 27 89 31 90 33 91 28 92 30 93 29 94 35 95
REMARK SMILES IDX 36 96 40 97 37 98 39 99 38 100
REMARK H PARENT 92 27 66 38
REMARK Flexibility Score: inf
ROOT
ATOM      1  O   UNL A   1      30.481  28.798  22.998  1.00  0.00    -0.376 OA
ENDROOT
BRANCH   1   2
ATOM      2  C   UNL A   1      30.833  29.156  24.329  1.00  0.00     0.188 C 
BRANCH   2   3
ATOM      3  C   UNL A   1      32.299  29.511  24.677  1.00  0.00     0.188 C 
BRANCH   3   4
ATOM      4  O   UNL A   1      32.811  28.816  25.792  1.00  0.00    -0.376 OA
BRANCH   4   5
ATOM      5  C   UNL A   1      33.715  29.443  26.678  1.00  0.00     0.202 C 
BRANCH   5   6
ATOM      6  C   UNL A   1      33.485  30.871  27.193  1.00  0.00     0.261 C 
BRANCH   6   7
ATOM      7  O   UNL A   1      34.279  31.283  28.308  1.00  0.00    -0.460 OA
BRANCH   7   8
ATOM      8  C   UNL A   1      35.490  31.866  28.364  1.00  0.00     0.338 C 
ATOM      9  O   UNL A   1      35.746  32.768  27.567  1.00  0.00    -0.246 OA
BRANCH   8  10
ATOM     10  C   UNL A   1      36.607  31.386  29.229  1.00  0.00     0.060 A 
ATOM     11  C   UNL A   1      36.546  30.359  30.173  1.00  0.00     0.016 A 
ATOM     12  C   UNL A   1      37.818  32.093  29.076  1.00  0.00     0.016 A 
ATOM     13  C   UNL A   1      37.590  30.177  31.069  1.00  0.00     0.010 A 
ATOM     14  C   UNL A   1      38.873  31.899  29.950  1.00  0.00     0.010 A 
ATOM     15  C   UNL A   1      38.708  31.007  31.001  1.00  0.00    -0.014 A 
BRANCH  15  16
ATOM     16  C   UNL A   1      39.658  30.958  32.100  1.00  0.00     0.031 A 
ATOM     17  C   UNL A   1      39.489  31.985  33.157  1.00  0.00     0.074 A 
ATOM     18  C   UNL A   1      40.590  29.986  32.158  1.00  0.00     0.049 A 
ATOM     19  N   UNL A   1      40.325  32.901  33.522  1.00  0.00    -0.248 NA
ATOM     20  C   UNL A   1      38.183  32.059  33.831  1.00  0.00     0.031 C 
ATOM     21  C   UNL A   1      40.688  28.781  31.326  1.00  0.00     0.029 A 
ATOM     22  N   UNL A   1      41.600  29.817  33.054  1.00  0.00    -0.354 N 
ATOM     23  C   UNL A   1      39.730  33.550  34.602  1.00  0.00     0.074 A 
ATOM     24  C   UNL A   1      38.367  33.089  34.657  1.00  0.00     0.031 C 
ATOM     25  C   UNL A   1      41.538  27.906  31.906  1.00  0.00     0.029 A 
ATOM     26  C   UNL A   1      42.140  28.539  33.066  1.00  0.00     0.049 A 
ATOM     27  H   UNL A   1      41.920  30.539  33.643  1.00  0.00     0.167 HD
ATOM     28  C   UNL A   1      40.467  34.250  35.508  1.00  0.00     0.037 A 
ATOM     29  C   UNL A   1      42.961  28.018  34.010  1.00  0.00     0.037 A 
ATOM     30  C   UNL A   1      41.758  34.607  34.985  1.00  0.00     0.049 A 
ATOM     31  C   UNL A   1      43.553  29.149  34.766  1.00  0.00     0.074 A 
ATOM     32  C   UNL A   1      42.201  35.362  33.917  1.00  0.00     0.029 A 
ATOM     33  N   UNL A   1      42.846  33.886  35.408  1.00  0.00    -0.354 N 
ATOM     34  N   UNL A   1      44.425  29.983  34.270  1.00  0.00    -0.248 NA
ATOM     35  C   UNL A   1      42.841  29.621  35.945  1.00  0.00     0.031 C 
ATOM     36  C   UNL A   1      43.374  34.696  33.456  1.00  0.00     0.029 A 
ATOM     37  C   UNL A   1      43.598  33.606  34.297  1.00  0.00     0.049 A 
ATOM     38  H   UNL A   1      43.049  33.621  36.334  1.00  0.00     0.167 HD
ATOM     39  C   UNL A   1      44.070  31.218  34.793  1.00  0.00     0.074 A 
ATOM     40  C   UNL A   1      43.153  30.919  35.890  1.00  0.00     0.031 C 
ATOM     41  C   UNL A   1      44.324  32.372  34.110  1.00  0.00     0.037 A 
BRANCH  28  42
ATOM     42  C   UNL A   1      40.163  34.294  36.985  1.00  0.00     0.057 A 
ATOM     43  C   UNL A   1      40.010  33.091  37.697  1.00  0.00     0.134 A 
ATOM     44  C   UNL A   1      39.715  35.450  37.656  1.00  0.00     0.134 A 
ATOM     45  F   UNL A   1      40.380  31.919  37.157  1.00  0.00    -0.206 F 
ATOM     46  C   UNL A   1      39.387  33.035  38.950  1.00  0.00     0.040 A 
ATOM     47  C   UNL A   1      39.140  35.411  38.929  1.00  0.00     0.040 A 
ATOM     48  F   UNL A   1      39.707  36.657  37.078  1.00  0.00    -0.206 F 
ATOM     49  C   UNL A   1      38.943  34.197  39.567  1.00  0.00     0.006 A 
ENDBRANCH  28  42
BRANCH  29  50
ATOM     50  C   UNL A   1      43.013  26.622  34.499  1.00  0.00     0.057 A 
ATOM     51  C   UNL A   1      42.033  26.117  35.365  1.00  0.00     0.134 A 
ATOM     52  C   UNL A   1      43.875  25.671  33.922  1.00  0.00     0.134 A 
ATOM     53  F   UNL A   1      41.137  26.938  35.929  1.00  0.00    -0.206 F 
ATOM     54  C   UNL A   1      41.907  24.746  35.627  1.00  0.00     0.040 A 
ATOM     55  C   UNL A   1      43.767  24.302  34.184  1.00  0.00     0.040 A 
ATOM     56  F   UNL A   1      44.797  26.026  33.016  1.00  0.00    -0.206 F 
ATOM     57  C   UNL A   1      42.769  23.833  35.028  1.00  0.00     0.006 A 
ENDBRANCH  29  50
BRANCH  41  58
ATOM     58  C   UNL A   1      45.223  32.294  32.908  1.00  0.00     0.057 A 
ATOM     59  C   UNL A   1      44.771  32.002  31.613  1.00  0.00     0.134 A 
ATOM     60  C   UNL A   1      46.561  32.681  33.040  1.00  0.00     0.134 A 
ATOM     61  F   UNL A   1      43.483  31.726  31.372  1.00  0.00    -0.206 F 
ATOM     62  C   UNL A   1      45.625  32.047  30.507  1.00  0.00     0.040 A 
ATOM     63  C   UNL A   1      47.415  32.764  31.938  1.00  0.00     0.040 A 
ATOM     64  F   UNL A   1      47.047  33.035  34.239  1.00  0.00    -0.206 F 
ATOM     65  C   UNL A   1      46.951  32.435  30.667  1.00  0.00     0.006 A 
ENDBRANCH  41  58
ENDBRANCH  15  16
ENDBRANCH   8  10
ENDBRANCH   7   8
ENDBRANCH   6   7
ENDBRANCH   5   6
ENDBRANCH   4   5
ENDBRANCH   3   4
ENDBRANCH   2   3
ENDBRANCH   1   2
BRANCH   1  66
ATOM     66  C   UNL A   1      29.945  27.509  22.741  1.00  0.00     0.202 C 
BRANCH  66  67
ATOM     67  C   UNL A   1      29.307  26.725  23.900  1.00  0.00     0.261 C 
BRANCH  67  68
ATOM     68  O   UNL A   1      30.067  25.596  24.373  1.00  0.00    -0.460 OA
BRANCH  68  69
ATOM     69  C   UNL A   1      30.684  25.744  25.574  1.00  0.00     0.338 C 
ATOM     70  O   UNL A   1      30.296  26.373  26.538  1.00  0.00    -0.246 OA
BRANCH  69  71
ATOM     71  C   UNL A   1      31.892  24.889  25.603  1.00  0.00     0.060 A 
ATOM     72  C   UNL A   1      31.740  23.507  25.800  1.00  0.00     0.018 A 
ATOM     73  C   UNL A   1      33.163  25.446  25.453  1.00  0.00     0.018 A 
ATOM     74  C   UNL A   1      32.860  22.673  25.834  1.00  0.00     0.029 A 
ATOM     75  C   UNL A   1      34.287  24.612  25.460  1.00  0.00     0.029 A 
ATOM     76  C   UNL A   1      34.130  23.228  25.653  1.00  0.00     0.066 A 
BRANCH  76  77
ATOM     77  N   UNL A   1      35.276  22.412  25.750  1.00  0.00    -0.220 N 
ATOM     78  C   UNL A   1      36.468  22.743  26.366  1.00  0.00     0.141 A 
ATOM     79  N   UNL A   1      35.436  21.296  25.014  1.00  0.00    -0.062 NA
ATOM     80  C   UNL A   1      37.398  21.886  25.818  1.00  0.00     0.093 A 
ATOM     81  N   UNL A   1      36.704  20.930  25.103  1.00  0.00    -0.134 NA
BRANCH  80  82
ATOM     82  C   UNL A   1      38.861  21.949  25.559  1.00  0.00     0.138 C 
BRANCH  82  83
ATOM     83  S   UNL A   1      40.196  22.275  26.681  1.00  0.00    -0.081 SA
BRANCH  83  84
ATOM     84  C   UNL A   1      40.666  23.937  26.816  1.00  0.00     0.176 A 
ATOM     85  N   UNL A   1      39.769  24.618  27.469  1.00  0.00    -0.223 NA
ATOM     86  N   UNL A   1      41.818  24.526  26.321  1.00  0.00    -0.255 N 
ATOM     87  C   UNL A   1      39.912  26.003  27.566  1.00  0.00     0.079 A 
ATOM     88  C   UNL A   1      41.622  25.840  25.865  1.00  0.00     0.266 A 
ATOM     89  C   UNL A   1      39.159  26.742  28.477  1.00  0.00     0.029 A 
ATOM     90  C   UNL A   1      40.714  26.675  26.660  1.00  0.00     0.066 A 
ATOM     91  O   UNL A   1      42.097  26.326  24.839  1.00  0.00    -0.268 OA
ATOM     92  C   UNL A   1      39.167  28.140  28.422  1.00  0.00     0.002 A 
ATOM     93  C   UNL A   1      40.692  28.067  26.552  1.00  0.00     0.016 A 
ATOM     94  C   UNL A   1      39.903  28.801  27.436  1.00  0.00     0.001 A 
BRANCH  86  95
ATOM     95  C   UNL A   1      43.130  23.925  26.144  1.00  0.00     0.051 A 
ATOM     96  C   UNL A   1      43.391  23.134  25.004  1.00  0.00     0.027 A 
ATOM     97  C   UNL A   1      44.202  24.071  27.029  1.00  0.00     0.027 A 
ATOM     98  C   UNL A   1      44.553  22.369  24.870  1.00  0.00     0.002 A 
ATOM     99  C   UNL A   1      45.347  23.264  26.936  1.00  0.00     0.002 A 
ATOM    100  C   UNL A   1      45.508  22.389  25.873  1.00  0.00     0.000 A 
ENDBRANCH  86  95
ENDBRANCH  83  84
ENDBRANCH  82  83
ENDBRANCH  80  82
ENDBRANCH  76  77
ENDBRANCH  69  71
ENDBRANCH  68  69
ENDBRANCH  67  68
ENDBRANCH  66  67
ENDBRANCH   1  66
TORSDOF 22
ENDMDL
MODEL 3
REMARK VINA RESULT:     -10.9      5.528     11.936
REMARK SMILES O=C(OCCOCCOCCOC(=O)c1ccc(-n2cc(CSc3nc4ccccc4c(=O)n3-c3ccccc3)nn2)cc1)c1ccc(-c2c3nc(c(-c4c(F)cccc4F)c4ccc([nH]4)c(-c4c(F)cccc4F)c4nc(c(-c5c(F)cccc5F)c5ccc2[nH]5)C=C4)C=C3)cc1
REMARK SMILES IDX 9 1 8 2 7 3 6 4 5 5 4 6 3 7 2 8 1 9 45 10 46 11 98 12 47 13
REMARK SMILES IDX 97 14 48 15 49 16 50 17 91 18 51 19 96 20 90 21 92 22 52 23
REMARK SMILES IDX 95 24 89 25 88 26 53 28 79 29 62 30 78 31 63 32 66 33 77 34
REMARK SMILES IDX 93 35 64 36 65 37 76 39 94 40 67 41 54 42 55 43 60 44 56 45
REMARK SMILES IDX 57 46 59 47 61 48 58 49 80 50 81 51 86 52 82 53 83 54 85 55
REMARK SMILES IDX 87 56 84 57 68 58 69 59 74 60 70 61 71 62 73 63 75 64 72 65
REMARK SMILES IDX 10 66 11 67 12 68 13 69 14 70 15 71 16 72 44 73 17 74 43 75
REMARK SMILES IDX 18 76 19 77 20 78 42 79 21 80 41 81 22 82 23 83 24 84 25 85
REMARK SMILES IDX 34 86 26 87 32 88 27 89 31 90 33 91 28 92 30 93 29 94 35 95
REMARK SMILES IDX 36 96 40 97 37 98 39 99 38 100
REMARK H PARENT 92 27 66 38
REMARK Flexibility Score: inf
ROOT
ATOM      1  O   UNL A   1      33.546  35.456  32.849  1.00  0.00    -0.376 OA
ENDROOT
BRANCH   1   2
ATOM      2  C   UNL A   1      33.345  36.558  31.972  1.00  0.00     0.188 C 
BRANCH   2   3
ATOM      3  C   UNL A   1      32.562  36.368  30.651  1.00  0.00     0.188 C 
BRANCH   3   4
ATOM      4  O   UNL A   1      33.202  36.909  29.517  1.00  0.00    -0.376 OA
BRANCH   4   5
ATOM      5  C   UNL A   1      33.921  36.076  28.631  1.00  0.00     0.202 C 
BRANCH   5   6
ATOM      6  C   UNL A   1      33.524  34.612  28.394  1.00  0.00     0.261 C 
BRANCH   6   7
ATOM      7  O   UNL A   1      34.524  33.764  27.825  1.00  0.00    -0.460 OA
BRANCH   7   8
ATOM      8  C   UNL A   1      34.786  32.457  28.010  1.00  0.00     0.338 C 
ATOM      9  O   UNL A   1      33.919  31.636  27.713  1.00  0.00    -0.246 OA
BRANCH   8  10
ATOM     10  C   UNL A   1      36.004  31.941  28.701  1.00  0.00     0.060 A 
ATOM     11  C   UNL A   1      37.122  32.685  29.083  1.00  0.00     0.016 A 
ATOM     12  C   UNL A   1      36.005  30.551  28.936  1.00  0.00     0.016 A 
ATOM     13  C   UNL A   1      38.276  32.039  29.502  1.00  0.00     0.010 A 
ATOM     14  C   UNL A   1      37.145  29.901  29.377  1.00  0.00     0.010 A 
ATOM     15  C   UNL A   1      38.301  30.647  29.563  1.00  0.00    -0.014 A 
BRANCH  15  16
ATOM     16  C   UNL A   1      39.588  29.998  29.757  1.00  0.00     0.031 A 
ATOM     17  C   UNL A   1      40.098  29.962  31.150  1.00  0.00     0.074 A 
ATOM     18  C   UNL A   1      40.228  29.420  28.722  1.00  0.00     0.049 A 
ATOM     19  N   UNL A   1      41.185  30.484  31.617  1.00  0.00    -0.248 NA
ATOM     20  C   UNL A   1      39.240  29.343  32.173  1.00  0.00     0.031 C 
ATOM     21  C   UNL A   1      39.710  29.164  27.372  1.00  0.00     0.029 A 
ATOM     22  N   UNL A   1      41.457  28.837  28.689  1.00  0.00    -0.354 N 
ATOM     23  C   UNL A   1      41.247  30.100  32.955  1.00  0.00     0.074 A 
ATOM     24  C   UNL A   1      39.966  29.524  33.275  1.00  0.00     0.031 C 
ATOM     25  C   UNL A   1      40.516  28.279  26.746  1.00  0.00     0.029 A 
ATOM     26  C   UNL A   1      41.666  28.014  27.592  1.00  0.00     0.049 A 
ATOM     27  H   UNL A   1      42.139  28.987  29.384  1.00  0.00     0.167 HD
ATOM     28  C   UNL A   1      42.425  30.079  33.637  1.00  0.00     0.037 A 
ATOM     29  C   UNL A   1      42.673  27.122  27.433  1.00  0.00     0.037 A 
ATOM     30  C   UNL A   1      43.425  30.894  33.002  1.00  0.00     0.049 A 
ATOM     31  C   UNL A   1      43.753  27.486  28.383  1.00  0.00     0.074 A 
ATOM     32  C   UNL A   1      43.534  32.235  32.689  1.00  0.00     0.029 A 
ATOM     33  N   UNL A   1      44.408  30.264  32.282  1.00  0.00    -0.354 N 
ATOM     34  N   UNL A   1      44.495  28.552  28.272  1.00  0.00    -0.248 NA
ATOM     35  C   UNL A   1      43.715  26.889  29.711  1.00  0.00     0.031 C 
ATOM     36  C   UNL A   1      44.236  32.268  31.450  1.00  0.00     0.029 A 
ATOM     37  C   UNL A   1      44.551  30.953  31.107  1.00  0.00     0.049 A 
ATOM     38  H   UNL A   1      44.916  29.467  32.558  1.00  0.00     0.167 HD
ATOM     39  C   UNL A   1      44.663  29.003  29.572  1.00  0.00     0.074 A 
ATOM     40  C   UNL A   1      44.246  27.889  30.420  1.00  0.00     0.031 C 
ATOM     41  C   UNL A   1      44.851  30.328  29.840  1.00  0.00     0.037 A 
BRANCH  28  42
ATOM     42  C   UNL A   1      42.780  29.039  34.670  1.00  0.00     0.057 A 
ATOM     43  C   UNL A   1      43.239  29.448  35.936  1.00  0.00     0.134 A 
ATOM     44  C   UNL A   1      42.981  27.676  34.371  1.00  0.00     0.134 A 
ATOM     45  F   UNL A   1      43.123  30.725  36.330  1.00  0.00    -0.206 F 
ATOM     46  C   UNL A   1      43.916  28.583  36.804  1.00  0.00     0.040 A 
ATOM     47  C   UNL A   1      43.609  26.792  35.252  1.00  0.00     0.040 A 
ATOM     48  F   UNL A   1      42.684  27.153  33.175  1.00  0.00    -0.206 F 
ATOM     49  C   UNL A   1      44.109  27.251  36.460  1.00  0.00     0.006 A 
ENDBRANCH  28  42
BRANCH  29  50
ATOM     50  C   UNL A   1      42.623  25.808  26.751  1.00  0.00     0.057 A 
ATOM     51  C   UNL A   1      43.405  25.546  25.618  1.00  0.00     0.134 A 
ATOM     52  C   UNL A   1      42.008  24.692  27.348  1.00  0.00     0.134 A 
ATOM     53  F   UNL A   1      44.067  26.536  25.005  1.00  0.00    -0.206 F 
ATOM     54  C   UNL A   1      43.578  24.247  25.118  1.00  0.00     0.040 A 
ATOM     55  C   UNL A   1      42.164  23.394  26.853  1.00  0.00     0.040 A 
ATOM     56  F   UNL A   1      41.304  24.808  28.483  1.00  0.00    -0.206 F 
ATOM     57  C   UNL A   1      42.965  23.166  25.742  1.00  0.00     0.006 A 
ENDBRANCH  29  50
BRANCH  41  58
ATOM     58  C   UNL A   1      45.128  31.247  28.684  1.00  0.00     0.057 A 
ATOM     59  C   UNL A   1      46.398  31.423  28.114  1.00  0.00     0.134 A 
ATOM     60  C   UNL A   1      44.050  31.849  28.027  1.00  0.00     0.134 A 
ATOM     61  F   UNL A   1      47.474  30.799  28.610  1.00  0.00    -0.206 F 
ATOM     62  C   UNL A   1      46.590  32.204  26.971  1.00  0.00     0.040 A 
ATOM     63  C   UNL A   1      44.225  32.603  26.865  1.00  0.00     0.040 A 
ATOM     64  F   UNL A   1      42.799  31.673  28.479  1.00  0.00    -0.206 F 
ATOM     65  C   UNL A   1      45.500  32.792  26.339  1.00  0.00     0.006 A 
ENDBRANCH  41  58
ENDBRANCH  15  16
ENDBRANCH   8  10
ENDBRANCH   7   8
ENDBRANCH   6   7
ENDBRANCH   5   6
ENDBRANCH   4   5
ENDBRANCH   3   4
ENDBRANCH   2   3
ENDBRANCH   1   2
BRANCH   1  66
ATOM     66  C   UNL A   1      34.736  34.689  32.743  1.00  0.00     0.202 C 
BRANCH  66  67
ATOM     67  C   UNL A   1      35.396  34.162  34.027  1.00  0.00     0.261 C 
BRANCH  67  68
ATOM     68  O   UNL A   1      35.533  32.730  34.108  1.00  0.00    -0.460 OA
BRANCH  68  69
ATOM     69  C   UNL A   1      36.485  32.169  33.318  1.00  0.00     0.338 C 
ATOM     70  O   UNL A   1      36.332  31.355  32.430  1.00  0.00    -0.246 OA
BRANCH  69  71
ATOM     71  C   UNL A   1      37.788  32.809  33.609  1.00  0.00     0.060 A 
ATOM     72  C   UNL A   1      38.438  32.506  34.816  1.00  0.00     0.018 A 
ATOM     73  C   UNL A   1      38.357  33.709  32.706  1.00  0.00     0.018 A 
ATOM     74  C   UNL A   1      39.668  33.093  35.121  1.00  0.00     0.029 A 
ATOM     75  C   UNL A   1      39.602  34.280  32.994  1.00  0.00     0.029 A 
ATOM     76  C   UNL A   1      40.251  33.971  34.202  1.00  0.00     0.066 A 
BRANCH  76  77
ATOM     77  N   UNL A   1      41.460  34.624  34.522  1.00  0.00    -0.220 N 
ATOM     78  C   UNL A   1      42.084  35.604  33.774  1.00  0.00     0.141 A 
ATOM     79  N   UNL A   1      42.296  34.175  35.477  1.00  0.00    -0.062 NA
ATOM     80  C   UNL A   1      43.395  35.592  34.200  1.00  0.00     0.093 A 
ATOM     81  N   UNL A   1      43.450  34.806  35.334  1.00  0.00    -0.134 NA
BRANCH  80  82
ATOM     82  C   UNL A   1      44.705  35.920  33.579  1.00  0.00     0.138 C 
BRANCH  82  83
ATOM     83  S   UNL A   1      45.203  37.373  32.689  1.00  0.00    -0.081 SA
BRANCH  83  84
ATOM     84  C   UNL A   1      44.307  37.704  31.244  1.00  0.00     0.176 A 
ATOM     85  N   UNL A   1      43.925  36.597  30.675  1.00  0.00    -0.223 NA
ATOM     86  N   UNL A   1      44.005  38.946  30.709  1.00  0.00    -0.255 N 
ATOM     87  C   UNL A   1      43.300  36.659  29.429  1.00  0.00     0.079 A 
ATOM     88  C   UNL A   1      44.012  38.966  29.305  1.00  0.00     0.266 A 
ATOM     89  C   UNL A   1      42.621  35.559  28.908  1.00  0.00     0.029 A 
ATOM     90  C   UNL A   1      43.463  37.781  28.635  1.00  0.00     0.066 A 
ATOM     91  O   UNL A   1      44.484  39.857  28.598  1.00  0.00    -0.268 OA
ATOM     92  C   UNL A   1      42.177  35.572  27.581  1.00  0.00     0.002 A 
ATOM     93  C   UNL A   1      43.079  37.792  27.292  1.00  0.00     0.016 A 
ATOM     94  C   UNL A   1      42.440  36.673  26.763  1.00  0.00     0.001 A 
BRANCH  86  95
ATOM     95  C   UNL A   1      43.783  40.198  31.414  1.00  0.00     0.051 A 
ATOM     96  C   UNL A   1      42.527  40.838  31.328  1.00  0.00     0.027 A 
ATOM     97  C   UNL A   1      44.732  40.847  32.208  1.00  0.00     0.027 A 
ATOM     98  C   UNL A   1      42.308  42.131  31.811  1.00  0.00     0.002 A 
ATOM     99  C   UNL A   1      44.545  42.167  32.646  1.00  0.00     0.002 A 
ATOM    100  C   UNL A   1      43.343  42.821  32.420  1.00  0.00     0.000 A 
ENDBRANCH  86  95
ENDBRANCH  83  84
ENDBRANCH  82  83
ENDBRANCH  80  82
ENDBRANCH  76  77
ENDBRANCH  69  71
ENDBRANCH  68  69
ENDBRANCH  67  68
ENDBRANCH  66  67
ENDBRANCH   1  66
TORSDOF 22
ENDMDL
