MODEL 1
REMARK VINA RESULT:      -8.6      0.000      0.000
REMARK SMILES C[C@H](CCC(=O)OCCOCCOCCOC(=O)c1ccc(-c2c3nc(c(-c4c(F)cccc4F)c4ccc([nH]4)c(-c4c(F)cccc4F)c4nc(c(-c5c(F)cccc5F)c5ccc2[nH]5)C=C4)C=C3)cc1)[C@@H]1CC[C@@H]2[C@@H]3C[C@H](O)[C@@H]4C[C@H](O)CC[C@]4(C)[C@H]3CC[C@]21C
REMARK SMILES IDX 11 1 10 2 9 3 8 4 7 5 5 6 6 7 4 8 3 9 2 10 1 11 73 12 74 13
REMARK SMILES IDX 92 14 75 15 76 16 91 17 93 18 77 19 90 20 78 21 89 22 79 23
REMARK SMILES IDX 87 24 81 25 86 26 88 27 82 28 85 29 83 30 80 31 84 33 12 35
REMARK SMILES IDX 13 36 14 37 15 38 16 39 17 40 18 41 19 42 20 43 72 44 21 45
REMARK SMILES IDX 71 46 22 47 23 48 24 49 65 50 25 51 70 52 64 53 66 54 26 55
REMARK SMILES IDX 69 56 63 57 62 58 27 60 53 61 36 62 52 63 37 64 40 65 51 66
REMARK SMILES IDX 67 67 38 68 39 69 50 71 68 72 41 73 28 74 29 75 34 76 30 77
REMARK SMILES IDX 31 78 33 79 35 80 32 81 54 82 55 83 60 84 56 85 57 86 59 87
REMARK SMILES IDX 61 88 58 89 42 90 43 91 48 92 44 93 45 94 47 95 49 96 46 97
REMARK H PARENT 80 32 84 34 66 59 40 70
REMARK Flexibility Score: inf
ROOT
ATOM      1  C   UNL A   1      33.153  36.666  30.056  1.00  0.00     0.188 C 
ENDROOT
BRANCH   1   2
ATOM      2  O   UNL A   1      32.302  36.554  31.187  1.00  0.00    -0.376 OA
BRANCH   2   3
ATOM      3  C   UNL A   1      32.987  36.350  32.426  1.00  0.00     0.202 C 
BRANCH   3   4
ATOM      4  C   UNL A   1      33.495  34.914  32.671  1.00  0.00     0.261 C 
BRANCH   4   5
ATOM      5  O   UNL A   1      34.601  34.858  33.605  1.00  0.00    -0.463 OA
BRANCH   5   6
ATOM      6  C   UNL A   1      35.845  34.696  33.093  1.00  0.00     0.305 C 
ATOM      7  O   UNL A   1      36.124  34.768  31.902  1.00  0.00    -0.252 OA
BRANCH   6   8
ATOM      8  C   UNL A   1      36.887  34.393  34.149  1.00  0.00     0.123 C 
BRANCH   8   9
ATOM      9  C   UNL A   1      38.355  34.732  33.835  1.00  0.00     0.015 C 
BRANCH   9  10
ATOM     10  C   UNL A   1      39.064  33.694  32.953  1.00  0.00    -0.010 C 
ATOM     11  C   UNL A   1      40.449  34.251  32.518  1.00  0.00     0.008 C 
BRANCH  10  12
ATOM     12  C   UNL A   1      39.300  32.254  33.445  1.00  0.00    -0.002 C 
ATOM     13  C   UNL A   1      38.110  31.169  33.266  1.00  0.00     0.005 C 
ATOM     14  C   UNL A   1      39.971  31.717  34.768  1.00  0.00    -0.026 C 
ATOM     15  C   UNL A   1      38.622  29.860  34.021  1.00  0.00     0.005 C 
ATOM     16  C   UNL A   1      40.067  30.274  34.177  1.00  0.00    -0.001 C 
ATOM     17  C   UNL A   1      41.290  32.141  35.490  1.00  0.00     0.007 C 
ATOM     18  C   UNL A   1      38.922  31.975  35.867  1.00  0.00     0.012 C 
ATOM     19  C   UNL A   1      41.453  29.665  34.171  1.00  0.00    -0.001 C 
ATOM     20  C   UNL A   1      42.322  31.042  35.941  1.00  0.00     0.005 C 
ATOM     21  C   UNL A   1      41.674  28.577  33.138  1.00  0.00     0.036 C 
ATOM     22  C   UNL A   1      42.047  29.547  35.555  1.00  0.00    -0.001 C 
ATOM     23  C   UNL A   1      43.161  28.291  33.112  1.00  0.00     0.118 C 
ATOM     24  C   UNL A   1      43.302  28.546  35.677  1.00  0.00    -0.024 C 
ATOM     25  C   UNL A   1      43.566  27.623  34.424  1.00  0.00     0.026 C 
ATOM     26  C   UNL A   1      43.135  27.635  36.922  1.00  0.00     0.010 C 
ATOM     27  C   UNL A   1      44.621  29.334  35.922  1.00  0.00     0.012 C 
ATOM     28  C   UNL A   1      43.063  26.159  34.511  1.00  0.00     0.038 C 
ATOM     29  C   UNL A   1      42.010  26.612  36.822  1.00  0.00     0.032 C 
ATOM     30  C   UNL A   1      41.962  25.838  35.512  1.00  0.00     0.114 C 
BRANCH  23  31
ATOM     31  O   UNL A   1      43.520  27.507  31.981  1.00  0.00    -0.393 OA
ATOM     32  H   UNL A   1      44.245  27.941  31.504  1.00  0.00     0.210 HD
ENDBRANCH  23  31
BRANCH  30  33
ATOM     33  O   UNL A   1      40.679  26.030  34.921  1.00  0.00    -0.393 OA
ATOM     34  H   UNL A   1      39.990  25.855  35.581  1.00  0.00     0.210 HD
ENDBRANCH  30  33
ENDBRANCH  10  12
ENDBRANCH   9  10
ENDBRANCH   8   9
ENDBRANCH   6   8
ENDBRANCH   5   6
ENDBRANCH   4   5
ENDBRANCH   3   4
ENDBRANCH   2   3
ENDBRANCH   1   2
BRANCH   1  35
ATOM     35  C   UNL A   1      33.059  35.481  29.112  1.00  0.00     0.188 C 
BRANCH  35  36
ATOM     36  O   UNL A   1      34.240  34.688  29.159  1.00  0.00    -0.376 OA
BRANCH  36  37
ATOM     37  C   UNL A   1      34.430  33.759  28.098  1.00  0.00     0.202 C 
BRANCH  37  38
ATOM     38  C   UNL A   1      34.412  32.333  28.663  1.00  0.00     0.261 C 
BRANCH  38  39
ATOM     39  O   UNL A   1      34.754  31.423  27.607  1.00  0.00    -0.460 OA
BRANCH  39  40
ATOM     40  C   UNL A   1      34.770  30.112  27.954  1.00  0.00     0.338 C 
ATOM     41  O   UNL A   1      33.849  29.314  27.861  1.00  0.00    -0.246 OA
BRANCH  40  42
ATOM     42  C   UNL A   1      36.174  29.738  28.258  1.00  0.00     0.060 A 
ATOM     43  C   UNL A   1      37.152  29.928  27.268  1.00  0.00     0.016 A 
ATOM     44  C   UNL A   1      36.552  29.360  29.553  1.00  0.00     0.016 A 
ATOM     45  C   UNL A   1      38.503  29.748  27.572  1.00  0.00     0.010 A 
ATOM     46  C   UNL A   1      37.895  29.181  29.858  1.00  0.00     0.010 A 
ATOM     47  C   UNL A   1      38.871  29.346  28.862  1.00  0.00    -0.014 A 
BRANCH  47  48
ATOM     48  C   UNL A   1      40.217  28.803  29.135  1.00  0.00     0.031 A 
ATOM     49  C   UNL A   1      41.212  29.756  29.732  1.00  0.00     0.074 A 
ATOM     50  C   UNL A   1      40.567  27.554  28.785  1.00  0.00     0.049 A 
ATOM     51  N   UNL A   1      42.496  29.619  29.912  1.00  0.00    -0.248 NA
ATOM     52  C   UNL A   1      40.678  31.065  30.153  1.00  0.00     0.031 C 
ATOM     53  C   UNL A   1      39.676  26.548  28.209  1.00  0.00     0.029 A 
ATOM     54  N   UNL A   1      41.789  26.934  28.838  1.00  0.00    -0.354 N 
ATOM     55  C   UNL A   1      42.924  30.826  30.450  1.00  0.00     0.074 A 
ATOM     56  C   UNL A   1      41.776  31.698  30.526  1.00  0.00     0.031 C 
ATOM     57  C   UNL A   1      40.389  25.438  27.944  1.00  0.00     0.029 A 
ATOM     58  C   UNL A   1      41.789  25.671  28.297  1.00  0.00     0.049 A 
ATOM     59  H   UNL A   1      42.590  27.353  29.228  1.00  0.00     0.167 HD
ATOM     60  C   UNL A   1      44.166  31.173  30.853  1.00  0.00     0.037 A 
ATOM     61  C   UNL A   1      42.816  24.823  28.090  1.00  0.00     0.037 A 
ATOM     62  C   UNL A   1      45.301  30.297  30.758  1.00  0.00     0.049 A 
ATOM     63  C   UNL A   1      44.204  25.250  28.498  1.00  0.00     0.074 A 
ATOM     64  C   UNL A   1      46.605  30.528  31.150  1.00  0.00     0.029 A 
ATOM     65  N   UNL A   1      45.259  29.019  30.218  1.00  0.00    -0.354 N 
ATOM     66  N   UNL A   1      44.600  26.377  29.043  1.00  0.00    -0.248 NA
ATOM     67  C   UNL A   1      45.290  24.288  28.262  1.00  0.00     0.031 C 
ATOM     68  C   UNL A   1      47.365  29.410  30.798  1.00  0.00     0.029 A 
ATOM     69  C   UNL A   1      46.522  28.457  30.245  1.00  0.00     0.049 A 
ATOM     70  H   UNL A   1      44.452  28.579  29.866  1.00  0.00     0.167 HD
ATOM     71  C   UNL A   1      45.969  26.246  29.247  1.00  0.00     0.074 A 
ATOM     72  C   UNL A   1      46.333  24.925  28.776  1.00  0.00     0.031 C 
ATOM     73  C   UNL A   1      46.848  27.133  29.778  1.00  0.00     0.037 A 
BRANCH  60  74
ATOM     74  C   UNL A   1      44.349  32.558  31.399  1.00  0.00     0.057 A 
ATOM     75  C   UNL A   1      44.609  33.656  30.567  1.00  0.00     0.134 A 
ATOM     76  C   UNL A   1      44.280  32.796  32.778  1.00  0.00     0.134 A 
ATOM     77  F   UNL A   1      44.715  33.493  29.239  1.00  0.00    -0.206 F 
ATOM     78  C   UNL A   1      44.821  34.934  31.087  1.00  0.00     0.040 A 
ATOM     79  C   UNL A   1      44.458  34.074  33.307  1.00  0.00     0.040 A 
ATOM     80  F   UNL A   1      44.041  31.790  33.633  1.00  0.00    -0.206 F 
ATOM     81  C   UNL A   1      44.740  35.147  32.462  1.00  0.00     0.006 A 
ENDBRANCH  60  74
BRANCH  61  82
ATOM     82  C   UNL A   1      42.581  23.493  27.471  1.00  0.00     0.057 A 
ATOM     83  C   UNL A   1      42.298  22.368  28.256  1.00  0.00     0.134 A 
ATOM     84  C   UNL A   1      42.655  23.303  26.085  1.00  0.00     0.134 A 
ATOM     85  F   UNL A   1      42.239  22.477  29.592  1.00  0.00    -0.206 F 
ATOM     86  C   UNL A   1      42.118  21.103  27.691  1.00  0.00     0.040 A 
ATOM     87  C   UNL A   1      42.448  22.050  25.503  1.00  0.00     0.040 A 
ATOM     88  F   UNL A   1      42.924  24.336  25.272  1.00  0.00    -0.206 F 
ATOM     89  C   UNL A   1      42.186  20.944  26.309  1.00  0.00     0.006 A 
ENDBRANCH  61  82
BRANCH  73  90
ATOM     90  C   UNL A   1      48.275  26.686  29.923  1.00  0.00     0.057 A 
ATOM     91  C   UNL A   1      48.736  26.032  31.071  1.00  0.00     0.134 A 
ATOM     92  C   UNL A   1      49.183  26.867  28.870  1.00  0.00     0.134 A 
ATOM     93  F   UNL A   1      47.920  25.835  32.117  1.00  0.00    -0.206 F 
ATOM     94  C   UNL A   1      50.057  25.593  31.176  1.00  0.00     0.040 A 
ATOM     95  C   UNL A   1      50.496  26.404  28.952  1.00  0.00     0.040 A 
ATOM     96  F   UNL A   1      48.801  27.475  27.737  1.00  0.00    -0.206 F 
ATOM     97  C   UNL A   1      50.938  25.772  30.111  1.00  0.00     0.006 A 
ENDBRANCH  73  90
ENDBRANCH  47  48
ENDBRANCH  40  42
ENDBRANCH  39  40
ENDBRANCH  38  39
ENDBRANCH  37  38
ENDBRANCH  36  37
ENDBRANCH  35  36
ENDBRANCH   1  35
TORSDOF 22
ENDMDL
MODEL 2
REMARK VINA RESULT:      -8.4      4.445      8.284
REMARK SMILES C[C@H](CCC(=O)OCCOCCOCCOC(=O)c1ccc(-c2c3nc(c(-c4c(F)cccc4F)c4ccc([nH]4)c(-c4c(F)cccc4F)c4nc(c(-c5c(F)cccc5F)c5ccc2[nH]5)C=C4)C=C3)cc1)[C@@H]1CC[C@@H]2[C@@H]3C[C@H](O)[C@@H]4C[C@H](O)CC[C@]4(C)[C@H]3CC[C@]21C
REMARK SMILES IDX 11 1 10 2 9 3 8 4 7 5 5 6 6 7 4 8 3 9 2 10 1 11 73 12 74 13
REMARK SMILES IDX 92 14 75 15 76 16 91 17 93 18 77 19 90 20 78 21 89 22 79 23
REMARK SMILES IDX 87 24 81 25 86 26 88 27 82 28 85 29 83 30 80 31 84 33 12 35
REMARK SMILES IDX 13 36 14 37 15 38 16 39 17 40 18 41 19 42 20 43 72 44 21 45
REMARK SMILES IDX 71 46 22 47 23 48 24 49 65 50 25 51 70 52 64 53 66 54 26 55
REMARK SMILES IDX 69 56 63 57 62 58 27 60 53 61 36 62 52 63 37 64 40 65 51 66
REMARK SMILES IDX 67 67 38 68 39 69 50 71 68 72 41 73 28 74 29 75 34 76 30 77
REMARK SMILES IDX 31 78 33 79 35 80 32 81 54 82 55 83 60 84 56 85 57 86 59 87
REMARK SMILES IDX 61 88 58 89 42 90 43 91 48 92 44 93 45 94 47 95 49 96 46 97
REMARK H PARENT 80 32 84 34 66 59 40 70
REMARK Flexibility Score: inf
ROOT
ATOM      1  C   UNL A   1      33.698  34.207  27.951  1.00  0.00     0.188 C 
ENDROOT
BRANCH   1   2
ATOM      2  O   UNL A   1      34.513  33.052  27.806  1.00  0.00    -0.376 OA
BRANCH   2   3
ATOM      3  C   UNL A   1      33.872  31.826  28.168  1.00  0.00     0.202 C 
BRANCH   3   4
ATOM      4  C   UNL A   1      34.193  30.620  27.261  1.00  0.00     0.261 C 
BRANCH   4   5
ATOM      5  O   UNL A   1      33.019  29.844  26.916  1.00  0.00    -0.463 OA
BRANCH   5   6
ATOM      6  C   UNL A   1      32.300  30.241  25.839  1.00  0.00     0.305 C 
ATOM      7  O   UNL A   1      31.381  31.052  25.874  1.00  0.00    -0.252 OA
BRANCH   6   8
ATOM      8  C   UNL A   1      32.731  29.567  24.554  1.00  0.00     0.123 C 
BRANCH   8   9
ATOM      9  C   UNL A   1      31.648  29.232  23.514  1.00  0.00     0.015 C 
BRANCH   9  10
ATOM     10  C   UNL A   1      30.497  28.375  24.060  1.00  0.00    -0.010 C 
ATOM     11  C   UNL A   1      29.344  28.337  23.018  1.00  0.00     0.008 C 
BRANCH  10  12
ATOM     12  C   UNL A   1      30.728  26.922  24.517  1.00  0.00    -0.002 C 
ATOM     13  C   UNL A   1      29.540  26.164  25.316  1.00  0.00     0.005 C 
ATOM     14  C   UNL A   1      31.989  26.240  25.176  1.00  0.00    -0.026 C 
ATOM     15  C   UNL A   1      30.170  24.771  25.775  1.00  0.00     0.005 C 
ATOM     16  C   UNL A   1      31.405  24.817  24.906  1.00  0.00    -0.001 C 
ATOM     17  C   UNL A   1      33.505  26.328  24.813  1.00  0.00     0.007 C 
ATOM     18  C   UNL A   1      31.990  26.752  26.629  1.00  0.00     0.012 C 
ATOM     19  C   UNL A   1      32.303  23.885  24.120  1.00  0.00    -0.001 C 
ATOM     20  C   UNL A   1      34.354  25.009  24.677  1.00  0.00     0.005 C 
ATOM     21  C   UNL A   1      31.587  22.773  23.379  1.00  0.00     0.036 C 
ATOM     22  C   UNL A   1      33.624  23.628  24.806  1.00  0.00    -0.001 C 
ATOM     23  C   UNL A   1      32.603  22.129  22.460  1.00  0.00     0.118 C 
ATOM     24  C   UNL A   1      34.437  22.349  24.264  1.00  0.00    -0.024 C 
ATOM     25  C   UNL A   1      33.639  21.385  23.302  1.00  0.00     0.026 C 
ATOM     26  C   UNL A   1      34.966  21.511  25.459  1.00  0.00     0.010 C 
ATOM     27  C   UNL A   1      35.709  22.788  23.481  1.00  0.00     0.012 C 
ATOM     28  C   UNL A   1      33.059  20.091  23.928  1.00  0.00     0.038 C 
ATOM     29  C   UNL A   1      33.889  20.796  26.265  1.00  0.00     0.032 C 
ATOM     30  C   UNL A   1      32.851  20.054  25.435  1.00  0.00     0.114 C 
BRANCH  23  31
ATOM     31  O   UNL A   1      31.980  21.278  21.507  1.00  0.00    -0.393 OA
ATOM     32  H   UNL A   1      31.062  21.561  21.372  1.00  0.00     0.210 HD
ENDBRANCH  23  31
BRANCH  30  33
ATOM     33  O   UNL A   1      31.560  20.555  25.774  1.00  0.00    -0.393 OA
ATOM     34  H   UNL A   1      31.574  21.524  25.755  1.00  0.00     0.210 HD
ENDBRANCH  30  33
ENDBRANCH  10  12
ENDBRANCH   9  10
ENDBRANCH   8   9
ENDBRANCH   6   8
ENDBRANCH   5   6
ENDBRANCH   4   5
ENDBRANCH   3   4
ENDBRANCH   2   3
ENDBRANCH   1   2
BRANCH   1  35
ATOM     35  C   UNL A   1      34.475  35.444  28.362  1.00  0.00     0.188 C 
BRANCH  35  36
ATOM     36  O   UNL A   1      34.946  35.337  29.701  1.00  0.00    -0.376 OA
BRANCH  36  37
ATOM     37  C   UNL A   1      33.961  35.212  30.719  1.00  0.00     0.202 C 
BRANCH  37  38
ATOM     38  C   UNL A   1      34.454  34.221  31.782  1.00  0.00     0.261 C 
BRANCH  38  39
ATOM     39  O   UNL A   1      35.578  33.507  31.247  1.00  0.00    -0.460 OA
BRANCH  39  40
ATOM     40  C   UNL A   1      35.741  32.246  31.720  1.00  0.00     0.338 C 
ATOM     41  O   UNL A   1      34.906  31.560  32.292  1.00  0.00    -0.246 OA
BRANCH  40  42
ATOM     42  C   UNL A   1      37.044  31.738  31.224  1.00  0.00     0.060 A 
ATOM     43  C   UNL A   1      37.458  32.095  29.930  1.00  0.00     0.016 A 
ATOM     44  C   UNL A   1      37.921  31.056  32.077  1.00  0.00     0.016 A 
ATOM     45  C   UNL A   1      38.747  31.778  29.493  1.00  0.00     0.010 A 
ATOM     46  C   UNL A   1      39.203  30.741  31.645  1.00  0.00     0.010 A 
ATOM     47  C   UNL A   1      39.609  31.074  30.343  1.00  0.00    -0.014 A 
BRANCH  47  48
ATOM     48  C   UNL A   1      40.820  30.412  29.819  1.00  0.00     0.031 A 
ATOM     49  C   UNL A   1      42.016  31.292  29.594  1.00  0.00     0.074 A 
ATOM     50  C   UNL A   1      40.831  29.114  29.474  1.00  0.00     0.049 A 
ATOM     51  N   UNL A   1      43.142  31.033  28.987  1.00  0.00    -0.248 NA
ATOM     52  C   UNL A   1      41.904  32.673  30.098  1.00  0.00     0.031 C 
ATOM     53  C   UNL A   1      39.729  28.172  29.661  1.00  0.00     0.029 A 
ATOM     54  N   UNL A   1      41.809  28.375  28.858  1.00  0.00    -0.354 N 
ATOM     55  C   UNL A   1      43.861  32.220  29.023  1.00  0.00     0.074 A 
ATOM     56  C   UNL A   1      43.033  33.210  29.669  1.00  0.00     0.031 C 
ATOM     57  C   UNL A   1      40.087  26.979  29.151  1.00  0.00     0.029 A 
ATOM     58  C   UNL A   1      41.424  27.087  28.571  1.00  0.00     0.049 A 
ATOM     59  H   UNL A   1      42.700  28.732  28.643  1.00  0.00     0.167 HD
ATOM     60  C   UNL A   1      45.110  32.460  28.564  1.00  0.00     0.037 A 
ATOM     61  C   UNL A   1      42.078  26.125  27.891  1.00  0.00     0.037 A 
ATOM     62  C   UNL A   1      45.916  31.467  27.911  1.00  0.00     0.049 A 
ATOM     63  C   UNL A   1      43.449  26.430  27.339  1.00  0.00     0.074 A 
ATOM     64  C   UNL A   1      47.201  31.585  27.420  1.00  0.00     0.029 A 
ATOM     65  N   UNL A   1      45.498  30.169  27.651  1.00  0.00    -0.354 N 
ATOM     66  N   UNL A   1      44.145  27.541  27.409  1.00  0.00    -0.248 NA
ATOM     67  C   UNL A   1      44.128  25.347  26.613  1.00  0.00     0.031 C 
ATOM     68  C   UNL A   1      47.543  30.373  26.814  1.00  0.00     0.029 A 
ATOM     69  C   UNL A   1      46.495  29.480  26.984  1.00  0.00     0.049 A 
ATOM     70  H   UNL A   1      44.624  29.794  27.903  1.00  0.00     0.167 HD
ATOM     71  C   UNL A   1      45.352  27.281  26.771  1.00  0.00     0.074 A 
ATOM     72  C   UNL A   1      45.298  25.902  26.329  1.00  0.00     0.031 C 
ATOM     73  C   UNL A   1      46.412  28.103  26.568  1.00  0.00     0.037 A 
BRANCH  60  74
ATOM     74  C   UNL A   1      45.647  33.850  28.733  1.00  0.00     0.057 A 
ATOM     75  C   UNL A   1      45.465  34.841  27.757  1.00  0.00     0.134 A 
ATOM     76  C   UNL A   1      46.371  34.200  29.879  1.00  0.00     0.134 A 
ATOM     77  F   UNL A   1      44.804  34.564  26.623  1.00  0.00    -0.206 F 
ATOM     78  C   UNL A   1      46.007  36.119  27.902  1.00  0.00     0.040 A 
ATOM     79  C   UNL A   1      46.890  35.484  30.050  1.00  0.00     0.040 A 
ATOM     80  F   UNL A   1      46.590  33.301  30.850  1.00  0.00    -0.206 F 
ATOM     81  C   UNL A   1      46.717  36.445  29.056  1.00  0.00     0.006 A 
ENDBRANCH  60  74
BRANCH  61  82
ATOM     82  C   UNL A   1      41.457  24.790  27.689  1.00  0.00     0.057 A 
ATOM     83  C   UNL A   1      40.477  24.587  26.710  1.00  0.00     0.134 A 
ATOM     84  C   UNL A   1      41.807  23.689  28.481  1.00  0.00     0.134 A 
ATOM     85  F   UNL A   1      40.078  25.607  25.935  1.00  0.00    -0.206 F 
ATOM     86  C   UNL A   1      39.854  23.349  26.538  1.00  0.00     0.040 A 
ATOM     87  C   UNL A   1      41.214  22.437  28.301  1.00  0.00     0.040 A 
ATOM     88  F   UNL A   1      42.738  23.811  29.440  1.00  0.00    -0.206 F 
ATOM     89  C   UNL A   1      40.228  22.267  27.332  1.00  0.00     0.006 A 
ENDBRANCH  61  82
BRANCH  73  90
ATOM     90  C   UNL A   1      47.616  27.520  25.884  1.00  0.00     0.057 A 
ATOM     91  C   UNL A   1      48.672  26.944  26.599  1.00  0.00     0.134 A 
ATOM     92  C   UNL A   1      47.686  27.486  24.485  1.00  0.00     0.134 A 
ATOM     93  F   UNL A   1      48.669  26.950  27.941  1.00  0.00    -0.206 F 
ATOM     94  C   UNL A   1      49.767  26.375  25.947  1.00  0.00     0.040 A 
ATOM     95  C   UNL A   1      48.761  26.893  23.822  1.00  0.00     0.040 A 
ATOM     96  F   UNL A   1      46.701  28.009  23.739  1.00  0.00    -0.206 F 
ATOM     97  C   UNL A   1      49.809  26.342  24.555  1.00  0.00     0.006 A 
ENDBRANCH  73  90
ENDBRANCH  47  48
ENDBRANCH  40  42
ENDBRANCH  39  40
ENDBRANCH  38  39
ENDBRANCH  37  38
ENDBRANCH  36  37
ENDBRANCH  35  36
ENDBRANCH   1  35
TORSDOF 22
ENDMDL
MODEL 3
REMARK VINA RESULT:      -8.1      1.310      2.604
REMARK SMILES C[C@H](CCC(=O)OCCOCCOCCOC(=O)c1ccc(-c2c3nc(c(-c4c(F)cccc4F)c4ccc([nH]4)c(-c4c(F)cccc4F)c4nc(c(-c5c(F)cccc5F)c5ccc2[nH]5)C=C4)C=C3)cc1)[C@@H]1CC[C@@H]2[C@@H]3C[C@H](O)[C@@H]4C[C@H](O)CC[C@]4(C)[C@H]3CC[C@]21C
REMARK SMILES IDX 11 1 10 2 9 3 8 4 7 5 5 6 6 7 4 8 3 9 2 10 1 11 73 12 74 13
REMARK SMILES IDX 92 14 75 15 76 16 91 17 93 18 77 19 90 20 78 21 89 22 79 23
REMARK SMILES IDX 87 24 81 25 86 26 88 27 82 28 85 29 83 30 80 31 84 33 12 35
REMARK SMILES IDX 13 36 14 37 15 38 16 39 17 40 18 41 19 42 20 43 72 44 21 45
REMARK SMILES IDX 71 46 22 47 23 48 24 49 65 50 25 51 70 52 64 53 66 54 26 55
REMARK SMILES IDX 69 56 63 57 62 58 27 60 53 61 36 62 52 63 37 64 40 65 51 66
REMARK SMILES IDX 67 67 38 68 39 69 50 71 68 72 41 73 28 74 29 75 34 76 30 77
REMARK SMILES IDX 31 78 33 79 35 80 32 81 54 82 55 83 60 84 56 85 57 86 59 87
REMARK SMILES IDX 61 88 58 89 42 90 43 91 48 92 44 93 45 94 47 95 49 96 46 97
REMARK H PARENT 80 32 84 34 66 59 40 70
REMARK Flexibility Score: inf
ROOT
ATOM      1  C   UNL A   1      33.619  35.928  31.137  1.00  0.00     0.188 C 
ENDROOT
BRANCH   1   2
ATOM      2  O   UNL A   1      33.381  34.920  32.110  1.00  0.00    -0.376 OA
BRANCH   2   3
ATOM      3  C   UNL A   1      34.444  33.975  32.255  1.00  0.00     0.202 C 
BRANCH   3   4
ATOM      4  C   UNL A   1      34.570  33.331  33.651  1.00  0.00     0.261 C 
BRANCH   4   5
ATOM      5  O   UNL A   1      35.917  32.893  33.952  1.00  0.00    -0.463 OA
BRANCH   5   6
ATOM      6  C   UNL A   1      36.755  33.791  34.523  1.00  0.00     0.305 C 
ATOM      7  O   UNL A   1      37.422  34.614  33.905  1.00  0.00    -0.252 OA
BRANCH   6   8
ATOM      8  C   UNL A   1      36.812  33.677  36.031  1.00  0.00     0.123 C 
BRANCH   8   9
ATOM      9  C   UNL A   1      38.041  34.255  36.755  1.00  0.00     0.015 C 
BRANCH   9  10
ATOM     10  C   UNL A   1      38.777  33.243  37.645  1.00  0.00    -0.010 C 
ATOM     11  C   UNL A   1      37.775  32.151  38.118  1.00  0.00     0.008 C 
BRANCH  10  12
ATOM     12  C   UNL A   1      40.034  32.505  37.148  1.00  0.00    -0.002 C 
ATOM     13  C   UNL A   1      41.435  32.755  37.923  1.00  0.00     0.005 C 
ATOM     14  C   UNL A   1      40.565  32.250  35.685  1.00  0.00    -0.026 C 
ATOM     15  C   UNL A   1      42.532  31.985  37.057  1.00  0.00     0.005 C 
ATOM     16  C   UNL A   1      41.582  31.182  36.201  1.00  0.00    -0.001 C 
ATOM     17  C   UNL A   1      39.821  31.773  34.397  1.00  0.00     0.007 C 
ATOM     18  C   UNL A   1      41.122  33.613  35.232  1.00  0.00     0.012 C 
ATOM     19  C   UNL A   1      41.480  29.819  35.548  1.00  0.00    -0.001 C 
ATOM     20  C   UNL A   1      40.423  30.602  33.535  1.00  0.00     0.005 C 
ATOM     21  C   UNL A   1      42.015  28.667  36.376  1.00  0.00     0.036 C 
ATOM     22  C   UNL A   1      41.706  29.867  34.056  1.00  0.00    -0.001 C 
ATOM     23  C   UNL A   1      41.588  27.391  35.682  1.00  0.00     0.118 C 
ATOM     24  C   UNL A   1      42.033  28.448  33.369  1.00  0.00    -0.024 C 
ATOM     25  C   UNL A   1      42.346  27.262  34.362  1.00  0.00     0.026 C 
ATOM     26  C   UNL A   1      43.233  28.593  32.395  1.00  0.00     0.010 C 
ATOM     27  C   UNL A   1      40.845  27.971  32.483  1.00  0.00     0.012 C 
ATOM     28  C   UNL A   1      43.838  26.904  34.580  1.00  0.00     0.038 C 
ATOM     29  C   UNL A   1      44.575  28.858  33.067  1.00  0.00     0.032 C 
ATOM     30  C   UNL A   1      44.884  27.962  34.257  1.00  0.00     0.114 C 
BRANCH  23  31
ATOM     31  O   UNL A   1      41.775  26.256  36.518  1.00  0.00    -0.393 OA
ATOM     32  H   UNL A   1      40.949  26.060  36.988  1.00  0.00     0.210 HD
ENDBRANCH  23  31
BRANCH  30  33
ATOM     33  O   UNL A   1      45.125  28.788  35.394  1.00  0.00    -0.393 OA
ATOM     34  H   UNL A   1      45.530  29.622  35.107  1.00  0.00     0.210 HD
ENDBRANCH  30  33
ENDBRANCH  10  12
ENDBRANCH   9  10
ENDBRANCH   8   9
ENDBRANCH   6   8
ENDBRANCH   5   6
ENDBRANCH   4   5
ENDBRANCH   3   4
ENDBRANCH   2   3
ENDBRANCH   1   2
BRANCH   1  35
ATOM     35  C   UNL A   1      32.743  35.793  29.904  1.00  0.00     0.188 C 
BRANCH  35  36
ATOM     36  O   UNL A   1      32.881  34.507  29.311  1.00  0.00    -0.376 OA
BRANCH  36  37
ATOM     37  C   UNL A   1      33.786  34.400  28.218  1.00  0.00     0.202 C 
BRANCH  37  38
ATOM     38  C   UNL A   1      34.920  33.437  28.593  1.00  0.00     0.261 C 
BRANCH  38  39
ATOM     39  O   UNL A   1      34.341  32.267  29.191  1.00  0.00    -0.460 OA
BRANCH  39  40
ATOM     40  C   UNL A   1      34.433  31.133  28.453  1.00  0.00     0.338 C 
ATOM     41  O   UNL A   1      33.616  30.710  27.648  1.00  0.00    -0.246 OA
BRANCH  40  42
ATOM     42  C   UNL A   1      35.808  30.597  28.611  1.00  0.00     0.060 A 
ATOM     43  C   UNL A   1      36.208  30.130  29.874  1.00  0.00     0.016 A 
ATOM     44  C   UNL A   1      36.636  30.404  27.498  1.00  0.00     0.016 A 
ATOM     45  C   UNL A   1      37.428  29.467  30.023  1.00  0.00     0.010 A 
ATOM     46  C   UNL A   1      37.849  29.743  27.643  1.00  0.00     0.010 A 
ATOM     47  C   UNL A   1      38.261  29.299  28.910  1.00  0.00    -0.014 A 
BRANCH  47  48
ATOM     48  C   UNL A   1      39.684  28.938  29.072  1.00  0.00     0.031 A 
ATOM     49  C   UNL A   1      40.600  30.032  29.541  1.00  0.00     0.074 A 
ATOM     50  C   UNL A   1      40.157  27.727  28.732  1.00  0.00     0.049 A 
ATOM     51  N   UNL A   1      41.903  30.062  29.603  1.00  0.00    -0.248 NA
ATOM     52  C   UNL A   1      39.945  31.283  29.966  1.00  0.00     0.031 C 
ATOM     53  C   UNL A   1      39.352  26.595  28.277  1.00  0.00     0.029 A 
ATOM     54  N   UNL A   1      41.447  27.265  28.690  1.00  0.00    -0.354 N 
ATOM     55  C   UNL A   1      42.221  31.335  30.058  1.00  0.00     0.074 A 
ATOM     56  C   UNL A   1      40.984  32.062  30.213  1.00  0.00     0.031 C 
ATOM     57  C   UNL A   1      40.173  25.570  27.983  1.00  0.00     0.029 A 
ATOM     58  C   UNL A   1      41.557  25.989  28.193  1.00  0.00     0.049 A 
ATOM     59  H   UNL A   1      42.220  27.796  28.988  1.00  0.00     0.167 HD
ATOM     60  C   UNL A   1      43.440  31.849  30.331  1.00  0.00     0.037 A 
ATOM     61  C   UNL A   1      42.661  25.265  27.919  1.00  0.00     0.037 A 
ATOM     62  C   UNL A   1      44.663  31.116  30.157  1.00  0.00     0.049 A 
ATOM     63  C   UNL A   1      44.015  25.877  28.179  1.00  0.00     0.074 A 
ATOM     64  C   UNL A   1      45.957  31.523  30.417  1.00  0.00     0.029 A 
ATOM     65  N   UNL A   1      44.735  29.820  29.666  1.00  0.00    -0.354 N 
ATOM     66  N   UNL A   1      44.313  27.067  28.647  1.00  0.00    -0.248 NA
ATOM     67  C   UNL A   1      45.188  25.046  27.874  1.00  0.00     0.031 C 
ATOM     68  C   UNL A   1      46.818  30.491  30.032  1.00  0.00     0.029 A 
ATOM     69  C   UNL A   1      46.056  29.419  29.593  1.00  0.00     0.049 A 
ATOM     70  H   UNL A   1      43.962  29.269  29.407  1.00  0.00     0.167 HD
ATOM     71  C   UNL A   1      45.700  27.115  28.725  1.00  0.00     0.074 A 
ATOM     72  C   UNL A   1      46.184  25.829  28.266  1.00  0.00     0.031 C 
ATOM     73  C   UNL A   1      46.504  28.125  29.141  1.00  0.00     0.037 A 
BRANCH  60  74
ATOM     74  C   UNL A   1      43.495  33.269  30.811  1.00  0.00     0.057 A 
ATOM     75  C   UNL A   1      43.473  33.594  32.175  1.00  0.00     0.134 A 
ATOM     76  C   UNL A   1      43.554  34.329  29.897  1.00  0.00     0.134 A 
ATOM     77  F   UNL A   1      43.389  32.627  33.102  1.00  0.00    -0.206 F 
ATOM     78  C   UNL A   1      43.479  34.919  32.612  1.00  0.00     0.040 A 
ATOM     79  C   UNL A   1      43.593  35.657  30.323  1.00  0.00     0.040 A 
ATOM     80  F   UNL A   1      43.571  34.092  28.577  1.00  0.00    -0.206 F 
ATOM     81  C   UNL A   1      43.546  35.956  31.683  1.00  0.00     0.006 A 
ENDBRANCH  60  74
BRANCH  61  82
ATOM     82  C   UNL A   1      42.541  23.889  27.369  1.00  0.00     0.057 A 
ATOM     83  C   UNL A   1      42.380  22.784  28.212  1.00  0.00     0.134 A 
ATOM     84  C   UNL A   1      42.608  23.639  25.992  1.00  0.00     0.134 A 
ATOM     85  F   UNL A   1      42.334  22.952  29.543  1.00  0.00    -0.206 F 
ATOM     86  C   UNL A   1      42.309  21.481  27.713  1.00  0.00     0.040 A 
ATOM     87  C   UNL A   1      42.510  22.345  25.476  1.00  0.00     0.040 A 
ATOM     88  F   UNL A   1      42.764  24.651  25.126  1.00  0.00    -0.206 F 
ATOM     89  C   UNL A   1      42.368  21.260  26.338  1.00  0.00     0.006 A 
ENDBRANCH  61  82
BRANCH  73  90
ATOM     90  C   UNL A   1      47.983  27.864  29.165  1.00  0.00     0.057 A 
ATOM     91  C   UNL A   1      48.797  28.092  28.049  1.00  0.00     0.134 A 
ATOM     92  C   UNL A   1      48.605  27.433  30.345  1.00  0.00     0.134 A 
ATOM     93  F   UNL A   1      48.262  28.497  26.887  1.00  0.00    -0.206 F 
ATOM     94  C   UNL A   1      50.175  27.877  28.099  1.00  0.00     0.040 A 
ATOM     95  C   UNL A   1      49.985  27.245  30.415  1.00  0.00     0.040 A 
ATOM     96  F   UNL A   1      47.885  27.210  31.454  1.00  0.00    -0.206 F 
ATOM     97  C   UNL A   1      50.773  27.460  29.287  1.00  0.00     0.006 A 
ENDBRANCH  73  90
ENDBRANCH  47  48
ENDBRANCH  40  42
ENDBRANCH  39  40
ENDBRANCH  38  39
ENDBRANCH  37  38
ENDBRANCH  36  37
ENDBRANCH  35  36
ENDBRANCH   1  35
TORSDOF 22
ENDMDL
