MODEL 1
REMARK VINA RESULT:     -10.9      0.000      0.000
REMARK SMILES O=C(N[C@@H](C(=O)OCCOCCOCCOC(=O)c1ccc(-c2c3nc(c(-c4c(F)cccc4F)c4ccc([nH]4)c(-c4c(F)cccc4F)c4nc(c(-c5c(F)cccc5F)c5ccc2[nH]5)C=C4)C=C3)cc1)c1ccccc1)c1ccc(Br)nc1
REMARK SMILES IDX 11 1 10 2 9 3 8 4 7 5 5 6 6 7 4 8 3 9 1 10 2 11 79 13 80 14
REMARK SMILES IDX 85 15 81 16 84 17 82 18 83 19 73 20 74 21 78 22 75 23 77 24
REMARK SMILES IDX 76 25 12 26 13 27 14 28 15 29 16 30 17 31 18 32 19 33 20 34
REMARK SMILES IDX 72 35 21 36 71 37 22 38 23 39 24 40 65 41 25 42 70 43 64 44
REMARK SMILES IDX 66 45 26 46 69 47 63 48 62 49 27 51 53 52 36 53 52 54 37 55
REMARK SMILES IDX 40 56 51 57 67 58 38 59 39 60 50 62 68 63 41 64 28 65 29 66
REMARK SMILES IDX 34 67 30 68 31 69 33 70 35 71 32 72 54 73 55 74 60 75 56 76
REMARK SMILES IDX 57 77 59 78 61 79 58 80 42 81 43 82 48 83 44 84 45 85 47 86
REMARK SMILES IDX 49 87 46 88
REMARK H PARENT 3 12 66 50 40 61
REMARK Flexibility Score: inf
ROOT
ATOM      1  C   UNL A   1      33.022  29.304  24.847  1.00  0.00     0.188 C 
ENDROOT
BRANCH   1   2
ATOM      2  O   UNL A   1      33.056  29.296  23.431  1.00  0.00    -0.376 OA
BRANCH   2   3
ATOM      3  C   UNL A   1      33.922  28.390  22.763  1.00  0.00     0.202 C 
BRANCH   3   4
ATOM      4  C   UNL A   1      33.373  27.116  22.092  1.00  0.00     0.261 C 
BRANCH   4   5
ATOM      5  O   UNL A   1      33.177  25.967  22.946  1.00  0.00    -0.461 OA
BRANCH   5   6
ATOM      6  C   UNL A   1      33.288  24.747  22.348  1.00  0.00     0.333 C 
ATOM      7  O   UNL A   1      33.273  24.591  21.129  1.00  0.00    -0.249 OA
BRANCH   6   8
ATOM      8  C   UNL A   1      33.470  23.549  23.335  1.00  0.00     0.223 C 
BRANCH   8   9
ATOM      9  N   UNL A   1      32.449  23.297  24.371  1.00  0.00    -0.335 N 
ATOM     10  O   UNL A   1      31.083  22.179  25.764  1.00  0.00    -0.269 OA
ATOM     11  C   UNL A   1      31.985  22.141  24.934  1.00  0.00     0.253 C 
ATOM     12  H   UNL A   1      32.024  24.113  24.720  1.00  0.00     0.165 HD
BRANCH  11  13
ATOM     13  C   UNL A   1      32.551  20.843  24.555  1.00  0.00     0.058 A 
ATOM     14  C   UNL A   1      33.559  20.276  25.330  1.00  0.00     0.018 A 
ATOM     15  C   UNL A   1      32.141  20.172  23.415  1.00  0.00     0.126 A 
ATOM     16  C   UNL A   1      34.030  19.007  24.997  1.00  0.00     0.037 A 
ATOM     17  N   UNL A   1      32.560  18.932  23.081  1.00  0.00    -0.249 NA
ATOM     18  C   UNL A   1      33.481  18.366  23.892  1.00  0.00     0.106 A 
ATOM     19  Br  UNL A   1      34.012  16.590  23.500  1.00  0.00    -0.029 Br
ENDBRANCH  11  13
ENDBRANCH   8   9
BRANCH   8  20
ATOM     20  C   UNL A   1      34.842  23.502  24.023  1.00  0.00    -0.014 A 
ATOM     21  C   UNL A   1      35.970  22.882  23.469  1.00  0.00     0.006 A 
ATOM     22  C   UNL A   1      34.983  24.100  25.292  1.00  0.00     0.006 A 
ATOM     23  C   UNL A   1      37.183  22.851  24.161  1.00  0.00     0.000 A 
ATOM     24  C   UNL A   1      36.197  24.068  25.980  1.00  0.00     0.000 A 
ATOM     25  C   UNL A   1      37.299  23.442  25.413  1.00  0.00     0.000 A 
ENDBRANCH   8  20
ENDBRANCH   6   8
ENDBRANCH   5   6
ENDBRANCH   4   5
ENDBRANCH   3   4
ENDBRANCH   2   3
ENDBRANCH   1   2
BRANCH   1  26
ATOM     26  C   UNL A   1      31.768  29.810  25.576  1.00  0.00     0.188 C 
BRANCH  26  27
ATOM     27  O   UNL A   1      31.961  30.632  26.694  1.00  0.00    -0.376 OA
BRANCH  27  28
ATOM     28  C   UNL A   1      31.394  31.924  26.739  1.00  0.00     0.202 C 
BRANCH  28  29
ATOM     29  C   UNL A   1      32.175  33.248  26.876  1.00  0.00     0.261 C 
BRANCH  29  30
ATOM     30  O   UNL A   1      32.235  33.891  28.153  1.00  0.00    -0.460 OA
BRANCH  30  31
ATOM     31  C   UNL A   1      33.335  34.641  28.404  1.00  0.00     0.338 C 
ATOM     32  O   UNL A   1      33.400  35.859  28.465  1.00  0.00    -0.246 OA
BRANCH  31  33
ATOM     33  C   UNL A   1      34.439  33.736  28.789  1.00  0.00     0.060 A 
ATOM     34  C   UNL A   1      34.144  32.453  29.271  1.00  0.00     0.016 A 
ATOM     35  C   UNL A   1      35.762  34.165  28.687  1.00  0.00     0.016 A 
ATOM     36  C   UNL A   1      35.175  31.601  29.674  1.00  0.00     0.010 A 
ATOM     37  C   UNL A   1      36.791  33.321  29.116  1.00  0.00     0.010 A 
ATOM     38  C   UNL A   1      36.504  32.046  29.636  1.00  0.00    -0.014 A 
BRANCH  38  39
ATOM     39  C   UNL A   1      37.583  31.261  30.289  1.00  0.00     0.031 A 
ATOM     40  C   UNL A   1      37.895  31.531  31.734  1.00  0.00     0.074 A 
ATOM     41  C   UNL A   1      38.293  30.342  29.613  1.00  0.00     0.049 A 
ATOM     42  N   UNL A   1      38.864  31.061  32.477  1.00  0.00    -0.248 NA
ATOM     43  C   UNL A   1      37.002  32.472  32.428  1.00  0.00     0.031 C 
ATOM     44  C   UNL A   1      38.078  29.975  28.217  1.00  0.00     0.029 A 
ATOM     45  N   UNL A   1      39.349  29.558  30.008  1.00  0.00    -0.354 N 
ATOM     46  C   UNL A   1      38.714  31.669  33.716  1.00  0.00     0.074 A 
ATOM     47  C   UNL A   1      37.570  32.551  33.621  1.00  0.00     0.031 C 
ATOM     48  C   UNL A   1      38.968  29.029  27.872  1.00  0.00     0.029 A 
ATOM     49  C   UNL A   1      39.856  28.767  29.005  1.00  0.00     0.049 A 
ATOM     50  H   UNL A   1      39.710  29.562  30.925  1.00  0.00     0.167 HD
ATOM     51  C   UNL A   1      39.465  31.510  34.832  1.00  0.00     0.037 A 
ATOM     52  C   UNL A   1      40.933  27.956  28.991  1.00  0.00     0.037 A 
ATOM     53  C   UNL A   1      40.607  30.637  34.923  1.00  0.00     0.049 A 
ATOM     54  C   UNL A   1      41.791  27.845  30.227  1.00  0.00     0.074 A 
ATOM     55  C   UNL A   1      41.424  30.400  36.015  1.00  0.00     0.029 A 
ATOM     56  N   UNL A   1      41.099  29.867  33.880  1.00  0.00    -0.354 N 
ATOM     57  N   UNL A   1      41.635  28.411  31.399  1.00  0.00    -0.248 NA
ATOM     58  C   UNL A   1      42.986  26.991  30.132  1.00  0.00     0.031 C 
ATOM     59  C   UNL A   1      42.445  29.532  35.616  1.00  0.00     0.029 A 
ATOM     60  C   UNL A   1      42.225  29.174  34.296  1.00  0.00     0.049 A 
ATOM     61  H   UNL A   1      40.707  29.819  32.978  1.00  0.00     0.167 HD
ATOM     62  C   UNL A   1      42.692  27.964  32.186  1.00  0.00     0.074 A 
ATOM     63  C   UNL A   1      43.473  27.065  31.363  1.00  0.00     0.031 C 
ATOM     64  C   UNL A   1      42.989  28.272  33.472  1.00  0.00     0.037 A 
BRANCH  51  65
ATOM     65  C   UNL A   1      39.100  32.332  36.033  1.00  0.00     0.057 A 
ATOM     66  C   UNL A   1      39.567  33.640  36.210  1.00  0.00     0.134 A 
ATOM     67  C   UNL A   1      38.244  31.813  37.014  1.00  0.00     0.134 A 
ATOM     68  F   UNL A   1      40.402  34.191  35.316  1.00  0.00    -0.206 F 
ATOM     69  C   UNL A   1      39.218  34.394  37.333  1.00  0.00     0.040 A 
ATOM     70  C   UNL A   1      37.864  32.568  38.125  1.00  0.00     0.040 A 
ATOM     71  F   UNL A   1      37.756  30.568  36.905  1.00  0.00    -0.206 F 
ATOM     72  C   UNL A   1      38.358  33.860  38.290  1.00  0.00     0.006 A 
ENDBRANCH  51  65
BRANCH  52  73
ATOM     73  C   UNL A   1      41.296  27.207  27.759  1.00  0.00     0.057 A 
ATOM     74  C   UNL A   1      42.067  27.798  26.751  1.00  0.00     0.134 A 
ATOM     75  C   UNL A   1      40.849  25.897  27.539  1.00  0.00     0.134 A 
ATOM     76  F   UNL A   1      42.503  29.060  26.888  1.00  0.00    -0.206 F 
ATOM     77  C   UNL A   1      42.363  27.126  25.563  1.00  0.00     0.040 A 
ATOM     78  C   UNL A   1      41.164  25.202  26.370  1.00  0.00     0.040 A 
ATOM     79  F   UNL A   1      40.103  25.272  28.461  1.00  0.00    -0.206 F 
ATOM     80  C   UNL A   1      41.916  25.820  25.374  1.00  0.00     0.006 A 
ENDBRANCH  52  73
BRANCH  64  81
ATOM     81  C   UNL A   1      44.181  27.598  34.093  1.00  0.00     0.057 A 
ATOM     82  C   UNL A   1      44.102  26.325  34.673  1.00  0.00     0.134 A 
ATOM     83  C   UNL A   1      45.440  28.213  34.060  1.00  0.00     0.134 A 
ATOM     84  F   UNL A   1      42.925  25.683  34.747  1.00  0.00    -0.206 F 
ATOM     85  C   UNL A   1      45.226  25.698  35.214  1.00  0.00     0.040 A 
ATOM     86  C   UNL A   1      46.576  27.583  34.572  1.00  0.00     0.040 A 
ATOM     87  F   UNL A   1      45.591  29.427  33.511  1.00  0.00    -0.206 F 
ATOM     88  C   UNL A   1      46.469  26.324  35.157  1.00  0.00     0.006 A 
ENDBRANCH  64  81
ENDBRANCH  38  39
ENDBRANCH  31  33
ENDBRANCH  30  31
ENDBRANCH  29  30
ENDBRANCH  28  29
ENDBRANCH  27  28
ENDBRANCH  26  27
ENDBRANCH   1  26
TORSDOF 20
ENDMDL
MODEL 2
REMARK VINA RESULT:     -10.8      2.478      4.634
REMARK SMILES O=C(N[C@@H](C(=O)OCCOCCOCCOC(=O)c1ccc(-c2c3nc(c(-c4c(F)cccc4F)c4ccc([nH]4)c(-c4c(F)cccc4F)c4nc(c(-c5c(F)cccc5F)c5ccc2[nH]5)C=C4)C=C3)cc1)c1ccccc1)c1ccc(Br)nc1
REMARK SMILES IDX 11 1 10 2 9 3 8 4 7 5 5 6 6 7 4 8 3 9 1 10 2 11 79 13 80 14
REMARK SMILES IDX 85 15 81 16 84 17 82 18 83 19 73 20 74 21 78 22 75 23 77 24
REMARK SMILES IDX 76 25 12 26 13 27 14 28 15 29 16 30 17 31 18 32 19 33 20 34
REMARK SMILES IDX 72 35 21 36 71 37 22 38 23 39 24 40 65 41 25 42 70 43 64 44
REMARK SMILES IDX 66 45 26 46 69 47 63 48 62 49 27 51 53 52 36 53 52 54 37 55
REMARK SMILES IDX 40 56 51 57 67 58 38 59 39 60 50 62 68 63 41 64 28 65 29 66
REMARK SMILES IDX 34 67 30 68 31 69 33 70 35 71 32 72 54 73 55 74 60 75 56 76
REMARK SMILES IDX 57 77 59 78 61 79 58 80 42 81 43 82 48 83 44 84 45 85 47 86
REMARK SMILES IDX 49 87 46 88
REMARK H PARENT 3 12 66 50 40 61
REMARK Flexibility Score: inf
ROOT
ATOM      1  C   UNL A   1      34.657  31.762  28.401  1.00  0.00     0.188 C 
ENDROOT
BRANCH   1   2
ATOM      2  O   UNL A   1      33.447  31.502  27.712  1.00  0.00    -0.376 OA
BRANCH   2   3
ATOM      3  C   UNL A   1      33.253  30.234  27.103  1.00  0.00     0.202 C 
BRANCH   3   4
ATOM      4  C   UNL A   1      32.623  30.115  25.702  1.00  0.00     0.261 C 
BRANCH   4   5
ATOM      5  O   UNL A   1      32.516  28.784  25.151  1.00  0.00    -0.461 OA
BRANCH   5   6
ATOM      6  C   UNL A   1      32.762  28.664  23.815  1.00  0.00     0.333 C 
ATOM      7  O   UNL A   1      33.718  29.197  23.257  1.00  0.00    -0.249 OA
BRANCH   6   8
ATOM      8  C   UNL A   1      31.746  27.763  23.042  1.00  0.00     0.223 C 
BRANCH   8   9
ATOM      9  N   UNL A   1      32.159  27.118  21.779  1.00  0.00    -0.335 N 
ATOM     10  O   UNL A   1      32.980  25.574  20.364  1.00  0.00    -0.269 OA
ATOM     11  C   UNL A   1      32.665  25.876  21.511  1.00  0.00     0.253 C 
ATOM     12  H   UNL A   1      32.049  27.687  20.984  1.00  0.00     0.165 HD
BRANCH  11  13
ATOM     13  C   UNL A   1      32.844  24.892  22.582  1.00  0.00     0.058 A 
ATOM     14  C   UNL A   1      34.088  24.751  23.192  1.00  0.00     0.018 A 
ATOM     15  C   UNL A   1      31.816  24.057  22.986  1.00  0.00     0.126 A 
ATOM     16  C   UNL A   1      34.217  23.865  24.259  1.00  0.00     0.037 A 
ATOM     17  N   UNL A   1      31.904  23.208  24.032  1.00  0.00    -0.249 NA
ATOM     18  C   UNL A   1      33.099  23.144  24.661  1.00  0.00     0.106 A 
ATOM     19  Br  UNL A   1      33.219  22.035  26.192  1.00  0.00    -0.029 Br
ENDBRANCH  11  13
ENDBRANCH   8   9
BRANCH   8  20
ATOM     20  C   UNL A   1      30.381  28.419  22.795  1.00  0.00    -0.014 A 
ATOM     21  C   UNL A   1      29.169  27.894  23.263  1.00  0.00     0.006 A 
ATOM     22  C   UNL A   1      30.328  29.611  22.044  1.00  0.00     0.006 A 
ATOM     23  C   UNL A   1      27.956  28.527  22.980  1.00  0.00     0.000 A 
ATOM     24  C   UNL A   1      29.115  30.242  21.763  1.00  0.00     0.000 A 
ATOM     25  C   UNL A   1      27.926  29.698  22.233  1.00  0.00     0.000 A 
ENDBRANCH   8  20
ENDBRANCH   6   8
ENDBRANCH   5   6
ENDBRANCH   4   5
ENDBRANCH   3   4
ENDBRANCH   2   3
ENDBRANCH   1   2
BRANCH   1  26
ATOM     26  C   UNL A   1      34.662  32.720  29.601  1.00  0.00     0.188 C 
BRANCH  26  27
ATOM     27  O   UNL A   1      34.894  34.076  29.342  1.00  0.00    -0.376 OA
BRANCH  27  28
ATOM     28  C   UNL A   1      33.855  34.901  28.858  1.00  0.00     0.202 C 
BRANCH  28  29
ATOM     29  C   UNL A   1      32.928  35.785  29.718  1.00  0.00     0.261 C 
BRANCH  29  30
ATOM     30  O   UNL A   1      32.389  35.252  30.932  1.00  0.00    -0.460 OA
BRANCH  30  31
ATOM     31  C   UNL A   1      32.776  35.854  32.082  1.00  0.00     0.338 C 
ATOM     32  O   UNL A   1      32.196  36.748  32.679  1.00  0.00    -0.246 OA
BRANCH  31  33
ATOM     33  C   UNL A   1      33.938  35.119  32.626  1.00  0.00     0.060 A 
ATOM     34  C   UNL A   1      35.214  35.697  32.556  1.00  0.00     0.016 A 
ATOM     35  C   UNL A   1      33.766  33.855  33.189  1.00  0.00     0.016 A 
ATOM     36  C   UNL A   1      36.326  35.000  33.033  1.00  0.00     0.010 A 
ATOM     37  C   UNL A   1      34.884  33.147  33.640  1.00  0.00     0.010 A 
ATOM     38  C   UNL A   1      36.173  33.702  33.540  1.00  0.00    -0.014 A 
BRANCH  38  39
ATOM     39  C   UNL A   1      37.359  32.853  33.815  1.00  0.00     0.031 A 
ATOM     40  C   UNL A   1      38.126  33.078  35.088  1.00  0.00     0.074 A 
ATOM     41  C   UNL A   1      37.770  31.913  32.946  1.00  0.00     0.049 A 
ATOM     42  N   UNL A   1      39.254  32.546  35.484  1.00  0.00    -0.248 NA
ATOM     43  C   UNL A   1      37.549  34.047  36.032  1.00  0.00     0.031 C 
ATOM     44  C   UNL A   1      37.106  31.586  31.688  1.00  0.00     0.029 A 
ATOM     45  N   UNL A   1      38.854  31.071  32.984  1.00  0.00    -0.354 N 
ATOM     46  C   UNL A   1      39.535  33.136  36.709  1.00  0.00     0.074 A 
ATOM     47  C   UNL A   1      38.469  34.074  36.984  1.00  0.00     0.031 C 
ATOM     48  C   UNL A   1      37.790  30.604  31.076  1.00  0.00     0.029 A 
ATOM     49  C   UNL A   1      38.975  30.277  31.868  1.00  0.00     0.049 A 
ATOM     50  H   UNL A   1      39.486  31.039  33.738  1.00  0.00     0.167 HD
ATOM     51  C   UNL A   1      40.591  32.917  37.529  1.00  0.00     0.037 A 
ATOM     52  C   UNL A   1      39.949  29.415  31.511  1.00  0.00     0.037 A 
ATOM     53  C   UNL A   1      41.655  31.988  37.251  1.00  0.00     0.049 A 
ATOM     54  C   UNL A   1      41.147  29.236  32.412  1.00  0.00     0.074 A 
ATOM     55  C   UNL A   1      42.762  31.689  38.027  1.00  0.00     0.029 A 
ATOM     56  N   UNL A   1      41.752  31.216  36.103  1.00  0.00    -0.354 N 
ATOM     57  N   UNL A   1      41.398  29.786  33.575  1.00  0.00    -0.248 NA
ATOM     58  C   UNL A   1      42.203  28.328  31.940  1.00  0.00     0.031 C 
ATOM     59  C   UNL A   1      43.558  30.781  37.322  1.00  0.00     0.029 A 
ATOM     60  C   UNL A   1      42.914  30.461  36.138  1.00  0.00     0.049 A 
ATOM     61  H   UNL A   1      41.093  31.205  35.371  1.00  0.00     0.167 HD
ATOM     62  C   UNL A   1      42.625  29.272  33.985  1.00  0.00     0.074 A 
ATOM     63  C   UNL A   1      43.057  28.353  32.953  1.00  0.00     0.031 C 
ATOM     64  C   UNL A   1      43.329  29.539  35.112  1.00  0.00     0.037 A 
BRANCH  51  65
ATOM     65  C   UNL A   1      40.668  33.732  38.787  1.00  0.00     0.057 A 
ATOM     66  C   UNL A   1      41.436  34.900  38.872  1.00  0.00     0.134 A 
ATOM     67  C   UNL A   1      39.940  33.354  39.923  1.00  0.00     0.134 A 
ATOM     68  F   UNL A   1      42.169  35.310  37.826  1.00  0.00    -0.206 F 
ATOM     69  C   UNL A   1      41.498  35.649  40.050  1.00  0.00     0.040 A 
ATOM     70  C   UNL A   1      39.970  34.110  41.095  1.00  0.00     0.040 A 
ATOM     71  F   UNL A   1      39.180  32.248  39.909  1.00  0.00    -0.206 F 
ATOM     72  C   UNL A   1      40.756  35.258  41.162  1.00  0.00     0.006 A 
ENDBRANCH  51  65
BRANCH  52  73
ATOM     73  C   UNL A   1      39.864  28.673  30.225  1.00  0.00     0.057 A 
ATOM     74  C   UNL A   1      39.210  27.438  30.141  1.00  0.00     0.134 A 
ATOM     75  C   UNL A   1      40.468  29.159  29.057  1.00  0.00     0.134 A 
ATOM     76  F   UNL A   1      38.635  26.904  31.230  1.00  0.00    -0.206 F 
ATOM     77  C   UNL A   1      39.177  26.704  28.954  1.00  0.00     0.040 A 
ATOM     78  C   UNL A   1      40.414  28.451  27.855  1.00  0.00     0.040 A 
ATOM     79  F   UNL A   1      41.114  30.333  29.067  1.00  0.00    -0.206 F 
ATOM     80  C   UNL A   1      39.775  27.214  27.804  1.00  0.00     0.006 A 
ENDBRANCH  52  73
BRANCH  64  81
ATOM     81  C   UNL A   1      44.619  28.795  35.321  1.00  0.00     0.057 A 
ATOM     82  C   UNL A   1      45.851  29.298  34.883  1.00  0.00     0.134 A 
ATOM     83  C   UNL A   1      44.631  27.581  36.021  1.00  0.00     0.134 A 
ATOM     84  F   UNL A   1      45.909  30.451  34.197  1.00  0.00    -0.206 F 
ATOM     85  C   UNL A   1      47.044  28.611  35.115  1.00  0.00     0.040 A 
ATOM     86  C   UNL A   1      45.822  26.901  36.284  1.00  0.00     0.040 A 
ATOM     87  F   UNL A   1      43.490  27.046  36.478  1.00  0.00    -0.206 F 
ATOM     88  C   UNL A   1      47.033  27.413  35.826  1.00  0.00     0.006 A 
ENDBRANCH  64  81
ENDBRANCH  38  39
ENDBRANCH  31  33
ENDBRANCH  30  31
ENDBRANCH  29  30
ENDBRANCH  28  29
ENDBRANCH  27  28
ENDBRANCH  26  27
ENDBRANCH   1  26
TORSDOF 20
ENDMDL
MODEL 3
REMARK VINA RESULT:     -10.8      1.744      6.006
REMARK SMILES O=C(N[C@@H](C(=O)OCCOCCOCCOC(=O)c1ccc(-c2c3nc(c(-c4c(F)cccc4F)c4ccc([nH]4)c(-c4c(F)cccc4F)c4nc(c(-c5c(F)cccc5F)c5ccc2[nH]5)C=C4)C=C3)cc1)c1ccccc1)c1ccc(Br)nc1
REMARK SMILES IDX 11 1 10 2 9 3 8 4 7 5 5 6 6 7 4 8 3 9 1 10 2 11 79 13 80 14
REMARK SMILES IDX 85 15 81 16 84 17 82 18 83 19 73 20 74 21 78 22 75 23 77 24
REMARK SMILES IDX 76 25 12 26 13 27 14 28 15 29 16 30 17 31 18 32 19 33 20 34
REMARK SMILES IDX 72 35 21 36 71 37 22 38 23 39 24 40 65 41 25 42 70 43 64 44
REMARK SMILES IDX 66 45 26 46 69 47 63 48 62 49 27 51 53 52 36 53 52 54 37 55
REMARK SMILES IDX 40 56 51 57 67 58 38 59 39 60 50 62 68 63 41 64 28 65 29 66
REMARK SMILES IDX 34 67 30 68 31 69 33 70 35 71 32 72 54 73 55 74 60 75 56 76
REMARK SMILES IDX 57 77 59 78 61 79 58 80 42 81 43 82 48 83 44 84 45 85 47 86
REMARK SMILES IDX 49 87 46 88
REMARK H PARENT 3 12 66 50 40 61
REMARK Flexibility Score: inf
ROOT
ATOM      1  C   UNL A   1      33.250  29.616  25.835  1.00  0.00     0.188 C 
ENDROOT
BRANCH   1   2
ATOM      2  O   UNL A   1      32.944  29.194  24.518  1.00  0.00    -0.376 OA
BRANCH   2   3
ATOM      3  C   UNL A   1      33.843  28.329  23.840  1.00  0.00     0.202 C 
BRANCH   3   4
ATOM      4  C   UNL A   1      33.381  27.497  22.627  1.00  0.00     0.261 C 
BRANCH   4   5
ATOM      5  O   UNL A   1      32.691  26.261  22.915  1.00  0.00    -0.461 OA
BRANCH   5   6
ATOM      6  C   UNL A   1      33.128  25.157  22.244  1.00  0.00     0.333 C 
ATOM      7  O   UNL A   1      33.443  25.173  21.056  1.00  0.00    -0.249 OA
BRANCH   6   8
ATOM      8  C   UNL A   1      33.232  23.863  23.113  1.00  0.00     0.223 C 
BRANCH   8   9
ATOM      9  N   UNL A   1      32.227  23.610  24.165  1.00  0.00    -0.335 N 
ATOM     10  O   UNL A   1      30.900  22.490  25.595  1.00  0.00    -0.269 OA
ATOM     11  C   UNL A   1      31.793  22.455  24.755  1.00  0.00     0.253 C 
ATOM     12  H   UNL A   1      31.790  24.423  24.505  1.00  0.00     0.165 HD
BRANCH  11  13
ATOM     13  C   UNL A   1      32.381  21.162  24.393  1.00  0.00     0.058 A 
ATOM     14  C   UNL A   1      33.370  20.602  25.197  1.00  0.00     0.018 A 
ATOM     15  C   UNL A   1      32.011  20.488  23.241  1.00  0.00     0.126 A 
ATOM     16  C   UNL A   1      33.861  19.338  24.878  1.00  0.00     0.037 A 
ATOM     17  N   UNL A   1      32.450  19.252  22.919  1.00  0.00    -0.249 NA
ATOM     18  C   UNL A   1      33.351  18.693  23.757  1.00  0.00     0.106 A 
ATOM     19  Br  UNL A   1      33.907  16.922  23.381  1.00  0.00    -0.029 Br
ENDBRANCH  11  13
ENDBRANCH   8   9
BRANCH   8  20
ATOM     20  C   UNL A   1      34.616  23.630  23.736  1.00  0.00    -0.014 A 
ATOM     21  C   UNL A   1      35.615  22.848  23.142  1.00  0.00     0.006 A 
ATOM     22  C   UNL A   1      34.905  24.221  24.983  1.00  0.00     0.006 A 
ATOM     23  C   UNL A   1      36.845  22.653  23.776  1.00  0.00     0.000 A 
ATOM     24  C   UNL A   1      36.135  24.025  25.613  1.00  0.00     0.000 A 
ATOM     25  C   UNL A   1      37.107  23.240  25.007  1.00  0.00     0.000 A 
ENDBRANCH   8  20
ENDBRANCH   6   8
ENDBRANCH   5   6
ENDBRANCH   4   5
ENDBRANCH   3   4
ENDBRANCH   2   3
ENDBRANCH   1   2
BRANCH   1  26
ATOM     26  C   UNL A   1      32.132  30.143  26.747  1.00  0.00     0.188 C 
BRANCH  26  27
ATOM     27  O   UNL A   1      31.340  31.188  26.257  1.00  0.00    -0.376 OA
BRANCH  27  28
ATOM     28  C   UNL A   1      31.528  32.508  26.720  1.00  0.00     0.202 C 
BRANCH  28  29
ATOM     29  C   UNL A   1      32.641  32.979  27.679  1.00  0.00     0.261 C 
BRANCH  29  30
ATOM     30  O   UNL A   1      32.728  34.366  28.018  1.00  0.00    -0.460 OA
BRANCH  30  31
ATOM     31  C   UNL A   1      33.176  34.660  29.262  1.00  0.00     0.338 C 
ATOM     32  O   UNL A   1      32.574  35.259  30.141  1.00  0.00    -0.246 OA
BRANCH  31  33
ATOM     33  C   UNL A   1      34.465  33.967  29.471  1.00  0.00     0.060 A 
ATOM     34  C   UNL A   1      34.570  32.995  30.476  1.00  0.00     0.016 A 
ATOM     35  C   UNL A   1      35.569  34.291  28.684  1.00  0.00     0.016 A 
ATOM     36  C   UNL A   1      35.792  32.358  30.709  1.00  0.00     0.010 A 
ATOM     37  C   UNL A   1      36.797  33.673  28.937  1.00  0.00     0.010 A 
ATOM     38  C   UNL A   1      36.923  32.723  29.967  1.00  0.00    -0.014 A 
BRANCH  38  39
ATOM     39  C   UNL A   1      38.273  32.247  30.364  1.00  0.00     0.031 A 
ATOM     40  C   UNL A   1      38.794  30.974  29.757  1.00  0.00     0.074 A 
ATOM     41  C   UNL A   1      39.019  32.913  31.262  1.00  0.00     0.049 A 
ATOM     42  N   UNL A   1      39.882  30.305  30.038  1.00  0.00    -0.248 NA
ATOM     43  C   UNL A   1      37.964  30.368  28.705  1.00  0.00     0.031 C 
ATOM     44  C   UNL A   1      38.637  34.164  31.908  1.00  0.00     0.029 A 
ATOM     45  N   UNL A   1      40.250  32.620  31.797  1.00  0.00    -0.354 N 
ATOM     46  C   UNL A   1      39.855  29.185  29.217  1.00  0.00     0.074 A 
ATOM     47  C   UNL A   1      38.637  29.259  28.439  1.00  0.00     0.031 C 
ATOM     48  C   UNL A   1      39.618  34.540  32.746  1.00  0.00     0.029 A 
ATOM     49  C   UNL A   1      40.670  33.525  32.742  1.00  0.00     0.049 A 
ATOM     50  H   UNL A   1      40.781  31.836  31.528  1.00  0.00     0.167 HD
ATOM     51  C   UNL A   1      40.761  28.183  29.124  1.00  0.00     0.037 A 
ATOM     52  C   UNL A   1      41.757  33.513  33.539  1.00  0.00     0.037 A 
ATOM     53  C   UNL A   1      41.970  28.108  29.903  1.00  0.00     0.049 A 
ATOM     54  C   UNL A   1      42.720  32.354  33.462  1.00  0.00     0.074 A 
ATOM     55  C   UNL A   1      42.956  27.138  29.870  1.00  0.00     0.029 A 
ATOM     56  N   UNL A   1      42.351  29.033  30.863  1.00  0.00    -0.354 N 
ATOM     57  N   UNL A   1      42.695  31.307  32.673  1.00  0.00    -0.248 NA
ATOM     58  C   UNL A   1      43.855  32.369  34.397  1.00  0.00     0.031 C 
ATOM     59  C   UNL A   1      43.904  27.445  30.852  1.00  0.00     0.029 A 
ATOM     60  C   UNL A   1      43.545  28.642  31.448  1.00  0.00     0.049 A 
ATOM     61  H   UNL A   1      41.848  29.848  31.095  1.00  0.00     0.167 HD
ATOM     62  C   UNL A   1      43.820  30.554  32.999  1.00  0.00     0.074 A 
ATOM     63  C   UNL A   1      44.515  31.274  34.044  1.00  0.00     0.031 C 
ATOM     64  C   UNL A   1      44.236  29.373  32.480  1.00  0.00     0.037 A 
BRANCH  51  65
ATOM     65  C   UNL A   1      40.457  27.063  28.172  1.00  0.00     0.057 A 
ATOM     66  C   UNL A   1      41.002  27.013  26.883  1.00  0.00     0.134 A 
ATOM     67  C   UNL A   1      39.627  26.005  28.564  1.00  0.00     0.134 A 
ATOM     68  F   UNL A   1      41.792  28.003  26.440  1.00  0.00    -0.206 F 
ATOM     69  C   UNL A   1      40.711  25.965  26.008  1.00  0.00     0.040 A 
ATOM     70  C   UNL A   1      39.354  24.936  27.709  1.00  0.00     0.040 A 
ATOM     71  F   UNL A   1      39.075  25.987  29.787  1.00  0.00    -0.206 F 
ATOM     72  C   UNL A   1      39.891  24.918  26.424  1.00  0.00     0.006 A 
ENDBRANCH  51  65
BRANCH  52  73
ATOM     73  C   UNL A   1      41.989  34.613  34.513  1.00  0.00     0.057 A 
ATOM     74  C   UNL A   1      41.611  34.485  35.855  1.00  0.00     0.134 A 
ATOM     75  C   UNL A   1      42.556  35.833  34.121  1.00  0.00     0.134 A 
ATOM     76  F   UNL A   1      41.037  33.352  36.290  1.00  0.00    -0.206 F 
ATOM     77  C   UNL A   1      41.768  35.533  36.765  1.00  0.00     0.040 A 
ATOM     78  C   UNL A   1      42.748  36.877  35.026  1.00  0.00     0.040 A 
ATOM     79  F   UNL A   1      42.937  36.025  32.850  1.00  0.00    -0.206 F 
ATOM     80  C   UNL A   1      42.344  36.732  36.352  1.00  0.00     0.006 A 
ENDBRANCH  52  73
BRANCH  64  81
ATOM     81  C   UNL A   1      45.529  28.802  32.994  1.00  0.00     0.057 A 
ATOM     82  C   UNL A   1      45.569  27.849  34.019  1.00  0.00     0.134 A 
ATOM     83  C   UNL A   1      46.749  29.176  32.414  1.00  0.00     0.134 A 
ATOM     84  F   UNL A   1      44.438  27.455  34.626  1.00  0.00    -0.206 F 
ATOM     85  C   UNL A   1      46.775  27.303  34.463  1.00  0.00     0.040 A 
ATOM     86  C   UNL A   1      47.958  28.615  32.829  1.00  0.00     0.040 A 
ATOM     87  F   UNL A   1      46.784  30.076  31.420  1.00  0.00    -0.206 F 
ATOM     88  C   UNL A   1      47.974  27.679  33.861  1.00  0.00     0.006 A 
ENDBRANCH  64  81
ENDBRANCH  38  39
ENDBRANCH  31  33
ENDBRANCH  30  31
ENDBRANCH  29  30
ENDBRANCH  28  29
ENDBRANCH  27  28
ENDBRANCH  26  27
ENDBRANCH   1  26
TORSDOF 20
ENDMDL
