MODEL 1
REMARK VINA RESULT:     -11.2      0.000      0.000
REMARK SMILES C[C@@H](NC(=O)c1cc(C(=O)OCCOCCOCCOC(=O)c2ccc(-c3c4nc(c(-c5c(F)cccc5F)c5ccc([nH]5)c(-c5c(F)cccc5F)c5nc(c(-c6c(F)cccc6F)c6ccc3[nH]6)C=C5)C=C4)cc2)n(C)n1)c1ccccc1
REMARK SMILES IDX 15 1 14 2 13 3 12 4 11 5 9 6 10 7 8 8 6 9 7 10 79 11 77 12
REMARK SMILES IDX 78 13 4 14 3 15 5 17 2 18 1 19 80 20 81 21 85 22 82 23 84 24
REMARK SMILES IDX 83 25 16 26 17 27 18 28 19 29 20 30 21 31 22 32 23 33 24 34
REMARK SMILES IDX 76 35 25 36 75 37 26 38 27 39 28 40 69 41 29 42 74 43 68 44
REMARK SMILES IDX 70 45 30 46 73 47 67 48 66 49 31 51 57 52 40 53 56 54 41 55
REMARK SMILES IDX 44 56 55 57 71 58 42 59 43 60 54 62 72 63 45 64 32 65 33 66
REMARK SMILES IDX 38 67 34 68 35 69 37 70 39 71 36 72 58 73 59 74 64 75 60 76
REMARK SMILES IDX 61 77 63 78 65 79 62 80 46 81 47 82 52 83 48 84 49 85 51 86
REMARK SMILES IDX 53 87 50 88
REMARK H PARENT 3 16 70 50 44 61
REMARK Flexibility Score: inf
ROOT
ATOM      1  C   UNL A   1      44.537  19.094  25.390  1.00  0.00     0.188 C 
ENDROOT
BRANCH   1   2
ATOM      2  O   UNL A   1      43.438  18.202  25.268  1.00  0.00    -0.376 OA
BRANCH   2   3
ATOM      3  C   UNL A   1      42.322  18.533  26.100  1.00  0.00     0.202 C 
BRANCH   3   4
ATOM      4  C   UNL A   1      41.927  20.024  26.103  1.00  0.00     0.261 C 
BRANCH   4   5
ATOM      5  O   UNL A   1      40.504  20.287  25.947  1.00  0.00    -0.459 OA
BRANCH   5   6
ATOM      6  C   UNL A   1      39.990  21.274  26.755  1.00  0.00     0.356 C 
ATOM      7  O   UNL A   1      40.412  21.523  27.873  1.00  0.00    -0.244 OA
BRANCH   6   8
ATOM      8  C   UNL A   1      38.937  22.043  26.113  1.00  0.00     0.146 A 
ATOM      9  C   UNL A   1      37.175  22.639  24.817  1.00  0.00     0.151 A 
ATOM     10  C   UNL A   1      38.130  21.615  25.060  1.00  0.00     0.071 A 
ATOM     11  N   UNL A   1      37.480  23.720  25.558  1.00  0.00    -0.167 NA
ATOM     12  N   UNL A   1      38.530  23.337  26.327  1.00  0.00    -0.260 N 
ATOM     13  C   UNL A   1      39.143  24.355  27.150  1.00  0.00     0.174 C 
BRANCH   9  14
ATOM     14  C   UNL A   1      36.099  22.657  23.802  1.00  0.00     0.272 C 
ATOM     15  N   UNL A   1      34.762  22.464  24.123  1.00  0.00    -0.344 N 
ATOM     16  H   UNL A   1      34.133  23.033  23.624  1.00  0.00     0.164 HD
ATOM     17  O   UNL A   1      36.355  22.886  22.617  1.00  0.00    -0.267 OA
BRANCH  15  18
ATOM     18  C   UNL A   1      34.132  21.552  25.084  1.00  0.00     0.109 C 
ATOM     19  C   UNL A   1      34.873  21.538  26.427  1.00  0.00     0.036 C 
BRANCH  18  20
ATOM     20  C   UNL A   1      33.943  20.163  24.548  1.00  0.00    -0.026 A 
ATOM     21  C   UNL A   1      34.993  19.255  24.712  1.00  0.00     0.006 A 
ATOM     22  C   UNL A   1      32.708  19.723  24.048  1.00  0.00     0.006 A 
ATOM     23  C   UNL A   1      34.768  17.905  24.504  1.00  0.00     0.000 A 
ATOM     24  C   UNL A   1      32.489  18.366  23.833  1.00  0.00     0.000 A 
ATOM     25  C   UNL A   1      33.507  17.457  24.105  1.00  0.00     0.000 A 
ENDBRANCH  18  20
ENDBRANCH  15  18
ENDBRANCH   9  14
ENDBRANCH   6   8
ENDBRANCH   5   6
ENDBRANCH   4   5
ENDBRANCH   3   4
ENDBRANCH   2   3
ENDBRANCH   1   2
BRANCH   1  26
ATOM     26  C   UNL A   1      45.160  19.541  24.062  1.00  0.00     0.188 C 
BRANCH  26  27
ATOM     27  O   UNL A   1      44.547  20.731  23.578  1.00  0.00    -0.376 OA
BRANCH  27  28
ATOM     28  C   UNL A   1      44.946  21.982  24.142  1.00  0.00     0.202 C 
BRANCH  28  29
ATOM     29  C   UNL A   1      43.980  22.733  25.075  1.00  0.00     0.261 C 
BRANCH  29  30
ATOM     30  O   UNL A   1      43.706  24.093  24.684  1.00  0.00    -0.460 OA
BRANCH  30  31
ATOM     31  C   UNL A   1      44.522  25.045  25.198  1.00  0.00     0.338 C 
ATOM     32  O   UNL A   1      45.588  25.409  24.733  1.00  0.00    -0.246 OA
BRANCH  31  33
ATOM     33  C   UNL A   1      43.819  25.727  26.317  1.00  0.00     0.060 A 
ATOM     34  C   UNL A   1      44.133  27.066  26.556  1.00  0.00     0.016 A 
ATOM     35  C   UNL A   1      42.848  25.102  27.106  1.00  0.00     0.016 A 
ATOM     36  C   UNL A   1      43.473  27.796  27.545  1.00  0.00     0.010 A 
ATOM     37  C   UNL A   1      42.213  25.820  28.134  1.00  0.00     0.010 A 
ATOM     38  C   UNL A   1      42.529  27.172  28.364  1.00  0.00    -0.014 A 
BRANCH  38  39
ATOM     39  C   UNL A   1      42.083  27.879  29.593  1.00  0.00     0.031 A 
ATOM     40  C   UNL A   1      40.843  28.725  29.503  1.00  0.00     0.074 A 
ATOM     41  C   UNL A   1      42.678  27.703  30.787  1.00  0.00     0.049 A 
ATOM     42  N   UNL A   1      40.270  29.467  30.416  1.00  0.00    -0.248 NA
ATOM     43  C   UNL A   1      40.144  28.714  28.209  1.00  0.00     0.031 C 
ATOM     44  C   UNL A   1      43.809  26.820  31.057  1.00  0.00     0.029 A 
ATOM     45  N   UNL A   1      42.391  28.265  32.010  1.00  0.00    -0.354 N 
ATOM     46  C   UNL A   1      39.154  30.019  29.804  1.00  0.00     0.074 A 
ATOM     47  C   UNL A   1      39.135  29.538  28.439  1.00  0.00     0.031 C 
ATOM     48  C   UNL A   1      44.126  26.905  32.362  1.00  0.00     0.029 A 
ATOM     49  C   UNL A   1      43.248  27.879  33.012  1.00  0.00     0.049 A 
ATOM     50  H   UNL A   1      41.641  28.887  32.153  1.00  0.00     0.167 HD
ATOM     51  C   UNL A   1      38.223  30.852  30.324  1.00  0.00     0.037 A 
ATOM     52  C   UNL A   1      43.331  28.289  34.295  1.00  0.00     0.037 A 
ATOM     53  C   UNL A   1      38.229  31.340  31.677  1.00  0.00     0.049 A 
ATOM     54  C   UNL A   1      42.364  29.326  34.816  1.00  0.00     0.074 A 
ATOM     55  C   UNL A   1      37.342  32.212  32.281  1.00  0.00     0.029 A 
ATOM     56  N   UNL A   1      39.172  30.999  32.633  1.00  0.00    -0.354 N 
ATOM     57  N   UNL A   1      41.335  29.876  34.220  1.00  0.00    -0.248 NA
ATOM     58  C   UNL A   1      42.583  29.807  36.191  1.00  0.00     0.031 C 
ATOM     59  C   UNL A   1      37.775  32.439  33.591  1.00  0.00     0.029 A 
ATOM     60  C   UNL A   1      38.901  31.664  33.817  1.00  0.00     0.049 A 
ATOM     61  H   UNL A   1      39.921  30.377  32.492  1.00  0.00     0.167 HD
ATOM     62  C   UNL A   1      40.767  30.738  35.153  1.00  0.00     0.074 A 
ATOM     63  C   UNL A   1      41.559  30.632  36.358  1.00  0.00     0.031 C 
ATOM     64  C   UNL A   1      39.683  31.542  35.021  1.00  0.00     0.037 A 
BRANCH  51  65
ATOM     65  C   UNL A   1      37.148  31.332  29.396  1.00  0.00     0.057 A 
ATOM     66  C   UNL A   1      37.193  32.597  28.797  1.00  0.00     0.134 A 
ATOM     67  C   UNL A   1      36.052  30.512  29.104  1.00  0.00     0.134 A 
ATOM     68  F   UNL A   1      38.205  33.438  29.057  1.00  0.00    -0.206 F 
ATOM     69  C   UNL A   1      36.167  33.040  27.960  1.00  0.00     0.040 A 
ATOM     70  C   UNL A   1      35.035  30.934  28.247  1.00  0.00     0.040 A 
ATOM     71  F   UNL A   1      35.951  29.290  29.648  1.00  0.00    -0.206 F 
ATOM     72  C   UNL A   1      35.088  32.204  27.679  1.00  0.00     0.006 A 
ENDBRANCH  51  65
BRANCH  52  73
ATOM     73  C   UNL A   1      44.396  27.763  35.189  1.00  0.00     0.057 A 
ATOM     74  C   UNL A   1      45.672  28.339  35.222  1.00  0.00     0.134 A 
ATOM     75  C   UNL A   1      44.184  26.626  35.980  1.00  0.00     0.134 A 
ATOM     76  F   UNL A   1      45.949  29.408  34.461  1.00  0.00    -0.206 F 
ATOM     77  C   UNL A   1      46.703  27.793  35.991  1.00  0.00     0.040 A 
ATOM     78  C   UNL A   1      45.198  26.085  36.773  1.00  0.00     0.040 A 
ATOM     79  F   UNL A   1      42.990  26.017  35.985  1.00  0.00    -0.206 F 
ATOM     80  C   UNL A   1      46.465  26.664  36.772  1.00  0.00     0.006 A 
ENDBRANCH  52  73
BRANCH  64  81
ATOM     81  C   UNL A   1      39.252  32.338  36.221  1.00  0.00     0.057 A 
ATOM     82  C   UNL A   1      39.731  33.632  36.467  1.00  0.00     0.134 A 
ATOM     83  C   UNL A   1      38.303  31.822  37.114  1.00  0.00     0.134 A 
ATOM     84  F   UNL A   1      40.649  34.183  35.659  1.00  0.00    -0.206 F 
ATOM     85  C   UNL A   1      39.298  34.373  37.569  1.00  0.00     0.040 A 
ATOM     86  C   UNL A   1      37.842  32.563  38.202  1.00  0.00     0.040 A 
ATOM     87  F   UNL A   1      37.794  30.594  36.931  1.00  0.00    -0.206 F 
ATOM     88  C   UNL A   1      38.343  33.841  38.436  1.00  0.00     0.006 A 
ENDBRANCH  64  81
ENDBRANCH  38  39
ENDBRANCH  31  33
ENDBRANCH  30  31
ENDBRANCH  29  30
ENDBRANCH  28  29
ENDBRANCH  27  28
ENDBRANCH  26  27
ENDBRANCH   1  26
TORSDOF 20
ENDMDL
MODEL 2
REMARK VINA RESULT:     -10.9      2.234      7.038
REMARK SMILES C[C@@H](NC(=O)c1cc(C(=O)OCCOCCOCCOC(=O)c2ccc(-c3c4nc(c(-c5c(F)cccc5F)c5ccc([nH]5)c(-c5c(F)cccc5F)c5nc(c(-c6c(F)cccc6F)c6ccc3[nH]6)C=C5)C=C4)cc2)n(C)n1)c1ccccc1
REMARK SMILES IDX 15 1 14 2 13 3 12 4 11 5 9 6 10 7 8 8 6 9 7 10 79 11 77 12
REMARK SMILES IDX 78 13 4 14 3 15 5 17 2 18 1 19 80 20 81 21 85 22 82 23 84 24
REMARK SMILES IDX 83 25 16 26 17 27 18 28 19 29 20 30 21 31 22 32 23 33 24 34
REMARK SMILES IDX 76 35 25 36 75 37 26 38 27 39 28 40 69 41 29 42 74 43 68 44
REMARK SMILES IDX 70 45 30 46 73 47 67 48 66 49 31 51 57 52 40 53 56 54 41 55
REMARK SMILES IDX 44 56 55 57 71 58 42 59 43 60 54 62 72 63 45 64 32 65 33 66
REMARK SMILES IDX 38 67 34 68 35 69 37 70 39 71 36 72 58 73 59 74 64 75 60 76
REMARK SMILES IDX 61 77 63 78 65 79 62 80 46 81 47 82 52 83 48 84 49 85 51 86
REMARK SMILES IDX 53 87 50 88
REMARK H PARENT 3 16 70 50 44 61
REMARK Flexibility Score: inf
ROOT
ATOM      1  C   UNL A   1      40.195  21.627  26.157  1.00  0.00     0.188 C 
ENDROOT
BRANCH   1   2
ATOM      2  O   UNL A   1      38.775  21.671  26.163  1.00  0.00    -0.376 OA
BRANCH   2   3
ATOM      3  C   UNL A   1      38.161  20.843  25.171  1.00  0.00     0.202 C 
BRANCH   3   4
ATOM      4  C   UNL A   1      36.770  21.312  24.696  1.00  0.00     0.261 C 
BRANCH   4   5
ATOM      5  O   UNL A   1      35.903  21.831  25.743  1.00  0.00    -0.459 OA
BRANCH   5   6
ATOM      6  C   UNL A   1      35.671  23.186  25.705  1.00  0.00     0.356 C 
ATOM      7  O   UNL A   1      36.549  24.027  25.819  1.00  0.00    -0.244 OA
BRANCH   6   8
ATOM      8  C   UNL A   1      34.281  23.518  25.443  1.00  0.00     0.146 A 
ATOM      9  C   UNL A   1      32.373  24.195  24.423  1.00  0.00     0.151 A 
ATOM     10  C   UNL A   1      33.790  24.169  24.312  1.00  0.00     0.071 A 
ATOM     11  N   UNL A   1      32.011  23.744  25.638  1.00  0.00    -0.167 NA
ATOM     12  N   UNL A   1      33.166  23.340  26.224  1.00  0.00    -0.260 N 
ATOM     13  C   UNL A   1      33.084  22.909  27.601  1.00  0.00     0.174 C 
BRANCH   9  14
ATOM     14  C   UNL A   1      31.397  24.774  23.474  1.00  0.00     0.272 C 
ATOM     15  N   UNL A   1      31.624  25.967  22.801  1.00  0.00    -0.344 N 
ATOM     16  H   UNL A   1      31.314  25.977  21.866  1.00  0.00     0.164 HD
ATOM     17  O   UNL A   1      30.343  24.188  23.218  1.00  0.00    -0.267 OA
BRANCH  15  18
ATOM     18  C   UNL A   1      32.250  27.215  23.250  1.00  0.00     0.109 C 
ATOM     19  C   UNL A   1      33.633  27.419  22.619  1.00  0.00     0.036 C 
BRANCH  18  20
ATOM     20  C   UNL A   1      32.305  27.346  24.744  1.00  0.00    -0.026 A 
ATOM     21  C   UNL A   1      33.558  27.538  25.334  1.00  0.00     0.006 A 
ATOM     22  C   UNL A   1      31.143  27.444  25.523  1.00  0.00     0.006 A 
ATOM     23  C   UNL A   1      33.637  27.951  26.653  1.00  0.00     0.000 A 
ATOM     24  C   UNL A   1      31.227  27.853  26.851  1.00  0.00     0.000 A 
ATOM     25  C   UNL A   1      32.472  28.147  27.398  1.00  0.00     0.000 A 
ENDBRANCH  18  20
ENDBRANCH  15  18
ENDBRANCH   9  14
ENDBRANCH   6   8
ENDBRANCH   5   6
ENDBRANCH   4   5
ENDBRANCH   3   4
ENDBRANCH   2   3
ENDBRANCH   1   2
BRANCH   1  26
ATOM     26  C   UNL A   1      40.813  20.517  27.017  1.00  0.00     0.188 C 
BRANCH  26  27
ATOM     27  O   UNL A   1      42.234  20.608  27.034  1.00  0.00    -0.376 OA
BRANCH  27  28
ATOM     28  C   UNL A   1      42.945  20.406  25.812  1.00  0.00     0.202 C 
BRANCH  28  29
ATOM     29  C   UNL A   1      43.905  21.497  25.306  1.00  0.00     0.261 C 
BRANCH  29  30
ATOM     30  O   UNL A   1      43.260  22.720  24.899  1.00  0.00    -0.460 OA
BRANCH  30  31
ATOM     31  C   UNL A   1      43.970  23.862  25.066  1.00  0.00     0.338 C 
ATOM     32  O   UNL A   1      44.940  24.209  24.415  1.00  0.00    -0.246 OA
BRANCH  31  33
ATOM     33  C   UNL A   1      43.260  24.730  26.042  1.00  0.00     0.060 A 
ATOM     34  C   UNL A   1      43.657  26.066  26.124  1.00  0.00     0.016 A 
ATOM     35  C   UNL A   1      42.208  24.279  26.845  1.00  0.00     0.016 A 
ATOM     36  C   UNL A   1      43.000  26.962  26.968  1.00  0.00     0.010 A 
ATOM     37  C   UNL A   1      41.573  25.167  27.731  1.00  0.00     0.010 A 
ATOM     38  C   UNL A   1      41.972  26.514  27.802  1.00  0.00    -0.014 A 
BRANCH  38  39
ATOM     39  C   UNL A   1      41.515  27.406  28.900  1.00  0.00     0.031 A 
ATOM     40  C   UNL A   1      42.306  27.404  30.179  1.00  0.00     0.074 A 
ATOM     41  C   UNL A   1      40.503  28.280  28.752  1.00  0.00     0.049 A 
ATOM     42  N   UNL A   1      42.096  28.058  31.293  1.00  0.00    -0.248 NA
ATOM     43  C   UNL A   1      43.511  26.559  30.193  1.00  0.00     0.031 C 
ATOM     44  C   UNL A   1      39.724  28.487  27.533  1.00  0.00     0.029 A 
ATOM     45  N   UNL A   1      39.965  29.173  29.650  1.00  0.00    -0.354 N 
ATOM     46  C   UNL A   1      43.133  27.695  32.141  1.00  0.00     0.074 A 
ATOM     47  C   UNL A   1      43.964  26.754  31.420  1.00  0.00     0.031 C 
ATOM     48  C   UNL A   1      38.803  29.442  27.762  1.00  0.00     0.029 A 
ATOM     49  C   UNL A   1      38.898  29.883  29.155  1.00  0.00     0.049 A 
ATOM     50  H   UNL A   1      40.312  29.291  30.564  1.00  0.00     0.167 HD
ATOM     51  C   UNL A   1      43.378  28.105  33.408  1.00  0.00     0.037 A 
ATOM     52  C   UNL A   1      38.077  30.763  29.765  1.00  0.00     0.037 A 
ATOM     53  C   UNL A   1      42.561  29.037  34.136  1.00  0.00     0.049 A 
ATOM     54  C   UNL A   1      38.287  31.100  31.222  1.00  0.00     0.074 A 
ATOM     55  C   UNL A   1      42.717  29.486  35.435  1.00  0.00     0.029 A 
ATOM     56  N   UNL A   1      41.432  29.660  33.629  1.00  0.00    -0.354 N 
ATOM     57  N   UNL A   1      39.245  30.722  32.032  1.00  0.00    -0.248 NA
ATOM     58  C   UNL A   1      37.288  31.980  31.852  1.00  0.00     0.031 C 
ATOM     59  C   UNL A   1      41.655  30.345  35.732  1.00  0.00     0.029 A 
ATOM     60  C   UNL A   1      40.868  30.472  34.599  1.00  0.00     0.049 A 
ATOM     61  H   UNL A   1      41.084  29.544  32.716  1.00  0.00     0.167 HD
ATOM     62  C   UNL A   1      38.984  31.342  33.251  1.00  0.00     0.074 A 
ATOM     63  C   UNL A   1      37.784  32.128  33.072  1.00  0.00     0.031 C 
ATOM     64  C   UNL A   1      39.681  31.267  34.412  1.00  0.00     0.037 A 
BRANCH  51  65
ATOM     65  C   UNL A   1      44.557  27.493  34.101  1.00  0.00     0.057 A 
ATOM     66  C   UNL A   1      45.825  28.087  34.078  1.00  0.00     0.134 A 
ATOM     67  C   UNL A   1      44.416  26.286  34.798  1.00  0.00     0.134 A 
ATOM     68  F   UNL A   1      46.028  29.230  33.406  1.00  0.00    -0.206 F 
ATOM     69  C   UNL A   1      46.920  27.486  34.703  1.00  0.00     0.040 A 
ATOM     70  C   UNL A   1      45.497  25.692  35.449  1.00  0.00     0.040 A 
ATOM     71  F   UNL A   1      43.228  25.668  34.855  1.00  0.00    -0.206 F 
ATOM     72  C   UNL A   1      46.754  26.288  35.395  1.00  0.00     0.006 A 
ENDBRANCH  51  65
BRANCH  52  73
ATOM     73  C   UNL A   1      36.937  31.369  29.028  1.00  0.00     0.057 A 
ATOM     74  C   UNL A   1      36.961  32.710  28.624  1.00  0.00     0.134 A 
ATOM     75  C   UNL A   1      35.767  30.644  28.774  1.00  0.00     0.134 A 
ATOM     76  F   UNL A   1      38.038  33.470  28.870  1.00  0.00    -0.206 F 
ATOM     77  C   UNL A   1      35.857  33.312  28.015  1.00  0.00     0.040 A 
ATOM     78  C   UNL A   1      34.666  31.224  28.142  1.00  0.00     0.040 A 
ATOM     79  F   UNL A   1      35.672  29.359  29.147  1.00  0.00    -0.206 F 
ATOM     80  C   UNL A   1      34.706  32.566  27.769  1.00  0.00     0.006 A 
ENDBRANCH  52  73
BRANCH  64  81
ATOM     81  C   UNL A   1      39.199  32.092  35.572  1.00  0.00     0.057 A 
ATOM     82  C   UNL A   1      38.367  31.562  36.566  1.00  0.00     0.134 A 
ATOM     83  C   UNL A   1      39.618  33.421  35.722  1.00  0.00     0.134 A 
ATOM     84  F   UNL A   1      37.920  30.301  36.479  1.00  0.00    -0.206 F 
ATOM     85  C   UNL A   1      37.952  32.331  37.656  1.00  0.00     0.040 A 
ATOM     86  C   UNL A   1      39.233  34.190  36.821  1.00  0.00     0.040 A 
ATOM     87  F   UNL A   1      40.425  33.988  34.812  1.00  0.00    -0.206 F 
ATOM     88  C   UNL A   1      38.392  33.647  37.790  1.00  0.00     0.006 A 
ENDBRANCH  64  81
ENDBRANCH  38  39
ENDBRANCH  31  33
ENDBRANCH  30  31
ENDBRANCH  29  30
ENDBRANCH  28  29
ENDBRANCH  27  28
ENDBRANCH  26  27
ENDBRANCH   1  26
TORSDOF 20
ENDMDL
MODEL 3
REMARK VINA RESULT:     -10.8      2.160      4.043
REMARK SMILES C[C@@H](NC(=O)c1cc(C(=O)OCCOCCOCCOC(=O)c2ccc(-c3c4nc(c(-c5c(F)cccc5F)c5ccc([nH]5)c(-c5c(F)cccc5F)c5nc(c(-c6c(F)cccc6F)c6ccc3[nH]6)C=C5)C=C4)cc2)n(C)n1)c1ccccc1
REMARK SMILES IDX 15 1 14 2 13 3 12 4 11 5 9 6 10 7 8 8 6 9 7 10 79 11 77 12
REMARK SMILES IDX 78 13 4 14 3 15 5 17 2 18 1 19 80 20 81 21 85 22 82 23 84 24
REMARK SMILES IDX 83 25 16 26 17 27 18 28 19 29 20 30 21 31 22 32 23 33 24 34
REMARK SMILES IDX 76 35 25 36 75 37 26 38 27 39 28 40 69 41 29 42 74 43 68 44
REMARK SMILES IDX 70 45 30 46 73 47 67 48 66 49 31 51 57 52 40 53 56 54 41 55
REMARK SMILES IDX 44 56 55 57 71 58 42 59 43 60 54 62 72 63 45 64 32 65 33 66
REMARK SMILES IDX 38 67 34 68 35 69 37 70 39 71 36 72 58 73 59 74 64 75 60 76
REMARK SMILES IDX 61 77 63 78 65 79 62 80 46 81 47 82 52 83 48 84 49 85 51 86
REMARK SMILES IDX 53 87 50 88
REMARK H PARENT 3 16 70 50 44 61
REMARK Flexibility Score: inf
ROOT
ATOM      1  C   UNL A   1      40.074  21.403  26.418  1.00  0.00     0.188 C 
ENDROOT
BRANCH   1   2
ATOM      2  O   UNL A   1      38.898  22.199  26.449  1.00  0.00    -0.376 OA
BRANCH   2   3
ATOM      3  C   UNL A   1      38.022  21.991  25.337  1.00  0.00     0.202 C 
BRANCH   3   4
ATOM      4  C   UNL A   1      36.539  21.773  25.703  1.00  0.00     0.261 C 
BRANCH   4   5
ATOM      5  O   UNL A   1      35.668  21.451  24.583  1.00  0.00    -0.459 OA
BRANCH   5   6
ATOM      6  C   UNL A   1      34.894  22.488  24.116  1.00  0.00     0.356 C 
ATOM      7  O   UNL A   1      35.285  23.315  23.309  1.00  0.00    -0.244 OA
BRANCH   6   8
ATOM      8  C   UNL A   1      33.533  22.457  24.627  1.00  0.00     0.146 A 
ATOM      9  C   UNL A   1      31.590  23.029  25.645  1.00  0.00     0.151 A 
ATOM     10  C   UNL A   1      32.957  23.389  25.488  1.00  0.00     0.071 A 
ATOM     11  N   UNL A   1      31.371  21.839  25.057  1.00  0.00    -0.167 NA
ATOM     12  N   UNL A   1      32.543  21.522  24.451  1.00  0.00    -0.260 N 
ATOM     13  C   UNL A   1      32.626  20.221  23.828  1.00  0.00     0.174 C 
BRANCH   9  14
ATOM     14  C   UNL A   1      30.559  23.708  26.460  1.00  0.00     0.272 C 
ATOM     15  N   UNL A   1      29.811  24.776  25.982  1.00  0.00    -0.344 N 
ATOM     16  H   UNL A   1      28.865  24.770  26.256  1.00  0.00     0.164 HD
ATOM     17  O   UNL A   1      30.299  23.317  27.600  1.00  0.00    -0.267 OA
BRANCH  15  18
ATOM     18  C   UNL A   1      30.196  25.911  25.138  1.00  0.00     0.109 C 
ATOM     19  C   UNL A   1      30.156  25.552  23.647  1.00  0.00     0.036 C 
BRANCH  18  20
ATOM     20  C   UNL A   1      31.514  26.516  25.521  1.00  0.00    -0.026 A 
ATOM     21  C   UNL A   1      32.510  26.577  24.542  1.00  0.00     0.006 A 
ATOM     22  C   UNL A   1      31.708  27.152  26.756  1.00  0.00     0.006 A 
ATOM     23  C   UNL A   1      33.624  27.373  24.748  1.00  0.00     0.000 A 
ATOM     24  C   UNL A   1      32.833  27.945  26.962  1.00  0.00     0.000 A 
ATOM     25  C   UNL A   1      33.765  28.088  25.939  1.00  0.00     0.000 A 
ENDBRANCH  18  20
ENDBRANCH  15  18
ENDBRANCH   9  14
ENDBRANCH   6   8
ENDBRANCH   5   6
ENDBRANCH   4   5
ENDBRANCH   3   4
ENDBRANCH   2   3
ENDBRANCH   1   2
BRANCH   1  26
ATOM     26  C   UNL A   1      41.017  21.591  27.613  1.00  0.00     0.188 C 
BRANCH  26  27
ATOM     27  O   UNL A   1      42.335  21.151  27.305  1.00  0.00    -0.376 OA
BRANCH  27  28
ATOM     28  C   UNL A   1      42.752  21.150  25.938  1.00  0.00     0.202 C 
BRANCH  28  29
ATOM     29  C   UNL A   1      43.731  22.230  25.445  1.00  0.00     0.261 C 
BRANCH  29  30
ATOM     30  O   UNL A   1      43.115  23.492  25.120  1.00  0.00    -0.460 OA
BRANCH  30  31
ATOM     31  C   UNL A   1      43.868  24.601  25.324  1.00  0.00     0.338 C 
ATOM     32  O   UNL A   1      44.807  24.970  24.642  1.00  0.00    -0.246 OA
BRANCH  31  33
ATOM     33  C   UNL A   1      43.241  25.414  26.400  1.00  0.00     0.060 A 
ATOM     34  C   UNL A   1      43.833  26.639  26.710  1.00  0.00     0.016 A 
ATOM     35  C   UNL A   1      42.084  25.021  27.081  1.00  0.00     0.016 A 
ATOM     36  C   UNL A   1      43.272  27.490  27.663  1.00  0.00     0.010 A 
ATOM     37  C   UNL A   1      41.541  25.855  28.074  1.00  0.00     0.010 A 
ATOM     38  C   UNL A   1      42.138  27.093  28.375  1.00  0.00    -0.014 A 
BRANCH  38  39
ATOM     39  C   UNL A   1      41.757  27.869  29.585  1.00  0.00     0.031 A 
ATOM     40  C   UNL A   1      40.536  28.742  29.500  1.00  0.00     0.074 A 
ATOM     41  C   UNL A   1      42.391  27.733  30.764  1.00  0.00     0.049 A 
ATOM     42  N   UNL A   1      40.017  29.542  30.397  1.00  0.00    -0.248 NA
ATOM     43  C   UNL A   1      39.789  28.690  28.234  1.00  0.00     0.031 C 
ATOM     44  C   UNL A   1      43.510  26.833  31.034  1.00  0.00     0.029 A 
ATOM     45  N   UNL A   1      42.166  28.360  31.968  1.00  0.00    -0.354 N 
ATOM     46  C   UNL A   1      38.893  30.095  29.800  1.00  0.00     0.074 A 
ATOM     47  C   UNL A   1      38.811  29.551  28.461  1.00  0.00     0.031 C 
ATOM     48  C   UNL A   1      43.878  26.971  32.321  1.00  0.00     0.029 A 
ATOM     49  C   UNL A   1      43.050  27.998  32.955  1.00  0.00     0.049 A 
ATOM     50  H   UNL A   1      41.438  29.008  32.109  1.00  0.00     0.167 HD
ATOM     51  C   UNL A   1      38.003  30.976  30.313  1.00  0.00     0.037 A 
ATOM     52  C   UNL A   1      43.192  28.465  34.213  1.00  0.00     0.037 A 
ATOM     53  C   UNL A   1      38.073  31.526  31.640  1.00  0.00     0.049 A 
ATOM     54  C   UNL A   1      42.271  29.551  34.719  1.00  0.00     0.074 A 
ATOM     55  C   UNL A   1      37.232  32.450  32.234  1.00  0.00     0.029 A 
ATOM     56  N   UNL A   1      39.042  31.206  32.576  1.00  0.00    -0.354 N 
ATOM     57  N   UNL A   1      41.235  30.100  34.135  1.00  0.00    -0.248 NA
ATOM     58  C   UNL A   1      42.554  30.090  36.060  1.00  0.00     0.031 C 
ATOM     59  C   UNL A   1      37.719  32.726  33.515  1.00  0.00     0.029 A 
ATOM     60  C   UNL A   1      38.834  31.933  33.737  1.00  0.00     0.049 A 
ATOM     61  H   UNL A   1      39.770  30.558  32.438  1.00  0.00     0.167 HD
ATOM     62  C   UNL A   1      40.724  31.020  35.046  1.00  0.00     0.074 A 
ATOM     63  C   UNL A   1      41.559  30.950  36.225  1.00  0.00     0.031 C 
ATOM     64  C   UNL A   1      39.657  31.847  34.915  1.00  0.00     0.037 A 
BRANCH  51  65
ATOM     65  C   UNL A   1      36.907  31.441  29.403  1.00  0.00     0.057 A 
ATOM     66  C   UNL A   1      35.815  30.627  29.079  1.00  0.00     0.134 A 
ATOM     67  C   UNL A   1      36.953  32.722  28.841  1.00  0.00     0.134 A 
ATOM     68  F   UNL A   1      35.726  29.380  29.566  1.00  0.00    -0.206 F 
ATOM     69  C   UNL A   1      34.818  31.063  28.204  1.00  0.00     0.040 A 
ATOM     70  C   UNL A   1      35.949  33.179  27.987  1.00  0.00     0.040 A 
ATOM     71  F   UNL A   1      37.974  33.548  29.112  1.00  0.00    -0.206 F 
ATOM     72  C   UNL A   1      34.882  32.345  27.661  1.00  0.00     0.006 A 
ENDBRANCH  51  65
BRANCH  52  73
ATOM     73  C   UNL A   1      44.276  27.953  35.092  1.00  0.00     0.057 A 
ATOM     74  C   UNL A   1      45.573  28.477  35.032  1.00  0.00     0.134 A 
ATOM     75  C   UNL A   1      44.058  26.878  35.963  1.00  0.00     0.134 A 
ATOM     76  F   UNL A   1      45.855  29.483  34.191  1.00  0.00    -0.206 F 
ATOM     77  C   UNL A   1      46.617  27.938  35.788  1.00  0.00     0.040 A 
ATOM     78  C   UNL A   1      45.086  26.347  36.745  1.00  0.00     0.040 A 
ATOM     79  F   UNL A   1      42.842  26.320  36.060  1.00  0.00    -0.206 F 
ATOM     80  C   UNL A   1      46.373  26.872  36.651  1.00  0.00     0.006 A 
ENDBRANCH  52  73
BRANCH  64  81
ATOM     81  C   UNL A   1      39.292  32.709  36.091  1.00  0.00     0.057 A 
ATOM     82  C   UNL A   1      38.448  32.256  37.113  1.00  0.00     0.134 A 
ATOM     83  C   UNL A   1      39.836  33.994  36.226  1.00  0.00     0.134 A 
ATOM     84  F   UNL A   1      37.884  31.041  37.041  1.00  0.00    -0.206 F 
ATOM     85  C   UNL A   1      38.143  33.057  38.216  1.00  0.00     0.040 A 
ATOM     86  C   UNL A   1      39.561  34.792  37.337  1.00  0.00     0.040 A 
ATOM     87  F   UNL A   1      40.662  34.486  35.290  1.00  0.00    -0.206 F 
ATOM     88  C   UNL A   1      38.707  34.327  38.334  1.00  0.00     0.006 A 
ENDBRANCH  64  81
ENDBRANCH  38  39
ENDBRANCH  31  33
ENDBRANCH  30  31
ENDBRANCH  29  30
ENDBRANCH  28  29
ENDBRANCH  27  28
ENDBRANCH  26  27
ENDBRANCH   1  26
TORSDOF 20
ENDMDL
