MODEL 1
REMARK VINA RESULT:     -10.8      0.000      0.000
REMARK SMILES NS(=O)(=O)c1ccc(-n2nc(C(=O)OCCOCCOCCOC(=O)c3ccc(-c4c5nc(c(-c6c(F)cccc6F)c6ccc([nH]6)c(-c6c(F)cccc6F)c6nc(c(-c7c(F)cccc7F)c7ccc4[nH]7)C=C6)C=C5)cc3)cc2-c2ccc(Cl)s2)cc1
REMARK SMILES IDX 18 1 17 2 16 3 15 4 14 5 12 6 13 7 11 8 9 9 10 10 81 11
REMARK SMILES IDX 80 12 8 13 5 14 6 15 89 16 7 17 88 18 2 19 3 20 4 21 1 22
REMARK SMILES IDX 82 25 83 26 87 27 84 28 85 29 86 30 19 31 20 32 21 33 22 34
REMARK SMILES IDX 23 35 24 36 25 37 26 38 27 39 79 40 28 41 78 42 29 43 30 44
REMARK SMILES IDX 31 45 72 46 32 47 77 48 71 49 73 50 33 51 76 52 70 53 69 54
REMARK SMILES IDX 34 56 60 57 43 58 59 59 44 60 47 61 58 62 74 63 45 64 46 65
REMARK SMILES IDX 57 67 75 68 48 69 35 70 36 71 41 72 37 73 38 74 40 75 42 76
REMARK SMILES IDX 39 77 61 78 62 79 67 80 63 81 64 82 66 83 68 84 65 85 49 86
REMARK SMILES IDX 50 87 55 88 51 89 52 90 54 91 56 92 53 93
REMARK H PARENT 1 23 1 24 73 55 47 66
REMARK Flexibility Score: inf
ROOT
ATOM      1  C   UNL A   1      34.518  19.771  25.211  1.00  0.00     0.188 C 
ENDROOT
BRANCH   1   2
ATOM      2  O   UNL A   1      33.813  19.566  23.999  1.00  0.00    -0.376 OA
BRANCH   2   3
ATOM      3  C   UNL A   1      32.508  20.089  23.811  1.00  0.00     0.202 C 
BRANCH   3   4
ATOM      4  C   UNL A   1      32.222  21.485  23.216  1.00  0.00     0.261 C 
BRANCH   4   5
ATOM      5  O   UNL A   1      33.301  22.424  23.214  1.00  0.00    -0.458 OA
BRANCH   5   6
ATOM      6  C   UNL A   1      33.169  23.490  22.371  1.00  0.00     0.358 C 
ATOM      7  O   UNL A   1      33.311  23.428  21.155  1.00  0.00    -0.244 OA
BRANCH   6   8
ATOM      8  C   UNL A   1      32.728  24.701  23.080  1.00  0.00     0.171 A 
ATOM      9  N   UNL A   1      31.637  26.503  23.467  1.00  0.00    -0.231 N 
ATOM     10  N   UNL A   1      31.681  25.431  22.644  1.00  0.00    -0.160 NA
ATOM     11  C   UNL A   1      32.543  26.402  24.508  1.00  0.00     0.085 A 
ATOM     12  C   UNL A   1      33.227  25.222  24.300  1.00  0.00     0.068 A 
BRANCH   9  13
ATOM     13  C   UNL A   1      30.817  27.606  23.133  1.00  0.00     0.065 A 
ATOM     14  C   UNL A   1      29.170  29.715  22.394  1.00  0.00     0.082 A 
ATOM     15  C   UNL A   1      28.627  28.625  23.082  1.00  0.00     0.024 A 
ATOM     16  C   UNL A   1      30.539  29.770  22.102  1.00  0.00     0.024 A 
ATOM     17  C   UNL A   1      29.449  27.557  23.435  1.00  0.00     0.030 A 
ATOM     18  C   UNL A   1      31.374  28.720  22.495  1.00  0.00     0.030 A 
BRANCH  14  19
ATOM     19  S   UNL A   1      28.112  31.062  21.952  1.00  0.00     0.238 S 
ATOM     20  O   UNL A   1      27.174  31.308  23.026  1.00  0.00    -0.207 OA
ATOM     21  O   UNL A   1      27.696  30.906  20.580  1.00  0.00    -0.207 OA
BRANCH  19  22
ATOM     22  N   UNL A   1      29.176  32.361  21.968  1.00  0.00    -0.225 NA
ATOM     23  H   UNL A   1      28.669  33.219  21.746  1.00  0.00     0.137 HD
ATOM     24  H   UNL A   1      29.909  32.210  21.274  1.00  0.00     0.137 HD
ENDBRANCH  19  22
ENDBRANCH  14  19
ENDBRANCH   9  13
BRANCH  11  25
ATOM     25  C   UNL A   1      32.701  27.354  25.569  1.00  0.00     0.054 A 
ATOM     26  C   UNL A   1      31.837  27.539  26.632  1.00  0.00     0.024 A 
ATOM     27  S   UNL A   1      34.039  28.426  25.655  1.00  0.00    -0.122 S 
ATOM     28  C   UNL A   1      32.321  28.511  27.559  1.00  0.00     0.033 A 
ATOM     29  C   UNL A   1      33.509  29.047  27.136  1.00  0.00     0.094 A 
ATOM     30  Cl  UNL A   1      34.445  30.232  27.953  1.00  0.00    -0.072 Cl
ENDBRANCH  11  25
ENDBRANCH   6   8
ENDBRANCH   5   6
ENDBRANCH   4   5
ENDBRANCH   3   4
ENDBRANCH   2   3
ENDBRANCH   1   2
BRANCH   1  31
ATOM     31  C   UNL A   1      35.957  20.337  25.205  1.00  0.00     0.188 C 
BRANCH  31  32
ATOM     32  O   UNL A   1      36.129  21.580  24.560  1.00  0.00    -0.376 OA
BRANCH  32  33
ATOM     33  C   UNL A   1      37.200  22.463  24.857  1.00  0.00     0.202 C 
BRANCH  33  34
ATOM     34  C   UNL A   1      38.372  22.154  25.788  1.00  0.00     0.261 C 
BRANCH  34  35
ATOM     35  O   UNL A   1      39.007  23.264  26.375  1.00  0.00    -0.460 OA
BRANCH  35  36
ATOM     36  C   UNL A   1      40.272  23.017  26.762  1.00  0.00     0.338 C 
ATOM     37  O   UNL A   1      40.749  21.943  27.089  1.00  0.00    -0.246 OA
BRANCH  36  38
ATOM     38  C   UNL A   1      40.993  24.286  26.829  1.00  0.00     0.060 A 
ATOM     39  C   UNL A   1      41.860  24.428  27.911  1.00  0.00     0.016 A 
ATOM     40  C   UNL A   1      40.502  25.378  26.097  1.00  0.00     0.016 A 
ATOM     41  C   UNL A   1      41.990  25.680  28.450  1.00  0.00     0.010 A 
ATOM     42  C   UNL A   1      40.621  26.626  26.647  1.00  0.00     0.010 A 
ATOM     43  C   UNL A   1      41.270  26.732  27.872  1.00  0.00    -0.014 A 
BRANCH  43  44
ATOM     44  C   UNL A   1      41.279  27.989  28.579  1.00  0.00     0.031 A 
ATOM     45  C   UNL A   1      42.489  28.767  28.279  1.00  0.00     0.074 A 
ATOM     46  C   UNL A   1      40.260  28.382  29.364  1.00  0.00     0.049 A 
ATOM     47  N   UNL A   1      43.481  29.005  29.067  1.00  0.00    -0.248 NA
ATOM     48  C   UNL A   1      42.719  29.151  26.877  1.00  0.00     0.031 C 
ATOM     49  C   UNL A   1      38.923  27.779  29.438  1.00  0.00     0.029 A 
ATOM     50  N   UNL A   1      40.156  29.470  30.179  1.00  0.00    -0.354 N 
ATOM     51  C   UNL A   1      44.327  29.822  28.326  1.00  0.00     0.074 A 
ATOM     52  C   UNL A   1      43.945  29.672  26.950  1.00  0.00     0.031 C 
ATOM     53  C   UNL A   1      38.083  28.641  30.053  1.00  0.00     0.029 A 
ATOM     54  C   UNL A   1      38.851  29.774  30.541  1.00  0.00     0.049 A 
ATOM     55  H   UNL A   1      40.934  29.991  30.482  1.00  0.00     0.167 HD
ATOM     56  C   UNL A   1      44.980  30.836  28.950  1.00  0.00     0.037 A 
ATOM     57  C   UNL A   1      38.431  30.916  31.135  1.00  0.00     0.037 A 
ATOM     58  C   UNL A   1      45.019  30.626  30.375  1.00  0.00     0.049 A 
ATOM     59  C   UNL A   1      39.597  31.552  31.792  1.00  0.00     0.074 A 
ATOM     60  C   UNL A   1      45.752  29.881  31.270  1.00  0.00     0.029 A 
ATOM     61  N   UNL A   1      43.884  31.036  31.022  1.00  0.00    -0.354 N 
ATOM     62  N   UNL A   1      40.214  31.039  32.820  1.00  0.00    -0.248 NA
ATOM     63  C   UNL A   1      40.317  32.621  31.101  1.00  0.00     0.031 C 
ATOM     64  C   UNL A   1      44.982  29.808  32.470  1.00  0.00     0.029 A 
ATOM     65  C   UNL A   1      43.802  30.522  32.287  1.00  0.00     0.049 A 
ATOM     66  H   UNL A   1      43.208  31.630  30.624  1.00  0.00     0.167 HD
ATOM     67  C   UNL A   1      41.531  31.414  32.648  1.00  0.00     0.074 A 
ATOM     68  C   UNL A   1      41.506  32.516  31.698  1.00  0.00     0.031 C 
ATOM     69  C   UNL A   1      42.550  30.582  33.005  1.00  0.00     0.037 A 
BRANCH  56  70
ATOM     70  C   UNL A   1      45.076  32.238  28.383  1.00  0.00     0.057 A 
ATOM     71  C   UNL A   1      43.886  32.969  28.214  1.00  0.00     0.134 A 
ATOM     72  C   UNL A   1      46.199  32.767  27.711  1.00  0.00     0.134 A 
ATOM     73  F   UNL A   1      42.745  32.568  28.793  1.00  0.00    -0.206 F 
ATOM     74  C   UNL A   1      43.805  34.089  27.377  1.00  0.00     0.040 A 
ATOM     75  C   UNL A   1      46.139  33.913  26.913  1.00  0.00     0.040 A 
ATOM     76  F   UNL A   1      47.391  32.163  27.695  1.00  0.00    -0.206 F 
ATOM     77  C   UNL A   1      44.932  34.559  26.716  1.00  0.00     0.006 A 
ENDBRANCH  56  70
BRANCH  57  78
ATOM     78  C   UNL A   1      37.154  31.634  30.936  1.00  0.00     0.057 A 
ATOM     79  C   UNL A   1      36.254  31.814  31.995  1.00  0.00     0.134 A 
ATOM     80  C   UNL A   1      36.914  32.402  29.783  1.00  0.00     0.134 A 
ATOM     81  F   UNL A   1      36.421  31.151  33.149  1.00  0.00    -0.206 F 
ATOM     82  C   UNL A   1      35.195  32.729  31.926  1.00  0.00     0.040 A 
ATOM     83  C   UNL A   1      35.858  33.312  29.697  1.00  0.00     0.040 A 
ATOM     84  F   UNL A   1      37.750  32.360  28.736  1.00  0.00    -0.206 F 
ATOM     85  C   UNL A   1      35.003  33.492  30.778  1.00  0.00     0.006 A 
ENDBRANCH  57  78
BRANCH  69  86
ATOM     86  C   UNL A   1      42.284  29.572  34.071  1.00  0.00     0.057 A 
ATOM     87  C   UNL A   1      41.828  28.270  33.835  1.00  0.00     0.134 A 
ATOM     88  C   UNL A   1      42.575  29.922  35.395  1.00  0.00     0.134 A 
ATOM     89  F   UNL A   1      41.587  27.836  32.590  1.00  0.00    -0.206 F 
ATOM     90  C   UNL A   1      41.640  27.363  34.883  1.00  0.00     0.040 A 
ATOM     91  C   UNL A   1      42.422  29.017  36.445  1.00  0.00     0.040 A 
ATOM     92  F   UNL A   1      43.048  31.145  35.683  1.00  0.00    -0.206 F 
ATOM     93  C   UNL A   1      41.944  27.735  36.192  1.00  0.00     0.006 A 
ENDBRANCH  69  86
ENDBRANCH  43  44
ENDBRANCH  36  38
ENDBRANCH  35  36
ENDBRANCH  34  35
ENDBRANCH  33  34
ENDBRANCH  32  33
ENDBRANCH  31  32
ENDBRANCH   1  31
TORSDOF 21
ENDMDL
MODEL 2
REMARK VINA RESULT:     -10.0      3.131      6.666
REMARK SMILES NS(=O)(=O)c1ccc(-n2nc(C(=O)OCCOCCOCCOC(=O)c3ccc(-c4c5nc(c(-c6c(F)cccc6F)c6ccc([nH]6)c(-c6c(F)cccc6F)c6nc(c(-c7c(F)cccc7F)c7ccc4[nH]7)C=C6)C=C5)cc3)cc2-c2ccc(Cl)s2)cc1
REMARK SMILES IDX 18 1 17 2 16 3 15 4 14 5 12 6 13 7 11 8 9 9 10 10 81 11
REMARK SMILES IDX 80 12 8 13 5 14 6 15 89 16 7 17 88 18 2 19 3 20 4 21 1 22
REMARK SMILES IDX 82 25 83 26 87 27 84 28 85 29 86 30 19 31 20 32 21 33 22 34
REMARK SMILES IDX 23 35 24 36 25 37 26 38 27 39 79 40 28 41 78 42 29 43 30 44
REMARK SMILES IDX 31 45 72 46 32 47 77 48 71 49 73 50 33 51 76 52 70 53 69 54
REMARK SMILES IDX 34 56 60 57 43 58 59 59 44 60 47 61 58 62 74 63 45 64 46 65
REMARK SMILES IDX 57 67 75 68 48 69 35 70 36 71 41 72 37 73 38 74 40 75 42 76
REMARK SMILES IDX 39 77 61 78 62 79 67 80 63 81 64 82 66 83 68 84 65 85 49 86
REMARK SMILES IDX 50 87 55 88 51 89 52 90 54 91 56 92 53 93
REMARK H PARENT 1 23 1 24 73 55 47 66
REMARK Flexibility Score: inf
ROOT
ATOM      1  C   UNL A   1      35.018  21.398  26.175  1.00  0.00     0.188 C 
ENDROOT
BRANCH   1   2
ATOM      2  O   UNL A   1      34.141  20.538  25.467  1.00  0.00    -0.376 OA
BRANCH   2   3
ATOM      3  C   UNL A   1      32.748  20.527  25.734  1.00  0.00     0.202 C 
BRANCH   3   4
ATOM      4  C   UNL A   1      31.798  21.692  25.379  1.00  0.00     0.261 C 
BRANCH   4   5
ATOM      5  O   UNL A   1      32.349  23.012  25.410  1.00  0.00    -0.458 OA
BRANCH   5   6
ATOM      6  C   UNL A   1      31.765  23.886  26.282  1.00  0.00     0.358 C 
ATOM      7  O   UNL A   1      31.352  23.577  27.394  1.00  0.00    -0.244 OA
BRANCH   6   8
ATOM      8  C   UNL A   1      31.786  25.265  25.773  1.00  0.00     0.171 A 
ATOM      9  N   UNL A   1      32.221  27.362  25.703  1.00  0.00    -0.231 N 
ATOM     10  N   UNL A   1      32.527  26.224  26.366  1.00  0.00    -0.160 NA
ATOM     11  C   UNL A   1      31.411  27.127  24.606  1.00  0.00     0.085 A 
ATOM     12  C   UNL A   1      31.155  25.772  24.608  1.00  0.00     0.068 A 
BRANCH   9  13
ATOM     13  C   UNL A   1      32.626  28.609  26.233  1.00  0.00     0.065 A 
ATOM     14  C   UNL A   1      33.412  31.015  27.372  1.00  0.00     0.082 A 
ATOM     15  C   UNL A   1      34.344  29.983  27.231  1.00  0.00     0.024 A 
ATOM     16  C   UNL A   1      32.096  30.863  26.917  1.00  0.00     0.024 A 
ATOM     17  C   UNL A   1      33.945  28.768  26.679  1.00  0.00     0.030 A 
ATOM     18  C   UNL A   1      31.705  29.660  26.321  1.00  0.00     0.030 A 
BRANCH  14  19
ATOM     19  S   UNL A   1      33.935  32.552  28.077  1.00  0.00     0.238 S 
ATOM     20  O   UNL A   1      35.086  33.045  27.353  1.00  0.00    -0.207 OA
ATOM     21  O   UNL A   1      33.912  32.444  29.515  1.00  0.00    -0.207 OA
BRANCH  19  22
ATOM     22  N   UNL A   1      32.666  33.573  27.669  1.00  0.00    -0.225 NA
ATOM     23  H   UNL A   1      32.313  33.324  26.745  1.00  0.00     0.137 HD
ATOM     24  H   UNL A   1      32.997  34.539  27.659  1.00  0.00     0.137 HD
ENDBRANCH  19  22
ENDBRANCH  14  19
ENDBRANCH   9  13
BRANCH  11  25
ATOM     25  C   UNL A   1      30.957  28.123  23.679  1.00  0.00     0.054 A 
ATOM     26  C   UNL A   1      31.758  28.908  22.871  1.00  0.00     0.024 A 
ATOM     27  S   UNL A   1      29.293  28.477  23.446  1.00  0.00    -0.122 S 
ATOM     28  C   UNL A   1      30.994  29.746  22.003  1.00  0.00     0.033 A 
ATOM     29  C   UNL A   1      29.651  29.587  22.221  1.00  0.00     0.094 A 
ATOM     30  Cl  UNL A   1      28.378  30.383  21.388  1.00  0.00    -0.072 Cl
ENDBRANCH  11  25
ENDBRANCH   6   8
ENDBRANCH   5   6
ENDBRANCH   4   5
ENDBRANCH   3   4
ENDBRANCH   2   3
ENDBRANCH   1   2
BRANCH   1  31
ATOM     31  C   UNL A   1      35.896  22.426  25.425  1.00  0.00     0.188 C 
BRANCH  31  32
ATOM     32  O   UNL A   1      36.762  21.900  24.444  1.00  0.00    -0.376 OA
BRANCH  32  33
ATOM     33  C   UNL A   1      37.938  21.172  24.762  1.00  0.00     0.202 C 
BRANCH  33  34
ATOM     34  C   UNL A   1      38.938  21.539  25.858  1.00  0.00     0.261 C 
BRANCH  34  35
ATOM     35  O   UNL A   1      39.538  20.460  26.535  1.00  0.00    -0.460 OA
BRANCH  35  36
ATOM     36  C   UNL A   1      40.752  20.132  26.053  1.00  0.00     0.338 C 
ATOM     37  O   UNL A   1      41.024  19.211  25.302  1.00  0.00    -0.246 OA
BRANCH  36  38
ATOM     38  C   UNL A   1      41.746  21.013  26.661  1.00  0.00     0.060 A 
ATOM     39  C   UNL A   1      41.792  20.996  28.054  1.00  0.00     0.016 A 
ATOM     40  C   UNL A   1      42.274  22.062  25.893  1.00  0.00     0.016 A 
ATOM     41  C   UNL A   1      42.091  22.175  28.685  1.00  0.00     0.010 A 
ATOM     42  C   UNL A   1      42.558  23.242  26.526  1.00  0.00     0.010 A 
ATOM     43  C   UNL A   1      42.353  23.303  27.900  1.00  0.00    -0.014 A 
BRANCH  43  44
ATOM     44  C   UNL A   1      42.473  24.562  28.593  1.00  0.00     0.031 A 
ATOM     45  C   UNL A   1      41.370  25.471  28.253  1.00  0.00     0.074 A 
ATOM     46  C   UNL A   1      43.460  24.809  29.473  1.00  0.00     0.049 A 
ATOM     47  N   UNL A   1      41.432  26.544  27.542  1.00  0.00    -0.248 NA
ATOM     48  C   UNL A   1      40.002  25.027  28.567  1.00  0.00     0.031 C 
ATOM     49  C   UNL A   1      44.382  23.828  30.058  1.00  0.00     0.029 A 
ATOM     50  N   UNL A   1      43.780  25.965  30.122  1.00  0.00    -0.354 N 
ATOM     51  C   UNL A   1      40.140  27.057  27.571  1.00  0.00     0.074 A 
ATOM     52  C   UNL A   1      39.280  25.985  27.985  1.00  0.00     0.031 C 
ATOM     53  C   UNL A   1      44.982  24.377  31.139  1.00  0.00     0.029 A 
ATOM     54  C   UNL A   1      44.600  25.775  31.226  1.00  0.00     0.049 A 
ATOM     55  H   UNL A   1      43.460  26.849  29.834  1.00  0.00     0.167 HD
ATOM     56  C   UNL A   1      39.965  28.402  27.643  1.00  0.00     0.037 A 
ATOM     57  C   UNL A   1      44.879  26.693  32.182  1.00  0.00     0.037 A 
ATOM     58  C   UNL A   1      41.159  29.102  27.240  1.00  0.00     0.049 A 
ATOM     59  C   UNL A   1      44.612  28.039  31.622  1.00  0.00     0.074 A 
ATOM     60  C   UNL A   1      41.777  29.455  26.063  1.00  0.00     0.029 A 
ATOM     61  N   UNL A   1      42.086  29.227  28.239  1.00  0.00    -0.354 N 
ATOM     62  N   UNL A   1      45.313  28.572  30.660  1.00  0.00    -0.248 NA
ATOM     63  C   UNL A   1      43.335  28.693  31.900  1.00  0.00     0.031 C 
ATOM     64  C   UNL A   1      43.137  29.743  26.386  1.00  0.00     0.029 A 
ATOM     65  C   UNL A   1      43.317  29.573  27.755  1.00  0.00     0.049 A 
ATOM     66  H   UNL A   1      41.889  29.084  29.193  1.00  0.00     0.167 HD
ATOM     67  C   UNL A   1      44.401  29.334  29.957  1.00  0.00     0.074 A 
ATOM     68  C   UNL A   1      43.267  29.516  30.851  1.00  0.00     0.031 C 
ATOM     69  C   UNL A   1      44.481  29.450  28.602  1.00  0.00     0.037 A 
BRANCH  56  70
ATOM     70  C   UNL A   1      38.973  29.063  28.579  1.00  0.00     0.057 A 
ATOM     71  C   UNL A   1      38.056  29.980  28.035  1.00  0.00     0.134 A 
ATOM     72  C   UNL A   1      39.082  29.096  29.986  1.00  0.00     0.134 A 
ATOM     73  F   UNL A   1      37.864  30.056  26.710  1.00  0.00    -0.206 F 
ATOM     74  C   UNL A   1      37.365  30.909  28.823  1.00  0.00     0.040 A 
ATOM     75  C   UNL A   1      38.360  29.986  30.786  1.00  0.00     0.040 A 
ATOM     76  F   UNL A   1      39.959  28.351  30.668  1.00  0.00    -0.206 F 
ATOM     77  C   UNL A   1      37.522  30.919  30.203  1.00  0.00     0.006 A 
ENDBRANCH  56  70
BRANCH  57  78
ATOM     78  C   UNL A   1      45.092  26.472  33.628  1.00  0.00     0.057 A 
ATOM     79  C   UNL A   1      46.316  26.786  34.234  1.00  0.00     0.134 A 
ATOM     80  C   UNL A   1      44.017  26.215  34.498  1.00  0.00     0.134 A 
ATOM     81  F   UNL A   1      47.389  27.080  33.487  1.00  0.00    -0.206 F 
ATOM     82  C   UNL A   1      46.457  26.874  35.625  1.00  0.00     0.040 A 
ATOM     83  C   UNL A   1      44.146  26.291  35.887  1.00  0.00     0.040 A 
ATOM     84  F   UNL A   1      42.786  25.972  34.027  1.00  0.00    -0.206 F 
ATOM     85  C   UNL A   1      45.365  26.639  36.456  1.00  0.00     0.006 A 
ENDBRANCH  57  78
BRANCH  69  86
ATOM     86  C   UNL A   1      45.817  29.263  27.964  1.00  0.00     0.057 A 
ATOM     87  C   UNL A   1      46.795  30.259  27.864  1.00  0.00     0.134 A 
ATOM     88  C   UNL A   1      46.149  27.987  27.494  1.00  0.00     0.134 A 
ATOM     89  F   UNL A   1      46.581  31.491  28.348  1.00  0.00    -0.206 F 
ATOM     90  C   UNL A   1      48.043  30.000  27.289  1.00  0.00     0.040 A 
ATOM     91  C   UNL A   1      47.401  27.707  26.947  1.00  0.00     0.040 A 
ATOM     92  F   UNL A   1      45.266  26.980  27.591  1.00  0.00    -0.206 F 
ATOM     93  C   UNL A   1      48.350  28.718  26.834  1.00  0.00     0.006 A 
ENDBRANCH  69  86
ENDBRANCH  43  44
ENDBRANCH  36  38
ENDBRANCH  35  36
ENDBRANCH  34  35
ENDBRANCH  33  34
ENDBRANCH  32  33
ENDBRANCH  31  32
ENDBRANCH   1  31
TORSDOF 21
ENDMDL
MODEL 3
REMARK VINA RESULT:      -9.9      3.591      5.565
REMARK SMILES NS(=O)(=O)c1ccc(-n2nc(C(=O)OCCOCCOCCOC(=O)c3ccc(-c4c5nc(c(-c6c(F)cccc6F)c6ccc([nH]6)c(-c6c(F)cccc6F)c6nc(c(-c7c(F)cccc7F)c7ccc4[nH]7)C=C6)C=C5)cc3)cc2-c2ccc(Cl)s2)cc1
REMARK SMILES IDX 18 1 17 2 16 3 15 4 14 5 12 6 13 7 11 8 9 9 10 10 81 11
REMARK SMILES IDX 80 12 8 13 5 14 6 15 89 16 7 17 88 18 2 19 3 20 4 21 1 22
REMARK SMILES IDX 82 25 83 26 87 27 84 28 85 29 86 30 19 31 20 32 21 33 22 34
REMARK SMILES IDX 23 35 24 36 25 37 26 38 27 39 79 40 28 41 78 42 29 43 30 44
REMARK SMILES IDX 31 45 72 46 32 47 77 48 71 49 73 50 33 51 76 52 70 53 69 54
REMARK SMILES IDX 34 56 60 57 43 58 59 59 44 60 47 61 58 62 74 63 45 64 46 65
REMARK SMILES IDX 57 67 75 68 48 69 35 70 36 71 41 72 37 73 38 74 40 75 42 76
REMARK SMILES IDX 39 77 61 78 62 79 67 80 63 81 64 82 66 83 68 84 65 85 49 86
REMARK SMILES IDX 50 87 55 88 51 89 52 90 54 91 56 92 53 93
REMARK H PARENT 1 23 1 24 73 55 47 66
REMARK Flexibility Score: inf
ROOT
ATOM      1  C   UNL A   1      34.605  24.776  25.079  1.00  0.00     0.188 C 
ENDROOT
BRANCH   1   2
ATOM      2  O   UNL A   1      33.280  25.221  24.846  1.00  0.00    -0.376 OA
BRANCH   2   3
ATOM      3  C   UNL A   1      32.943  26.597  24.923  1.00  0.00     0.202 C 
BRANCH   3   4
ATOM      4  C   UNL A   1      32.836  27.380  26.250  1.00  0.00     0.261 C 
BRANCH   4   5
ATOM      5  O   UNL A   1      33.890  28.301  26.548  1.00  0.00    -0.458 OA
BRANCH   5   6
ATOM      6  C   UNL A   1      33.612  29.621  26.339  1.00  0.00     0.358 C 
ATOM      7  O   UNL A   1      32.770  30.030  25.547  1.00  0.00    -0.244 OA
BRANCH   6   8
ATOM      8  C   UNL A   1      34.364  30.493  27.253  1.00  0.00     0.171 A 
ATOM      9  N   UNL A   1      34.727  32.026  28.705  1.00  0.00    -0.231 N 
ATOM     10  N   UNL A   1      33.736  31.319  28.115  1.00  0.00    -0.160 NA
ATOM     11  C   UNL A   1      35.983  31.568  28.345  1.00  0.00     0.085 A 
ATOM     12  C   UNL A   1      35.768  30.549  27.442  1.00  0.00     0.068 A 
BRANCH   9  13
ATOM     13  C   UNL A   1      34.406  33.166  29.478  1.00  0.00     0.065 A 
ATOM     14  C   UNL A   1      33.685  35.354  31.026  1.00  0.00     0.082 A 
ATOM     15  C   UNL A   1      34.258  34.235  31.639  1.00  0.00     0.024 A 
ATOM     16  C   UNL A   1      33.501  35.398  29.639  1.00  0.00     0.024 A 
ATOM     17  C   UNL A   1      34.600  33.128  30.866  1.00  0.00     0.030 A 
ATOM     18  C   UNL A   1      33.886  34.306  28.855  1.00  0.00     0.030 A 
BRANCH  14  19
ATOM     19  S   UNL A   1      33.254  36.751  32.024  1.00  0.00     0.238 S 
ATOM     20  O   UNL A   1      34.329  37.026  32.953  1.00  0.00    -0.207 OA
ATOM     21  O   UNL A   1      31.880  36.626  32.443  1.00  0.00    -0.207 OA
BRANCH  19  22
ATOM     22  N   UNL A   1      33.286  38.002  30.905  1.00  0.00    -0.225 NA
ATOM     23  H   UNL A   1      34.197  38.024  30.445  1.00  0.00     0.137 HD
ATOM     24  H   UNL A   1      33.125  38.890  31.383  1.00  0.00     0.137 HD
ENDBRANCH  19  22
ENDBRANCH  14  19
ENDBRANCH   9  13
BRANCH  11  25
ATOM     25  C   UNL A   1      37.228  32.080  28.840  1.00  0.00     0.054 A 
ATOM     26  C   UNL A   1      37.595  33.411  28.899  1.00  0.00     0.024 A 
ATOM     27  S   UNL A   1      38.468  31.060  29.448  1.00  0.00    -0.122 S 
ATOM     28  C   UNL A   1      38.868  33.594  29.519  1.00  0.00     0.033 A 
ATOM     29  C   UNL A   1      39.425  32.391  29.865  1.00  0.00     0.094 A 
ATOM     30  Cl  UNL A   1      40.934  32.150  30.648  1.00  0.00    -0.072 Cl
ENDBRANCH  11  25
ENDBRANCH   6   8
ENDBRANCH   5   6
ENDBRANCH   4   5
ENDBRANCH   3   4
ENDBRANCH   2   3
ENDBRANCH   1   2
BRANCH   1  31
ATOM     31  C   UNL A   1      35.144  23.500  24.392  1.00  0.00     0.188 C 
BRANCH  31  32
ATOM     32  O   UNL A   1      35.599  22.480  25.253  1.00  0.00    -0.376 OA
BRANCH  32  33
ATOM     33  C   UNL A   1      36.922  22.434  25.766  1.00  0.00     0.202 C 
BRANCH  33  34
ATOM     34  C   UNL A   1      37.925  23.587  25.736  1.00  0.00     0.261 C 
BRANCH  34  35
ATOM     35  O   UNL A   1      38.208  24.194  26.974  1.00  0.00    -0.460 OA
BRANCH  35  36
ATOM     36  C   UNL A   1      39.476  24.009  27.386  1.00  0.00     0.338 C 
ATOM     37  O   UNL A   1      40.023  22.949  27.639  1.00  0.00    -0.246 OA
BRANCH  36  38
ATOM     38  C   UNL A   1      40.095  25.317  27.587  1.00  0.00     0.060 A 
ATOM     39  C   UNL A   1      41.416  25.294  28.030  1.00  0.00     0.016 A 
ATOM     40  C   UNL A   1      39.265  26.440  27.720  1.00  0.00     0.016 A 
ATOM     41  C   UNL A   1      41.807  26.292  28.883  1.00  0.00     0.010 A 
ATOM     42  C   UNL A   1      39.653  27.428  28.584  1.00  0.00     0.010 A 
ATOM     43  C   UNL A   1      40.874  27.274  29.233  1.00  0.00    -0.014 A 
BRANCH  43  44
ATOM     44  C   UNL A   1      41.258  28.193  30.276  1.00  0.00     0.031 A 
ATOM     45  C   UNL A   1      42.528  28.862  29.962  1.00  0.00     0.074 A 
ATOM     46  C   UNL A   1      40.492  28.415  31.359  1.00  0.00     0.049 A 
ATOM     47  N   UNL A   1      43.670  28.679  30.532  1.00  0.00    -0.248 NA
ATOM     48  C   UNL A   1      42.582  29.679  28.739  1.00  0.00     0.031 C 
ATOM     49  C   UNL A   1      39.096  28.003  31.548  1.00  0.00     0.029 A 
ATOM     50  N   UNL A   1      40.754  29.153  32.475  1.00  0.00    -0.354 N 
ATOM     51  C   UNL A   1      44.520  29.586  29.909  1.00  0.00     0.074 A 
ATOM     52  C   UNL A   1      43.880  29.977  28.685  1.00  0.00     0.031 C 
ATOM     53  C   UNL A   1      38.567  28.698  32.581  1.00  0.00     0.029 A 
ATOM     54  C   UNL A   1      39.620  29.478  33.207  1.00  0.00     0.049 A 
ATOM     55  H   UNL A   1      41.661  29.430  32.736  1.00  0.00     0.167 HD
ATOM     56  C   UNL A   1      45.462  30.224  30.650  1.00  0.00     0.037 A 
ATOM     57  C   UNL A   1      39.548  30.385  34.210  1.00  0.00     0.037 A 
ATOM     58  C   UNL A   1      45.707  29.526  31.888  1.00  0.00     0.049 A 
ATOM     59  C   UNL A   1      40.915  30.594  34.743  1.00  0.00     0.074 A 
ATOM     60  C   UNL A   1      46.421  28.427  32.307  1.00  0.00     0.029 A 
ATOM     61  N   UNL A   1      44.809  29.828  32.875  1.00  0.00    -0.354 N 
ATOM     62  N   UNL A   1      41.587  29.679  35.385  1.00  0.00    -0.248 NA
ATOM     63  C   UNL A   1      41.702  31.734  34.276  1.00  0.00     0.031 C 
ATOM     64  C   UNL A   1      45.874  28.041  33.567  1.00  0.00     0.029 A 
ATOM     65  C   UNL A   1      44.848  28.920  33.897  1.00  0.00     0.049 A 
ATOM     66  H   UNL A   1      44.206  30.606  32.853  1.00  0.00     0.167 HD
ATOM     67  C   UNL A   1      42.901  29.916  35.038  1.00  0.00     0.074 A 
ATOM     68  C   UNL A   1      42.932  31.274  34.515  1.00  0.00     0.031 C 
ATOM     69  C   UNL A   1      43.778  28.887  34.868  1.00  0.00     0.037 A 
BRANCH  56  70
ATOM     70  C   UNL A   1      45.736  31.711  30.547  1.00  0.00     0.057 A 
ATOM     71  C   UNL A   1      44.705  32.602  30.891  1.00  0.00     0.134 A 
ATOM     72  C   UNL A   1      46.811  32.291  29.838  1.00  0.00     0.134 A 
ATOM     73  F   UNL A   1      43.623  32.177  31.559  1.00  0.00    -0.206 F 
ATOM     74  C   UNL A   1      44.707  33.944  30.490  1.00  0.00     0.040 A 
ATOM     75  C   UNL A   1      46.845  33.640  29.476  1.00  0.00     0.040 A 
ATOM     76  F   UNL A   1      47.839  31.581  29.362  1.00  0.00    -0.206 F 
ATOM     77  C   UNL A   1      45.775  34.465  29.772  1.00  0.00     0.006 A 
ENDBRANCH  56  70
BRANCH  57  78
ATOM     78  C   UNL A   1      38.426  31.287  34.550  1.00  0.00     0.057 A 
ATOM     79  C   UNL A   1      38.171  31.653  35.878  1.00  0.00     0.134 A 
ATOM     80  C   UNL A   1      37.756  32.030  33.562  1.00  0.00     0.134 A 
ATOM     81  F   UNL A   1      38.790  31.025  36.887  1.00  0.00    -0.206 F 
ATOM     82  C   UNL A   1      37.325  32.720  36.206  1.00  0.00     0.040 A 
ATOM     83  C   UNL A   1      36.904  33.092  33.875  1.00  0.00     0.040 A 
ATOM     84  F   UNL A   1      37.978  31.810  32.258  1.00  0.00    -0.206 F 
ATOM     85  C   UNL A   1      36.698  33.452  35.201  1.00  0.00     0.006 A 
ENDBRANCH  57  78
BRANCH  69  86
ATOM     86  C   UNL A   1      43.506  27.612  35.595  1.00  0.00     0.057 A 
ATOM     87  C   UNL A   1      43.828  27.379  36.937  1.00  0.00     0.134 A 
ATOM     88  C   UNL A   1      42.818  26.601  34.913  1.00  0.00     0.134 A 
ATOM     89  F   UNL A   1      44.430  28.320  37.678  1.00  0.00    -0.206 F 
ATOM     90  C   UNL A   1      43.505  26.173  37.564  1.00  0.00     0.040 A 
ATOM     91  C   UNL A   1      42.462  25.406  35.537  1.00  0.00     0.040 A 
ATOM     92  F   UNL A   1      42.451  26.777  33.634  1.00  0.00    -0.206 F 
ATOM     93  C   UNL A   1      42.814  25.184  36.865  1.00  0.00     0.006 A 
ENDBRANCH  69  86
ENDBRANCH  43  44
ENDBRANCH  36  38
ENDBRANCH  35  36
ENDBRANCH  34  35
ENDBRANCH  33  34
ENDBRANCH  32  33
ENDBRANCH  31  32
ENDBRANCH   1  31
TORSDOF 21
ENDMDL
