MODEL 1
REMARK VINA RESULT:     -11.3      0.000      0.000
REMARK SMILES O=C(OCCOCCOCCOC(=O)[C@@H]1CCCN(c2ccc3cc(S(=O)(=O)N4CCCCC4)ccc3n2)C1)c1ccc(-c2c3nc(c(-c4c(F)cccc4F)c4ccc([nH]4)c(-c4c(F)cccc4F)c4nc(c(-c5c(F)cccc5F)c5ccc2[nH]5)C=C4)C=C3)cc1
REMARK SMILES IDX 8 1 7 2 6 3 5 4 4 5 3 6 2 7 1 8 40 9 41 10 93 11 42 12 92 13
REMARK SMILES IDX 43 14 44 15 45 16 86 17 46 18 91 19 85 20 87 21 47 22 90 23
REMARK SMILES IDX 84 24 83 25 48 27 74 28 57 29 73 30 58 31 61 32 72 33 88 34
REMARK SMILES IDX 59 35 60 36 71 38 89 39 62 40 49 41 50 42 55 43 51 44 52 45
REMARK SMILES IDX 54 46 56 47 53 48 75 49 76 50 81 51 77 52 78 53 80 54 82 55
REMARK SMILES IDX 79 56 63 57 64 58 69 59 65 60 66 61 68 62 70 63 67 64 9 65
REMARK SMILES IDX 10 66 11 67 12 68 13 69 14 70 15 71 16 72 39 73 17 74 19 75
REMARK SMILES IDX 18 76 20 77 21 78 38 79 22 80 37 81 23 82 36 83 24 84 35 85
REMARK SMILES IDX 25 86 26 87 27 88 28 89 29 90 30 91 34 92 31 93 33 94 32 95
REMARK H PARENT 87 26 61 37
REMARK Flexibility Score: inf
ROOT
ATOM      1  C   UNL A   1      34.666  21.556  25.279  1.00  0.00     0.188 C 
ENDROOT
BRANCH   1   2
ATOM      2  C   UNL A   1      36.162  21.290  25.088  1.00  0.00     0.188 C 
BRANCH   2   3
ATOM      3  O   UNL A   1      37.075  22.063  25.864  1.00  0.00    -0.376 OA
BRANCH   3   4
ATOM      4  C   UNL A   1      38.453  21.744  25.727  1.00  0.00     0.202 C 
BRANCH   4   5
ATOM      5  C   UNL A   1      38.730  20.343  25.164  1.00  0.00     0.261 C 
BRANCH   5   6
ATOM      6  O   UNL A   1      39.551  19.572  26.057  1.00  0.00    -0.460 OA
BRANCH   6   7
ATOM      7  C   UNL A   1      40.905  19.616  25.950  1.00  0.00     0.338 C 
ATOM      8  O   UNL A   1      41.555  18.618  25.668  1.00  0.00    -0.246 OA
BRANCH   7   9
ATOM      9  C   UNL A   1      41.592  20.822  26.518  1.00  0.00     0.060 A 
ATOM     10  C   UNL A   1      41.564  21.168  27.873  1.00  0.00     0.016 A 
ATOM     11  C   UNL A   1      42.284  21.664  25.629  1.00  0.00     0.016 A 
ATOM     12  C   UNL A   1      42.204  22.313  28.339  1.00  0.00     0.010 A 
ATOM     13  C   UNL A   1      42.894  22.841  26.083  1.00  0.00     0.010 A 
ATOM     14  C   UNL A   1      42.819  23.184  27.439  1.00  0.00    -0.014 A 
BRANCH  14  15
ATOM     15  C   UNL A   1      43.056  24.566  27.911  1.00  0.00     0.031 A 
ATOM     16  C   UNL A   1      44.487  25.020  27.974  1.00  0.00     0.074 A 
ATOM     17  C   UNL A   1      42.050  25.430  28.117  1.00  0.00     0.049 A 
ATOM     18  N   UNL A   1      44.972  26.212  28.200  1.00  0.00    -0.248 NA
ATOM     19  C   UNL A   1      45.510  23.994  27.699  1.00  0.00     0.031 C 
ATOM     20  C   UNL A   1      40.631  25.120  27.967  1.00  0.00     0.029 A 
ATOM     21  N   UNL A   1      42.067  26.752  28.474  1.00  0.00    -0.354 N 
ATOM     22  C   UNL A   1      46.347  26.084  28.055  1.00  0.00     0.074 A 
ATOM     23  C   UNL A   1      46.626  24.700  27.753  1.00  0.00     0.031 C 
ATOM     24  C   UNL A   1      39.909  26.219  28.248  1.00  0.00     0.029 A 
ATOM     25  C   UNL A   1      40.817  27.304  28.608  1.00  0.00     0.049 A 
ATOM     26  H   UNL A   1      42.899  27.260  28.619  1.00  0.00     0.167 HD
ATOM     27  C   UNL A   1      47.296  27.041  28.159  1.00  0.00     0.037 A 
ATOM     28  C   UNL A   1      40.457  28.545  28.990  1.00  0.00     0.037 A 
ATOM     29  C   UNL A   1      47.016  28.397  28.536  1.00  0.00     0.049 A 
ATOM     30  C   UNL A   1      41.541  29.555  29.263  1.00  0.00     0.074 A 
ATOM     31  C   UNL A   1      47.901  29.432  28.765  1.00  0.00     0.029 A 
ATOM     32  N   UNL A   1      45.741  28.893  28.767  1.00  0.00    -0.354 N 
ATOM     33  N   UNL A   1      42.840  29.427  29.129  1.00  0.00    -0.248 NA
ATOM     34  C   UNL A   1      41.113  30.879  29.733  1.00  0.00     0.031 C 
ATOM     35  C   UNL A   1      47.163  30.544  29.186  1.00  0.00     0.029 A 
ATOM     36  C   UNL A   1      45.815  30.214  29.167  1.00  0.00     0.049 A 
ATOM     37  H   UNL A   1      44.907  28.380  28.661  1.00  0.00     0.167 HD
ATOM     38  C   UNL A   1      43.383  30.659  29.468  1.00  0.00     0.074 A 
ATOM     39  C   UNL A   1      42.271  31.523  29.809  1.00  0.00     0.031 C 
ATOM     40  C   UNL A   1      44.684  31.046  29.492  1.00  0.00     0.037 A 
BRANCH  27  41
ATOM     41  C   UNL A   1      48.711  26.604  27.934  1.00  0.00     0.057 A 
ATOM     42  C   UNL A   1      49.328  26.715  26.680  1.00  0.00     0.134 A 
ATOM     43  C   UNL A   1      49.439  25.996  28.963  1.00  0.00     0.134 A 
ATOM     44  F   UNL A   1      48.669  27.256  25.644  1.00  0.00    -0.206 F 
ATOM     45  C   UNL A   1      50.609  26.210  26.451  1.00  0.00     0.040 A 
ATOM     46  C   UNL A   1      50.728  25.505  28.752  1.00  0.00     0.040 A 
ATOM     47  F   UNL A   1      48.899  25.845  30.181  1.00  0.00    -0.206 F 
ATOM     48  C   UNL A   1      51.312  25.602  27.490  1.00  0.00     0.006 A 
ENDBRANCH  27  41
BRANCH  28  49
ATOM     49  C   UNL A   1      39.022  28.892  29.156  1.00  0.00     0.057 A 
ATOM     50  C   UNL A   1      38.276  29.460  28.118  1.00  0.00     0.134 A 
ATOM     51  C   UNL A   1      38.363  28.678  30.375  1.00  0.00     0.134 A 
ATOM     52  F   UNL A   1      38.851  29.711  26.932  1.00  0.00    -0.206 F 
ATOM     53  C   UNL A   1      36.934  29.815  28.289  1.00  0.00     0.040 A 
ATOM     54  C   UNL A   1      37.018  29.006  30.552  1.00  0.00     0.040 A 
ATOM     55  F   UNL A   1      39.019  28.137  31.413  1.00  0.00    -0.206 F 
ATOM     56  C   UNL A   1      36.301  29.584  29.508  1.00  0.00     0.006 A 
ENDBRANCH  28  49
BRANCH  40  57
ATOM     57  C   UNL A   1      44.968  32.468  29.870  1.00  0.00     0.057 A 
ATOM     58  C   UNL A   1      45.250  32.840  31.190  1.00  0.00     0.134 A 
ATOM     59  C   UNL A   1      45.029  33.463  28.887  1.00  0.00     0.134 A 
ATOM     60  F   UNL A   1      45.197  31.933  32.177  1.00  0.00    -0.206 F 
ATOM     61  C   UNL A   1      45.568  34.157  31.521  1.00  0.00     0.040 A 
ATOM     62  C   UNL A   1      45.370  34.778  29.201  1.00  0.00     0.040 A 
ATOM     63  F   UNL A   1      44.780  33.167  27.601  1.00  0.00    -0.206 F 
ATOM     64  C   UNL A   1      45.638  35.128  30.522  1.00  0.00     0.006 A 
ENDBRANCH  40  57
ENDBRANCH  14  15
ENDBRANCH   7   9
ENDBRANCH   6   7
ENDBRANCH   5   6
ENDBRANCH   4   5
ENDBRANCH   3   4
ENDBRANCH   2   3
ENDBRANCH   1   2
BRANCH   1  65
ATOM     65  O   UNL A   1      33.844  21.607  24.118  1.00  0.00    -0.376 OA
BRANCH  65  66
ATOM     66  C   UNL A   1      33.227  22.851  23.810  1.00  0.00     0.202 C 
BRANCH  66  67
ATOM     67  C   UNL A   1      34.118  23.898  23.134  1.00  0.00     0.261 C 
BRANCH  67  68
ATOM     68  O   UNL A   1      34.314  25.081  23.932  1.00  0.00    -0.463 OA
BRANCH  68  69
ATOM     69  C   UNL A   1      33.643  26.171  23.490  1.00  0.00     0.310 C 
ATOM     70  O   UNL A   1      34.191  27.219  23.157  1.00  0.00    -0.252 OA
BRANCH  69  71
ATOM     71  C   UNL A   1      32.150  25.959  23.314  1.00  0.00     0.118 C 
ATOM     72  C   UNL A   1      31.454  26.630  22.119  1.00  0.00     0.019 C 
ATOM     73  C   UNL A   1      31.451  26.206  24.645  1.00  0.00     0.133 C 
ATOM     74  C   UNL A   1      30.611  27.886  22.388  1.00  0.00     0.022 C 
ATOM     75  N   UNL A   1      31.050  27.600  24.762  1.00  0.00    -0.356 N 
ATOM     76  C   UNL A   1      30.046  28.033  23.801  1.00  0.00     0.118 C 
BRANCH  75  77
ATOM     77  C   UNL A   1      31.683  28.532  25.558  1.00  0.00     0.129 A 
ATOM     78  C   UNL A   1      32.815  28.224  26.306  1.00  0.00     0.047 A 
ATOM     79  N   UNL A   1      31.197  29.793  25.573  1.00  0.00    -0.231 NA
ATOM     80  C   UNL A   1      33.515  29.222  26.979  1.00  0.00     0.014 A 
ATOM     81  C   UNL A   1      31.817  30.748  26.290  1.00  0.00     0.073 A 
ATOM     82  C   UNL A   1      33.017  30.517  26.984  1.00  0.00     0.002 A 
ATOM     83  C   UNL A   1      31.258  32.012  26.374  1.00  0.00     0.030 A 
ATOM     84  C   UNL A   1      33.666  31.553  27.677  1.00  0.00     0.032 A 
ATOM     85  C   UNL A   1      31.867  33.043  27.101  1.00  0.00     0.024 A 
ATOM     86  C   UNL A   1      33.087  32.822  27.737  1.00  0.00     0.083 A 
BRANCH  86  87
ATOM     87  S   UNL A   1      33.934  34.060  28.710  1.00  0.00     0.243 S 
ATOM     88  O   UNL A   1      34.729  34.829  27.765  1.00  0.00    -0.207 OA
ATOM     89  O   UNL A   1      32.935  34.691  29.536  1.00  0.00    -0.207 OA
BRANCH  87  90
ATOM     90  N   UNL A   1      35.040  33.236  29.719  1.00  0.00    -0.198 NA
ATOM     91  C   UNL A   1      36.471  33.567  29.516  1.00  0.00     0.102 C 
ATOM     92  C   UNL A   1      34.550  32.934  31.086  1.00  0.00     0.102 C 
ATOM     93  C   UNL A   1      37.407  32.783  30.424  1.00  0.00     0.017 C 
ATOM     94  C   UNL A   1      35.544  32.123  31.900  1.00  0.00     0.017 C 
ATOM     95  C   UNL A   1      36.920  32.764  31.863  1.00  0.00     0.003 C 
ENDBRANCH  87  90
ENDBRANCH  86  87
ENDBRANCH  75  77
ENDBRANCH  69  71
ENDBRANCH  68  69
ENDBRANCH  67  68
ENDBRANCH  66  67
ENDBRANCH  65  66
ENDBRANCH   1  65
TORSDOF 20
ENDMDL
MODEL 2
REMARK VINA RESULT:     -11.0      1.206      2.145
REMARK SMILES O=C(OCCOCCOCCOC(=O)[C@@H]1CCCN(c2ccc3cc(S(=O)(=O)N4CCCCC4)ccc3n2)C1)c1ccc(-c2c3nc(c(-c4c(F)cccc4F)c4ccc([nH]4)c(-c4c(F)cccc4F)c4nc(c(-c5c(F)cccc5F)c5ccc2[nH]5)C=C4)C=C3)cc1
REMARK SMILES IDX 8 1 7 2 6 3 5 4 4 5 3 6 2 7 1 8 40 9 41 10 93 11 42 12 92 13
REMARK SMILES IDX 43 14 44 15 45 16 86 17 46 18 91 19 85 20 87 21 47 22 90 23
REMARK SMILES IDX 84 24 83 25 48 27 74 28 57 29 73 30 58 31 61 32 72 33 88 34
REMARK SMILES IDX 59 35 60 36 71 38 89 39 62 40 49 41 50 42 55 43 51 44 52 45
REMARK SMILES IDX 54 46 56 47 53 48 75 49 76 50 81 51 77 52 78 53 80 54 82 55
REMARK SMILES IDX 79 56 63 57 64 58 69 59 65 60 66 61 68 62 70 63 67 64 9 65
REMARK SMILES IDX 10 66 11 67 12 68 13 69 14 70 15 71 16 72 39 73 17 74 19 75
REMARK SMILES IDX 18 76 20 77 21 78 38 79 22 80 37 81 23 82 36 83 24 84 35 85
REMARK SMILES IDX 25 86 26 87 27 88 28 89 29 90 30 91 34 92 31 93 33 94 32 95
REMARK H PARENT 87 26 61 37
REMARK Flexibility Score: inf
ROOT
ATOM      1  C   UNL A   1      34.511  20.723  25.324  1.00  0.00     0.188 C 
ENDROOT
BRANCH   1   2
ATOM      2  C   UNL A   1      36.021  20.695  25.076  1.00  0.00     0.188 C 
BRANCH   2   3
ATOM      3  O   UNL A   1      36.804  21.741  25.650  1.00  0.00    -0.376 OA
BRANCH   3   4
ATOM      4  C   UNL A   1      38.215  21.574  25.606  1.00  0.00     0.202 C 
BRANCH   4   5
ATOM      5  C   UNL A   1      38.679  20.148  25.283  1.00  0.00     0.261 C 
BRANCH   5   6
ATOM      6  O   UNL A   1      39.620  19.668  26.258  1.00  0.00    -0.460 OA
BRANCH   6   7
ATOM      7  C   UNL A   1      40.953  19.706  25.998  1.00  0.00     0.338 C 
ATOM      8  O   UNL A   1      41.571  18.697  25.685  1.00  0.00    -0.246 OA
BRANCH   7   9
ATOM      9  C   UNL A   1      41.695  20.934  26.437  1.00  0.00     0.060 A 
ATOM     10  C   UNL A   1      41.926  21.267  27.775  1.00  0.00     0.016 A 
ATOM     11  C   UNL A   1      42.164  21.809  25.441  1.00  0.00     0.016 A 
ATOM     12  C   UNL A   1      42.604  22.432  28.122  1.00  0.00     0.010 A 
ATOM     13  C   UNL A   1      42.809  23.005  25.783  1.00  0.00     0.010 A 
ATOM     14  C   UNL A   1      42.994  23.334  27.132  1.00  0.00    -0.014 A 
BRANCH  14  15
ATOM     15  C   UNL A   1      43.271  24.720  27.569  1.00  0.00     0.031 A 
ATOM     16  C   UNL A   1      44.662  25.237  27.332  1.00  0.00     0.074 A 
ATOM     17  C   UNL A   1      42.297  25.537  28.002  1.00  0.00     0.049 A 
ATOM     18  N   UNL A   1      45.135  26.446  27.472  1.00  0.00    -0.248 NA
ATOM     19  C   UNL A   1      45.642  24.260  26.824  1.00  0.00     0.031 C 
ATOM     20  C   UNL A   1      40.894  25.166  28.154  1.00  0.00     0.029 A 
ATOM     21  N   UNL A   1      42.337  26.855  28.373  1.00  0.00    -0.354 N 
ATOM     22  C   UNL A   1      46.450  26.382  27.033  1.00  0.00     0.074 A 
ATOM     23  C   UNL A   1      46.714  25.014  26.651  1.00  0.00     0.031 C 
ATOM     24  C   UNL A   1      40.204  26.229  28.605  1.00  0.00     0.029 A 
ATOM     25  C   UNL A   1      41.123  27.349  28.783  1.00  0.00     0.049 A 
ATOM     26  H   UNL A   1      43.159  27.398  28.346  1.00  0.00     0.167 HD
ATOM     27  C   UNL A   1      47.359  27.378  26.950  1.00  0.00     0.037 A 
ATOM     28  C   UNL A   1      40.803  28.569  29.257  1.00  0.00     0.037 A 
ATOM     29  C   UNL A   1      47.111  28.716  27.405  1.00  0.00     0.049 A 
ATOM     30  C   UNL A   1      41.878  29.624  29.311  1.00  0.00     0.074 A 
ATOM     31  C   UNL A   1      47.982  29.787  27.458  1.00  0.00     0.029 A 
ATOM     32  N   UNL A   1      45.897  29.153  27.913  1.00  0.00    -0.354 N 
ATOM     33  N   UNL A   1      43.122  29.555  28.899  1.00  0.00    -0.248 NA
ATOM     34  C   UNL A   1      41.507  30.922  29.888  1.00  0.00     0.031 C 
ATOM     35  C   UNL A   1      47.307  30.861  28.050  1.00  0.00     0.029 A 
ATOM     36  C   UNL A   1      46.001  30.472  28.314  1.00  0.00     0.049 A 
ATOM     37  H   UNL A   1      45.081  28.605  27.979  1.00  0.00     0.167 HD
ATOM     38  C   UNL A   1      43.674  30.806  29.137  1.00  0.00     0.074 A 
ATOM     39  C   UNL A   1      42.627  31.617  29.726  1.00  0.00     0.031 C 
ATOM     40  C   UNL A   1      44.932  31.250  28.890  1.00  0.00     0.037 A 
BRANCH  27  41
ATOM     41  C   UNL A   1      48.709  27.006  26.418  1.00  0.00     0.057 A 
ATOM     42  C   UNL A   1      49.745  26.583  27.262  1.00  0.00     0.134 A 
ATOM     43  C   UNL A   1      48.998  27.146  25.056  1.00  0.00     0.134 A 
ATOM     44  F   UNL A   1      49.541  26.465  28.583  1.00  0.00    -0.206 F 
ATOM     45  C   UNL A   1      51.030  26.340  26.772  1.00  0.00     0.040 A 
ATOM     46  C   UNL A   1      50.273  26.886  24.552  1.00  0.00     0.040 A 
ATOM     47  F   UNL A   1      48.054  27.562  24.199  1.00  0.00    -0.206 F 
ATOM     48  C   UNL A   1      51.296  26.492  25.413  1.00  0.00     0.006 A 
ENDBRANCH  27  41
BRANCH  28  49
ATOM     49  C   UNL A   1      39.424  28.850  29.734  1.00  0.00     0.057 A 
ATOM     50  C   UNL A   1      39.070  28.722  31.082  1.00  0.00     0.134 A 
ATOM     51  C   UNL A   1      38.416  29.239  28.841  1.00  0.00     0.134 A 
ATOM     52  F   UNL A   1      39.981  28.333  31.985  1.00  0.00    -0.206 F 
ATOM     53  C   UNL A   1      37.763  28.956  31.521  1.00  0.00     0.040 A 
ATOM     54  C   UNL A   1      37.113  29.498  29.270  1.00  0.00     0.040 A 
ATOM     55  F   UNL A   1      38.686  29.380  27.534  1.00  0.00    -0.206 F 
ATOM     56  C   UNL A   1      36.782  29.350  30.614  1.00  0.00     0.006 A 
ENDBRANCH  28  49
BRANCH  40  57
ATOM     57  C   UNL A   1      45.233  32.679  29.225  1.00  0.00     0.057 A 
ATOM     58  C   UNL A   1      45.034  33.712  28.302  1.00  0.00     0.134 A 
ATOM     59  C   UNL A   1      45.660  33.029  30.512  1.00  0.00     0.134 A 
ATOM     60  F   UNL A   1      44.636  33.438  27.050  1.00  0.00    -0.206 F 
ATOM     61  C   UNL A   1      45.263  35.045  28.643  1.00  0.00     0.040 A 
ATOM     62  C   UNL A   1      45.868  34.360  30.873  1.00  0.00     0.040 A 
ATOM     63  F   UNL A   1      45.858  32.085  31.445  1.00  0.00    -0.206 F 
ATOM     64  C   UNL A   1      45.672  35.372  29.936  1.00  0.00     0.006 A 
ENDBRANCH  40  57
ENDBRANCH  14  15
ENDBRANCH   7   9
ENDBRANCH   6   7
ENDBRANCH   5   6
ENDBRANCH   4   5
ENDBRANCH   3   4
ENDBRANCH   2   3
ENDBRANCH   1   2
BRANCH   1  65
ATOM     65  O   UNL A   1      33.648  20.598  24.197  1.00  0.00    -0.376 OA
BRANCH  65  66
ATOM     66  C   UNL A   1      32.833  21.717  23.873  1.00  0.00     0.202 C 
BRANCH  66  67
ATOM     67  C   UNL A   1      33.547  22.905  23.220  1.00  0.00     0.261 C 
BRANCH  67  68
ATOM     68  O   UNL A   1      33.717  24.026  24.108  1.00  0.00    -0.463 OA
BRANCH  68  69
ATOM     69  C   UNL A   1      33.306  25.212  23.598  1.00  0.00     0.310 C 
ATOM     70  O   UNL A   1      34.073  26.103  23.245  1.00  0.00    -0.252 OA
BRANCH  69  71
ATOM     71  C   UNL A   1      31.808  25.311  23.373  1.00  0.00     0.118 C 
ATOM     72  C   UNL A   1      31.305  26.085  22.145  1.00  0.00     0.019 C 
ATOM     73  C   UNL A   1      31.135  25.727  24.675  1.00  0.00     0.133 C 
ATOM     74  C   UNL A   1      30.733  27.495  22.365  1.00  0.00     0.022 C 
ATOM     75  N   UNL A   1      31.030  27.176  24.757  1.00  0.00    -0.356 N 
ATOM     76  C   UNL A   1      30.168  27.787  23.755  1.00  0.00     0.118 C 
BRANCH  75  77
ATOM     77  C   UNL A   1      31.818  27.973  25.560  1.00  0.00     0.129 A 
ATOM     78  C   UNL A   1      32.948  27.486  26.212  1.00  0.00     0.047 A 
ATOM     79  N   UNL A   1      31.492  29.279  25.680  1.00  0.00    -0.231 NA
ATOM     80  C   UNL A   1      33.803  28.349  26.892  1.00  0.00     0.014 A 
ATOM     81  C   UNL A   1      32.266  30.105  26.407  1.00  0.00     0.073 A 
ATOM     82  C   UNL A   1      33.468  29.690  27.004  1.00  0.00     0.002 A 
ATOM     83  C   UNL A   1      31.870  31.419  26.601  1.00  0.00     0.030 A 
ATOM     84  C   UNL A   1      34.278  30.595  27.710  1.00  0.00     0.032 A 
ATOM     85  C   UNL A   1      32.644  32.322  27.343  1.00  0.00     0.024 A 
ATOM     86  C   UNL A   1      33.863  31.917  27.881  1.00  0.00     0.083 A 
BRANCH  86  87
ATOM     87  S   UNL A   1      34.912  32.982  28.864  1.00  0.00     0.243 S 
ATOM     88  O   UNL A   1      35.155  32.262  30.104  1.00  0.00    -0.207 OA
ATOM     89  O   UNL A   1      35.998  33.392  28.010  1.00  0.00    -0.207 OA
BRANCH  87  90
ATOM     90  N   UNL A   1      33.986  34.359  29.273  1.00  0.00    -0.198 NA
ATOM     91  C   UNL A   1      33.722  34.553  30.720  1.00  0.00     0.102 C 
ATOM     92  C   UNL A   1      34.191  35.544  28.405  1.00  0.00     0.102 C 
ATOM     93  C   UNL A   1      32.872  35.779  31.019  1.00  0.00     0.017 C 
ATOM     94  C   UNL A   1      33.274  36.700  28.767  1.00  0.00     0.017 C 
ATOM     95  C   UNL A   1      33.348  37.002  30.253  1.00  0.00     0.003 C 
ENDBRANCH  87  90
ENDBRANCH  86  87
ENDBRANCH  75  77
ENDBRANCH  69  71
ENDBRANCH  68  69
ENDBRANCH  67  68
ENDBRANCH  66  67
ENDBRANCH  65  66
ENDBRANCH   1  65
TORSDOF 20
ENDMDL
MODEL 3
REMARK VINA RESULT:     -10.9      2.828      9.438
REMARK SMILES O=C(OCCOCCOCCOC(=O)[C@@H]1CCCN(c2ccc3cc(S(=O)(=O)N4CCCCC4)ccc3n2)C1)c1ccc(-c2c3nc(c(-c4c(F)cccc4F)c4ccc([nH]4)c(-c4c(F)cccc4F)c4nc(c(-c5c(F)cccc5F)c5ccc2[nH]5)C=C4)C=C3)cc1
REMARK SMILES IDX 8 1 7 2 6 3 5 4 4 5 3 6 2 7 1 8 40 9 41 10 93 11 42 12 92 13
REMARK SMILES IDX 43 14 44 15 45 16 86 17 46 18 91 19 85 20 87 21 47 22 90 23
REMARK SMILES IDX 84 24 83 25 48 27 74 28 57 29 73 30 58 31 61 32 72 33 88 34
REMARK SMILES IDX 59 35 60 36 71 38 89 39 62 40 49 41 50 42 55 43 51 44 52 45
REMARK SMILES IDX 54 46 56 47 53 48 75 49 76 50 81 51 77 52 78 53 80 54 82 55
REMARK SMILES IDX 79 56 63 57 64 58 69 59 65 60 66 61 68 62 70 63 67 64 9 65
REMARK SMILES IDX 10 66 11 67 12 68 13 69 14 70 15 71 16 72 39 73 17 74 19 75
REMARK SMILES IDX 18 76 20 77 21 78 38 79 22 80 37 81 23 82 36 83 24 84 35 85
REMARK SMILES IDX 25 86 26 87 27 88 28 89 29 90 30 91 34 92 31 93 33 94 32 95
REMARK H PARENT 87 26 61 37
REMARK Flexibility Score: inf
ROOT
ATOM      1  C   UNL A   1      34.378  34.024  28.569  1.00  0.00     0.188 C 
ENDROOT
BRANCH   1   2
ATOM      2  C   UNL A   1      33.342  34.996  29.138  1.00  0.00     0.188 C 
BRANCH   2   3
ATOM      3  O   UNL A   1      32.951  34.824  30.499  1.00  0.00    -0.376 OA
BRANCH   3   4
ATOM      4  C   UNL A   1      33.885  35.241  31.486  1.00  0.00     0.202 C 
BRANCH   4   5
ATOM      5  C   UNL A   1      34.308  34.140  32.467  1.00  0.00     0.261 C 
BRANCH   5   6
ATOM      6  O   UNL A   1      35.472  33.438  31.999  1.00  0.00    -0.460 OA
BRANCH   6   7
ATOM      7  C   UNL A   1      36.004  32.427  32.736  1.00  0.00     0.338 C 
ATOM      8  O   UNL A   1      35.913  32.412  33.956  1.00  0.00    -0.246 OA
BRANCH   7   9
ATOM      9  C   UNL A   1      36.987  31.529  32.046  1.00  0.00     0.060 A 
ATOM     10  C   UNL A   1      38.147  31.035  32.650  1.00  0.00     0.016 A 
ATOM     11  C   UNL A   1      36.733  31.183  30.706  1.00  0.00     0.016 A 
ATOM     12  C   UNL A   1      39.034  30.220  31.952  1.00  0.00     0.010 A 
ATOM     13  C   UNL A   1      37.642  30.399  29.983  1.00  0.00     0.010 A 
ATOM     14  C   UNL A   1      38.816  29.949  30.600  1.00  0.00    -0.014 A 
BRANCH  14  15
ATOM     15  C   UNL A   1      39.987  29.494  29.818  1.00  0.00     0.031 A 
ATOM     16  C   UNL A   1      41.110  30.478  29.653  1.00  0.00     0.074 A 
ATOM     17  C   UNL A   1      40.121  28.221  29.414  1.00  0.00     0.049 A 
ATOM     18  N   UNL A   1      42.305  30.301  29.155  1.00  0.00    -0.248 NA
ATOM     19  C   UNL A   1      40.865  31.840  30.163  1.00  0.00     0.031 C 
ATOM     20  C   UNL A   1      39.140  27.162  29.630  1.00  0.00     0.029 A 
ATOM     21  N   UNL A   1      41.149  27.597  28.758  1.00  0.00    -0.354 N 
ATOM     22  C   UNL A   1      42.960  31.512  29.328  1.00  0.00     0.074 A 
ATOM     23  C   UNL A   1      42.029  32.426  29.947  1.00  0.00     0.031 C 
ATOM     24  C   UNL A   1      39.604  26.018  29.098  1.00  0.00     0.029 A 
ATOM     25  C   UNL A   1      40.910  26.270  28.496  1.00  0.00     0.049 A 
ATOM     26  H   UNL A   1      41.981  28.056  28.499  1.00  0.00     0.167 HD
ATOM     27  C   UNL A   1      44.232  31.834  29.004  1.00  0.00     0.037 A 
ATOM     28  C   UNL A   1      41.664  25.372  27.833  1.00  0.00     0.037 A 
ATOM     29  C   UNL A   1      45.125  30.942  28.320  1.00  0.00     0.049 A 
ATOM     30  C   UNL A   1      43.019  25.801  27.333  1.00  0.00     0.074 A 
ATOM     31  C   UNL A   1      46.403  31.185  27.856  1.00  0.00     0.029 A 
ATOM     32  N   UNL A   1      44.809  29.636  27.977  1.00  0.00    -0.354 N 
ATOM     33  N   UNL A   1      43.632  26.949  27.495  1.00  0.00    -0.248 NA
ATOM     34  C   UNL A   1      43.788  24.813  26.565  1.00  0.00     0.031 C 
ATOM     35  C   UNL A   1      46.842  30.038  27.185  1.00  0.00     0.029 A 
ATOM     36  C   UNL A   1      45.856  29.065  27.279  1.00  0.00     0.049 A 
ATOM     37  H   UNL A   1      43.963  29.182  28.198  1.00  0.00     0.167 HD
ATOM     38  C   UNL A   1      44.868  26.815  26.878  1.00  0.00     0.074 A 
ATOM     39  C   UNL A   1      44.920  25.469  26.343  1.00  0.00     0.031 C 
ATOM     40  C   UNL A   1      45.875  27.718  26.766  1.00  0.00     0.037 A 
BRANCH  27  41
ATOM     41  C   UNL A   1      44.671  33.229  29.328  1.00  0.00     0.057 A 
ATOM     42  C   UNL A   1      44.470  34.292  28.437  1.00  0.00     0.134 A 
ATOM     43  C   UNL A   1      45.369  33.497  30.510  1.00  0.00     0.134 A 
ATOM     44  F   UNL A   1      43.839  34.091  27.270  1.00  0.00    -0.206 F 
ATOM     45  C   UNL A   1      44.974  35.568  28.700  1.00  0.00     0.040 A 
ATOM     46  C   UNL A   1      45.860  34.772  30.793  1.00  0.00     0.040 A 
ATOM     47  F   UNL A   1      45.608  32.519  31.397  1.00  0.00    -0.206 F 
ATOM     48  C   UNL A   1      45.672  35.809  29.881  1.00  0.00     0.006 A 
ENDBRANCH  27  41
BRANCH  28  49
ATOM     49  C   UNL A   1      41.153  23.999  27.588  1.00  0.00     0.057 A 
ATOM     50  C   UNL A   1      41.652  22.891  28.282  1.00  0.00     0.134 A 
ATOM     51  C   UNL A   1      40.156  23.759  26.631  1.00  0.00     0.134 A 
ATOM     52  F   UNL A   1      42.622  23.048  29.195  1.00  0.00    -0.206 F 
ATOM     53  C   UNL A   1      41.191  21.596  28.025  1.00  0.00     0.040 A 
ATOM     54  C   UNL A   1      39.671  22.474  26.381  1.00  0.00     0.040 A 
ATOM     55  F   UNL A   1      39.634  24.775  25.929  1.00  0.00    -0.206 F 
ATOM     56  C   UNL A   1      40.194  21.386  27.075  1.00  0.00     0.006 A 
ENDBRANCH  28  49
BRANCH  40  57
ATOM     57  C   UNL A   1      47.122  27.271  26.067  1.00  0.00     0.057 A 
ATOM     58  C   UNL A   1      48.131  26.565  26.733  1.00  0.00     0.134 A 
ATOM     59  C   UNL A   1      47.280  27.489  24.693  1.00  0.00     0.134 A 
ATOM     60  F   UNL A   1      48.040  26.334  28.052  1.00  0.00    -0.206 F 
ATOM     61  C   UNL A   1      49.261  26.104  26.059  1.00  0.00     0.040 A 
ATOM     62  C   UNL A   1      48.394  27.012  24.003  1.00  0.00     0.040 A 
ATOM     63  F   UNL A   1      46.342  28.150  23.995  1.00  0.00    -0.206 F 
ATOM     64  C   UNL A   1      49.390  26.320  24.688  1.00  0.00     0.006 A 
ENDBRANCH  40  57
ENDBRANCH  14  15
ENDBRANCH   7   9
ENDBRANCH   6   7
ENDBRANCH   5   6
ENDBRANCH   4   5
ENDBRANCH   3   4
ENDBRANCH   2   3
ENDBRANCH   1   2
BRANCH   1  65
ATOM     65  O   UNL A   1      34.169  32.630  28.777  1.00  0.00    -0.376 OA
BRANCH  65  66
ATOM     66  C   UNL A   1      34.358  31.769  27.660  1.00  0.00     0.202 C 
BRANCH  66  67
ATOM     67  C   UNL A   1      33.263  30.725  27.419  1.00  0.00     0.261 C 
BRANCH  67  68
ATOM     68  O   UNL A   1      33.237  30.230  26.067  1.00  0.00    -0.463 OA
BRANCH  68  69
ATOM     69  C   UNL A   1      32.071  29.640  25.709  1.00  0.00     0.310 C 
ATOM     70  O   UNL A   1      31.336  29.051  26.497  1.00  0.00    -0.252 OA
BRANCH  69  71
ATOM     71  C   UNL A   1      31.670  29.874  24.263  1.00  0.00     0.118 C 
ATOM     72  C   UNL A   1      30.173  29.888  23.915  1.00  0.00     0.019 C 
ATOM     73  C   UNL A   1      32.498  28.965  23.364  1.00  0.00     0.133 C 
ATOM     74  C   UNL A   1      29.582  28.648  23.225  1.00  0.00     0.022 C 
ATOM     75  N   UNL A   1      31.818  27.697  23.152  1.00  0.00    -0.356 N 
ATOM     76  C   UNL A   1      30.560  27.787  22.425  1.00  0.00     0.118 C 
BRANCH  75  77
ATOM     77  C   UNL A   1      32.181  26.506  23.746  1.00  0.00     0.129 A 
ATOM     78  C   UNL A   1      31.551  26.024  24.890  1.00  0.00     0.047 A 
ATOM     79  N   UNL A   1      33.157  25.775  23.165  1.00  0.00    -0.231 NA
ATOM     80  C   UNL A   1      31.838  24.751  25.376  1.00  0.00     0.014 A 
ATOM     81  C   UNL A   1      33.503  24.580  23.678  1.00  0.00     0.073 A 
ATOM     82  C   UNL A   1      32.835  24.001  24.771  1.00  0.00     0.002 A 
ATOM     83  C   UNL A   1      34.568  23.882  23.131  1.00  0.00     0.030 A 
ATOM     84  C   UNL A   1      33.188  22.726  25.245  1.00  0.00     0.032 A 
ATOM     85  C   UNL A   1      34.963  22.631  23.624  1.00  0.00     0.024 A 
ATOM     86  C   UNL A   1      34.258  22.039  24.669  1.00  0.00     0.083 A 
BRANCH  86  87
ATOM     87  S   UNL A   1      34.695  20.460  25.386  1.00  0.00     0.243 S 
ATOM     88  O   UNL A   1      36.148  20.414  25.386  1.00  0.00    -0.207 OA
ATOM     89  O   UNL A   1      33.941  20.339  26.609  1.00  0.00    -0.207 OA
BRANCH  87  90
ATOM     90  N   UNL A   1      34.169  19.252  24.297  1.00  0.00    -0.198 NA
ATOM     91  C   UNL A   1      34.839  17.935  24.421  1.00  0.00     0.102 C 
ATOM     92  C   UNL A   1      32.732  19.306  23.933  1.00  0.00     0.102 C 
ATOM     93  C   UNL A   1      34.348  16.910  23.408  1.00  0.00     0.017 C 
ATOM     94  C   UNL A   1      32.351  18.264  22.895  1.00  0.00     0.017 C 
ATOM     95  C   UNL A   1      32.832  16.885  23.314  1.00  0.00     0.003 C 
ENDBRANCH  87  90
ENDBRANCH  86  87
ENDBRANCH  75  77
ENDBRANCH  69  71
ENDBRANCH  68  69
ENDBRANCH  67  68
ENDBRANCH  66  67
ENDBRANCH  65  66
ENDBRANCH   1  65
TORSDOF 20
ENDMDL
