MODEL 1
REMARK VINA RESULT:      -8.9      0.000      0.000
REMARK SMILES CS(=O)(=O)c1ccc(/C=C(/C(=O)OCCOCCOCCOC(=O)c2ccc(-c3c4nc(c(-c5c(F)cccc5F)c5ccc([nH]5)c(-c5c(F)cccc5F)c5nc(c(-c6c(F)cccc6F)c6ccc3[nH]6)C=C5)C=C4)cc2)c2ccc(-c3ccc(S(C)(=O)=O)cc3)cc2)cc1
REMARK SMILES IDX 17 1 16 2 15 3 14 4 13 5 11 6 12 7 10 8 9 9 8 10 5 11 6 12
REMARK SMILES IDX 96 13 7 14 95 15 2 16 1 17 3 18 4 19 79 20 80 21 94 22 81 23
REMARK SMILES IDX 93 24 82 25 83 26 84 27 92 28 85 29 91 30 86 31 87 32 88 33
REMARK SMILES IDX 89 34 90 35 18 36 19 37 20 38 21 39 22 40 23 41 24 42 25 43
REMARK SMILES IDX 26 44 78 45 27 46 77 47 28 48 29 49 30 50 71 51 31 52 76 53
REMARK SMILES IDX 70 54 72 55 32 56 75 57 69 58 68 59 33 61 59 62 42 63 58 64
REMARK SMILES IDX 43 65 46 66 57 67 73 68 44 69 45 70 56 72 74 73 47 74 34 75
REMARK SMILES IDX 35 76 40 77 36 78 37 79 39 80 41 81 38 82 60 83 61 84 66 85
REMARK SMILES IDX 62 86 63 87 65 88 67 89 64 90 48 91 49 92 54 93 50 94 51 95
REMARK SMILES IDX 53 96 55 97 52 98
REMARK H PARENT 72 60 46 71
REMARK Flexibility Score: inf
ROOT
ATOM      1  C   UNL A   1      34.411  36.980  32.926  1.00  0.00     0.188 C 
ENDROOT
BRANCH   1   2
ATOM      2  O   UNL A   1      34.049  35.734  33.471  1.00  0.00    -0.376 OA
BRANCH   2   3
ATOM      3  C   UNL A   1      34.443  34.556  32.791  1.00  0.00     0.202 C 
BRANCH   3   4
ATOM      4  C   UNL A   1      35.727  33.753  33.111  1.00  0.00     0.261 C 
BRANCH   4   5
ATOM      5  O   UNL A   1      36.307  33.881  34.416  1.00  0.00    -0.460 OA
BRANCH   5   6
ATOM      6  C   UNL A   1      37.640  34.139  34.486  1.00  0.00     0.338 C 
ATOM      7  O   UNL A   1      38.156  35.226  34.271  1.00  0.00    -0.246 OA
BRANCH   6   8
ATOM      8  C   UNL A   1      38.400  32.950  35.009  1.00  0.00     0.067 C 
ATOM      9  C   UNL A   1      39.132  32.193  34.153  1.00  0.00     0.024 C 
BRANCH   9  10
ATOM     10  C   UNL A   1      40.080  31.091  34.460  1.00  0.00    -0.025 A 
ATOM     11  C   UNL A   1      41.518  28.942  35.550  1.00  0.00     0.067 A 
ATOM     12  C   UNL A   1      40.731  28.742  34.418  1.00  0.00     0.021 A 
ATOM     13  C   UNL A   1      41.699  30.224  36.067  1.00  0.00     0.021 A 
ATOM     14  C   UNL A   1      40.061  29.829  33.849  1.00  0.00     0.009 A 
ATOM     15  C   UNL A   1      40.984  31.294  35.517  1.00  0.00     0.009 A 
BRANCH  11  16
ATOM     16  S   UNL A   1      42.144  27.536  36.439  1.00  0.00     0.175 S 
ATOM     17  C   UNL A   1      42.511  26.357  35.173  1.00  0.00     0.163 C 
ATOM     18  O   UNL A   1      41.053  27.013  37.242  1.00  0.00    -0.224 OA
ATOM     19  O   UNL A   1      43.393  27.934  37.059  1.00  0.00    -0.224 OA
ENDBRANCH  11  16
ENDBRANCH   9  10
BRANCH   8  20
ATOM     20  C   UNL A   1      38.286  32.654  36.454  1.00  0.00    -0.011 A 
ATOM     21  C   UNL A   1      38.681  33.635  37.373  1.00  0.00     0.009 A 
ATOM     22  C   UNL A   1      37.685  31.490  36.939  1.00  0.00     0.009 A 
ATOM     23  C   UNL A   1      38.450  33.474  38.738  1.00  0.00     0.009 A 
ATOM     24  C   UNL A   1      37.438  31.341  38.313  1.00  0.00     0.009 A 
ATOM     25  C   UNL A   1      37.811  32.335  39.235  1.00  0.00    -0.018 A 
BRANCH  25  26
ATOM     26  C   UNL A   1      37.545  32.207  40.677  1.00  0.00    -0.018 A 
ATOM     27  C   UNL A   1      37.476  30.943  41.298  1.00  0.00     0.010 A 
ATOM     28  C   UNL A   1      37.341  33.345  41.473  1.00  0.00     0.010 A 
ATOM     29  C   UNL A   1      37.231  30.820  42.669  1.00  0.00     0.021 A 
ATOM     30  C   UNL A   1      37.095  33.233  42.843  1.00  0.00     0.021 A 
ATOM     31  C   UNL A   1      37.046  31.971  43.435  1.00  0.00     0.067 A 
BRANCH  31  32
ATOM     32  S   UNL A   1      36.847  31.825  45.195  1.00  0.00     0.175 S 
ATOM     33  C   UNL A   1      35.892  33.241  45.656  1.00  0.00     0.163 C 
ATOM     34  O   UNL A   1      36.050  30.636  45.429  1.00  0.00    -0.224 OA
ATOM     35  O   UNL A   1      38.160  31.964  45.800  1.00  0.00    -0.224 OA
ENDBRANCH  31  32
ENDBRANCH  25  26
ENDBRANCH   8  20
ENDBRANCH   6   8
ENDBRANCH   5   6
ENDBRANCH   4   5
ENDBRANCH   3   4
ENDBRANCH   2   3
ENDBRANCH   1   2
BRANCH   1  36
ATOM     36  C   UNL A   1      33.213  37.778  32.369  1.00  0.00     0.188 C 
BRANCH  36  37
ATOM     37  O   UNL A   1      32.532  37.328  31.209  1.00  0.00    -0.376 OA
BRANCH  37  38
ATOM     38  C   UNL A   1      33.199  37.358  29.956  1.00  0.00     0.202 C 
BRANCH  38  39
ATOM     39  C   UNL A   1      32.959  36.269  28.890  1.00  0.00     0.261 C 
BRANCH  39  40
ATOM     40  O   UNL A   1      32.755  34.926  29.359  1.00  0.00    -0.460 OA
BRANCH  40  41
ATOM     41  C   UNL A   1      32.984  33.943  28.449  1.00  0.00     0.338 C 
ATOM     42  O   UNL A   1      32.292  33.640  27.499  1.00  0.00    -0.246 OA
BRANCH  41  43
ATOM     43  C   UNL A   1      34.340  33.385  28.667  1.00  0.00     0.060 A 
ATOM     44  C   UNL A   1      34.535  32.501  29.736  1.00  0.00     0.016 A 
ATOM     45  C   UNL A   1      35.414  33.758  27.858  1.00  0.00     0.016 A 
ATOM     46  C   UNL A   1      35.803  31.983  29.998  1.00  0.00     0.010 A 
ATOM     47  C   UNL A   1      36.692  33.258  28.139  1.00  0.00     0.010 A 
ATOM     48  C   UNL A   1      36.897  32.376  29.215  1.00  0.00    -0.014 A 
BRANCH  48  49
ATOM     49  C   UNL A   1      38.270  31.972  29.605  1.00  0.00     0.031 A 
ATOM     50  C   UNL A   1      38.777  30.620  29.192  1.00  0.00     0.074 A 
ATOM     51  C   UNL A   1      39.065  32.795  30.311  1.00  0.00     0.049 A 
ATOM     52  N   UNL A   1      39.924  30.047  29.459  1.00  0.00    -0.248 NA
ATOM     53  C   UNL A   1      37.870  29.807  28.368  1.00  0.00     0.031 C 
ATOM     54  C   UNL A   1      38.713  34.145  30.742  1.00  0.00     0.029 A 
ATOM     55  N   UNL A   1      40.337  32.608  30.796  1.00  0.00    -0.354 N 
ATOM     56  C   UNL A   1      39.870  28.800  28.849  1.00  0.00     0.074 A 
ATOM     57  C   UNL A   1      38.575  28.698  28.209  1.00  0.00     0.031 C 
ATOM     58  C   UNL A   1      39.748  34.671  31.418  1.00  0.00     0.029 A 
ATOM     59  C   UNL A   1      40.809  33.670  31.527  1.00  0.00     0.049 A 
ATOM     60  H   UNL A   1      40.860  31.789  30.635  1.00  0.00     0.167 HD
ATOM     61  C   UNL A   1      40.813  27.828  28.828  1.00  0.00     0.037 A 
ATOM     62  C   UNL A   1      41.945  33.805  32.239  1.00  0.00     0.037 A 
ATOM     63  C   UNL A   1      42.091  27.919  29.483  1.00  0.00     0.049 A 
ATOM     64  C   UNL A   1      42.927  32.665  32.296  1.00  0.00     0.074 A 
ATOM     65  C   UNL A   1      43.121  26.994  29.494  1.00  0.00     0.029 A 
ATOM     66  N   UNL A   1      42.504  28.984  30.268  1.00  0.00    -0.354 N 
ATOM     67  N   UNL A   1      42.896  31.514  31.668  1.00  0.00    -0.248 NA
ATOM     68  C   UNL A   1      44.115  32.851  33.144  1.00  0.00     0.031 C 
ATOM     69  C   UNL A   1      44.131  27.473  30.333  1.00  0.00     0.029 A 
ATOM     70  C   UNL A   1      43.761  28.727  30.792  1.00  0.00     0.049 A 
ATOM     71  H   UNL A   1      41.983  29.803  30.429  1.00  0.00     0.167 HD
ATOM     72  C   UNL A   1      44.063  30.849  32.030  1.00  0.00     0.074 A 
ATOM     73  C   UNL A   1      44.797  31.740  32.904  1.00  0.00     0.031 C 
ATOM     74  C   UNL A   1      44.490  29.616  31.661  1.00  0.00     0.037 A 
BRANCH  61  75
ATOM     75  C   UNL A   1      40.476  26.559  28.100  1.00  0.00     0.057 A 
ATOM     76  C   UNL A   1      39.550  25.636  28.602  1.00  0.00     0.134 A 
ATOM     77  C   UNL A   1      41.069  26.269  26.864  1.00  0.00     0.134 A 
ATOM     78  F   UNL A   1      38.956  25.847  29.788  1.00  0.00    -0.206 F 
ATOM     79  C   UNL A   1      39.245  24.460  27.916  1.00  0.00     0.040 A 
ATOM     80  C   UNL A   1      40.752  25.109  26.154  1.00  0.00     0.040 A 
ATOM     81  F   UNL A   1      41.962  27.111  26.322  1.00  0.00    -0.206 F 
ATOM     82  C   UNL A   1      39.842  24.197  26.684  1.00  0.00     0.006 A 
ENDBRANCH  61  75
BRANCH  62  83
ATOM     83  C   UNL A   1      42.221  35.063  32.979  1.00  0.00     0.057 A 
ATOM     84  C   UNL A   1      42.964  36.096  32.395  1.00  0.00     0.134 A 
ATOM     85  C   UNL A   1      41.788  35.246  34.297  1.00  0.00     0.134 A 
ATOM     86  F   UNL A   1      43.429  35.964  31.143  1.00  0.00    -0.206 F 
ATOM     87  C   UNL A   1      43.286  37.255  33.101  1.00  0.00     0.040 A 
ATOM     88  C   UNL A   1      42.078  36.412  35.007  1.00  0.00     0.040 A 
ATOM     89  F   UNL A   1      41.077  34.291  34.914  1.00  0.00    -0.206 F 
ATOM     90  C   UNL A   1      42.837  37.417  34.411  1.00  0.00     0.006 A 
ENDBRANCH  62  83
BRANCH  74  91
ATOM     91  C   UNL A   1      45.831  29.163  32.171  1.00  0.00     0.057 A 
ATOM     92  C   UNL A   1      45.969  28.450  33.369  1.00  0.00     0.134 A 
ATOM     93  C   UNL A   1      46.995  29.404  31.429  1.00  0.00     0.134 A 
ATOM     94  F   UNL A   1      44.898  28.196  34.137  1.00  0.00    -0.206 F 
ATOM     95  C   UNL A   1      47.217  28.015  33.821  1.00  0.00     0.040 A 
ATOM     96  C   UNL A   1      48.243  28.946  31.853  1.00  0.00     0.040 A 
ATOM     97  F   UNL A   1      46.934  30.077  30.269  1.00  0.00    -0.206 F 
ATOM     98  C   UNL A   1      48.357  28.255  33.056  1.00  0.00     0.006 A 
ENDBRANCH  74  91
ENDBRANCH  48  49
ENDBRANCH  41  43
ENDBRANCH  40  41
ENDBRANCH  39  40
ENDBRANCH  38  39
ENDBRANCH  37  38
ENDBRANCH  36  37
ENDBRANCH   1  36
TORSDOF 22
ENDMDL
MODEL 2
REMARK VINA RESULT:      -8.9      4.501      9.303
REMARK SMILES CS(=O)(=O)c1ccc(/C=C(/C(=O)OCCOCCOCCOC(=O)c2ccc(-c3c4nc(c(-c5c(F)cccc5F)c5ccc([nH]5)c(-c5c(F)cccc5F)c5nc(c(-c6c(F)cccc6F)c6ccc3[nH]6)C=C5)C=C4)cc2)c2ccc(-c3ccc(S(C)(=O)=O)cc3)cc2)cc1
REMARK SMILES IDX 17 1 16 2 15 3 14 4 13 5 11 6 12 7 10 8 9 9 8 10 5 11 6 12
REMARK SMILES IDX 96 13 7 14 95 15 2 16 1 17 3 18 4 19 79 20 80 21 94 22 81 23
REMARK SMILES IDX 93 24 82 25 83 26 84 27 92 28 85 29 91 30 86 31 87 32 88 33
REMARK SMILES IDX 89 34 90 35 18 36 19 37 20 38 21 39 22 40 23 41 24 42 25 43
REMARK SMILES IDX 26 44 78 45 27 46 77 47 28 48 29 49 30 50 71 51 31 52 76 53
REMARK SMILES IDX 70 54 72 55 32 56 75 57 69 58 68 59 33 61 59 62 42 63 58 64
REMARK SMILES IDX 43 65 46 66 57 67 73 68 44 69 45 70 56 72 74 73 47 74 34 75
REMARK SMILES IDX 35 76 40 77 36 78 37 79 39 80 41 81 38 82 60 83 61 84 66 85
REMARK SMILES IDX 62 86 63 87 65 88 67 89 64 90 48 91 49 92 54 93 50 94 51 95
REMARK SMILES IDX 53 96 55 97 52 98
REMARK H PARENT 72 60 46 71
REMARK Flexibility Score: inf
ROOT
ATOM      1  C   UNL A   1      32.978  36.210  31.150  1.00  0.00     0.188 C 
ENDROOT
BRANCH   1   2
ATOM      2  O   UNL A   1      32.902  34.909  30.621  1.00  0.00    -0.376 OA
BRANCH   2   3
ATOM      3  C   UNL A   1      33.941  34.461  29.769  1.00  0.00     0.202 C 
BRANCH   3   4
ATOM      4  C   UNL A   1      35.396  34.208  30.228  1.00  0.00     0.261 C 
BRANCH   4   5
ATOM      5  O   UNL A   1      35.782  32.871  30.575  1.00  0.00    -0.460 OA
BRANCH   5   6
ATOM      6  C   UNL A   1      37.107  32.569  30.526  1.00  0.00     0.338 C 
ATOM      7  O   UNL A   1      37.975  33.109  31.197  1.00  0.00    -0.246 OA
BRANCH   6   8
ATOM      8  C   UNL A   1      37.363  31.376  29.643  1.00  0.00     0.067 C 
ATOM      9  C   UNL A   1      38.614  30.859  29.563  1.00  0.00     0.024 C 
BRANCH   9  10
ATOM     10  C   UNL A   1      39.065  29.607  28.901  1.00  0.00    -0.025 A 
ATOM     11  C   UNL A   1      40.452  27.555  27.583  1.00  0.00     0.067 A 
ATOM     12  C   UNL A   1      40.160  27.430  28.938  1.00  0.00     0.021 A 
ATOM     13  C   UNL A   1      39.949  28.628  26.849  1.00  0.00     0.021 A 
ATOM     14  C   UNL A   1      39.421  28.431  29.576  1.00  0.00     0.009 A 
ATOM     15  C   UNL A   1      39.253  29.647  27.509  1.00  0.00     0.009 A 
BRANCH  11  16
ATOM     16  S   UNL A   1      41.615  26.440  26.832  1.00  0.00     0.175 S 
ATOM     17  C   UNL A   1      40.825  24.862  26.938  1.00  0.00     0.163 C 
ATOM     18  O   UNL A   1      42.795  26.414  27.678  1.00  0.00    -0.224 OA
ATOM     19  O   UNL A   1      41.719  26.799  25.431  1.00  0.00    -0.224 OA
ENDBRANCH  11  16
ENDBRANCH   9  10
BRANCH   8  20
ATOM     20  C   UNL A   1      36.215  30.839  28.879  1.00  0.00    -0.011 A 
ATOM     21  C   UNL A   1      35.487  31.711  28.061  1.00  0.00     0.009 A 
ATOM     22  C   UNL A   1      35.908  29.477  28.842  1.00  0.00     0.009 A 
ATOM     23  C   UNL A   1      34.500  31.232  27.201  1.00  0.00     0.009 A 
ATOM     24  C   UNL A   1      34.925  28.998  27.961  1.00  0.00     0.009 A 
ATOM     25  C   UNL A   1      34.209  29.869  27.121  1.00  0.00    -0.018 A 
BRANCH  25  26
ATOM     26  C   UNL A   1      33.188  29.384  26.177  1.00  0.00    -0.018 A 
ATOM     27  C   UNL A   1      32.045  30.153  25.880  1.00  0.00     0.010 A 
ATOM     28  C   UNL A   1      33.322  28.133  25.556  1.00  0.00     0.010 A 
ATOM     29  C   UNL A   1      31.078  29.697  24.978  1.00  0.00     0.021 A 
ATOM     30  C   UNL A   1      32.362  27.668  24.655  1.00  0.00     0.021 A 
ATOM     31  C   UNL A   1      31.247  28.455  24.367  1.00  0.00     0.067 A 
BRANCH  31  32
ATOM     32  S   UNL A   1      30.079  27.922  23.137  1.00  0.00     0.175 S 
ATOM     33  C   UNL A   1      29.222  29.397  22.668  1.00  0.00     0.163 C 
ATOM     34  O   UNL A   1      30.851  27.457  22.001  1.00  0.00    -0.224 OA
ATOM     35  O   UNL A   1      29.122  27.046  23.789  1.00  0.00    -0.224 OA
ENDBRANCH  31  32
ENDBRANCH  25  26
ENDBRANCH   8  20
ENDBRANCH   6   8
ENDBRANCH   5   6
ENDBRANCH   4   5
ENDBRANCH   3   4
ENDBRANCH   2   3
ENDBRANCH   1   2
BRANCH   1  36
ATOM     36  C   UNL A   1      33.521  36.255  32.595  1.00  0.00     0.188 C 
BRANCH  36  37
ATOM     37  O   UNL A   1      33.921  35.060  33.245  1.00  0.00    -0.376 OA
BRANCH  37  38
ATOM     38  C   UNL A   1      35.280  34.893  33.619  1.00  0.00     0.202 C 
BRANCH  38  39
ATOM     39  C   UNL A   1      35.692  33.929  34.751  1.00  0.00     0.261 C 
BRANCH  39  40
ATOM     40  O   UNL A   1      36.467  32.777  34.381  1.00  0.00    -0.460 OA
BRANCH  40  41
ATOM     41  C   UNL A   1      37.402  32.382  35.285  1.00  0.00     0.338 C 
ATOM     42  O   UNL A   1      37.317  32.407  36.496  1.00  0.00    -0.246 OA
BRANCH  41  43
ATOM     43  C   UNL A   1      38.515  31.713  34.571  1.00  0.00     0.060 A 
ATOM     44  C   UNL A   1      39.828  32.113  34.856  1.00  0.00     0.016 A 
ATOM     45  C   UNL A   1      38.273  30.736  33.605  1.00  0.00     0.016 A 
ATOM     46  C   UNL A   1      40.902  31.536  34.178  1.00  0.00     0.010 A 
ATOM     47  C   UNL A   1      39.351  30.176  32.907  1.00  0.00     0.010 A 
ATOM     48  C   UNL A   1      40.670  30.579  33.182  1.00  0.00    -0.014 A 
BRANCH  48  49
ATOM     49  C   UNL A   1      41.793  30.101  32.338  1.00  0.00     0.031 A 
ATOM     50  C   UNL A   1      42.460  28.800  32.679  1.00  0.00     0.074 A 
ATOM     51  C   UNL A   1      42.215  30.807  31.274  1.00  0.00     0.049 A 
ATOM     52  N   UNL A   1      43.483  28.216  32.107  1.00  0.00    -0.248 NA
ATOM     53  C   UNL A   1      41.898  28.059  33.819  1.00  0.00     0.031 C 
ATOM     54  C   UNL A   1      41.632  32.063  30.809  1.00  0.00     0.029 A 
ATOM     55  N   UNL A   1      43.242  30.566  30.393  1.00  0.00    -0.354 N 
ATOM     56  C   UNL A   1      43.697  27.047  32.825  1.00  0.00     0.074 A 
ATOM     57  C   UNL A   1      42.705  27.011  33.880  1.00  0.00     0.031 C 
ATOM     58  C   UNL A   1      42.302  32.478  29.721  1.00  0.00     0.029 A 
ATOM     59  C   UNL A   1      43.404  31.555  29.454  1.00  0.00     0.049 A 
ATOM     60  H   UNL A   1      43.807  29.761  30.433  1.00  0.00     0.167 HD
ATOM     61  C   UNL A   1      44.637  26.092  32.627  1.00  0.00     0.037 A 
ATOM     62  C   UNL A   1      44.356  31.719  28.515  1.00  0.00     0.037 A 
ATOM     63  C   UNL A   1      45.638  26.138  31.593  1.00  0.00     0.049 A 
ATOM     64  C   UNL A   1      45.460  30.703  28.388  1.00  0.00     0.074 A 
ATOM     65  C   UNL A   1      46.615  25.203  31.299  1.00  0.00     0.029 A 
ATOM     66  N   UNL A   1      45.810  27.187  30.704  1.00  0.00    -0.354 N 
ATOM     67  N   UNL A   1      45.620  29.571  29.031  1.00  0.00    -0.248 NA
ATOM     68  C   UNL A   1      46.504  30.975  27.388  1.00  0.00     0.031 C 
ATOM     69  C   UNL A   1      47.414  25.714  30.271  1.00  0.00     0.029 A 
ATOM     70  C   UNL A   1      46.896  26.937  29.880  1.00  0.00     0.049 A 
ATOM     71  H   UNL A   1      45.244  27.992  30.663  1.00  0.00     0.167 HD
ATOM     72  C   UNL A   1      46.769  28.990  28.503  1.00  0.00     0.074 A 
ATOM     73  C   UNL A   1      47.245  29.878  27.463  1.00  0.00     0.031 C 
ATOM     74  C   UNL A   1      47.367  27.822  28.844  1.00  0.00     0.037 A 
BRANCH  61  75
ATOM     75  C   UNL A   1      44.649  24.930  33.577  1.00  0.00     0.057 A 
ATOM     76  C   UNL A   1      45.117  25.050  34.892  1.00  0.00     0.134 A 
ATOM     77  C   UNL A   1      44.162  23.679  33.178  1.00  0.00     0.134 A 
ATOM     78  F   UNL A   1      45.611  26.217  35.334  1.00  0.00    -0.206 F 
ATOM     79  C   UNL A   1      45.124  23.962  35.767  1.00  0.00     0.040 A 
ATOM     80  C   UNL A   1      44.137  22.591  34.052  1.00  0.00     0.040 A 
ATOM     81  F   UNL A   1      43.694  23.496  31.934  1.00  0.00    -0.206 F 
ATOM     82  C   UNL A   1      44.626  22.729  35.348  1.00  0.00     0.006 A 
ENDBRANCH  61  75
BRANCH  62  83
ATOM     83  C   UNL A   1      44.330  32.904  27.621  1.00  0.00     0.057 A 
ATOM     84  C   UNL A   1      44.760  34.158  28.071  1.00  0.00     0.134 A 
ATOM     85  C   UNL A   1      43.837  32.823  26.313  1.00  0.00     0.134 A 
ATOM     86  F   UNL A   1      45.215  34.301  29.325  1.00  0.00    -0.206 F 
ATOM     87  C   UNL A   1      44.680  35.293  27.262  1.00  0.00     0.040 A 
ATOM     88  C   UNL A   1      43.778  33.943  25.482  1.00  0.00     0.040 A 
ATOM     89  F   UNL A   1      43.405  31.651  25.824  1.00  0.00    -0.206 F 
ATOM     90  C   UNL A   1      44.192  35.185  25.961  1.00  0.00     0.006 A 
ENDBRANCH  62  83
BRANCH  74  91
ATOM     91  C   UNL A   1      48.586  27.411  28.065  1.00  0.00     0.057 A 
ATOM     92  C   UNL A   1      49.880  27.758  28.471  1.00  0.00     0.134 A 
ATOM     93  C   UNL A   1      48.463  26.617  26.916  1.00  0.00     0.134 A 
ATOM     94  F   UNL A   1      50.070  28.527  29.554  1.00  0.00    -0.206 F 
ATOM     95  C   UNL A   1      51.006  27.351  27.751  1.00  0.00     0.040 A 
ATOM     96  C   UNL A   1      49.582  26.176  26.207  1.00  0.00     0.040 A 
ATOM     97  F   UNL A   1      47.253  26.243  26.474  1.00  0.00    -0.206 F 
ATOM     98  C   UNL A   1      50.858  26.550  26.621  1.00  0.00     0.006 A 
ENDBRANCH  74  91
ENDBRANCH  48  49
ENDBRANCH  41  43
ENDBRANCH  40  41
ENDBRANCH  39  40
ENDBRANCH  38  39
ENDBRANCH  37  38
ENDBRANCH  36  37
ENDBRANCH   1  36
TORSDOF 22
ENDMDL
MODEL 3
REMARK VINA RESULT:      -8.6      2.375      6.819
REMARK SMILES CS(=O)(=O)c1ccc(/C=C(/C(=O)OCCOCCOCCOC(=O)c2ccc(-c3c4nc(c(-c5c(F)cccc5F)c5ccc([nH]5)c(-c5c(F)cccc5F)c5nc(c(-c6c(F)cccc6F)c6ccc3[nH]6)C=C5)C=C4)cc2)c2ccc(-c3ccc(S(C)(=O)=O)cc3)cc2)cc1
REMARK SMILES IDX 17 1 16 2 15 3 14 4 13 5 11 6 12 7 10 8 9 9 8 10 5 11 6 12
REMARK SMILES IDX 96 13 7 14 95 15 2 16 1 17 3 18 4 19 79 20 80 21 94 22 81 23
REMARK SMILES IDX 93 24 82 25 83 26 84 27 92 28 85 29 91 30 86 31 87 32 88 33
REMARK SMILES IDX 89 34 90 35 18 36 19 37 20 38 21 39 22 40 23 41 24 42 25 43
REMARK SMILES IDX 26 44 78 45 27 46 77 47 28 48 29 49 30 50 71 51 31 52 76 53
REMARK SMILES IDX 70 54 72 55 32 56 75 57 69 58 68 59 33 61 59 62 42 63 58 64
REMARK SMILES IDX 43 65 46 66 57 67 73 68 44 69 45 70 56 72 74 73 47 74 34 75
REMARK SMILES IDX 35 76 40 77 36 78 37 79 39 80 41 81 38 82 60 83 61 84 66 85
REMARK SMILES IDX 62 86 63 87 65 88 67 89 64 90 48 91 49 92 54 93 50 94 51 95
REMARK SMILES IDX 53 96 55 97 52 98
REMARK H PARENT 72 60 46 71
REMARK Flexibility Score: inf
ROOT
ATOM      1  C   UNL A   1      34.734  35.746  32.822  1.00  0.00     0.188 C 
ENDROOT
BRANCH   1   2
ATOM      2  O   UNL A   1      34.974  35.162  34.079  1.00  0.00    -0.376 OA
BRANCH   2   3
ATOM      3  C   UNL A   1      35.539  33.864  34.126  1.00  0.00     0.202 C 
BRANCH   3   4
ATOM      4  C   UNL A   1      36.756  33.475  34.999  1.00  0.00     0.261 C 
BRANCH   4   5
ATOM      5  O   UNL A   1      36.586  33.410  36.421  1.00  0.00    -0.460 OA
BRANCH   5   6
ATOM      6  C   UNL A   1      37.455  32.633  37.121  1.00  0.00     0.338 C 
ATOM      7  O   UNL A   1      37.813  31.511  36.793  1.00  0.00    -0.246 OA
BRANCH   6   8
ATOM      8  C   UNL A   1      38.045  33.384  38.285  1.00  0.00     0.067 C 
ATOM      9  C   UNL A   1      38.906  34.407  38.055  1.00  0.00     0.024 C 
BRANCH   9  10
ATOM     10  C   UNL A   1      39.474  35.382  39.021  1.00  0.00    -0.025 A 
ATOM     11  C   UNL A   1      40.948  37.343  40.384  1.00  0.00     0.067 A 
ATOM     12  C   UNL A   1      39.655  37.626  39.954  1.00  0.00     0.021 A 
ATOM     13  C   UNL A   1      41.467  36.055  40.257  1.00  0.00     0.021 A 
ATOM     14  C   UNL A   1      38.907  36.627  39.324  1.00  0.00     0.009 A 
ATOM     15  C   UNL A   1      40.726  35.078  39.582  1.00  0.00     0.009 A 
BRANCH  11  16
ATOM     16  S   UNL A   1      42.000  38.667  40.928  1.00  0.00     0.175 S 
ATOM     17  C   UNL A   1      41.356  39.101  42.517  1.00  0.00     0.163 C 
ATOM     18  O   UNL A   1      41.783  39.788  40.030  1.00  0.00    -0.224 OA
ATOM     19  O   UNL A   1      43.330  38.119  41.115  1.00  0.00    -0.224 OA
ENDBRANCH  11  16
ENDBRANCH   9  10
BRANCH   8  20
ATOM     20  C   UNL A   1      37.662  32.940  39.643  1.00  0.00    -0.011 A 
ATOM     21  C   UNL A   1      36.305  32.946  39.993  1.00  0.00     0.009 A 
ATOM     22  C   UNL A   1      38.580  32.396  40.544  1.00  0.00     0.009 A 
ATOM     23  C   UNL A   1      35.872  32.393  41.196  1.00  0.00     0.009 A 
ATOM     24  C   UNL A   1      38.136  31.824  41.747  1.00  0.00     0.009 A 
ATOM     25  C   UNL A   1      36.772  31.807  42.090  1.00  0.00    -0.018 A 
BRANCH  25  26
ATOM     26  C   UNL A   1      36.285  31.196  43.337  1.00  0.00    -0.018 A 
ATOM     27  C   UNL A   1      34.995  31.474  43.832  1.00  0.00     0.010 A 
ATOM     28  C   UNL A   1      37.101  30.325  44.075  1.00  0.00     0.010 A 
ATOM     29  C   UNL A   1      34.527  30.888  45.012  1.00  0.00     0.021 A 
ATOM     30  C   UNL A   1      36.645  29.736  45.257  1.00  0.00     0.021 A 
ATOM     31  C   UNL A   1      35.358  30.017  45.717  1.00  0.00     0.067 A 
BRANCH  31  32
ATOM     32  S   UNL A   1      34.729  29.183  47.155  1.00  0.00     0.175 S 
ATOM     33  C   UNL A   1      35.911  29.531  48.425  1.00  0.00     0.163 C 
ATOM     34  O   UNL A   1      33.478  29.831  47.500  1.00  0.00    -0.224 OA
ATOM     35  O   UNL A   1      34.774  27.756  46.891  1.00  0.00    -0.224 OA
ENDBRANCH  31  32
ENDBRANCH  25  26
ENDBRANCH   8  20
ENDBRANCH   6   8
ENDBRANCH   5   6
ENDBRANCH   4   5
ENDBRANCH   3   4
ENDBRANCH   2   3
ENDBRANCH   1   2
BRANCH   1  36
ATOM     36  C   UNL A   1      33.657  36.853  32.854  1.00  0.00     0.188 C 
BRANCH  36  37
ATOM     37  O   UNL A   1      32.761  37.009  31.766  1.00  0.00    -0.376 OA
BRANCH  37  38
ATOM     38  C   UNL A   1      33.279  37.275  30.472  1.00  0.00     0.202 C 
BRANCH  38  39
ATOM     39  C   UNL A   1      32.902  36.400  29.258  1.00  0.00     0.261 C 
BRANCH  39  40
ATOM     40  O   UNL A   1      32.521  35.041  29.524  1.00  0.00    -0.460 OA
BRANCH  40  41
ATOM     41  C   UNL A   1      33.002  34.114  28.654  1.00  0.00     0.338 C 
ATOM     42  O   UNL A   1      32.548  33.812  27.569  1.00  0.00    -0.246 OA
BRANCH  41  43
ATOM     43  C   UNL A   1      34.315  33.627  29.140  1.00  0.00     0.060 A 
ATOM     44  C   UNL A   1      35.460  33.937  28.393  1.00  0.00     0.016 A 
ATOM     45  C   UNL A   1      34.417  32.843  30.289  1.00  0.00     0.016 A 
ATOM     46  C   UNL A   1      36.710  33.466  28.795  1.00  0.00     0.010 A 
ATOM     47  C   UNL A   1      35.669  32.350  30.677  1.00  0.00     0.010 A 
ATOM     48  C   UNL A   1      36.821  32.649  29.928  1.00  0.00    -0.014 A 
BRANCH  48  49
ATOM     49  C   UNL A   1      38.116  32.001  30.250  1.00  0.00     0.031 A 
ATOM     50  C   UNL A   1      39.048  32.673  31.218  1.00  0.00     0.074 A 
ATOM     51  C   UNL A   1      38.463  30.825  29.698  1.00  0.00     0.049 A 
ATOM     52  N   UNL A   1      40.243  32.308  31.608  1.00  0.00    -0.248 NA
ATOM     53  C   UNL A   1      38.566  33.923  31.824  1.00  0.00     0.031 C 
ATOM     54  C   UNL A   1      37.638  30.049  28.776  1.00  0.00     0.029 A 
ATOM     55  N   UNL A   1      39.610  30.081  29.831  1.00  0.00    -0.354 N 
ATOM     56  C   UNL A   1      40.663  33.290  32.495  1.00  0.00     0.074 A 
ATOM     57  C   UNL A   1      39.600  34.271  32.575  1.00  0.00     0.031 C 
ATOM     58  C   UNL A   1      38.300  28.930  28.434  1.00  0.00     0.029 A 
ATOM     59  C   UNL A   1      39.622  28.945  29.058  1.00  0.00     0.049 A 
ATOM     60  H   UNL A   1      40.353  30.337  30.425  1.00  0.00     0.167 HD
ATOM     61  C   UNL A   1      41.830  33.371  33.178  1.00  0.00     0.037 A 
ATOM     62  C   UNL A   1      40.601  28.045  28.844  1.00  0.00     0.037 A 
ATOM     63  C   UNL A   1      42.897  32.409  33.081  1.00  0.00     0.049 A 
ATOM     64  C   UNL A   1      41.934  28.218  29.525  1.00  0.00     0.074 A 
ATOM     65  C   UNL A   1      44.106  32.394  33.755  1.00  0.00     0.029 A 
ATOM     66  N   UNL A   1      42.898  31.309  32.238  1.00  0.00    -0.354 N 
ATOM     67  N   UNL A   1      42.301  29.116  30.407  1.00  0.00    -0.248 NA
ATOM     68  C   UNL A   1      42.982  27.239  29.197  1.00  0.00     0.031 C 
ATOM     69  C   UNL A   1      44.861  31.319  33.276  1.00  0.00     0.029 A 
ATOM     70  C   UNL A   1      44.098  30.625  32.352  1.00  0.00     0.049 A 
ATOM     71  H   UNL A   1      42.155  31.051  31.646  1.00  0.00     0.167 HD
ATOM     72  C   UNL A   1      43.612  28.800  30.751  1.00  0.00     0.074 A 
ATOM     73  C   UNL A   1      43.962  27.608  30.009  1.00  0.00     0.031 C 
ATOM     74  C   UNL A   1      44.444  29.437  31.613  1.00  0.00     0.037 A 
BRANCH  61  75
ATOM     75  C   UNL A   1      42.029  34.566  34.063  1.00  0.00     0.057 A 
ATOM     76  C   UNL A   1      41.703  34.547  35.425  1.00  0.00     0.134 A 
ATOM     77  C   UNL A   1      42.578  35.749  33.549  1.00  0.00     0.134 A 
ATOM     78  F   UNL A   1      41.160  33.450  35.977  1.00  0.00    -0.206 F 
ATOM     79  C   UNL A   1      41.892  35.665  36.238  1.00  0.00     0.040 A 
ATOM     80  C   UNL A   1      42.799  36.865  34.357  1.00  0.00     0.040 A 
ATOM     81  F   UNL A   1      42.917  35.835  32.254  1.00  0.00    -0.206 F 
ATOM     82  C   UNL A   1      42.449  36.827  35.705  1.00  0.00     0.006 A 
ENDBRANCH  61  75
BRANCH  62  83
ATOM     83  C   UNL A   1      40.378  26.898  27.928  1.00  0.00     0.057 A 
ATOM     84  C   UNL A   1      39.663  25.769  28.345  1.00  0.00     0.134 A 
ATOM     85  C   UNL A   1      40.908  26.883  26.632  1.00  0.00     0.134 A 
ATOM     86  F   UNL A   1      39.156  25.717  29.587  1.00  0.00    -0.206 F 
ATOM     87  C   UNL A   1      39.501  24.658  27.517  1.00  0.00     0.040 A 
ATOM     88  C   UNL A   1      40.730  25.791  25.782  1.00  0.00     0.040 A 
ATOM     89  F   UNL A   1      41.608  27.931  26.175  1.00  0.00    -0.206 F 
ATOM     90  C   UNL A   1      40.032  24.670  26.228  1.00  0.00     0.006 A 
ENDBRANCH  62  83
BRANCH  74  91
ATOM     91  C   UNL A   1      45.807  28.841  31.832  1.00  0.00     0.057 A 
ATOM     92  C   UNL A   1      46.048  27.881  32.823  1.00  0.00     0.134 A 
ATOM     93  C   UNL A   1      46.883  29.200  31.009  1.00  0.00     0.134 A 
ATOM     94  F   UNL A   1      45.067  27.501  33.655  1.00  0.00    -0.206 F 
ATOM     95  C   UNL A   1      47.314  27.318  33.002  1.00  0.00     0.040 A 
ATOM     96  C   UNL A   1      48.144  28.620  31.157  1.00  0.00     0.040 A 
ATOM     97  F   UNL A   1      46.720  30.111  30.037  1.00  0.00    -0.206 F 
ATOM     98  C   UNL A   1      48.364  27.681  32.161  1.00  0.00     0.006 A 
ENDBRANCH  74  91
ENDBRANCH  48  49
ENDBRANCH  41  43
ENDBRANCH  40  41
ENDBRANCH  39  40
ENDBRANCH  38  39
ENDBRANCH  37  38
ENDBRANCH  36  37
ENDBRANCH   1  36
TORSDOF 22
ENDMDL
