MODEL 1
REMARK VINA RESULT:      -9.3      0.000      0.000
REMARK SMILES C#CC[N@@H+](CC(=O)OCCOCCOCCOC(=O)c1ccc(-c2c3nc(c(-c4c(F)cccc4F)c4ccc([nH]4)c(-c4c(F)cccc4F)c4nc(c(-c5c(F)cccc5F)c5ccc2[nH]5)C=C4)C=C3)cc1)[C@@H](C)Cc1ccco1
REMARK SMILES IDX 12 1 11 2 10 3 9 4 8 5 6 6 7 7 5 8 4 9 3 11 2 12 1 13 74 14
REMARK SMILES IDX 75 15 76 16 77 17 78 18 81 19 79 20 80 21 13 22 14 23 15 24
REMARK SMILES IDX 16 25 17 26 18 27 19 28 20 29 21 30 73 31 22 32 72 33 23 34
REMARK SMILES IDX 24 35 25 36 66 37 26 38 71 39 65 40 67 41 27 42 70 43 64 44
REMARK SMILES IDX 63 45 28 47 54 48 37 49 53 50 38 51 41 52 52 53 68 54 39 55
REMARK SMILES IDX 40 56 51 58 69 59 42 60 29 61 30 62 35 63 31 64 32 65 34 66
REMARK SMILES IDX 36 67 33 68 55 69 56 70 61 71 57 72 58 73 60 74 62 75 59 76
REMARK SMILES IDX 43 77 44 78 49 79 45 80 46 81 48 82 50 83 47 84
REMARK H PARENT 4 10 67 46 41 57
REMARK Flexibility Score: inf
ROOT
ATOM      1  C   UNL A   1      35.162  21.431  25.719  1.00  0.00     0.188 C 
ENDROOT
BRANCH   1   2
ATOM      2  O   UNL A   1      34.472  21.685  24.500  1.00  0.00    -0.376 OA
BRANCH   2   3
ATOM      3  C   UNL A   1      34.298  23.058  24.155  1.00  0.00     0.202 C 
BRANCH   3   4
ATOM      4  C   UNL A   1      33.966  23.359  22.685  1.00  0.00     0.261 C 
BRANCH   4   5
ATOM      5  O   UNL A   1      32.689  23.999  22.436  1.00  0.00    -0.459 OA
BRANCH   5   6
ATOM      6  C   UNL A   1      32.712  25.346  22.250  1.00  0.00     0.361 C 
ATOM      7  O   UNL A   1      33.649  25.927  21.702  1.00  0.00    -0.245 OA
BRANCH   6   8
ATOM      8  C   UNL A   1      31.562  26.165  22.864  1.00  0.00     0.387 C 
BRANCH   8   9
ATOM      9  N   UNL A   1      31.758  27.088  24.011  1.00  0.00    -0.313 N 
ATOM     10  H   UNL A   1      32.732  26.987  24.296  1.00  0.00     0.349 HD
BRANCH   9  11
ATOM     11  C   UNL A   1      31.032  26.673  25.204  1.00  0.00     0.354 C 
BRANCH  11  12
ATOM     12  C   UNL A   1      31.437  27.491  26.418  1.00  0.00    -0.047 C 
ATOM     13  C   UNL A   1      31.785  28.194  27.460  1.00  0.00     0.010 C 
ENDBRANCH  11  12
ENDBRANCH   9  11
BRANCH   9  14
ATOM     14  C   UNL A   1      31.744  28.520  23.664  1.00  0.00     0.189 C 
ATOM     15  C   UNL A   1      33.184  28.969  23.507  1.00  0.00     0.076 C 
BRANCH  14  16
ATOM     16  C   UNL A   1      30.955  29.029  22.416  1.00  0.00     0.140 C 
BRANCH  16  17
ATOM     17  C   UNL A   1      29.647  29.712  22.604  1.00  0.00     0.109 A 
ATOM     18  C   UNL A   1      29.252  30.669  23.520  1.00  0.00     0.046 A 
ATOM     19  O   UNL A   1      28.664  29.524  21.682  1.00  0.00    -0.469 OA
ATOM     20  C   UNL A   1      27.959  31.088  23.135  1.00  0.00     0.042 A 
ATOM     21  C   UNL A   1      27.645  30.360  22.012  1.00  0.00     0.195 A 
ENDBRANCH  16  17
ENDBRANCH  14  16
ENDBRANCH   9  14
ENDBRANCH   8   9
ENDBRANCH   6   8
ENDBRANCH   5   6
ENDBRANCH   4   5
ENDBRANCH   3   4
ENDBRANCH   2   3
ENDBRANCH   1   2
BRANCH   1  22
ATOM     22  C   UNL A   1      36.645  21.851  25.738  1.00  0.00     0.188 C 
BRANCH  22  23
ATOM     23  O   UNL A   1      37.389  21.182  24.729  1.00  0.00    -0.376 OA
BRANCH  23  24
ATOM     24  C   UNL A   1      37.540  19.762  24.763  1.00  0.00     0.202 C 
BRANCH  24  25
ATOM     25  C   UNL A   1      38.780  19.103  25.379  1.00  0.00     0.261 C 
BRANCH  25  26
ATOM     26  O   UNL A   1      39.637  19.995  26.109  1.00  0.00    -0.460 OA
BRANCH  26  27
ATOM     27  C   UNL A   1      40.968  19.748  26.126  1.00  0.00     0.338 C 
ATOM     28  O   UNL A   1      41.530  18.727  25.772  1.00  0.00    -0.246 OA
BRANCH  27  29
ATOM     29  C   UNL A   1      41.639  21.036  26.446  1.00  0.00     0.060 A 
ATOM     30  C   UNL A   1      41.952  21.340  27.776  1.00  0.00     0.016 A 
ATOM     31  C   UNL A   1      42.040  21.908  25.434  1.00  0.00     0.016 A 
ATOM     32  C   UNL A   1      42.728  22.444  28.103  1.00  0.00     0.010 A 
ATOM     33  C   UNL A   1      42.757  23.061  25.761  1.00  0.00     0.010 A 
ATOM     34  C   UNL A   1      43.107  23.327  27.096  1.00  0.00    -0.014 A 
BRANCH  34  35
ATOM     35  C   UNL A   1      43.668  24.637  27.472  1.00  0.00     0.031 A 
ATOM     36  C   UNL A   1      42.712  25.698  27.922  1.00  0.00     0.074 A 
ATOM     37  C   UNL A   1      44.992  24.862  27.455  1.00  0.00     0.049 A 
ATOM     38  N   UNL A   1      42.923  26.967  28.139  1.00  0.00    -0.248 NA
ATOM     39  C   UNL A   1      41.324  25.263  28.159  1.00  0.00     0.031 C 
ATOM     40  C   UNL A   1      46.021  23.866  27.158  1.00  0.00     0.029 A 
ATOM     41  N   UNL A   1      45.693  26.018  27.683  1.00  0.00    -0.354 N 
ATOM     42  C   UNL A   1      41.693  27.488  28.512  1.00  0.00     0.074 A 
ATOM     43  C   UNL A   1      40.739  26.402  28.494  1.00  0.00     0.031 C 
ATOM     44  C   UNL A   1      47.224  24.466  27.191  1.00  0.00     0.029 A 
ATOM     45  C   UNL A   1      47.040  25.892  27.453  1.00  0.00     0.049 A 
ATOM     46  H   UNL A   1      45.271  26.856  27.982  1.00  0.00     0.167 HD
ATOM     47  C   UNL A   1      41.389  28.766  28.831  1.00  0.00     0.037 A 
ATOM     48  C   UNL A   1      47.999  26.837  27.405  1.00  0.00     0.037 A 
ATOM     49  C   UNL A   1      42.350  29.833  28.847  1.00  0.00     0.049 A 
ATOM     50  C   UNL A   1      47.615  28.276  27.641  1.00  0.00     0.074 A 
ATOM     51  C   UNL A   1      42.152  31.167  29.146  1.00  0.00     0.029 A 
ATOM     52  N   UNL A   1      43.697  29.681  28.546  1.00  0.00    -0.354 N 
ATOM     53  N   UNL A   1      46.445  28.781  27.953  1.00  0.00    -0.248 NA
ATOM     54  C   UNL A   1      48.680  29.280  27.498  1.00  0.00     0.031 C 
ATOM     55  C   UNL A   1      43.369  31.834  28.975  1.00  0.00     0.029 A 
ATOM     56  C   UNL A   1      44.335  30.906  28.620  1.00  0.00     0.049 A 
ATOM     57  H   UNL A   1      44.131  28.829  28.315  1.00  0.00     0.167 HD
ATOM     58  C   UNL A   1      46.636  30.152  28.063  1.00  0.00     0.074 A 
ATOM     59  C   UNL A   1      48.039  30.400  27.798  1.00  0.00     0.031 C 
ATOM     60  C   UNL A   1      45.735  31.123  28.356  1.00  0.00     0.037 A 
BRANCH  47  61
ATOM     61  C   UNL A   1      39.954  29.079  29.121  1.00  0.00     0.057 A 
ATOM     62  C   UNL A   1      39.446  29.111  30.424  1.00  0.00     0.134 A 
ATOM     63  C   UNL A   1      39.070  29.362  28.071  1.00  0.00     0.134 A 
ATOM     64  F   UNL A   1      40.234  28.822  31.470  1.00  0.00    -0.206 F 
ATOM     65  C   UNL A   1      38.103  29.399  30.673  1.00  0.00     0.040 A 
ATOM     66  C   UNL A   1      37.732  29.675  28.310  1.00  0.00     0.040 A 
ATOM     67  F   UNL A   1      39.494  29.339  26.799  1.00  0.00    -0.206 F 
ATOM     68  C   UNL A   1      37.243  29.690  29.614  1.00  0.00     0.006 A 
ENDBRANCH  47  61
BRANCH  48  69
ATOM     69  C   UNL A   1      49.393  26.473  27.052  1.00  0.00     0.057 A 
ATOM     70  C   UNL A   1      50.355  26.228  28.038  1.00  0.00     0.134 A 
ATOM     71  C   UNL A   1      49.808  26.392  25.716  1.00  0.00     0.134 A 
ATOM     72  F   UNL A   1      50.028  26.319  29.336  1.00  0.00    -0.206 F 
ATOM     73  C   UNL A   1      51.680  25.931  27.711  1.00  0.00     0.040 A 
ATOM     74  C   UNL A   1      51.122  26.070  25.373  1.00  0.00     0.040 A 
ATOM     75  F   UNL A   1      48.939  26.623  24.721  1.00  0.00    -0.206 F 
ATOM     76  C   UNL A   1      52.064  25.845  26.374  1.00  0.00     0.006 A 
ENDBRANCH  48  69
BRANCH  60  77
ATOM     77  C   UNL A   1      46.239  32.534  28.429  1.00  0.00     0.057 A 
ATOM     78  C   UNL A   1      46.200  33.388  27.321  1.00  0.00     0.134 A 
ATOM     79  C   UNL A   1      46.703  33.061  29.640  1.00  0.00     0.134 A 
ATOM     80  F   UNL A   1      45.775  32.938  26.129  1.00  0.00    -0.206 F 
ATOM     81  C   UNL A   1      46.619  34.716  27.412  1.00  0.00     0.040 A 
ATOM     82  C   UNL A   1      47.100  34.394  29.750  1.00  0.00     0.040 A 
ATOM     83  F   UNL A   1      46.754  32.297  30.742  1.00  0.00    -0.206 F 
ATOM     84  C   UNL A   1      47.061  35.225  28.632  1.00  0.00     0.006 A 
ENDBRANCH  60  77
ENDBRANCH  34  35
ENDBRANCH  27  29
ENDBRANCH  26  27
ENDBRANCH  25  26
ENDBRANCH  24  25
ENDBRANCH  23  24
ENDBRANCH  22  23
ENDBRANCH   1  22
TORSDOF 23
ENDMDL
MODEL 2
REMARK VINA RESULT:      -9.2      3.623      8.701
REMARK SMILES C#CC[N@@H+](CC(=O)OCCOCCOCCOC(=O)c1ccc(-c2c3nc(c(-c4c(F)cccc4F)c4ccc([nH]4)c(-c4c(F)cccc4F)c4nc(c(-c5c(F)cccc5F)c5ccc2[nH]5)C=C4)C=C3)cc1)[C@@H](C)Cc1ccco1
REMARK SMILES IDX 12 1 11 2 10 3 9 4 8 5 6 6 7 7 5 8 4 9 3 11 2 12 1 13 74 14
REMARK SMILES IDX 75 15 76 16 77 17 78 18 81 19 79 20 80 21 13 22 14 23 15 24
REMARK SMILES IDX 16 25 17 26 18 27 19 28 20 29 21 30 73 31 22 32 72 33 23 34
REMARK SMILES IDX 24 35 25 36 66 37 26 38 71 39 65 40 67 41 27 42 70 43 64 44
REMARK SMILES IDX 63 45 28 47 54 48 37 49 53 50 38 51 41 52 52 53 68 54 39 55
REMARK SMILES IDX 40 56 51 58 69 59 42 60 29 61 30 62 35 63 31 64 32 65 34 66
REMARK SMILES IDX 36 67 33 68 55 69 56 70 61 71 57 72 58 73 60 74 62 75 59 76
REMARK SMILES IDX 43 77 44 78 49 79 45 80 46 81 48 82 50 83 47 84
REMARK H PARENT 4 10 67 46 41 57
REMARK Flexibility Score: inf
ROOT
ATOM      1  C   UNL A   1      34.650  34.329  28.044  1.00  0.00     0.188 C 
ENDROOT
BRANCH   1   2
ATOM      2  O   UNL A   1      34.757  33.024  27.483  1.00  0.00    -0.376 OA
BRANCH   2   3
ATOM      3  C   UNL A   1      34.151  31.972  28.231  1.00  0.00     0.202 C 
BRANCH   3   4
ATOM      4  C   UNL A   1      34.025  30.613  27.524  1.00  0.00     0.261 C 
BRANCH   4   5
ATOM      5  O   UNL A   1      32.676  30.160  27.246  1.00  0.00    -0.459 OA
BRANCH   5   6
ATOM      6  C   UNL A   1      32.263  30.241  25.952  1.00  0.00     0.361 C 
ATOM      7  O   UNL A   1      31.309  30.935  25.601  1.00  0.00    -0.245 OA
BRANCH   6   8
ATOM      8  C   UNL A   1      32.960  29.327  24.929  1.00  0.00     0.387 C 
BRANCH   8   9
ATOM      9  N   UNL A   1      32.299  28.137  24.336  1.00  0.00    -0.313 N 
ATOM     10  H   UNL A   1      32.809  27.325  24.681  1.00  0.00     0.349 HD
BRANCH   9  11
ATOM     11  C   UNL A   1      32.488  28.042  22.894  1.00  0.00     0.354 C 
BRANCH  11  12
ATOM     12  C   UNL A   1      33.050  26.690  22.491  1.00  0.00    -0.047 C 
ATOM     13  C   UNL A   1      33.532  25.528  22.145  1.00  0.00     0.010 C 
ENDBRANCH  11  12
ENDBRANCH   9  11
BRANCH   9  14
ATOM     14  C   UNL A   1      30.959  27.840  24.870  1.00  0.00     0.189 C 
ATOM     15  C   UNL A   1      29.957  28.079  23.757  1.00  0.00     0.076 C 
BRANCH  14  16
ATOM     16  C   UNL A   1      30.642  26.442  25.493  1.00  0.00     0.140 C 
BRANCH  16  17
ATOM     17  C   UNL A   1      31.747  25.471  25.712  1.00  0.00     0.109 A 
ATOM     18  C   UNL A   1      31.765  24.091  25.630  1.00  0.00     0.046 A 
ATOM     19  O   UNL A   1      33.012  25.939  25.893  1.00  0.00    -0.469 OA
ATOM     20  C   UNL A   1      33.115  23.696  25.766  1.00  0.00     0.042 A 
ATOM     21  C   UNL A   1      33.833  24.857  25.926  1.00  0.00     0.195 A 
ENDBRANCH  16  17
ENDBRANCH  14  16
ENDBRANCH   9  14
ENDBRANCH   8   9
ENDBRANCH   6   8
ENDBRANCH   5   6
ENDBRANCH   4   5
ENDBRANCH   3   4
ENDBRANCH   2   3
ENDBRANCH   1   2
BRANCH   1  22
ATOM     22  C   UNL A   1      33.318  34.636  28.754  1.00  0.00     0.188 C 
BRANCH  22  23
ATOM     23  O   UNL A   1      33.499  35.548  29.829  1.00  0.00    -0.376 OA
BRANCH  23  24
ATOM     24  C   UNL A   1      33.565  35.077  31.175  1.00  0.00     0.202 C 
BRANCH  24  25
ATOM     25  C   UNL A   1      34.897  34.993  31.930  1.00  0.00     0.261 C 
BRANCH  25  26
ATOM     26  O   UNL A   1      35.836  34.048  31.394  1.00  0.00    -0.460 OA
BRANCH  26  27
ATOM     27  C   UNL A   1      35.804  32.773  31.847  1.00  0.00     0.338 C 
ATOM     28  O   UNL A   1      34.894  32.228  32.445  1.00  0.00    -0.246 OA
BRANCH  27  29
ATOM     29  C   UNL A   1      36.998  32.087  31.283  1.00  0.00     0.060 A 
ATOM     30  C   UNL A   1      37.900  31.452  32.145  1.00  0.00     0.016 A 
ATOM     31  C   UNL A   1      37.188  31.992  29.905  1.00  0.00     0.016 A 
ATOM     32  C   UNL A   1      38.930  30.657  31.657  1.00  0.00     0.010 A 
ATOM     33  C   UNL A   1      38.265  31.256  29.406  1.00  0.00     0.010 A 
ATOM     34  C   UNL A   1      39.133  30.583  30.282  1.00  0.00    -0.014 A 
BRANCH  34  35
ATOM     35  C   UNL A   1      40.385  29.990  29.780  1.00  0.00     0.031 A 
ATOM     36  C   UNL A   1      41.579  30.887  29.661  1.00  0.00     0.074 A 
ATOM     37  C   UNL A   1      40.470  28.684  29.478  1.00  0.00     0.049 A 
ATOM     38  N   UNL A   1      42.732  30.662  29.095  1.00  0.00    -0.248 NA
ATOM     39  C   UNL A   1      41.450  32.223  30.269  1.00  0.00     0.031 C 
ATOM     40  C   UNL A   1      39.411  27.695  29.675  1.00  0.00     0.029 A 
ATOM     41  N   UNL A   1      41.502  27.972  28.925  1.00  0.00    -0.354 N 
ATOM     42  C   UNL A   1      43.457  31.835  29.253  1.00  0.00     0.074 A 
ATOM     43  C   UNL A   1      42.618  32.768  29.968  1.00  0.00     0.031 C 
ATOM     44  C   UNL A   1      39.840  26.505  29.217  1.00  0.00     0.029 A 
ATOM     45  C   UNL A   1      41.176  26.668  28.646  1.00  0.00     0.049 A 
ATOM     46  H   UNL A   1      42.390  28.358  28.746  1.00  0.00     0.167 HD
ATOM     47  C   UNL A   1      44.710  32.105  28.826  1.00  0.00     0.037 A 
ATOM     48  C   UNL A   1      41.862  25.736  27.955  1.00  0.00     0.037 A 
ATOM     49  C   UNL A   1      45.533  31.164  28.120  1.00  0.00     0.049 A 
ATOM     50  C   UNL A   1      43.207  26.100  27.380  1.00  0.00     0.074 A 
ATOM     51  C   UNL A   1      46.814  31.334  27.632  1.00  0.00     0.029 A 
ATOM     52  N   UNL A   1      45.145  29.871  27.797  1.00  0.00    -0.354 N 
ATOM     53  N   UNL A   1      43.879  27.221  27.491  1.00  0.00    -0.248 NA
ATOM     54  C   UNL A   1      43.880  25.077  26.566  1.00  0.00     0.031 C 
ATOM     55  C   UNL A   1      47.184  30.161  26.968  1.00  0.00     0.029 A 
ATOM     56  C   UNL A   1      46.152  29.242  27.087  1.00  0.00     0.049 A 
ATOM     57  H   UNL A   1      44.283  29.463  28.038  1.00  0.00     0.167 HD
ATOM     58  C   UNL A   1      45.059  27.033  26.781  1.00  0.00     0.074 A 
ATOM     59  C   UNL A   1      45.017  25.683  26.254  1.00  0.00     0.031 C 
ATOM     60  C   UNL A   1      46.086  27.896  26.579  1.00  0.00     0.037 A 
BRANCH  47  61
ATOM     61  C   UNL A   1      45.231  33.490  29.059  1.00  0.00     0.057 A 
ATOM     62  C   UNL A   1      45.904  33.847  30.233  1.00  0.00     0.134 A 
ATOM     63  C   UNL A   1      45.060  34.479  28.082  1.00  0.00     0.134 A 
ATOM     64  F   UNL A   1      46.075  32.953  31.219  1.00  0.00    -0.206 F 
ATOM     65  C   UNL A   1      46.376  35.145  30.434  1.00  0.00     0.040 A 
ATOM     66  C   UNL A   1      45.549  35.773  28.261  1.00  0.00     0.040 A 
ATOM     67  F   UNL A   1      44.416  34.202  26.938  1.00  0.00    -0.206 F 
ATOM     68  C   UNL A   1      46.206  36.110  29.443  1.00  0.00     0.006 A 
ENDBRANCH  47  61
BRANCH  48  69
ATOM     69  C   UNL A   1      41.266  24.400  27.705  1.00  0.00     0.057 A 
ATOM     70  C   UNL A   1      41.706  23.264  28.394  1.00  0.00     0.134 A 
ATOM     71  C   UNL A   1      40.263  24.220  26.744  1.00  0.00     0.134 A 
ATOM     72  F   UNL A   1      42.686  23.366  29.305  1.00  0.00    -0.206 F 
ATOM     73  C   UNL A   1      41.182  21.998  28.128  1.00  0.00     0.040 A 
ATOM     74  C   UNL A   1      39.710  22.964  26.487  1.00  0.00     0.040 A 
ATOM     75  F   UNL A   1      39.801  25.265  26.042  1.00  0.00    -0.206 F 
ATOM     76  C   UNL A   1      40.176  21.847  27.175  1.00  0.00     0.006 A 
ENDBRANCH  48  69
BRANCH  60  77
ATOM     77  C   UNL A   1      47.255  27.402  25.779  1.00  0.00     0.057 A 
ATOM     78  C   UNL A   1      47.340  27.606  24.397  1.00  0.00     0.134 A 
ATOM     79  C   UNL A   1      48.337  26.779  26.412  1.00  0.00     0.134 A 
ATOM     80  F   UNL A   1      46.330  28.188  23.731  1.00  0.00    -0.206 F 
ATOM     81  C   UNL A   1      48.457  27.193  23.669  1.00  0.00     0.040 A 
ATOM     82  C   UNL A   1      49.471  26.386  25.699  1.00  0.00     0.040 A 
ATOM     83  F   UNL A   1      48.323  26.566  27.737  1.00  0.00    -0.206 F 
ATOM     84  C   UNL A   1      49.530  26.591  24.322  1.00  0.00     0.006 A 
ENDBRANCH  60  77
ENDBRANCH  34  35
ENDBRANCH  27  29
ENDBRANCH  26  27
ENDBRANCH  25  26
ENDBRANCH  24  25
ENDBRANCH  23  24
ENDBRANCH  22  23
ENDBRANCH   1  22
TORSDOF 23
ENDMDL
MODEL 3
REMARK VINA RESULT:      -9.1      4.344      8.312
REMARK SMILES C#CC[N@@H+](CC(=O)OCCOCCOCCOC(=O)c1ccc(-c2c3nc(c(-c4c(F)cccc4F)c4ccc([nH]4)c(-c4c(F)cccc4F)c4nc(c(-c5c(F)cccc5F)c5ccc2[nH]5)C=C4)C=C3)cc1)[C@@H](C)Cc1ccco1
REMARK SMILES IDX 12 1 11 2 10 3 9 4 8 5 6 6 7 7 5 8 4 9 3 11 2 12 1 13 74 14
REMARK SMILES IDX 75 15 76 16 77 17 78 18 81 19 79 20 80 21 13 22 14 23 15 24
REMARK SMILES IDX 16 25 17 26 18 27 19 28 20 29 21 30 73 31 22 32 72 33 23 34
REMARK SMILES IDX 24 35 25 36 66 37 26 38 71 39 65 40 67 41 27 42 70 43 64 44
REMARK SMILES IDX 63 45 28 47 54 48 37 49 53 50 38 51 41 52 52 53 68 54 39 55
REMARK SMILES IDX 40 56 51 58 69 59 42 60 29 61 30 62 35 63 31 64 32 65 34 66
REMARK SMILES IDX 36 67 33 68 55 69 56 70 61 71 57 72 58 73 60 74 62 75 59 76
REMARK SMILES IDX 43 77 44 78 49 79 45 80 46 81 48 82 50 83 47 84
REMARK H PARENT 4 10 67 46 41 57
REMARK Flexibility Score: inf
ROOT
ATOM      1  C   UNL A   1      38.186  22.012  25.687  1.00  0.00     0.188 C 
ENDROOT
BRANCH   1   2
ATOM      2  O   UNL A   1      37.166  22.030  24.695  1.00  0.00    -0.376 OA
BRANCH   2   3
ATOM      3  C   UNL A   1      35.901  21.503  25.090  1.00  0.00     0.202 C 
BRANCH   3   4
ATOM      4  C   UNL A   1      35.119  22.311  26.138  1.00  0.00     0.261 C 
BRANCH   4   5
ATOM      5  O   UNL A   1      33.678  22.147  26.127  1.00  0.00    -0.459 OA
BRANCH   5   6
ATOM      6  C   UNL A   1      32.950  23.144  26.698  1.00  0.00     0.361 C 
ATOM      7  O   UNL A   1      32.174  22.948  27.634  1.00  0.00    -0.245 OA
BRANCH   6   8
ATOM      8  C   UNL A   1      33.030  24.539  26.053  1.00  0.00     0.387 C 
BRANCH   8   9
ATOM      9  N   UNL A   1      31.870  25.181  25.386  1.00  0.00    -0.313 N 
ATOM     10  H   UNL A   1      31.116  25.193  26.071  1.00  0.00     0.349 HD
BRANCH   9  11
ATOM     11  C   UNL A   1      31.311  24.370  24.312  1.00  0.00     0.354 C 
BRANCH  11  12
ATOM     12  C   UNL A   1      32.388  23.891  23.354  1.00  0.00    -0.047 C 
ATOM     13  C   UNL A   1      33.313  23.479  22.531  1.00  0.00     0.010 C 
ENDBRANCH  11  12
ENDBRANCH   9  11
BRANCH   9  14
ATOM     14  C   UNL A   1      32.015  26.628  25.144  1.00  0.00     0.189 C 
ATOM     15  C   UNL A   1      33.437  27.013  25.504  1.00  0.00     0.076 C 
BRANCH  14  16
ATOM     16  C   UNL A   1      31.707  27.235  23.738  1.00  0.00     0.140 C 
BRANCH  16  17
ATOM     17  C   UNL A   1      30.496  28.079  23.554  1.00  0.00     0.109 A 
ATOM     18  C   UNL A   1      30.355  29.452  23.481  1.00  0.00     0.046 A 
ATOM     19  O   UNL A   1      29.309  27.479  23.268  1.00  0.00    -0.469 OA
ATOM     20  C   UNL A   1      29.011  29.703  23.128  1.00  0.00     0.042 A 
ATOM     21  C   UNL A   1      28.415  28.469  23.013  1.00  0.00     0.195 A 
ENDBRANCH  16  17
ENDBRANCH  14  16
ENDBRANCH   9  14
ENDBRANCH   8   9
ENDBRANCH   6   8
ENDBRANCH   5   6
ENDBRANCH   4   5
ENDBRANCH   3   4
ENDBRANCH   2   3
ENDBRANCH   1   2
BRANCH   1  22
ATOM     22  C   UNL A   1      39.025  20.721  25.751  1.00  0.00     0.188 C 
BRANCH  22  23
ATOM     23  O   UNL A   1      40.030  20.802  26.751  1.00  0.00    -0.376 OA
BRANCH  23  24
ATOM     24  C   UNL A   1      41.329  20.257  26.516  1.00  0.00     0.202 C 
BRANCH  24  25
ATOM     25  C   UNL A   1      42.493  21.137  26.043  1.00  0.00     0.261 C 
BRANCH  25  26
ATOM     26  O   UNL A   1      42.102  22.382  25.442  1.00  0.00    -0.460 OA
BRANCH  26  27
ATOM     27  C   UNL A   1      43.010  23.383  25.374  1.00  0.00     0.338 C 
ATOM     28  O   UNL A   1      43.890  23.521  24.544  1.00  0.00    -0.246 OA
BRANCH  27  29
ATOM     29  C   UNL A   1      42.593  24.408  26.368  1.00  0.00     0.060 A 
ATOM     30  C   UNL A   1      43.262  25.637  26.415  1.00  0.00     0.016 A 
ATOM     31  C   UNL A   1      41.490  24.199  27.196  1.00  0.00     0.016 A 
ATOM     32  C   UNL A   1      42.801  26.683  27.204  1.00  0.00     0.010 A 
ATOM     33  C   UNL A   1      41.064  25.221  28.048  1.00  0.00     0.010 A 
ATOM     34  C   UNL A   1      41.716  26.466  28.048  1.00  0.00    -0.014 A 
BRANCH  34  35
ATOM     35  C   UNL A   1      41.413  27.465  29.088  1.00  0.00     0.031 A 
ATOM     36  C   UNL A   1      42.238  27.437  30.338  1.00  0.00     0.074 A 
ATOM     37  C   UNL A   1      40.462  28.396  28.909  1.00  0.00     0.049 A 
ATOM     38  N   UNL A   1      42.068  28.082  31.459  1.00  0.00    -0.248 NA
ATOM     39  C   UNL A   1      43.421  26.558  30.316  1.00  0.00     0.031 C 
ATOM     40  C   UNL A   1      39.688  28.597  27.685  1.00  0.00     0.029 A 
ATOM     41  N   UNL A   1      39.980  29.343  29.775  1.00  0.00    -0.354 N 
ATOM     42  C   UNL A   1      43.102  27.668  32.285  1.00  0.00     0.074 A 
ATOM     43  C   UNL A   1      43.897  26.719  31.540  1.00  0.00     0.031 C 
ATOM     44  C   UNL A   1      38.801  29.587  27.892  1.00  0.00     0.029 A 
ATOM     45  C   UNL A   1      38.911  30.044  29.276  1.00  0.00     0.049 A 
ATOM     46  H   UNL A   1      40.363  29.503  30.668  1.00  0.00     0.167 HD
ATOM     47  C   UNL A   1      43.355  28.044  33.558  1.00  0.00     0.037 A 
ATOM     48  C   UNL A   1      38.085  30.912  29.893  1.00  0.00     0.037 A 
ATOM     49  C   UNL A   1      42.557  28.992  34.284  1.00  0.00     0.049 A 
ATOM     50  C   UNL A   1      38.311  31.222  31.351  1.00  0.00     0.074 A 
ATOM     51  C   UNL A   1      42.716  29.439  35.581  1.00  0.00     0.029 A 
ATOM     52  N   UNL A   1      41.441  29.636  33.767  1.00  0.00    -0.354 N 
ATOM     53  N   UNL A   1      39.264  30.801  32.149  1.00  0.00    -0.248 NA
ATOM     54  C   UNL A   1      37.336  32.110  32.000  1.00  0.00     0.031 C 
ATOM     55  C   UNL A   1      41.665  30.316  35.868  1.00  0.00     0.029 A 
ATOM     56  C   UNL A   1      40.882  30.454  34.732  1.00  0.00     0.049 A 
ATOM     57  H   UNL A   1      41.100  29.527  32.850  1.00  0.00     0.167 HD
ATOM     58  C   UNL A   1      39.016  31.386  33.384  1.00  0.00     0.074 A 
ATOM     59  C   UNL A   1      37.830  32.204  33.226  1.00  0.00     0.031 C 
ATOM     60  C   UNL A   1      39.703  31.261  34.546  1.00  0.00     0.037 A 
BRANCH  47  61
ATOM     61  C   UNL A   1      44.501  27.379  34.256  1.00  0.00     0.057 A 
ATOM     62  C   UNL A   1      45.786  27.933  34.277  1.00  0.00     0.134 A 
ATOM     63  C   UNL A   1      44.307  26.163  34.925  1.00  0.00     0.134 A 
ATOM     64  F   UNL A   1      46.044  29.080  33.631  1.00  0.00    -0.206 F 
ATOM     65  C   UNL A   1      46.842  27.293  34.928  1.00  0.00     0.040 A 
ATOM     66  C   UNL A   1      45.349  25.528  35.600  1.00  0.00     0.040 A 
ATOM     67  F   UNL A   1      43.100  25.576  34.935  1.00  0.00    -0.206 F 
ATOM     68  C   UNL A   1      46.623  26.090  35.598  1.00  0.00     0.006 A 
ENDBRANCH  47  61
BRANCH  48  69
ATOM     69  C   UNL A   1      36.929  31.492  29.165  1.00  0.00     0.057 A 
ATOM     70  C   UNL A   1      35.789  30.732  28.881  1.00  0.00     0.134 A 
ATOM     71  C   UNL A   1      36.950  32.816  28.705  1.00  0.00     0.134 A 
ATOM     72  F   UNL A   1      35.721  29.449  29.268  1.00  0.00    -0.206 F 
ATOM     73  C   UNL A   1      34.720  31.259  28.155  1.00  0.00     0.040 A 
ATOM     74  C   UNL A   1      35.876  33.365  28.002  1.00  0.00     0.040 A 
ATOM     75  F   UNL A   1      38.015  33.597  28.936  1.00  0.00    -0.206 F 
ATOM     76  C   UNL A   1      34.759  32.583  27.719  1.00  0.00     0.006 A 
ENDBRANCH  48  69
BRANCH  60  77
ATOM     77  C   UNL A   1      39.209  32.040  35.729  1.00  0.00     0.057 A 
ATOM     78  C   UNL A   1      39.594  33.368  35.950  1.00  0.00     0.134 A 
ATOM     79  C   UNL A   1      38.283  31.476  36.615  1.00  0.00     0.134 A 
ATOM     80  F   UNL A   1      40.486  33.961  35.141  1.00  0.00    -0.206 F 
ATOM     81  C   UNL A   1      39.085  34.103  37.021  1.00  0.00     0.040 A 
ATOM     82  C   UNL A   1      37.748  32.210  37.674  1.00  0.00     0.040 A 
ATOM     83  F   UNL A   1      37.864  30.212  36.451  1.00  0.00    -0.206 F 
ATOM     84  C   UNL A   1      38.152  33.527  37.881  1.00  0.00     0.006 A 
ENDBRANCH  60  77
ENDBRANCH  34  35
ENDBRANCH  27  29
ENDBRANCH  26  27
ENDBRANCH  25  26
ENDBRANCH  24  25
ENDBRANCH  23  24
ENDBRANCH  22  23
ENDBRANCH   1  22
TORSDOF 23
ENDMDL
