MODEL 1
REMARK VINA RESULT:     -11.8      0.000      0.000
REMARK SMILES O=C(OCCOCCOCCOC(=O)c1ccc(-c2c3nc(c(-c4c(F)cccc4F)c4ccc([nH]4)c(-c4c(F)cccc4F)c4nc(c(-c5c(F)cccc5F)c5ccc2[nH]5)C=C4)C=C3)cc1)C1=Cc2cc(S(F)(F)(F)(F)F)ccc2O[C@@H]1C(F)(F)F
REMARK SMILES IDX 8 1 7 2 6 3 5 4 4 5 3 6 2 7 1 8 69 9 70 10 84 11 71 12 83 13
REMARK SMILES IDX 72 14 82 15 73 16 81 17 80 18 85 19 86 20 87 21 88 22 74 23
REMARK SMILES IDX 75 24 76 25 77 26 78 27 79 28 9 29 10 30 11 31 12 32 13 33
REMARK SMILES IDX 14 34 15 35 16 36 68 37 17 38 67 39 18 40 19 41 20 42 61 43
REMARK SMILES IDX 21 44 66 45 60 46 62 47 22 48 65 49 59 50 58 51 23 53 49 54
REMARK SMILES IDX 32 55 48 56 33 57 36 58 47 59 63 60 34 61 35 62 46 64 64 65
REMARK SMILES IDX 37 66 24 67 25 68 30 69 26 70 27 71 29 72 31 73 28 74 50 75
REMARK SMILES IDX 51 76 56 77 52 78 53 79 55 80 57 81 54 82 38 83 39 84 44 85
REMARK SMILES IDX 40 86 41 87 43 88 45 89 42 90
REMARK H PARENT 62 52 36 63
REMARK Flexibility Score: inf
ROOT
ATOM      1  C   UNL A   1      40.547  21.047  27.190  1.00  0.00     0.188 C 
ENDROOT
BRANCH   1   2
ATOM      2  C   UNL A   1      39.484  21.172  26.110  1.00  0.00     0.188 C 
BRANCH   2   3
ATOM      3  O   UNL A   1      38.779  22.392  26.278  1.00  0.00    -0.376 OA
BRANCH   3   4
ATOM      4  C   UNL A   1      37.746  22.480  25.308  1.00  0.00     0.202 C 
BRANCH   4   5
ATOM      5  C   UNL A   1      36.821  23.636  25.654  1.00  0.00     0.261 C 
BRANCH   5   6
ATOM      6  O   UNL A   1      36.222  24.133  24.466  1.00  0.00    -0.460 OA
BRANCH   6   7
ATOM      7  C   UNL A   1      35.290  23.334  23.753  1.00  0.00     0.338 C 
ATOM      8  O   UNL A   1      35.501  23.048  22.533  1.00  0.00    -0.246 OA
BRANCH   7   9
ATOM      9  C   UNL A   1      34.041  22.820  24.449  1.00  0.00     0.087 C 
ATOM     10  C   UNL A   1      33.073  23.692  24.842  1.00  0.00     0.027 C 
ATOM     11  C   UNL A   1      33.872  21.331  24.706  1.00  0.00     0.316 C 
ATOM     12  C   UNL A   1      33.241  25.180  24.584  1.00  0.00     0.019 A 
ATOM     13  O   UNL A   1      34.017  24.794  22.372  1.00  0.00    -0.475 OA
ATOM     14  C   UNL A   1      33.035  25.998  25.684  1.00  0.00     0.036 A 
ATOM     15  C   UNL A   1      33.662  25.675  23.427  1.00  0.00     0.128 A 
ATOM     16  C   UNL A   1      33.026  27.379  25.377  1.00  0.00     0.107 A 
ATOM     17  C   UNL A   1      33.759  27.033  23.241  1.00  0.00     0.048 A 
ATOM     18  C   UNL A   1      33.513  27.903  24.268  1.00  0.00     0.028 A 
BRANCH  11  19
ATOM     19  C   UNL A   1      32.621  20.833  24.001  1.00  0.00     0.430 C 
ATOM     20  F   UNL A   1      32.752  19.537  23.728  1.00  0.00    -0.167 F 
ATOM     21  F   UNL A   1      31.565  21.015  24.788  1.00  0.00    -0.167 F 
ATOM     22  F   UNL A   1      32.452  21.509  22.868  1.00  0.00    -0.167 F 
ENDBRANCH  11  19
BRANCH  16  23
ATOM     23  S   UNL A   1      32.295  28.506  26.590  1.00  0.00     0.310 S 
ATOM     24  F   UNL A   1      31.583  27.307  27.345  1.00  0.00    -0.094 F 
ATOM     25  F   UNL A   1      31.005  28.616  25.692  1.00  0.00    -0.094 F 
ATOM     26  F   UNL A   1      31.673  29.460  27.649  1.00  0.00    -0.094 F 
ATOM     27  F   UNL A   1      33.535  28.272  27.540  1.00  0.00    -0.094 F 
ATOM     28  F   UNL A   1      32.890  27.448  25.578  1.00  0.00    -0.094 F 
ENDBRANCH  16  23
ENDBRANCH   7   9
ENDBRANCH   6   7
ENDBRANCH   5   6
ENDBRANCH   4   5
ENDBRANCH   3   4
ENDBRANCH   2   3
ENDBRANCH   1   2
BRANCH   1  29
ATOM     29  O   UNL A   1      41.667  20.342  26.673  1.00  0.00    -0.376 OA
BRANCH  29  30
ATOM     30  C   UNL A   1      42.840  21.124  26.845  1.00  0.00     0.202 C 
BRANCH  30  31
ATOM     31  C   UNL A   1      43.389  21.518  25.485  1.00  0.00     0.261 C 
BRANCH  31  32
ATOM     32  O   UNL A   1      42.688  22.655  25.001  1.00  0.00    -0.460 OA
BRANCH  32  33
ATOM     33  C   UNL A   1      43.271  23.945  25.105  1.00  0.00     0.338 C 
ATOM     34  O   UNL A   1      44.293  24.239  24.408  1.00  0.00    -0.246 OA
BRANCH  33  35
ATOM     35  C   UNL A   1      42.674  24.976  26.049  1.00  0.00     0.060 A 
ATOM     36  C   UNL A   1      43.200  26.256  26.026  1.00  0.00     0.016 A 
ATOM     37  C   UNL A   1      41.799  24.607  26.979  1.00  0.00     0.016 A 
ATOM     38  C   UNL A   1      42.959  26.997  27.207  1.00  0.00     0.010 A 
ATOM     39  C   UNL A   1      41.508  25.438  28.034  1.00  0.00     0.010 A 
ATOM     40  C   UNL A   1      42.039  26.695  28.106  1.00  0.00    -0.014 A 
BRANCH  40  41
ATOM     41  C   UNL A   1      41.596  27.692  29.164  1.00  0.00     0.031 A 
ATOM     42  C   UNL A   1      40.490  28.522  28.972  1.00  0.00     0.074 A 
ATOM     43  C   UNL A   1      42.290  27.591  30.358  1.00  0.00     0.049 A 
ATOM     44  N   UNL A   1      39.898  29.309  29.871  1.00  0.00    -0.248 NA
ATOM     45  C   UNL A   1      39.772  28.656  27.695  1.00  0.00     0.031 C 
ATOM     46  C   UNL A   1      43.402  26.750  30.562  1.00  0.00     0.029 A 
ATOM     47  N   UNL A   1      42.046  28.261  31.536  1.00  0.00    -0.354 N 
ATOM     48  C   UNL A   1      38.856  29.935  29.320  1.00  0.00     0.074 A 
ATOM     49  C   UNL A   1      38.764  29.529  27.911  1.00  0.00     0.031 C 
ATOM     50  C   UNL A   1      43.829  26.920  31.841  1.00  0.00     0.029 A 
ATOM     51  C   UNL A   1      42.992  27.869  32.458  1.00  0.00     0.049 A 
ATOM     52  H   UNL A   1      41.321  28.909  31.693  1.00  0.00     0.167 HD
ATOM     53  C   UNL A   1      37.979  30.828  29.937  1.00  0.00     0.037 A 
ATOM     54  C   UNL A   1      43.133  28.303  33.767  1.00  0.00     0.037 A 
ATOM     55  C   UNL A   1      38.094  31.230  31.259  1.00  0.00     0.049 A 
ATOM     56  C   UNL A   1      42.289  29.240  34.368  1.00  0.00     0.074 A 
ATOM     57  C   UNL A   1      37.213  32.122  31.899  1.00  0.00     0.029 A 
ATOM     58  N   UNL A   1      39.053  30.855  32.173  1.00  0.00    -0.354 N 
ATOM     59  N   UNL A   1      41.224  29.836  33.828  1.00  0.00    -0.248 NA
ATOM     60  C   UNL A   1      42.449  29.732  35.742  1.00  0.00     0.031 C 
ATOM     61  C   UNL A   1      37.640  32.292  33.178  1.00  0.00     0.029 A 
ATOM     62  C   UNL A   1      38.796  31.508  33.358  1.00  0.00     0.049 A 
ATOM     63  H   UNL A   1      39.796  30.230  32.008  1.00  0.00     0.167 HD
ATOM     64  C   UNL A   1      40.657  30.656  34.716  1.00  0.00     0.074 A 
ATOM     65  C   UNL A   1      41.441  30.606  35.958  1.00  0.00     0.031 C 
ATOM     66  C   UNL A   1      39.517  31.441  34.541  1.00  0.00     0.037 A 
BRANCH  53  67
ATOM     67  C   UNL A   1      36.831  31.391  29.115  1.00  0.00     0.057 A 
ATOM     68  C   UNL A   1      36.997  32.675  28.622  1.00  0.00     0.134 A 
ATOM     69  C   UNL A   1      35.748  30.679  28.828  1.00  0.00     0.134 A 
ATOM     70  F   UNL A   1      38.157  33.324  28.668  1.00  0.00    -0.206 F 
ATOM     71  C   UNL A   1      35.821  33.233  28.066  1.00  0.00     0.040 A 
ATOM     72  C   UNL A   1      34.690  31.249  28.161  1.00  0.00     0.040 A 
ATOM     73  F   UNL A   1      35.686  29.399  29.189  1.00  0.00    -0.206 F 
ATOM     74  C   UNL A   1      34.763  32.534  27.699  1.00  0.00     0.006 A 
ENDBRANCH  53  67
BRANCH  54  75
ATOM     75  C   UNL A   1      44.270  27.727  34.595  1.00  0.00     0.057 A 
ATOM     76  C   UNL A   1      45.519  28.325  34.628  1.00  0.00     0.134 A 
ATOM     77  C   UNL A   1      44.033  26.590  35.239  1.00  0.00     0.134 A 
ATOM     78  F   UNL A   1      45.737  29.572  34.220  1.00  0.00    -0.206 F 
ATOM     79  C   UNL A   1      46.541  27.488  35.135  1.00  0.00     0.040 A 
ATOM     80  C   UNL A   1      45.060  25.893  35.828  1.00  0.00     0.040 A 
ATOM     81  F   UNL A   1      42.791  26.120  35.312  1.00  0.00    -0.206 F 
ATOM     82  C   UNL A   1      46.331  26.396  35.847  1.00  0.00     0.006 A 
ENDBRANCH  54  75
BRANCH  66  83
ATOM     83  C   UNL A   1      39.034  32.271  35.719  1.00  0.00     0.057 A 
ATOM     84  C   UNL A   1      39.496  33.573  35.798  1.00  0.00     0.134 A 
ATOM     85  C   UNL A   1      38.304  31.739  36.693  1.00  0.00     0.134 A 
ATOM     86  F   UNL A   1      40.005  34.227  34.756  1.00  0.00    -0.206 F 
ATOM     87  C   UNL A   1      39.378  34.148  37.086  1.00  0.00     0.040 A 
ATOM     88  C   UNL A   1      38.116  32.413  37.875  1.00  0.00     0.040 A 
ATOM     89  F   UNL A   1      37.750  30.541  36.522  1.00  0.00    -0.206 F 
ATOM     90  C   UNL A   1      38.597  33.682  38.043  1.00  0.00     0.006 A 
ENDBRANCH  66  83
ENDBRANCH  40  41
ENDBRANCH  33  35
ENDBRANCH  32  33
ENDBRANCH  31  32
ENDBRANCH  30  31
ENDBRANCH  29  30
ENDBRANCH   1  29
TORSDOF 19
ENDMDL
MODEL 2
REMARK VINA RESULT:     -11.7      4.568      6.828
REMARK SMILES O=C(OCCOCCOCCOC(=O)c1ccc(-c2c3nc(c(-c4c(F)cccc4F)c4ccc([nH]4)c(-c4c(F)cccc4F)c4nc(c(-c5c(F)cccc5F)c5ccc2[nH]5)C=C4)C=C3)cc1)C1=Cc2cc(S(F)(F)(F)(F)F)ccc2O[C@@H]1C(F)(F)F
REMARK SMILES IDX 8 1 7 2 6 3 5 4 4 5 3 6 2 7 1 8 69 9 70 10 84 11 71 12 83 13
REMARK SMILES IDX 72 14 82 15 73 16 81 17 80 18 85 19 86 20 87 21 88 22 74 23
REMARK SMILES IDX 75 24 76 25 77 26 78 27 79 28 9 29 10 30 11 31 12 32 13 33
REMARK SMILES IDX 14 34 15 35 16 36 68 37 17 38 67 39 18 40 19 41 20 42 61 43
REMARK SMILES IDX 21 44 66 45 60 46 62 47 22 48 65 49 59 50 58 51 23 53 49 54
REMARK SMILES IDX 32 55 48 56 33 57 36 58 47 59 63 60 34 61 35 62 46 64 64 65
REMARK SMILES IDX 37 66 24 67 25 68 30 69 26 70 27 71 29 72 31 73 28 74 50 75
REMARK SMILES IDX 51 76 56 77 52 78 53 79 55 80 57 81 54 82 38 83 39 84 44 85
REMARK SMILES IDX 40 86 41 87 43 88 45 89 42 90
REMARK H PARENT 62 52 36 63
REMARK Flexibility Score: inf
ROOT
ATOM      1  C   UNL A   1      41.492  21.578  26.222  1.00  0.00     0.188 C 
ENDROOT
BRANCH   1   2
ATOM      2  C   UNL A   1      40.030  21.412  26.608  1.00  0.00     0.188 C 
BRANCH   2   3
ATOM      3  O   UNL A   1      39.351  22.647  26.432  1.00  0.00    -0.376 OA
BRANCH   3   4
ATOM      4  C   UNL A   1      38.126  22.420  25.751  1.00  0.00     0.202 C 
BRANCH   4   5
ATOM      5  C   UNL A   1      37.168  23.566  26.034  1.00  0.00     0.261 C 
BRANCH   5   6
ATOM      6  O   UNL A   1      36.528  23.955  24.828  1.00  0.00    -0.460 OA
BRANCH   6   7
ATOM      7  C   UNL A   1      35.719  23.027  24.122  1.00  0.00     0.338 C 
ATOM      8  O   UNL A   1      35.961  22.773  22.900  1.00  0.00    -0.246 OA
BRANCH   7   9
ATOM      9  C   UNL A   1      34.564  22.336  24.827  1.00  0.00     0.087 C 
ATOM     10  C   UNL A   1      33.481  23.056  25.225  1.00  0.00     0.027 C 
ATOM     11  C   UNL A   1      34.618  20.839  25.088  1.00  0.00     0.316 C 
ATOM     12  C   UNL A   1      33.425  24.552  24.964  1.00  0.00     0.019 A 
ATOM     13  O   UNL A   1      34.236  24.279  22.747  1.00  0.00    -0.475 OA
ATOM     14  C   UNL A   1      33.108  25.333  26.064  1.00  0.00     0.036 A 
ATOM     15  C   UNL A   1      33.761  25.101  23.804  1.00  0.00     0.128 A 
ATOM     16  C   UNL A   1      32.893  26.697  25.755  1.00  0.00     0.107 A 
ATOM     17  C   UNL A   1      33.655  26.458  23.615  1.00  0.00     0.048 A 
ATOM     18  C   UNL A   1      33.289  27.285  24.642  1.00  0.00     0.028 A 
BRANCH  11  19
ATOM     19  C   UNL A   1      33.450  20.160  24.391  1.00  0.00     0.430 C 
ATOM     20  F   UNL A   1      32.429  20.056  25.238  1.00  0.00    -0.167 F 
ATOM     21  F   UNL A   1      33.081  20.881  23.338  1.00  0.00    -0.167 F 
ATOM     22  F   UNL A   1      33.818  18.945  23.991  1.00  0.00    -0.167 F 
ENDBRANCH  11  19
BRANCH  16  23
ATOM     23  S   UNL A   1      32.011  27.707  26.972  1.00  0.00     0.310 S 
ATOM     24  F   UNL A   1      31.770  28.859  25.910  1.00  0.00    -0.094 F 
ATOM     25  F   UNL A   1      33.365  28.424  27.340  1.00  0.00    -0.094 F 
ATOM     26  F   UNL A   1      31.238  28.578  28.002  1.00  0.00    -0.094 F 
ATOM     27  F   UNL A   1      30.645  27.077  26.490  1.00  0.00    -0.094 F 
ATOM     28  F   UNL A   1      32.765  26.896  25.844  1.00  0.00    -0.094 F 
ENDBRANCH  16  23
ENDBRANCH   7   9
ENDBRANCH   6   7
ENDBRANCH   5   6
ENDBRANCH   4   5
ENDBRANCH   3   4
ENDBRANCH   2   3
ENDBRANCH   1   2
BRANCH   1  29
ATOM     29  O   UNL A   1      41.942  20.406  25.558  1.00  0.00    -0.376 OA
BRANCH  29  30
ATOM     30  C   UNL A   1      42.270  19.413  26.518  1.00  0.00     0.202 C 
BRANCH  30  31
ATOM     31  C   UNL A   1      43.268  18.439  25.917  1.00  0.00     0.261 C 
BRANCH  31  32
ATOM     32  O   UNL A   1      43.541  18.807  24.573  1.00  0.00    -0.460 OA
BRANCH  32  33
ATOM     33  C   UNL A   1      44.793  19.386  24.236  1.00  0.00     0.338 C 
ATOM     34  O   UNL A   1      45.695  18.678  23.689  1.00  0.00    -0.246 OA
BRANCH  33  35
ATOM     35  C   UNL A   1      45.053  20.855  24.529  1.00  0.00     0.060 A 
ATOM     36  C   UNL A   1      45.613  21.181  25.752  1.00  0.00     0.016 A 
ATOM     37  C   UNL A   1      44.597  21.794  23.707  1.00  0.00     0.016 A 
ATOM     38  C   UNL A   1      45.384  22.520  26.149  1.00  0.00     0.010 A 
ATOM     39  C   UNL A   1      44.528  23.105  24.113  1.00  0.00     0.010 A 
ATOM     40  C   UNL A   1      45.009  23.489  25.334  1.00  0.00    -0.014 A 
BRANCH  40  41
ATOM     41  C   UNL A   1      45.106  24.953  25.732  1.00  0.00     0.031 A 
ATOM     42  C   UNL A   1      44.007  25.649  26.237  1.00  0.00     0.074 A 
ATOM     43  C   UNL A   1      46.392  25.465  25.683  1.00  0.00     0.049 A 
ATOM     44  N   UNL A   1      43.995  26.869  26.776  1.00  0.00    -0.248 NA
ATOM     45  C   UNL A   1      42.635  25.120  26.258  1.00  0.00     0.031 C 
ATOM     46  C   UNL A   1      47.508  24.766  25.183  1.00  0.00     0.029 A 
ATOM     47  N   UNL A   1      46.822  26.707  26.095  1.00  0.00    -0.354 N 
ATOM     48  C   UNL A   1      42.758  27.189  27.163  1.00  0.00     0.074 A 
ATOM     49  C   UNL A   1      41.865  26.071  26.830  1.00  0.00     0.031 C 
ATOM     50  C   UNL A   1      48.593  25.578  25.281  1.00  0.00     0.029 A 
ATOM     51  C   UNL A   1      48.174  26.799  25.844  1.00  0.00     0.049 A 
ATOM     52  H   UNL A   1      46.262  27.408  26.499  1.00  0.00     0.167 HD
ATOM     53  C   UNL A   1      42.341  28.369  27.782  1.00  0.00     0.037 A 
ATOM     54  C   UNL A   1      49.011  27.877  26.085  1.00  0.00     0.037 A 
ATOM     55  C   UNL A   1      43.186  29.431  28.062  1.00  0.00     0.049 A 
ATOM     56  C   UNL A   1      48.582  29.080  26.652  1.00  0.00     0.074 A 
ATOM     57  C   UNL A   1      42.784  30.623  28.694  1.00  0.00     0.029 A 
ATOM     58  N   UNL A   1      44.533  29.531  27.790  1.00  0.00    -0.354 N 
ATOM     59  N   UNL A   1      47.354  29.384  27.075  1.00  0.00    -0.248 NA
ATOM     60  C   UNL A   1      49.453  30.240  26.881  1.00  0.00     0.031 C 
ATOM     61  C   UNL A   1      43.869  31.436  28.791  1.00  0.00     0.029 A 
ATOM     62  C   UNL A   1      44.968  30.764  28.222  1.00  0.00     0.049 A 
ATOM     63  H   UNL A   1      45.088  28.841  27.360  1.00  0.00     0.167 HD
ATOM     64  C   UNL A   1      47.334  30.621  27.575  1.00  0.00     0.074 A 
ATOM     65  C   UNL A   1      48.682  31.192  27.451  1.00  0.00     0.031 C 
ATOM     66  C   UNL A   1      46.246  31.295  28.134  1.00  0.00     0.037 A 
BRANCH  53  67
ATOM     67  C   UNL A   1      40.878  28.495  28.172  1.00  0.00     0.057 A 
ATOM     68  C   UNL A   1      40.026  29.018  27.212  1.00  0.00     0.134 A 
ATOM     69  C   UNL A   1      40.417  28.078  29.345  1.00  0.00     0.134 A 
ATOM     70  F   UNL A   1      40.393  29.212  25.948  1.00  0.00    -0.206 F 
ATOM     71  C   UNL A   1      38.734  29.328  27.698  1.00  0.00     0.040 A 
ATOM     72  C   UNL A   1      39.107  28.293  29.700  1.00  0.00     0.040 A 
ATOM     73  F   UNL A   1      41.232  27.443  30.185  1.00  0.00    -0.206 F 
ATOM     74  C   UNL A   1      38.226  28.859  28.822  1.00  0.00     0.006 A 
ENDBRANCH  53  67
BRANCH  54  75
ATOM     75  C   UNL A   1      50.478  27.744  25.711  1.00  0.00     0.057 A 
ATOM     76  C   UNL A   1      51.440  27.413  26.652  1.00  0.00     0.134 A 
ATOM     77  C   UNL A   1      50.809  28.017  24.454  1.00  0.00     0.134 A 
ATOM     78  F   UNL A   1      51.143  26.891  27.838  1.00  0.00    -0.206 F 
ATOM     79  C   UNL A   1      52.765  27.683  26.236  1.00  0.00     0.040 A 
ATOM     80  C   UNL A   1      52.128  28.133  24.088  1.00  0.00     0.040 A 
ATOM     81  F   UNL A   1      49.855  28.183  23.542  1.00  0.00    -0.206 F 
ATOM     82  C   UNL A   1      53.131  27.879  24.982  1.00  0.00     0.006 A 
ENDBRANCH  54  75
BRANCH  66  83
ATOM     83  C   UNL A   1      46.477  32.694  28.679  1.00  0.00     0.057 A 
ATOM     84  C   UNL A   1      46.354  33.743  27.783  1.00  0.00     0.134 A 
ATOM     85  C   UNL A   1      46.898  32.897  29.922  1.00  0.00     0.134 A 
ATOM     86  F   UNL A   1      45.705  33.636  26.626  1.00  0.00    -0.206 F 
ATOM     87  C   UNL A   1      46.978  34.939  28.210  1.00  0.00     0.040 A 
ATOM     88  C   UNL A   1      47.370  34.127  30.310  1.00  0.00     0.040 A 
ATOM     89  F   UNL A   1      46.863  31.898  30.800  1.00  0.00    -0.206 F 
ATOM     90  C   UNL A   1      47.333  35.195  29.456  1.00  0.00     0.006 A 
ENDBRANCH  66  83
ENDBRANCH  40  41
ENDBRANCH  33  35
ENDBRANCH  32  33
ENDBRANCH  31  32
ENDBRANCH  30  31
ENDBRANCH  29  30
ENDBRANCH   1  29
TORSDOF 19
ENDMDL
MODEL 3
REMARK VINA RESULT:     -11.3      4.808      9.647
REMARK SMILES O=C(OCCOCCOCCOC(=O)c1ccc(-c2c3nc(c(-c4c(F)cccc4F)c4ccc([nH]4)c(-c4c(F)cccc4F)c4nc(c(-c5c(F)cccc5F)c5ccc2[nH]5)C=C4)C=C3)cc1)C1=Cc2cc(S(F)(F)(F)(F)F)ccc2O[C@@H]1C(F)(F)F
REMARK SMILES IDX 8 1 7 2 6 3 5 4 4 5 3 6 2 7 1 8 69 9 70 10 84 11 71 12 83 13
REMARK SMILES IDX 72 14 82 15 73 16 81 17 80 18 85 19 86 20 87 21 88 22 74 23
REMARK SMILES IDX 75 24 76 25 77 26 78 27 79 28 9 29 10 30 11 31 12 32 13 33
REMARK SMILES IDX 14 34 15 35 16 36 68 37 17 38 67 39 18 40 19 41 20 42 61 43
REMARK SMILES IDX 21 44 66 45 60 46 62 47 22 48 65 49 59 50 58 51 23 53 49 54
REMARK SMILES IDX 32 55 48 56 33 57 36 58 47 59 63 60 34 61 35 62 46 64 64 65
REMARK SMILES IDX 37 66 24 67 25 68 30 69 26 70 27 71 29 72 31 73 28 74 50 75
REMARK SMILES IDX 51 76 56 77 52 78 53 79 55 80 57 81 54 82 38 83 39 84 44 85
REMARK SMILES IDX 40 86 41 87 43 88 45 89 42 90
REMARK H PARENT 62 52 36 63
REMARK Flexibility Score: inf
ROOT
ATOM      1  C   UNL A   1      34.021  32.489  28.800  1.00  0.00     0.188 C 
ENDROOT
BRANCH   1   2
ATOM      2  C   UNL A   1      34.650  31.750  27.629  1.00  0.00     0.188 C 
BRANCH   2   3
ATOM      3  O   UNL A   1      33.784  30.707  27.207  1.00  0.00    -0.376 OA
BRANCH   3   4
ATOM      4  C   UNL A   1      34.371  29.451  27.515  1.00  0.00     0.202 C 
BRANCH   4   5
ATOM      5  C   UNL A   1      34.070  28.463  26.399  1.00  0.00     0.261 C 
BRANCH   5   6
ATOM      6  O   UNL A   1      33.281  27.399  26.911  1.00  0.00    -0.460 OA
BRANCH   6   7
ATOM      7  C   UNL A   1      31.986  27.157  26.382  1.00  0.00     0.338 C 
ATOM      8  O   UNL A   1      30.978  27.130  27.156  1.00  0.00    -0.246 OA
BRANCH   7   9
ATOM      9  C   UNL A   1      31.805  26.932  24.890  1.00  0.00     0.087 C 
ATOM     10  C   UNL A   1      32.315  25.815  24.304  1.00  0.00     0.027 C 
ATOM     11  C   UNL A   1      31.053  27.954  24.053  1.00  0.00     0.316 C 
ATOM     12  C   UNL A   1      33.066  24.793  25.140  1.00  0.00     0.019 A 
ATOM     13  O   UNL A   1      31.442  24.894  26.872  1.00  0.00    -0.475 OA
ATOM     14  C   UNL A   1      34.303  24.416  24.643  1.00  0.00     0.036 A 
ATOM     15  C   UNL A   1      32.638  24.363  26.321  1.00  0.00     0.128 A 
ATOM     16  C   UNL A   1      34.899  23.341  25.345  1.00  0.00     0.107 A 
ATOM     17  C   UNL A   1      33.341  23.408  27.015  1.00  0.00     0.048 A 
ATOM     18  C   UNL A   1      34.544  22.946  26.553  1.00  0.00     0.028 A 
BRANCH  11  19
ATOM     19  C   UNL A   1      29.845  27.292  23.409  1.00  0.00     0.430 C 
ATOM     20  F   UNL A   1      30.254  26.401  22.510  1.00  0.00    -0.167 F 
ATOM     21  F   UNL A   1      29.124  26.680  24.344  1.00  0.00    -0.167 F 
ATOM     22  F   UNL A   1      29.100  28.217  22.809  1.00  0.00    -0.167 F 
ENDBRANCH  11  19
BRANCH  16  23
ATOM     23  S   UNL A   1      36.242  22.443  24.527  1.00  0.00     0.310 S 
ATOM     24  F   UNL A   1      35.820  23.010  23.108  1.00  0.00    -0.094 F 
ATOM     25  F   UNL A   1      35.259  21.240  24.262  1.00  0.00    -0.094 F 
ATOM     26  F   UNL A   1      37.400  21.691  23.814  1.00  0.00    -0.094 F 
ATOM     27  F   UNL A   1      37.169  23.713  24.678  1.00  0.00    -0.094 F 
ATOM     28  F   UNL A   1      35.044  23.263  25.153  1.00  0.00    -0.094 F 
ENDBRANCH  16  23
ENDBRANCH   7   9
ENDBRANCH   6   7
ENDBRANCH   5   6
ENDBRANCH   4   5
ENDBRANCH   3   4
ENDBRANCH   2   3
ENDBRANCH   1   2
BRANCH   1  29
ATOM     29  O   UNL A   1      33.972  33.878  28.511  1.00  0.00    -0.376 OA
BRANCH  29  30
ATOM     30  C   UNL A   1      34.554  34.606  29.582  1.00  0.00     0.202 C 
BRANCH  30  31
ATOM     31  C   UNL A   1      34.440  33.799  30.863  1.00  0.00     0.261 C 
BRANCH  31  32
ATOM     32  O   UNL A   1      35.714  33.712  31.485  1.00  0.00    -0.460 OA
BRANCH  32  33
ATOM     33  C   UNL A   1      36.127  32.495  32.089  1.00  0.00     0.338 C 
ATOM     34  O   UNL A   1      35.583  32.105  33.170  1.00  0.00    -0.246 OA
BRANCH  33  35
ATOM     35  C   UNL A   1      37.219  31.657  31.442  1.00  0.00     0.060 A 
ATOM     36  C   UNL A   1      38.127  31.026  32.274  1.00  0.00     0.016 A 
ATOM     37  C   UNL A   1      37.390  31.680  30.125  1.00  0.00     0.016 A 
ATOM     38  C   UNL A   1      39.347  30.689  31.641  1.00  0.00     0.010 A 
ATOM     39  C   UNL A   1      38.552  31.209  29.563  1.00  0.00     0.010 A 
ATOM     40  C   UNL A   1      39.519  30.625  30.333  1.00  0.00    -0.014 A 
BRANCH  40  41
ATOM     41  C   UNL A   1      40.728  29.940  29.717  1.00  0.00     0.031 A 
ATOM     42  C   UNL A   1      40.684  28.607  29.305  1.00  0.00     0.074 A 
ATOM     43  C   UNL A   1      41.795  30.790  29.479  1.00  0.00     0.049 A 
ATOM     44  N   UNL A   1      41.604  27.942  28.604  1.00  0.00    -0.248 NA
ATOM     45  C   UNL A   1      39.567  27.694  29.586  1.00  0.00     0.031 C 
ATOM     46  C   UNL A   1      41.843  32.138  29.884  1.00  0.00     0.029 A 
ATOM     47  N   UNL A   1      42.973  30.503  28.826  1.00  0.00    -0.354 N 
ATOM     48  C   UNL A   1      41.198  26.690  28.384  1.00  0.00     0.074 A 
ATOM     49  C   UNL A   1      39.885  26.510  29.017  1.00  0.00     0.031 C 
ATOM     50  C   UNL A   1      43.038  32.654  29.492  1.00  0.00     0.029 A 
ATOM     51  C   UNL A   1      43.757  31.637  28.835  1.00  0.00     0.049 A 
ATOM     52  H   UNL A   1      43.215  29.638  28.423  1.00  0.00     0.167 HD
ATOM     53  C   UNL A   1      41.871  25.692  27.678  1.00  0.00     0.037 A 
ATOM     54  C   UNL A   1      45.028  31.794  28.306  1.00  0.00     0.037 A 
ATOM     55  C   UNL A   1      43.124  25.862  27.112  1.00  0.00     0.049 A 
ATOM     56  C   UNL A   1      45.726  30.777  27.650  1.00  0.00     0.074 A 
ATOM     57  C   UNL A   1      43.813  24.868  26.389  1.00  0.00     0.029 A 
ATOM     58  N   UNL A   1      43.917  26.988  27.141  1.00  0.00    -0.354 N 
ATOM     59  N   UNL A   1      45.303  29.537  27.395  1.00  0.00    -0.248 NA
ATOM     60  C   UNL A   1      47.086  30.923  27.115  1.00  0.00     0.031 C 
ATOM     61  C   UNL A   1      45.008  25.384  25.997  1.00  0.00     0.029 A 
ATOM     62  C   UNL A   1      45.086  26.708  26.469  1.00  0.00     0.049 A 
ATOM     63  H   UNL A   1      43.688  27.844  27.569  1.00  0.00     0.167 HD
ATOM     64  C   UNL A   1      46.242  28.860  26.731  1.00  0.00     0.074 A 
ATOM     65  C   UNL A   1      47.405  29.739  26.547  1.00  0.00     0.031 C 
ATOM     66  C   UNL A   1      46.173  27.545  26.268  1.00  0.00     0.037 A 
BRANCH  53  67
ATOM     67  C   UNL A   1      41.191  24.342  27.520  1.00  0.00     0.057 A 
ATOM     68  C   UNL A   1      41.651  23.319  28.334  1.00  0.00     0.134 A 
ATOM     69  C   UNL A   1      40.170  24.154  26.692  1.00  0.00     0.134 A 
ATOM     70  F   UNL A   1      42.490  23.522  29.347  1.00  0.00    -0.206 F 
ATOM     71  C   UNL A   1      41.151  22.042  27.990  1.00  0.00     0.040 A 
ATOM     72  C   UNL A   1      39.640  22.900  26.506  1.00  0.00     0.040 A 
ATOM     73  F   UNL A   1      39.654  25.191  26.036  1.00  0.00    -0.206 F 
ATOM     74  C   UNL A   1      40.089  21.833  27.234  1.00  0.00     0.006 A 
ENDBRANCH  53  67
BRANCH  54  75
ATOM     75  C   UNL A   1      45.702  33.150  28.449  1.00  0.00     0.057 A 
ATOM     76  C   UNL A   1      45.551  34.139  27.491  1.00  0.00     0.134 A 
ATOM     77  C   UNL A   1      46.491  33.325  29.502  1.00  0.00     0.134 A 
ATOM     78  F   UNL A   1      44.594  34.114  26.568  1.00  0.00    -0.206 F 
ATOM     79  C   UNL A   1      46.509  35.176  27.583  1.00  0.00     0.040 A 
ATOM     80  C   UNL A   1      47.301  34.430  29.593  1.00  0.00     0.040 A 
ATOM     81  F   UNL A   1      46.499  32.421  30.478  1.00  0.00    -0.206 F 
ATOM     82  C   UNL A   1      47.249  35.420  28.650  1.00  0.00     0.006 A 
ENDBRANCH  54  75
BRANCH  66  83
ATOM     83  C   UNL A   1      47.362  26.998  25.495  1.00  0.00     0.057 A 
ATOM     84  C   UNL A   1      48.308  26.292  26.220  1.00  0.00     0.134 A 
ATOM     85  C   UNL A   1      47.551  27.286  24.212  1.00  0.00     0.134 A 
ATOM     86  F   UNL A   1      48.060  25.765  27.416  1.00  0.00    -0.206 F 
ATOM     87  C   UNL A   1      49.561  26.181  25.572  1.00  0.00     0.040 A 
ATOM     88  C   UNL A   1      48.757  27.026  23.607  1.00  0.00     0.040 A 
ATOM     89  F   UNL A   1      46.564  27.831  23.508  1.00  0.00    -0.206 F 
ATOM     90  C   UNL A   1      49.758  26.384  24.282  1.00  0.00     0.006 A 
ENDBRANCH  66  83
ENDBRANCH  40  41
ENDBRANCH  33  35
ENDBRANCH  32  33
ENDBRANCH  31  32
ENDBRANCH  30  31
ENDBRANCH  29  30
ENDBRANCH   1  29
TORSDOF 19
ENDMDL
