MODEL 1
REMARK VINA RESULT:     -10.9      0.000      0.000
REMARK SMILES CCOc1ccc2[nH]c(C)c/c(=N\c3cccc(C(=O)OCCOCCOCCOC(=O)c4ccc(-c5c6nc(c(-c7c(F)cccc7F)c7ccc([nH]7)c(-c7c(F)cccc7F)c7nc(c(-c8c(F)cccc8F)c8ccc5[nH]8)C=C7)C=C6)cc4)c3)c2c1
REMARK SMILES IDX 25 1 24 2 23 3 22 4 21 5 19 6 20 7 18 8 14 9 15 10 87 11
REMARK SMILES IDX 16 12 17 13 13 14 4 15 5 16 89 17 6 18 88 19 7 20 12 21 8 22
REMARK SMILES IDX 11 23 9 24 10 26 3 27 2 28 1 29 26 30 27 31 28 32 29 33
REMARK SMILES IDX 30 34 31 35 32 36 33 37 34 38 86 39 35 40 85 41 36 42 37 43
REMARK SMILES IDX 38 44 79 45 39 46 84 47 78 48 80 49 40 50 83 51 77 52 76 53
REMARK SMILES IDX 41 55 67 56 50 57 66 58 51 59 54 60 65 61 81 62 52 63 53 64
REMARK SMILES IDX 64 66 82 67 55 68 42 69 43 70 48 71 44 72 45 73 47 74 49 75
REMARK SMILES IDX 46 76 68 77 69 78 74 79 70 80 71 81 73 82 75 83 72 84 56 85
REMARK SMILES IDX 57 86 62 87 58 88 59 89 61 90 63 91 60 92
REMARK H PARENT 8 25 80 54 54 65
REMARK Flexibility Score: inf
ROOT
ATOM      1  C   UNL A   1      41.197  21.217  27.332  1.00  0.00     0.188 C 
ENDROOT
BRANCH   1   2
ATOM      2  O   UNL A   1      40.122  22.029  26.917  1.00  0.00    -0.376 OA
BRANCH   2   3
ATOM      3  C   UNL A   1      39.122  21.523  26.047  1.00  0.00     0.202 C 
BRANCH   3   4
ATOM      4  C   UNL A   1      37.867  22.295  25.603  1.00  0.00     0.261 C 
BRANCH   4   5
ATOM      5  O   UNL A   1      36.604  21.771  26.028  1.00  0.00    -0.460 OA
BRANCH   5   6
ATOM      6  C   UNL A   1      36.002  20.937  25.143  1.00  0.00     0.338 C 
ATOM      7  O   UNL A   1      36.437  19.873  24.731  1.00  0.00    -0.246 OA
BRANCH   6   8
ATOM      8  C   UNL A   1      34.605  21.366  24.904  1.00  0.00     0.062 A 
ATOM      9  C   UNL A   1      32.848  23.035  24.813  1.00  0.00     0.065 A 
ATOM     10  C   UNL A   1      31.955  22.030  24.409  1.00  0.00     0.028 A 
ATOM     11  C   UNL A   1      34.186  22.695  25.046  1.00  0.00     0.044 A 
ATOM     12  C   UNL A   1      32.358  20.697  24.315  1.00  0.00     0.003 A 
ATOM     13  C   UNL A   1      33.686  20.365  24.557  1.00  0.00     0.016 A 
BRANCH   9  14
ATOM     14  N   UNL A   1      32.460  24.383  24.884  1.00  0.00    -0.248 NA
ATOM     15  C   UNL A   1      31.509  28.489  25.451  1.00  0.00     0.120 A 
ATOM     16  C   UNL A   1      31.513  29.331  24.342  1.00  0.00     0.048 A 
ATOM     17  C   UNL A   1      31.769  27.126  25.307  1.00  0.00     0.059 A 
ATOM     18  C   UNL A   1      31.728  28.807  23.069  1.00  0.00     0.030 A 
ATOM     19  C   UNL A   1      31.994  26.596  24.027  1.00  0.00     0.027 A 
ATOM     20  C   UNL A   1      31.974  27.440  22.901  1.00  0.00     0.048 A 
ATOM     21  C   UNL A   1      32.312  25.136  23.831  1.00  0.00     0.075 A 
ATOM     22  N   UNL A   1      32.220  26.930  21.623  1.00  0.00    -0.359 N 
ATOM     23  C   UNL A   1      32.450  24.694  22.400  1.00  0.00     0.050 A 
ATOM     24  C   UNL A   1      32.429  25.592  21.402  1.00  0.00     0.014 A 
ATOM     25  H   UNL A   1      32.243  27.550  20.858  1.00  0.00     0.166 HD
ATOM     26  C   UNL A   1      32.647  25.175  19.973  1.00  0.00     0.064 C 
BRANCH  15  27
ATOM     27  O   UNL A   1      31.392  29.019  26.707  1.00  0.00    -0.494 OA
BRANCH  27  28
ATOM     28  C   UNL A   1      32.375  28.519  27.623  1.00  0.00     0.226 C 
ATOM     29  C   UNL A   1      33.793  28.679  27.091  1.00  0.00     0.049 C 
ENDBRANCH  27  28
ENDBRANCH  15  27
ENDBRANCH   9  14
ENDBRANCH   6   8
ENDBRANCH   5   6
ENDBRANCH   4   5
ENDBRANCH   3   4
ENDBRANCH   2   3
ENDBRANCH   1   2
BRANCH   1  30
ATOM     30  C   UNL A   1      41.996  20.413  26.286  1.00  0.00     0.188 C 
BRANCH  30  31
ATOM     31  O   UNL A   1      43.400  20.528  26.202  1.00  0.00    -0.376 OA
BRANCH  31  32
ATOM     32  C   UNL A   1      44.016  20.934  24.993  1.00  0.00     0.202 C 
BRANCH  32  33
ATOM     33  C   UNL A   1      44.563  22.349  24.748  1.00  0.00     0.261 C 
BRANCH  33  34
ATOM     34  O   UNL A   1      43.769  23.436  25.236  1.00  0.00    -0.460 OA
BRANCH  34  35
ATOM     35  C   UNL A   1      44.418  24.619  25.366  1.00  0.00     0.338 C 
ATOM     36  O   UNL A   1      45.285  25.080  24.639  1.00  0.00    -0.246 OA
BRANCH  35  37
ATOM     37  C   UNL A   1      43.777  25.388  26.447  1.00  0.00     0.060 A 
ATOM     38  C   UNL A   1      42.739  24.825  27.188  1.00  0.00     0.016 A 
ATOM     39  C   UNL A   1      44.224  26.688  26.715  1.00  0.00     0.016 A 
ATOM     40  C   UNL A   1      42.151  25.569  28.211  1.00  0.00     0.010 A 
ATOM     41  C   UNL A   1      43.624  27.437  27.729  1.00  0.00     0.010 A 
ATOM     42  C   UNL A   1      42.593  26.875  28.494  1.00  0.00    -0.014 A 
BRANCH  42  43
ATOM     43  C   UNL A   1      42.053  27.591  29.675  1.00  0.00     0.031 A 
ATOM     44  C   UNL A   1      42.688  27.478  31.027  1.00  0.00     0.074 A 
ATOM     45  C   UNL A   1      40.967  28.367  29.505  1.00  0.00     0.049 A 
ATOM     46  N   UNL A   1      42.402  28.131  32.126  1.00  0.00    -0.248 NA
ATOM     47  C   UNL A   1      43.778  26.504  31.168  1.00  0.00     0.031 C 
ATOM     48  C   UNL A   1      40.239  28.527  28.245  1.00  0.00     0.029 A 
ATOM     49  N   UNL A   1      40.296  29.176  30.385  1.00  0.00    -0.354 N 
ATOM     50  C   UNL A   1      43.295  27.670  33.085  1.00  0.00     0.074 A 
ATOM     51  C   UNL A   1      44.091  26.638  32.451  1.00  0.00     0.031 C 
ATOM     52  C   UNL A   1      39.244  29.408  28.424  1.00  0.00     0.029 A 
ATOM     53  C   UNL A   1      39.249  29.856  29.813  1.00  0.00     0.049 A 
ATOM     54  H   UNL A   1      40.542  29.261  31.335  1.00  0.00     0.167 HD
ATOM     55  C   UNL A   1      43.448  28.087  34.368  1.00  0.00     0.037 A 
ATOM     56  C   UNL A   1      38.395  30.747  30.348  1.00  0.00     0.037 A 
ATOM     57  C   UNL A   1      42.629  29.091  35.004  1.00  0.00     0.049 A 
ATOM     58  C   UNL A   1      38.549  31.142  31.789  1.00  0.00     0.074 A 
ATOM     59  C   UNL A   1      42.726  29.599  36.289  1.00  0.00     0.029 A 
ATOM     60  N   UNL A   1      41.546  29.725  34.411  1.00  0.00    -0.354 N 
ATOM     61  N   UNL A   1      39.453  30.768  32.661  1.00  0.00    -0.248 NA
ATOM     62  C   UNL A   1      37.564  32.098  32.317  1.00  0.00     0.031 C 
ATOM     63  C   UNL A   1      41.669  30.494  36.492  1.00  0.00     0.029 A 
ATOM     64  C   UNL A   1      40.948  30.593  35.313  1.00  0.00     0.049 A 
ATOM     65  H   UNL A   1      41.246  29.579  33.484  1.00  0.00     0.167 HD
ATOM     66  C   UNL A   1      39.167  31.464  33.829  1.00  0.00     0.074 A 
ATOM     67  C   UNL A   1      38.016  32.298  33.546  1.00  0.00     0.031 C 
ATOM     68  C   UNL A   1      39.799  31.417  35.028  1.00  0.00     0.037 A 
BRANCH  55  69
ATOM     69  C   UNL A   1      44.545  27.448  35.172  1.00  0.00     0.057 A 
ATOM     70  C   UNL A   1      45.843  27.972  35.166  1.00  0.00     0.134 A 
ATOM     71  C   UNL A   1      44.323  26.289  35.928  1.00  0.00     0.134 A 
ATOM     72  F   UNL A   1      46.132  29.071  34.452  1.00  0.00    -0.206 F 
ATOM     73  C   UNL A   1      46.878  27.373  35.887  1.00  0.00     0.040 A 
ATOM     74  C   UNL A   1      45.342  25.696  36.678  1.00  0.00     0.040 A 
ATOM     75  F   UNL A   1      43.103  25.734  35.980  1.00  0.00    -0.206 F 
ATOM     76  C   UNL A   1      46.627  26.238  36.655  1.00  0.00     0.006 A 
ENDBRANCH  55  69
BRANCH  56  77
ATOM     77  C   UNL A   1      37.329  31.351  29.511  1.00  0.00     0.057 A 
ATOM     78  C   UNL A   1      36.125  30.680  29.268  1.00  0.00     0.134 A 
ATOM     79  C   UNL A   1      37.479  32.629  28.961  1.00  0.00     0.134 A 
ATOM     80  F   UNL A   1      35.924  29.448  29.760  1.00  0.00    -0.206 F 
ATOM     81  C   UNL A   1      35.105  31.259  28.512  1.00  0.00     0.040 A 
ATOM     82  C   UNL A   1      36.456  33.233  28.228  1.00  0.00     0.040 A 
ATOM     83  F   UNL A   1      38.604  33.328  29.172  1.00  0.00    -0.206 F 
ATOM     84  C   UNL A   1      35.265  32.545  27.999  1.00  0.00     0.006 A 
ENDBRANCH  56  77
BRANCH  68  85
ATOM     85  C   UNL A   1      39.277  32.320  36.109  1.00  0.00     0.057 A 
ATOM     86  C   UNL A   1      39.781  33.619  36.259  1.00  0.00     0.134 A 
ATOM     87  C   UNL A   1      38.276  31.914  37.002  1.00  0.00     0.134 A 
ATOM     88  F   UNL A   1      40.746  34.074  35.445  1.00  0.00    -0.206 F 
ATOM     89  C   UNL A   1      39.305  34.480  37.250  1.00  0.00     0.040 A 
ATOM     90  C   UNL A   1      37.769  32.776  37.976  1.00  0.00     0.040 A 
ATOM     91  F   UNL A   1      37.736  30.689  36.906  1.00  0.00    -0.206 F 
ATOM     92  C   UNL A   1      38.287  34.063  38.105  1.00  0.00     0.006 A 
ENDBRANCH  68  85
ENDBRANCH  42  43
ENDBRANCH  35  37
ENDBRANCH  34  35
ENDBRANCH  33  34
ENDBRANCH  32  33
ENDBRANCH  31  32
ENDBRANCH  30  31
ENDBRANCH   1  30
TORSDOF 20
ENDMDL
MODEL 2
REMARK VINA RESULT:     -10.8      2.496      8.846
REMARK SMILES CCOc1ccc2[nH]c(C)c/c(=N\c3cccc(C(=O)OCCOCCOCCOC(=O)c4ccc(-c5c6nc(c(-c7c(F)cccc7F)c7ccc([nH]7)c(-c7c(F)cccc7F)c7nc(c(-c8c(F)cccc8F)c8ccc5[nH]8)C=C7)C=C6)cc4)c3)c2c1
REMARK SMILES IDX 25 1 24 2 23 3 22 4 21 5 19 6 20 7 18 8 14 9 15 10 87 11
REMARK SMILES IDX 16 12 17 13 13 14 4 15 5 16 89 17 6 18 88 19 7 20 12 21 8 22
REMARK SMILES IDX 11 23 9 24 10 26 3 27 2 28 1 29 26 30 27 31 28 32 29 33
REMARK SMILES IDX 30 34 31 35 32 36 33 37 34 38 86 39 35 40 85 41 36 42 37 43
REMARK SMILES IDX 38 44 79 45 39 46 84 47 78 48 80 49 40 50 83 51 77 52 76 53
REMARK SMILES IDX 41 55 67 56 50 57 66 58 51 59 54 60 65 61 81 62 52 63 53 64
REMARK SMILES IDX 64 66 82 67 55 68 42 69 43 70 48 71 44 72 45 73 47 74 49 75
REMARK SMILES IDX 46 76 68 77 69 78 74 79 70 80 71 81 73 82 75 83 72 84 56 85
REMARK SMILES IDX 57 86 62 87 58 88 59 89 61 90 63 91 60 92
REMARK H PARENT 8 25 80 54 54 65
REMARK Flexibility Score: inf
ROOT
ATOM      1  C   UNL A   1      30.242  25.738  25.484  1.00  0.00     0.188 C 
ENDROOT
BRANCH   1   2
ATOM      2  O   UNL A   1      30.998  24.629  25.053  1.00  0.00    -0.376 OA
BRANCH   2   3
ATOM      3  C   UNL A   1      30.636  23.311  25.433  1.00  0.00     0.202 C 
BRANCH   3   4
ATOM      4  C   UNL A   1      31.631  22.187  25.773  1.00  0.00     0.261 C 
BRANCH   4   5
ATOM      5  O   UNL A   1      32.050  21.348  24.691  1.00  0.00    -0.460 OA
BRANCH   5   6
ATOM      6  C   UNL A   1      33.109  20.544  24.965  1.00  0.00     0.338 C 
ATOM      7  O   UNL A   1      33.067  19.370  25.295  1.00  0.00    -0.246 OA
BRANCH   6   8
ATOM      8  C   UNL A   1      34.373  21.212  24.578  1.00  0.00     0.062 A 
ATOM      9  C   UNL A   1      36.772  21.532  24.721  1.00  0.00     0.065 A 
ATOM     10  C   UNL A   1      36.666  22.540  23.749  1.00  0.00     0.028 A 
ATOM     11  C   UNL A   1      35.614  20.856  25.123  1.00  0.00     0.044 A 
ATOM     12  C   UNL A   1      35.426  22.929  23.242  1.00  0.00     0.003 A 
ATOM     13  C   UNL A   1      34.279  22.260  23.652  1.00  0.00     0.016 A 
BRANCH   9  14
ATOM     14  N   UNL A   1      38.018  21.114  25.218  1.00  0.00    -0.248 NA
ATOM     15  C   UNL A   1      41.840  19.640  26.359  1.00  0.00     0.120 A 
ATOM     16  C   UNL A   1      42.716  20.501  27.016  1.00  0.00     0.048 A 
ATOM     17  C   UNL A   1      40.559  20.064  26.007  1.00  0.00     0.059 A 
ATOM     18  C   UNL A   1      42.298  21.782  27.371  1.00  0.00     0.030 A 
ATOM     19  C   UNL A   1      40.137  21.356  26.356  1.00  0.00     0.027 A 
ATOM     20  C   UNL A   1      41.011  22.221  27.042  1.00  0.00     0.048 A 
ATOM     21  C   UNL A   1      38.775  21.866  25.965  1.00  0.00     0.075 A 
ATOM     22  N   UNL A   1      40.613  23.519  27.375  1.00  0.00    -0.359 N 
ATOM     23  C   UNL A   1      38.430  23.238  26.475  1.00  0.00     0.050 A 
ATOM     24  C   UNL A   1      39.351  23.984  27.107  1.00  0.00     0.014 A 
ATOM     25  H   UNL A   1      41.260  24.118  27.816  1.00  0.00     0.166 HD
ATOM     26  C   UNL A   1      39.046  25.389  27.552  1.00  0.00     0.064 C 
BRANCH  15  27
ATOM     27  O   UNL A   1      42.282  18.419  25.928  1.00  0.00    -0.494 OA
BRANCH  27  28
ATOM     28  C   UNL A   1      43.710  18.346  25.812  1.00  0.00     0.226 C 
ATOM     29  C   UNL A   1      44.216  18.978  24.524  1.00  0.00     0.049 C 
ENDBRANCH  27  28
ENDBRANCH  15  27
ENDBRANCH   9  14
ENDBRANCH   6   8
ENDBRANCH   5   6
ENDBRANCH   4   5
ENDBRANCH   3   4
ENDBRANCH   2   3
ENDBRANCH   1   2
BRANCH   1  30
ATOM     30  C   UNL A   1      30.892  27.136  25.525  1.00  0.00     0.188 C 
BRANCH  30  31
ATOM     31  O   UNL A   1      30.953  27.941  24.368  1.00  0.00    -0.376 OA
BRANCH  31  32
ATOM     32  C   UNL A   1      31.466  29.259  24.437  1.00  0.00     0.202 C 
BRANCH  32  33
ATOM     33  C   UNL A   1      32.900  29.594  24.876  1.00  0.00     0.261 C 
BRANCH  33  34
ATOM     34  O   UNL A   1      33.163  29.561  26.283  1.00  0.00    -0.460 OA
BRANCH  34  35
ATOM     35  C   UNL A   1      33.374  30.768  26.864  1.00  0.00     0.338 C 
ATOM     36  O   UNL A   1      32.628  31.733  26.875  1.00  0.00    -0.246 OA
BRANCH  35  37
ATOM     37  C   UNL A   1      34.604  30.688  27.671  1.00  0.00     0.060 A 
ATOM     38  C   UNL A   1      34.992  29.477  28.243  1.00  0.00     0.016 A 
ATOM     39  C   UNL A   1      35.374  31.845  27.856  1.00  0.00     0.016 A 
ATOM     40  C   UNL A   1      36.163  29.424  28.998  1.00  0.00     0.010 A 
ATOM     41  C   UNL A   1      36.537  31.793  28.625  1.00  0.00     0.010 A 
ATOM     42  C   UNL A   1      36.948  30.577  29.189  1.00  0.00    -0.014 A 
BRANCH  42  43
ATOM     43  C   UNL A   1      38.259  30.466  29.872  1.00  0.00     0.031 A 
ATOM     44  C   UNL A   1      38.484  31.019  31.246  1.00  0.00     0.074 A 
ATOM     45  C   UNL A   1      39.260  29.839  29.226  1.00  0.00     0.049 A 
ATOM     46  N   UNL A   1      39.536  30.898  32.017  1.00  0.00    -0.248 NA
ATOM     47  C   UNL A   1      37.396  31.813  31.827  1.00  0.00     0.031 C 
ATOM     48  C   UNL A   1      39.172  29.294  27.870  1.00  0.00     0.029 A 
ATOM     49  N   UNL A   1      40.537  29.543  29.625  1.00  0.00    -0.354 N 
ATOM     50  C   UNL A   1      39.228  31.576  33.189  1.00  0.00     0.074 A 
ATOM     51  C   UNL A   1      37.913  32.156  33.000  1.00  0.00     0.031 C 
ATOM     52  C   UNL A   1      40.334  28.697  27.563  1.00  0.00     0.029 A 
ATOM     53  C   UNL A   1      41.253  28.839  28.688  1.00  0.00     0.049 A 
ATOM     54  H   UNL A   1      40.905  29.808  30.499  1.00  0.00     0.167 HD
ATOM     55  C   UNL A   1      39.966  31.684  34.323  1.00  0.00     0.037 A 
ATOM     56  C   UNL A   1      42.508  28.355  28.735  1.00  0.00     0.037 A 
ATOM     57  C   UNL A   1      41.289  31.134  34.491  1.00  0.00     0.049 A 
ATOM     58  C   UNL A   1      43.325  28.546  29.981  1.00  0.00     0.074 A 
ATOM     59  C   UNL A   1      42.103  31.167  35.613  1.00  0.00     0.029 A 
ATOM     60  N   UNL A   1      42.005  30.468  33.506  1.00  0.00    -0.354 N 
ATOM     61  N   UNL A   1      42.990  29.110  31.116  1.00  0.00    -0.248 NA
ATOM     62  C   UNL A   1      44.697  28.019  29.954  1.00  0.00     0.031 C 
ATOM     63  C   UNL A   1      43.330  30.576  35.286  1.00  0.00     0.029 A 
ATOM     64  C   UNL A   1      43.260  30.117  33.982  1.00  0.00     0.049 A 
ATOM     65  H   UNL A   1      41.669  30.274  32.600  1.00  0.00     0.167 HD
ATOM     66  C   UNL A   1      44.096  28.978  31.947  1.00  0.00     0.074 A 
ATOM     67  C   UNL A   1      45.103  28.262  31.191  1.00  0.00     0.031 C 
ATOM     68  C   UNL A   1      44.261  29.409  33.222  1.00  0.00     0.037 A 
BRANCH  55  69
ATOM     69  C   UNL A   1      39.354  32.436  35.472  1.00  0.00     0.057 A 
ATOM     70  C   UNL A   1      38.482  31.802  36.366  1.00  0.00     0.134 A 
ATOM     71  C   UNL A   1      39.604  33.800  35.674  1.00  0.00     0.134 A 
ATOM     72  F   UNL A   1      38.187  30.502  36.224  1.00  0.00    -0.206 F 
ATOM     73  C   UNL A   1      37.886  32.495  37.422  1.00  0.00     0.040 A 
ATOM     74  C   UNL A   1      39.037  34.498  36.744  1.00  0.00     0.040 A 
ATOM     75  F   UNL A   1      40.431  34.469  34.857  1.00  0.00    -0.206 F 
ATOM     76  C   UNL A   1      38.172  33.845  37.620  1.00  0.00     0.006 A 
ENDBRANCH  55  69
BRANCH  56  77
ATOM     77  C   UNL A   1      43.065  27.619  27.573  1.00  0.00     0.057 A 
ATOM     78  C   UNL A   1      43.665  28.292  26.503  1.00  0.00     0.134 A 
ATOM     79  C   UNL A   1      43.038  26.220  27.524  1.00  0.00     0.134 A 
ATOM     80  F   UNL A   1      43.714  29.632  26.486  1.00  0.00    -0.206 F 
ATOM     81  C   UNL A   1      44.222  27.602  25.426  1.00  0.00     0.040 A 
ATOM     82  C   UNL A   1      43.619  25.516  26.468  1.00  0.00     0.040 A 
ATOM     83  F   UNL A   1      42.491  25.519  28.528  1.00  0.00    -0.206 F 
ATOM     84  C   UNL A   1      44.211  26.208  25.413  1.00  0.00     0.006 A 
ENDBRANCH  56  77
BRANCH  68  85
ATOM     85  C   UNL A   1      45.570  29.086  33.886  1.00  0.00     0.057 A 
ATOM     86  C   UNL A   1      46.651  29.975  33.803  1.00  0.00     0.134 A 
ATOM     87  C   UNL A   1      45.767  27.903  34.611  1.00  0.00     0.134 A 
ATOM     88  F   UNL A   1      46.537  31.124  33.120  1.00  0.00    -0.206 F 
ATOM     89  C   UNL A   1      47.873  29.701  34.419  1.00  0.00     0.040 A 
ATOM     90  C   UNL A   1      46.975  27.633  35.259  1.00  0.00     0.040 A 
ATOM     91  F   UNL A   1      44.771  27.015  34.746  1.00  0.00    -0.206 F 
ATOM     92  C   UNL A   1      48.034  28.533  35.160  1.00  0.00     0.006 A 
ENDBRANCH  68  85
ENDBRANCH  42  43
ENDBRANCH  35  37
ENDBRANCH  34  35
ENDBRANCH  33  34
ENDBRANCH  32  33
ENDBRANCH  31  32
ENDBRANCH  30  31
ENDBRANCH   1  30
TORSDOF 20
ENDMDL
MODEL 3
REMARK VINA RESULT:     -10.7      4.910     10.258
REMARK SMILES CCOc1ccc2[nH]c(C)c/c(=N\c3cccc(C(=O)OCCOCCOCCOC(=O)c4ccc(-c5c6nc(c(-c7c(F)cccc7F)c7ccc([nH]7)c(-c7c(F)cccc7F)c7nc(c(-c8c(F)cccc8F)c8ccc5[nH]8)C=C7)C=C6)cc4)c3)c2c1
REMARK SMILES IDX 25 1 24 2 23 3 22 4 21 5 19 6 20 7 18 8 14 9 15 10 87 11
REMARK SMILES IDX 16 12 17 13 13 14 4 15 5 16 89 17 6 18 88 19 7 20 12 21 8 22
REMARK SMILES IDX 11 23 9 24 10 26 3 27 2 28 1 29 26 30 27 31 28 32 29 33
REMARK SMILES IDX 30 34 31 35 32 36 33 37 34 38 86 39 35 40 85 41 36 42 37 43
REMARK SMILES IDX 38 44 79 45 39 46 84 47 78 48 80 49 40 50 83 51 77 52 76 53
REMARK SMILES IDX 41 55 67 56 50 57 66 58 51 59 54 60 65 61 81 62 52 63 53 64
REMARK SMILES IDX 64 66 82 67 55 68 42 69 43 70 48 71 44 72 45 73 47 74 49 75
REMARK SMILES IDX 46 76 68 77 69 78 74 79 70 80 71 81 73 82 75 83 72 84 56 85
REMARK SMILES IDX 57 86 62 87 58 88 59 89 61 90 63 91 60 92
REMARK H PARENT 8 25 80 54 54 65
REMARK Flexibility Score: inf
ROOT
ATOM      1  C   UNL A   1      32.233  29.120  26.945  1.00  0.00     0.188 C 
ENDROOT
BRANCH   1   2
ATOM      2  O   UNL A   1      31.893  28.758  25.625  1.00  0.00    -0.376 OA
BRANCH   2   3
ATOM      3  C   UNL A   1      32.538  29.363  24.516  1.00  0.00     0.202 C 
BRANCH   3   4
ATOM      4  C   UNL A   1      32.652  28.739  23.115  1.00  0.00     0.261 C 
BRANCH   4   5
ATOM      5  O   UNL A   1      32.772  27.314  23.052  1.00  0.00    -0.460 OA
BRANCH   5   6
ATOM      6  C   UNL A   1      31.620  26.653  22.773  1.00  0.00     0.338 C 
ATOM      7  O   UNL A   1      30.987  26.698  21.730  1.00  0.00    -0.246 OA
BRANCH   6   8
ATOM      8  C   UNL A   1      31.333  25.655  23.829  1.00  0.00     0.062 A 
ATOM      9  C   UNL A   1      31.545  23.457  24.832  1.00  0.00     0.065 A 
ATOM     10  C   UNL A   1      30.723  23.891  25.885  1.00  0.00     0.028 A 
ATOM     11  C   UNL A   1      31.861  24.357  23.807  1.00  0.00     0.044 A 
ATOM     12  C   UNL A   1      30.157  25.167  25.883  1.00  0.00     0.003 A 
ATOM     13  C   UNL A   1      30.467  26.051  24.858  1.00  0.00     0.016 A 
BRANCH   9  14
ATOM     14  N   UNL A   1      32.143  22.186  24.838  1.00  0.00    -0.248 NA
ATOM     15  C   UNL A   1      33.672  18.228  24.562  1.00  0.00     0.120 A 
ATOM     16  C   UNL A   1      35.052  18.046  24.577  1.00  0.00     0.048 A 
ATOM     17  C   UNL A   1      33.123  19.503  24.697  1.00  0.00     0.059 A 
ATOM     18  C   UNL A   1      35.897  19.136  24.777  1.00  0.00     0.030 A 
ATOM     19  C   UNL A   1      33.971  20.604  24.891  1.00  0.00     0.027 A 
ATOM     20  C   UNL A   1      35.366  20.421  24.931  1.00  0.00     0.048 A 
ATOM     21  C   UNL A   1      33.422  22.002  25.006  1.00  0.00     0.075 A 
ATOM     22  N   UNL A   1      36.224  21.512  25.099  1.00  0.00    -0.359 N 
ATOM     23  C   UNL A   1      34.439  23.072  25.291  1.00  0.00     0.050 A 
ATOM     24  C   UNL A   1      35.751  22.785  25.291  1.00  0.00     0.014 A 
ATOM     25  H   UNL A   1      37.196  21.361  25.079  1.00  0.00     0.166 HD
ATOM     26  C   UNL A   1      36.784  23.860  25.495  1.00  0.00     0.064 C 
BRANCH  15  27
ATOM     27  O   UNL A   1      32.850  17.173  24.272  1.00  0.00    -0.494 OA
BRANCH  27  28
ATOM     28  C   UNL A   1      33.408  15.905  24.644  1.00  0.00     0.226 C 
ATOM     29  C   UNL A   1      32.449  15.079  25.489  1.00  0.00     0.049 C 
ENDBRANCH  27  28
ENDBRANCH  15  27
ENDBRANCH   9  14
ENDBRANCH   6   8
ENDBRANCH   5   6
ENDBRANCH   4   5
ENDBRANCH   3   4
ENDBRANCH   2   3
ENDBRANCH   1   2
BRANCH   1  30
ATOM     30  C   UNL A   1      33.376  30.125  27.192  1.00  0.00     0.188 C 
BRANCH  30  31
ATOM     31  O   UNL A   1      33.100  31.475  27.496  1.00  0.00    -0.376 OA
BRANCH  31  32
ATOM     32  C   UNL A   1      34.135  32.336  27.940  1.00  0.00     0.202 C 
BRANCH  32  33
ATOM     33  C   UNL A   1      34.925  32.119  29.240  1.00  0.00     0.261 C 
BRANCH  33  34
ATOM     34  O   UNL A   1      35.639  30.883  29.357  1.00  0.00    -0.460 OA
BRANCH  34  35
ATOM     35  C   UNL A   1      36.387  30.748  30.479  1.00  0.00     0.338 C 
ATOM     36  O   UNL A   1      36.039  30.922  31.635  1.00  0.00    -0.246 OA
BRANCH  35  37
ATOM     37  C   UNL A   1      37.685  30.158  30.105  1.00  0.00     0.060 A 
ATOM     38  C   UNL A   1      38.075  30.109  28.768  1.00  0.00     0.016 A 
ATOM     39  C   UNL A   1      38.515  29.647  31.112  1.00  0.00     0.016 A 
ATOM     40  C   UNL A   1      39.311  29.551  28.439  1.00  0.00     0.010 A 
ATOM     41  C   UNL A   1      39.744  29.075  30.779  1.00  0.00     0.010 A 
ATOM     42  C   UNL A   1      40.157  29.038  29.440  1.00  0.00    -0.014 A 
BRANCH  42  43
ATOM     43  C   UNL A   1      41.522  28.583  29.083  1.00  0.00     0.031 A 
ATOM     44  C   UNL A   1      41.798  27.177  28.646  1.00  0.00     0.074 A 
ATOM     45  C   UNL A   1      42.526  29.477  29.150  1.00  0.00     0.049 A 
ATOM     46  N   UNL A   1      42.913  26.662  28.192  1.00  0.00    -0.248 NA
ATOM     47  C   UNL A   1      40.684  26.225  28.736  1.00  0.00     0.031 C 
ATOM     48  C   UNL A   1      42.387  30.864  29.597  1.00  0.00     0.029 A 
ATOM     49  N   UNL A   1      43.854  29.358  28.830  1.00  0.00    -0.354 N 
ATOM     50  C   UNL A   1      42.632  25.331  27.913  1.00  0.00     0.074 A 
ATOM     51  C   UNL A   1      41.255  25.106  28.307  1.00  0.00     0.031 C 
ATOM     52  C   UNL A   1      43.575  31.478  29.490  1.00  0.00     0.029 A 
ATOM     53  C   UNL A   1      44.560  30.525  28.990  1.00  0.00     0.049 A 
ATOM     54  H   UNL A   1      44.261  28.519  28.516  1.00  0.00     0.167 HD
ATOM     55  C   UNL A   1      43.442  24.394  27.359  1.00  0.00     0.037 A 
ATOM     56  C   UNL A   1      45.857  30.797  28.753  1.00  0.00     0.037 A 
ATOM     57  C   UNL A   1      44.822  24.615  27.002  1.00  0.00     0.049 A 
ATOM     58  C   UNL A   1      46.746  29.719  28.199  1.00  0.00     0.074 A 
ATOM     59  C   UNL A   1      45.714  23.735  26.410  1.00  0.00     0.029 A 
ATOM     60  N   UNL A   1      45.521  25.794  27.222  1.00  0.00    -0.354 N 
ATOM     61  N   UNL A   1      46.446  28.491  27.855  1.00  0.00    -0.248 NA
ATOM     62  C   UNL A   1      48.157  30.075  27.992  1.00  0.00     0.031 C 
ATOM     63  C   UNL A   1      46.964  24.361  26.327  1.00  0.00     0.029 A 
ATOM     64  C   UNL A   1      46.838  25.653  26.809  1.00  0.00     0.049 A 
ATOM     65  H   UNL A   1      45.137  26.611  27.615  1.00  0.00     0.167 HD
ATOM     66  C   UNL A   1      47.621  27.937  27.360  1.00  0.00     0.074 A 
ATOM     67  C   UNL A   1      48.632  28.972  27.432  1.00  0.00     0.031 C 
ATOM     68  C   UNL A   1      47.842  26.685  26.888  1.00  0.00     0.037 A 
BRANCH  55  69
ATOM     69  C   UNL A   1      42.850  23.034  27.112  1.00  0.00     0.057 A 
ATOM     70  C   UNL A   1      42.484  22.630  25.823  1.00  0.00     0.134 A 
ATOM     71  C   UNL A   1      42.612  22.134  28.160  1.00  0.00     0.134 A 
ATOM     72  F   UNL A   1      42.670  23.446  24.774  1.00  0.00    -0.206 F 
ATOM     73  C   UNL A   1      41.909  21.380  25.583  1.00  0.00     0.040 A 
ATOM     74  C   UNL A   1      42.065  20.870  27.930  1.00  0.00     0.040 A 
ATOM     75  F   UNL A   1      42.940  22.456  29.421  1.00  0.00    -0.206 F 
ATOM     76  C   UNL A   1      41.708  20.491  26.637  1.00  0.00     0.006 A 
ENDBRANCH  55  69
BRANCH  56  77
ATOM     77  C   UNL A   1      46.392  32.156  29.013  1.00  0.00     0.057 A 
ATOM     78  C   UNL A   1      47.039  32.467  30.214  1.00  0.00     0.134 A 
ATOM     79  C   UNL A   1      46.296  33.166  28.049  1.00  0.00     0.134 A 
ATOM     80  F   UNL A   1      47.155  31.545  31.181  1.00  0.00    -0.206 F 
ATOM     81  C   UNL A   1      47.575  33.734  30.447  1.00  0.00     0.040 A 
ATOM     82  C   UNL A   1      46.854  34.428  28.257  1.00  0.00     0.040 A 
ATOM     83  F   UNL A   1      45.701  32.923  26.872  1.00  0.00    -0.206 F 
ATOM     84  C   UNL A   1      47.494  34.716  29.461  1.00  0.00     0.006 A 
ENDBRANCH  56  77
BRANCH  68  85
ATOM     85  C   UNL A   1      49.225  26.382  26.383  1.00  0.00     0.057 A 
ATOM     86  C   UNL A   1      49.611  26.762  25.091  1.00  0.00     0.134 A 
ATOM     87  C   UNL A   1      50.178  25.719  27.169  1.00  0.00     0.134 A 
ATOM     88  F   UNL A   1      48.749  27.394  24.280  1.00  0.00    -0.206 F 
ATOM     89  C   UNL A   1      50.893  26.500  24.603  1.00  0.00     0.040 A 
ATOM     90  C   UNL A   1      51.473  25.480  26.704  1.00  0.00     0.040 A 
ATOM     91  F   UNL A   1      49.881  25.342  28.422  1.00  0.00    -0.206 F 
ATOM     92  C   UNL A   1      51.832  25.868  25.414  1.00  0.00     0.006 A 
ENDBRANCH  68  85
ENDBRANCH  42  43
ENDBRANCH  35  37
ENDBRANCH  34  35
ENDBRANCH  33  34
ENDBRANCH  32  33
ENDBRANCH  31  32
ENDBRANCH  30  31
ENDBRANCH   1  30
TORSDOF 20
ENDMDL
