MODEL 1
REMARK VINA RESULT:     -11.7      0.000      0.000
REMARK SMILES CC1(C)[C@H](C(=O)N(Cc2ccccc2)Cc2ccccc2)CC[C@@]1(C)C(=O)OCCOCCOCCOC(=O)c1ccc(-c2c3nc(c(-c4c(F)cccc4F)c4ccc([nH]4)c(-c4c(F)cccc4F)c4nc(c(-c5c(F)cccc5F)c5ccc2[nH]5)C=C4)C=C3)cc1
REMARK SMILES IDX 32 1 31 2 30 3 29 4 28 5 26 6 27 7 24 8 1 9 2 10 3 11 4 12
REMARK SMILES IDX 22 13 23 14 25 15 5 16 6 17 7 18 8 19 9 20 10 21 14 22 11 23
REMARK SMILES IDX 13 24 12 25 15 26 16 27 17 28 21 29 18 30 20 31 19 32 33 33
REMARK SMILES IDX 34 34 35 35 36 36 37 37 38 38 39 39 40 40 41 41 93 42 42 43
REMARK SMILES IDX 92 44 43 45 44 46 45 47 86 48 46 49 91 50 85 51 87 52 47 53
REMARK SMILES IDX 90 54 84 55 83 56 48 58 74 59 57 60 73 61 58 62 61 63 72 64
REMARK SMILES IDX 88 65 59 66 60 67 71 69 89 70 62 71 49 72 50 73 55 74 51 75
REMARK SMILES IDX 52 76 54 77 56 78 53 79 75 80 76 81 81 82 77 83 78 84 80 85
REMARK SMILES IDX 82 86 79 87 63 88 64 89 69 90 65 91 66 92 68 93 70 94 67 95
REMARK H PARENT 87 57 61 68
REMARK Flexibility Score: inf
ROOT
ATOM      1  C   UNL A   1      34.202  31.257  27.836  1.00  0.00     0.188 C 
ENDROOT
BRANCH   1   2
ATOM      2  O   UNL A   1      33.301  30.302  27.293  1.00  0.00    -0.376 OA
BRANCH   2   3
ATOM      3  C   UNL A   1      33.815  28.991  27.072  1.00  0.00     0.202 C 
BRANCH   3   4
ATOM      4  C   UNL A   1      33.248  28.205  25.883  1.00  0.00     0.261 C 
BRANCH   4   5
ATOM      5  O   UNL A   1      32.104  27.392  26.194  1.00  0.00    -0.463 OA
BRANCH   5   6
ATOM      6  C   UNL A   1      32.287  26.041  26.140  1.00  0.00     0.312 C 
ATOM      7  O   UNL A   1      33.308  25.463  26.492  1.00  0.00    -0.252 OA
BRANCH   6   8
ATOM      8  C   UNL A   1      31.075  25.325  25.513  1.00  0.00     0.071 C 
ATOM      9  C   UNL A   1      32.803  25.166  23.535  1.00  0.00     0.013 C 
ATOM     10  C   UNL A   1      31.534  24.570  24.200  1.00  0.00    -0.008 C 
ATOM     11  C   UNL A   1      30.467  24.666  23.118  1.00  0.00     0.013 C 
ATOM     12  C   UNL A   1      31.859  23.145  24.732  1.00  0.00     0.085 C 
ATOM     13  C   UNL A   1      30.969  22.866  25.932  1.00  0.00     0.015 C 
ATOM     14  C   UNL A   1      30.578  24.221  26.494  1.00  0.00     0.020 C 
ATOM     15  C   UNL A   1      29.887  26.298  25.339  1.00  0.00     0.024 C 
BRANCH  12  16
ATOM     16  C   UNL A   1      32.086  21.907  23.852  1.00  0.00     0.226 C 
ATOM     17  O   UNL A   1      31.757  22.033  22.661  1.00  0.00    -0.275 OA
ATOM     18  N   UNL A   1      32.647  20.711  24.283  1.00  0.00    -0.334 N 
BRANCH  18  19
ATOM     19  C   UNL A   1      33.753  20.624  25.253  1.00  0.00     0.155 C 
BRANCH  19  20
ATOM     20  C   UNL A   1      34.867  21.660  25.210  1.00  0.00    -0.029 A 
ATOM     21  C   UNL A   1      35.180  22.530  26.260  1.00  0.00     0.005 A 
ATOM     22  C   UNL A   1      35.581  21.820  24.006  1.00  0.00     0.005 A 
ATOM     23  C   UNL A   1      36.150  23.525  26.126  1.00  0.00     0.000 A 
ATOM     24  C   UNL A   1      36.539  22.830  23.859  1.00  0.00     0.000 A 
ATOM     25  C   UNL A   1      36.825  23.681  24.922  1.00  0.00     0.000 A 
ENDBRANCH  19  20
ENDBRANCH  18  19
BRANCH  18  26
ATOM     26  C   UNL A   1      32.505  19.572  23.353  1.00  0.00     0.155 C 
BRANCH  26  27
ATOM     27  C   UNL A   1      32.900  18.233  23.956  1.00  0.00    -0.029 A 
ATOM     28  C   UNL A   1      33.785  17.389  23.267  1.00  0.00     0.005 A 
ATOM     29  C   UNL A   1      32.413  17.803  25.200  1.00  0.00     0.005 A 
ATOM     30  C   UNL A   1      34.233  16.198  23.844  1.00  0.00     0.000 A 
ATOM     31  C   UNL A   1      32.856  16.611  25.776  1.00  0.00     0.000 A 
ATOM     32  C   UNL A   1      33.777  15.816  25.104  1.00  0.00     0.000 A 
ENDBRANCH  26  27
ENDBRANCH  18  26
ENDBRANCH  12  16
ENDBRANCH   6   8
ENDBRANCH   5   6
ENDBRANCH   4   5
ENDBRANCH   3   4
ENDBRANCH   2   3
ENDBRANCH   1   2
BRANCH   1  33
ATOM     33  C   UNL A   1      33.685  32.686  28.012  1.00  0.00     0.188 C 
BRANCH  33  34
ATOM     34  O   UNL A   1      34.515  33.579  28.748  1.00  0.00    -0.376 OA
BRANCH  34  35
ATOM     35  C   UNL A   1      33.850  34.314  29.787  1.00  0.00     0.202 C 
BRANCH  35  36
ATOM     36  C   UNL A   1      34.291  34.002  31.233  1.00  0.00     0.261 C 
BRANCH  36  37
ATOM     37  O   UNL A   1      34.582  32.606  31.475  1.00  0.00    -0.460 OA
BRANCH  37  38
ATOM     38  C   UNL A   1      35.556  32.326  32.373  1.00  0.00     0.338 C 
ATOM     39  O   UNL A   1      35.474  32.444  33.586  1.00  0.00    -0.246 OA
BRANCH  38  40
ATOM     40  C   UNL A   1      36.654  31.593  31.681  1.00  0.00     0.060 A 
ATOM     41  C   UNL A   1      37.624  30.962  32.475  1.00  0.00     0.016 A 
ATOM     42  C   UNL A   1      36.695  31.437  30.291  1.00  0.00     0.016 A 
ATOM     43  C   UNL A   1      38.660  30.232  31.883  1.00  0.00     0.010 A 
ATOM     44  C   UNL A   1      37.738  30.711  29.698  1.00  0.00     0.010 A 
ATOM     45  C   UNL A   1      38.748  30.135  30.488  1.00  0.00    -0.014 A 
BRANCH  45  46
ATOM     46  C   UNL A   1      39.994  29.614  29.862  1.00  0.00     0.031 A 
ATOM     47  C   UNL A   1      41.162  30.553  29.706  1.00  0.00     0.074 A 
ATOM     48  C   UNL A   1      40.126  28.332  29.473  1.00  0.00     0.049 A 
ATOM     49  N   UNL A   1      42.347  30.336  29.192  1.00  0.00    -0.248 NA
ATOM     50  C   UNL A   1      40.964  31.926  30.199  1.00  0.00     0.031 C 
ATOM     51  C   UNL A   1      39.104  27.297  29.592  1.00  0.00     0.029 A 
ATOM     52  N   UNL A   1      41.192  27.687  28.890  1.00  0.00    -0.354 N 
ATOM     53  C   UNL A   1      43.032  31.538  29.302  1.00  0.00     0.074 A 
ATOM     54  C   UNL A   1      42.123  32.491  29.901  1.00  0.00     0.031 C 
ATOM     55  C   UNL A   1      39.588  26.147  29.088  1.00  0.00     0.029 A 
ATOM     56  C   UNL A   1      40.945  26.369  28.589  1.00  0.00     0.049 A 
ATOM     57  H   UNL A   1      42.052  28.130  28.704  1.00  0.00     0.167 HD
ATOM     58  C   UNL A   1      44.308  31.828  28.949  1.00  0.00     0.037 A 
ATOM     59  C   UNL A   1      41.717  25.454  27.968  1.00  0.00     0.037 A 
ATOM     60  C   UNL A   1      45.225  30.895  28.351  1.00  0.00     0.049 A 
ATOM     61  C   UNL A   1      43.107  25.823  27.510  1.00  0.00     0.074 A 
ATOM     62  C   UNL A   1      46.543  31.103  27.981  1.00  0.00     0.029 A 
ATOM     63  N   UNL A   1      44.920  29.585  28.022  1.00  0.00    -0.354 N 
ATOM     64  N   UNL A   1      43.756  26.953  27.650  1.00  0.00    -0.248 NA
ATOM     65  C   UNL A   1      43.873  24.781  26.804  1.00  0.00     0.031 C 
ATOM     66  C   UNL A   1      47.019  29.932  27.381  1.00  0.00     0.029 A 
ATOM     67  C   UNL A   1      46.015  28.981  27.427  1.00  0.00     0.049 A 
ATOM     68  H   UNL A   1      44.053  29.148  28.189  1.00  0.00     0.167 HD
ATOM     69  C   UNL A   1      45.008  26.750  27.077  1.00  0.00     0.074 A 
ATOM     70  C   UNL A   1      45.036  25.384  26.601  1.00  0.00     0.031 C 
ATOM     71  C   UNL A   1      46.041  27.620  26.956  1.00  0.00     0.037 A 
BRANCH  58  72
ATOM     72  C   UNL A   1      44.781  33.231  29.182  1.00  0.00     0.057 A 
ATOM     73  C   UNL A   1      44.598  34.241  28.229  1.00  0.00     0.134 A 
ATOM     74  C   UNL A   1      45.400  33.581  30.389  1.00  0.00     0.134 A 
ATOM     75  F   UNL A   1      44.028  33.966  27.047  1.00  0.00    -0.206 F 
ATOM     76  C   UNL A   1      45.033  35.548  28.462  1.00  0.00     0.040 A 
ATOM     77  C   UNL A   1      45.816  34.889  30.641  1.00  0.00     0.040 A 
ATOM     78  F   UNL A   1      45.602  32.660  31.342  1.00  0.00    -0.206 F 
ATOM     79  C   UNL A   1      45.637  35.875  29.674  1.00  0.00     0.006 A 
ENDBRANCH  58  72
BRANCH  59  80
ATOM     80  C   UNL A   1      41.195  24.087  27.708  1.00  0.00     0.057 A 
ATOM     81  C   UNL A   1      41.691  22.974  28.399  1.00  0.00     0.134 A 
ATOM     82  C   UNL A   1      40.231  23.855  26.720  1.00  0.00     0.134 A 
ATOM     83  F   UNL A   1      42.642  23.127  29.331  1.00  0.00    -0.206 F 
ATOM     84  C   UNL A   1      41.262  21.679  28.102  1.00  0.00     0.040 A 
ATOM     85  C   UNL A   1      39.773  22.568  26.432  1.00  0.00     0.040 A 
ATOM     86  F   UNL A   1      39.724  24.877  26.015  1.00  0.00    -0.206 F 
ATOM     87  C   UNL A   1      40.296  21.474  27.119  1.00  0.00     0.006 A 
ENDBRANCH  59  80
BRANCH  71  88
ATOM     88  C   UNL A   1      47.303  27.118  26.311  1.00  0.00     0.057 A 
ATOM     89  C   UNL A   1      47.509  27.197  24.928  1.00  0.00     0.134 A 
ATOM     90  C   UNL A   1      48.338  26.580  27.088  1.00  0.00     0.134 A 
ATOM     91  F   UNL A   1      46.556  27.692  24.124  1.00  0.00    -0.206 F 
ATOM     92  C   UNL A   1      48.689  26.736  24.339  1.00  0.00     0.040 A 
ATOM     93  C   UNL A   1      49.533  26.141  26.512  1.00  0.00     0.040 A 
ATOM     94  F   UNL A   1      48.212  26.484  28.419  1.00  0.00    -0.206 F 
ATOM     95  C   UNL A   1      49.708  26.212  25.132  1.00  0.00     0.006 A 
ENDBRANCH  71  88
ENDBRANCH  45  46
ENDBRANCH  38  40
ENDBRANCH  37  38
ENDBRANCH  36  37
ENDBRANCH  35  36
ENDBRANCH  34  35
ENDBRANCH  33  34
ENDBRANCH   1  33
TORSDOF 22
ENDMDL
MODEL 2
REMARK VINA RESULT:     -11.4      3.412      9.090
REMARK SMILES CC1(C)[C@H](C(=O)N(Cc2ccccc2)Cc2ccccc2)CC[C@@]1(C)C(=O)OCCOCCOCCOC(=O)c1ccc(-c2c3nc(c(-c4c(F)cccc4F)c4ccc([nH]4)c(-c4c(F)cccc4F)c4nc(c(-c5c(F)cccc5F)c5ccc2[nH]5)C=C4)C=C3)cc1
REMARK SMILES IDX 32 1 31 2 30 3 29 4 28 5 26 6 27 7 24 8 1 9 2 10 3 11 4 12
REMARK SMILES IDX 22 13 23 14 25 15 5 16 6 17 7 18 8 19 9 20 10 21 14 22 11 23
REMARK SMILES IDX 13 24 12 25 15 26 16 27 17 28 21 29 18 30 20 31 19 32 33 33
REMARK SMILES IDX 34 34 35 35 36 36 37 37 38 38 39 39 40 40 41 41 93 42 42 43
REMARK SMILES IDX 92 44 43 45 44 46 45 47 86 48 46 49 91 50 85 51 87 52 47 53
REMARK SMILES IDX 90 54 84 55 83 56 48 58 74 59 57 60 73 61 58 62 61 63 72 64
REMARK SMILES IDX 88 65 59 66 60 67 71 69 89 70 62 71 49 72 50 73 55 74 51 75
REMARK SMILES IDX 52 76 54 77 56 78 53 79 75 80 76 81 81 82 77 83 78 84 80 85
REMARK SMILES IDX 82 86 79 87 63 88 64 89 69 90 65 91 66 92 68 93 70 94 67 95
REMARK H PARENT 87 57 61 68
REMARK Flexibility Score: inf
ROOT
ATOM      1  C   UNL A   1      40.633  21.221  26.520  1.00  0.00     0.188 C 
ENDROOT
BRANCH   1   2
ATOM      2  O   UNL A   1      39.880  22.363  26.140  1.00  0.00    -0.376 OA
BRANCH   2   3
ATOM      3  C   UNL A   1      38.529  22.137  25.746  1.00  0.00     0.202 C 
BRANCH   3   4
ATOM      4  C   UNL A   1      37.534  23.287  25.956  1.00  0.00     0.261 C 
BRANCH   4   5
ATOM      5  O   UNL A   1      36.165  22.874  26.101  1.00  0.00    -0.463 OA
BRANCH   5   6
ATOM      6  C   UNL A   1      35.227  23.654  25.489  1.00  0.00     0.312 C 
ATOM      7  O   UNL A   1      35.137  24.868  25.624  1.00  0.00    -0.252 OA
BRANCH   6   8
ATOM      8  C   UNL A   1      34.241  22.813  24.656  1.00  0.00     0.071 C 
ATOM      9  C   UNL A   1      32.649  23.665  26.569  1.00  0.00     0.013 C 
ATOM     10  C   UNL A   1      32.761  23.132  25.116  1.00  0.00    -0.008 C 
ATOM     11  C   UNL A   1      31.908  21.871  25.114  1.00  0.00     0.013 C 
ATOM     12  C   UNL A   1      32.341  24.257  24.127  1.00  0.00     0.085 C 
ATOM     13  C   UNL A   1      33.088  24.050  22.820  1.00  0.00     0.015 C 
ATOM     14  C   UNL A   1      34.335  23.257  23.165  1.00  0.00     0.020 C 
ATOM     15  C   UNL A   1      34.635  21.319  24.675  1.00  0.00     0.024 C 
BRANCH  12  16
ATOM     16  C   UNL A   1      30.904  24.760  23.924  1.00  0.00     0.226 C 
ATOM     17  O   UNL A   1      30.200  24.069  23.169  1.00  0.00    -0.275 OA
ATOM     18  N   UNL A   1      30.354  25.879  24.538  1.00  0.00    -0.334 N 
BRANCH  18  19
ATOM     19  C   UNL A   1      30.643  26.281  25.925  1.00  0.00     0.155 C 
BRANCH  19  20
ATOM     20  C   UNL A   1      31.636  27.405  26.185  1.00  0.00    -0.029 A 
ATOM     21  C   UNL A   1      31.430  28.448  27.096  1.00  0.00     0.005 A 
ATOM     22  C   UNL A   1      32.806  27.455  25.401  1.00  0.00     0.005 A 
ATOM     23  C   UNL A   1      32.336  29.503  27.220  1.00  0.00     0.000 A 
ATOM     24  C   UNL A   1      33.705  28.521  25.507  1.00  0.00     0.000 A 
ATOM     25  C   UNL A   1      33.470  29.546  26.419  1.00  0.00     0.000 A 
ENDBRANCH  19  20
ENDBRANCH  18  19
BRANCH  18  26
ATOM     26  C   UNL A   1      29.064  26.337  23.982  1.00  0.00     0.155 C 
BRANCH  26  27
ATOM     27  C   UNL A   1      29.140  27.686  23.284  1.00  0.00    -0.029 A 
ATOM     28  C   UNL A   1      27.980  28.460  23.128  1.00  0.00     0.005 A 
ATOM     29  C   UNL A   1      30.348  28.203  22.789  1.00  0.00     0.005 A 
ATOM     30  C   UNL A   1      28.044  29.742  22.574  1.00  0.00     0.000 A 
ATOM     31  C   UNL A   1      30.412  29.481  22.232  1.00  0.00     0.000 A 
ATOM     32  C   UNL A   1      29.262  30.256  22.137  1.00  0.00     0.000 A 
ENDBRANCH  26  27
ENDBRANCH  18  26
ENDBRANCH  12  16
ENDBRANCH   6   8
ENDBRANCH   5   6
ENDBRANCH   4   5
ENDBRANCH   3   4
ENDBRANCH   2   3
ENDBRANCH   1   2
BRANCH   1  33
ATOM     33  C   UNL A   1      40.124  19.857  26.049  1.00  0.00     0.188 C 
BRANCH  33  34
ATOM     34  O   UNL A   1      41.108  18.857  25.807  1.00  0.00    -0.376 OA
BRANCH  34  35
ATOM     35  C   UNL A   1      42.462  19.256  26.067  1.00  0.00     0.202 C 
BRANCH  35  36
ATOM     36  C   UNL A   1      43.558  18.226  25.716  1.00  0.00     0.261 C 
BRANCH  36  37
ATOM     37  O   UNL A   1      44.827  18.814  25.347  1.00  0.00    -0.460 OA
BRANCH  37  38
ATOM     38  C   UNL A   1      44.853  19.568  24.224  1.00  0.00     0.338 C 
ATOM     39  O   UNL A   1      44.529  19.206  23.104  1.00  0.00    -0.246 OA
BRANCH  38  40
ATOM     40  C   UNL A   1      45.079  20.992  24.605  1.00  0.00     0.060 A 
ATOM     41  C   UNL A   1      45.646  21.253  25.862  1.00  0.00     0.016 A 
ATOM     42  C   UNL A   1      44.832  22.054  23.727  1.00  0.00     0.016 A 
ATOM     43  C   UNL A   1      45.911  22.567  26.261  1.00  0.00     0.010 A 
ATOM     44  C   UNL A   1      45.092  23.371  24.131  1.00  0.00     0.010 A 
ATOM     45  C   UNL A   1      45.598  23.639  25.416  1.00  0.00    -0.014 A 
BRANCH  45  46
ATOM     46  C   UNL A   1      45.608  25.028  25.951  1.00  0.00     0.031 A 
ATOM     47  C   UNL A   1      46.915  25.778  25.965  1.00  0.00     0.074 A 
ATOM     48  C   UNL A   1      44.491  25.646  26.380  1.00  0.00     0.049 A 
ATOM     49  N   UNL A   1      47.177  26.992  26.381  1.00  0.00    -0.248 NA
ATOM     50  C   UNL A   1      48.085  25.059  25.434  1.00  0.00     0.031 C 
ATOM     51  C   UNL A   1      43.151  25.068  26.394  1.00  0.00     0.029 A 
ATOM     52  N   UNL A   1      44.319  26.910  26.893  1.00  0.00    -0.354 N 
ATOM     53  C   UNL A   1      48.535  27.181  26.161  1.00  0.00     0.074 A 
ATOM     54  C   UNL A   1      49.050  25.948  25.606  1.00  0.00     0.031 C 
ATOM     55  C   UNL A   1      42.293  25.972  26.900  1.00  0.00     0.029 A 
ATOM     56  C   UNL A   1      43.025  27.183  27.269  1.00  0.00     0.049 A 
ATOM     57  H   UNL A   1      45.054  27.559  26.985  1.00  0.00     0.167 HD
ATOM     58  C   UNL A   1      49.290  28.283  26.389  1.00  0.00     0.037 A 
ATOM     59  C   UNL A   1      42.498  28.277  27.857  1.00  0.00     0.037 A 
ATOM     60  C   UNL A   1      48.797  29.515  26.942  1.00  0.00     0.049 A 
ATOM     61  C   UNL A   1      43.375  29.462  28.176  1.00  0.00     0.074 A 
ATOM     62  C   UNL A   1      49.493  30.687  27.187  1.00  0.00     0.029 A 
ATOM     63  N   UNL A   1      47.492  29.733  27.351  1.00  0.00    -0.354 N 
ATOM     64  N   UNL A   1      44.650  29.641  27.932  1.00  0.00    -0.248 NA
ATOM     65  C   UNL A   1      42.734  30.602  28.854  1.00  0.00     0.031 C 
ATOM     66  C   UNL A   1      48.619  31.598  27.790  1.00  0.00     0.029 A 
ATOM     67  C   UNL A   1      47.368  31.011  27.872  1.00  0.00     0.049 A 
ATOM     68  H   UNL A   1      46.761  29.077  27.279  1.00  0.00     0.167 HD
ATOM     69  C   UNL A   1      44.955  30.916  28.401  1.00  0.00     0.074 A 
ATOM     70  C   UNL A   1      43.729  31.473  28.928  1.00  0.00     0.031 C 
ATOM     71  C   UNL A   1      46.146  31.565  28.394  1.00  0.00     0.037 A 
BRANCH  58  72
ATOM     72  C   UNL A   1      50.750  28.192  26.057  1.00  0.00     0.057 A 
ATOM     73  C   UNL A   1      51.221  28.345  24.747  1.00  0.00     0.134 A 
ATOM     74  C   UNL A   1      51.696  27.980  27.067  1.00  0.00     0.134 A 
ATOM     75  F   UNL A   1      50.364  28.533  23.733  1.00  0.00    -0.206 F 
ATOM     76  C   UNL A   1      52.583  28.270  24.451  1.00  0.00     0.040 A 
ATOM     77  C   UNL A   1      53.062  27.928  26.786  1.00  0.00     0.040 A 
ATOM     78  F   UNL A   1      51.309  27.828  28.342  1.00  0.00    -0.206 F 
ATOM     79  C   UNL A   1      53.508  28.068  25.474  1.00  0.00     0.006 A 
ENDBRANCH  58  72
BRANCH  59  80
ATOM     80  C   UNL A   1      41.056  28.310  28.218  1.00  0.00     0.057 A 
ATOM     81  C   UNL A   1      40.100  28.852  27.350  1.00  0.00     0.134 A 
ATOM     82  C   UNL A   1      40.610  27.855  29.465  1.00  0.00     0.134 A 
ATOM     83  F   UNL A   1      40.470  29.338  26.157  1.00  0.00    -0.206 F 
ATOM     84  C   UNL A   1      38.757  28.959  27.717  1.00  0.00     0.040 A 
ATOM     85  C   UNL A   1      39.266  27.931  29.834  1.00  0.00     0.040 A 
ATOM     86  F   UNL A   1      41.478  27.336  30.346  1.00  0.00    -0.206 F 
ATOM     87  C   UNL A   1      38.336  28.493  28.961  1.00  0.00     0.006 A 
ENDBRANCH  59  80
BRANCH  71  88
ATOM     88  C   UNL A   1      46.181  32.962  28.946  1.00  0.00     0.057 A 
ATOM     89  C   UNL A   1      45.952  34.084  28.138  1.00  0.00     0.134 A 
ATOM     90  C   UNL A   1      46.412  33.187  30.310  1.00  0.00     0.134 A 
ATOM     91  F   UNL A   1      45.734  33.942  26.823  1.00  0.00    -0.206 F 
ATOM     92  C   UNL A   1      45.977  35.378  28.663  1.00  0.00     0.040 A 
ATOM     93  C   UNL A   1      46.412  34.475  30.850  1.00  0.00     0.040 A 
ATOM     94  F   UNL A   1      46.627  32.159  31.143  1.00  0.00    -0.206 F 
ATOM     95  C   UNL A   1      46.202  35.577  30.023  1.00  0.00     0.006 A 
ENDBRANCH  71  88
ENDBRANCH  45  46
ENDBRANCH  38  40
ENDBRANCH  37  38
ENDBRANCH  36  37
ENDBRANCH  35  36
ENDBRANCH  34  35
ENDBRANCH  33  34
ENDBRANCH   1  33
TORSDOF 22
ENDMDL
MODEL 3
REMARK VINA RESULT:     -11.3      0.632      5.717
REMARK SMILES CC1(C)[C@H](C(=O)N(Cc2ccccc2)Cc2ccccc2)CC[C@@]1(C)C(=O)OCCOCCOCCOC(=O)c1ccc(-c2c3nc(c(-c4c(F)cccc4F)c4ccc([nH]4)c(-c4c(F)cccc4F)c4nc(c(-c5c(F)cccc5F)c5ccc2[nH]5)C=C4)C=C3)cc1
REMARK SMILES IDX 32 1 31 2 30 3 29 4 28 5 26 6 27 7 24 8 1 9 2 10 3 11 4 12
REMARK SMILES IDX 22 13 23 14 25 15 5 16 6 17 7 18 8 19 9 20 10 21 14 22 11 23
REMARK SMILES IDX 13 24 12 25 15 26 16 27 17 28 21 29 18 30 20 31 19 32 33 33
REMARK SMILES IDX 34 34 35 35 36 36 37 37 38 38 39 39 40 40 41 41 93 42 42 43
REMARK SMILES IDX 92 44 43 45 44 46 45 47 86 48 46 49 91 50 85 51 87 52 47 53
REMARK SMILES IDX 90 54 84 55 83 56 48 58 74 59 57 60 73 61 58 62 61 63 72 64
REMARK SMILES IDX 88 65 59 66 60 67 71 69 89 70 62 71 49 72 50 73 55 74 51 75
REMARK SMILES IDX 52 76 54 77 56 78 53 79 75 80 76 81 81 82 77 83 78 84 80 85
REMARK SMILES IDX 82 86 79 87 63 88 64 89 69 90 65 91 66 92 68 93 70 94 67 95
REMARK H PARENT 87 57 61 68
REMARK Flexibility Score: inf
ROOT
ATOM      1  C   UNL A   1      34.236  30.881  27.660  1.00  0.00     0.188 C 
ENDROOT
BRANCH   1   2
ATOM      2  O   UNL A   1      33.311  29.887  27.245  1.00  0.00    -0.376 OA
BRANCH   2   3
ATOM      3  C   UNL A   1      33.832  28.813  26.466  1.00  0.00     0.202 C 
BRANCH   3   4
ATOM      4  C   UNL A   1      32.833  28.008  25.624  1.00  0.00     0.261 C 
BRANCH   4   5
ATOM      5  O   UNL A   1      32.027  27.084  26.373  1.00  0.00    -0.463 OA
BRANCH   5   6
ATOM      6  C   UNL A   1      32.279  25.757  26.173  1.00  0.00     0.312 C 
ATOM      7  O   UNL A   1      33.345  25.207  26.419  1.00  0.00    -0.252 OA
BRANCH   6   8
ATOM      8  C   UNL A   1      31.078  25.039  25.529  1.00  0.00     0.071 C 
ATOM      9  C   UNL A   1      32.830  24.892  23.572  1.00  0.00     0.013 C 
ATOM     10  C   UNL A   1      31.555  24.290  24.220  1.00  0.00    -0.008 C 
ATOM     11  C   UNL A   1      30.501  24.385  23.125  1.00  0.00     0.013 C 
ATOM     12  C   UNL A   1      31.879  22.865  24.752  1.00  0.00     0.085 C 
ATOM     13  C   UNL A   1      30.974  22.579  25.939  1.00  0.00     0.015 C 
ATOM     14  C   UNL A   1      30.572  23.931  26.501  1.00  0.00     0.020 C 
ATOM     15  C   UNL A   1      29.888  26.009  25.343  1.00  0.00     0.024 C 
BRANCH  12  16
ATOM     16  C   UNL A   1      32.120  21.629  23.871  1.00  0.00     0.226 C 
ATOM     17  O   UNL A   1      31.656  21.697  22.721  1.00  0.00    -0.275 OA
ATOM     18  N   UNL A   1      32.830  20.498  24.257  1.00  0.00    -0.334 N 
BRANCH  18  19
ATOM     19  C   UNL A   1      34.036  20.533  25.101  1.00  0.00     0.155 C 
BRANCH  19  20
ATOM     20  C   UNL A   1      34.995  21.709  24.986  1.00  0.00    -0.029 A 
ATOM     21  C   UNL A   1      35.587  22.132  23.790  1.00  0.00     0.005 A 
ATOM     22  C   UNL A   1      35.386  22.368  26.168  1.00  0.00     0.005 A 
ATOM     23  C   UNL A   1      36.535  23.158  23.763  1.00  0.00     0.000 A 
ATOM     24  C   UNL A   1      36.351  23.380  26.149  1.00  0.00     0.000 A 
ATOM     25  C   UNL A   1      36.924  23.777  24.944  1.00  0.00     0.000 A 
ENDBRANCH  19  20
ENDBRANCH  18  19
BRANCH  18  26
ATOM     26  C   UNL A   1      32.692  19.329  23.365  1.00  0.00     0.155 C 
BRANCH  26  27
ATOM     27  C   UNL A   1      33.003  18.001  24.039  1.00  0.00    -0.029 A 
ATOM     28  C   UNL A   1      34.145  17.277  23.665  1.00  0.00     0.005 A 
ATOM     29  C   UNL A   1      32.183  17.466  25.045  1.00  0.00     0.005 A 
ATOM     30  C   UNL A   1      34.499  16.103  24.335  1.00  0.00     0.000 A 
ATOM     31  C   UNL A   1      32.534  16.292  25.713  1.00  0.00     0.000 A 
ATOM     32  C   UNL A   1      33.699  15.618  25.367  1.00  0.00     0.000 A 
ENDBRANCH  26  27
ENDBRANCH  18  26
ENDBRANCH  12  16
ENDBRANCH   6   8
ENDBRANCH   5   6
ENDBRANCH   4   5
ENDBRANCH   3   4
ENDBRANCH   2   3
ENDBRANCH   1   2
BRANCH   1  33
ATOM     33  C   UNL A   1      33.688  32.287  27.912  1.00  0.00     0.188 C 
BRANCH  33  34
ATOM     34  O   UNL A   1      34.590  33.234  28.476  1.00  0.00    -0.376 OA
BRANCH  34  35
ATOM     35  C   UNL A   1      34.104  33.922  29.639  1.00  0.00     0.202 C 
BRANCH  35  36
ATOM     36  C   UNL A   1      34.869  33.663  30.955  1.00  0.00     0.261 C 
BRANCH  36  37
ATOM     37  O   UNL A   1      35.079  32.263  31.251  1.00  0.00    -0.460 OA
BRANCH  37  38
ATOM     38  C   UNL A   1      36.033  31.962  32.163  1.00  0.00     0.338 C 
ATOM     39  O   UNL A   1      35.898  31.966  33.376  1.00  0.00    -0.246 OA
BRANCH  38  40
ATOM     40  C   UNL A   1      37.200  31.359  31.457  1.00  0.00     0.060 A 
ATOM     41  C   UNL A   1      38.197  30.753  32.238  1.00  0.00     0.016 A 
ATOM     42  C   UNL A   1      37.287  31.298  30.062  1.00  0.00     0.016 A 
ATOM     43  C   UNL A   1      39.300  30.142  31.631  1.00  0.00     0.010 A 
ATOM     44  C   UNL A   1      38.396  30.692  29.455  1.00  0.00     0.010 A 
ATOM     45  C   UNL A   1      39.428  30.143  30.236  1.00  0.00    -0.014 A 
BRANCH  45  46
ATOM     46  C   UNL A   1      40.725  29.759  29.615  1.00  0.00     0.031 A 
ATOM     47  C   UNL A   1      40.888  28.345  29.118  1.00  0.00     0.074 A 
ATOM     48  C   UNL A   1      41.734  30.634  29.446  1.00  0.00     0.049 A 
ATOM     49  N   UNL A   1      41.917  27.774  28.545  1.00  0.00    -0.248 NA
ATOM     50  C   UNL A   1      39.727  27.457  29.290  1.00  0.00     0.031 C 
ATOM     51  C   UNL A   1      41.715  32.040  29.839  1.00  0.00     0.029 A 
ATOM     52  N   UNL A   1      42.981  30.455  28.895  1.00  0.00    -0.354 N 
ATOM     53  C   UNL A   1      41.529  26.466  28.288  1.00  0.00     0.074 A 
ATOM     54  C   UNL A   1      40.182  26.317  28.795  1.00  0.00     0.031 C 
ATOM     55  C   UNL A   1      42.900  32.595  29.524  1.00  0.00     0.029 A 
ATOM     56  C   UNL A   1      43.770  31.580  28.931  1.00  0.00     0.049 A 
ATOM     57  H   UNL A   1      43.282  29.599  28.511  1.00  0.00     0.167 HD
ATOM     58  C   UNL A   1      42.221  25.476  27.675  1.00  0.00     0.037 A 
ATOM     59  C   UNL A   1      45.050  31.763  28.546  1.00  0.00     0.037 A 
ATOM     60  C   UNL A   1      43.560  25.605  27.167  1.00  0.00     0.049 A 
ATOM     61  C   UNL A   1      45.829  30.622  27.940  1.00  0.00     0.074 A 
ATOM     62  C   UNL A   1      44.327  24.655  26.514  1.00  0.00     0.029 A 
ATOM     63  N   UNL A   1      44.338  26.746  27.265  1.00  0.00    -0.354 N 
ATOM     64  N   UNL A   1      45.439  29.401  27.671  1.00  0.00    -0.248 NA
ATOM     65  C   UNL A   1      47.232  30.891  27.582  1.00  0.00     0.031 C 
ATOM     66  C   UNL A   1      45.588  25.206  26.262  1.00  0.00     0.029 A 
ATOM     67  C   UNL A   1      45.587  26.515  26.711  1.00  0.00     0.049 A 
ATOM     68  H   UNL A   1      44.045  27.596  27.668  1.00  0.00     0.167 HD
ATOM     69  C   UNL A   1      46.535  28.767  27.092  1.00  0.00     0.074 A 
ATOM     70  C   UNL A   1      47.600  29.743  27.032  1.00  0.00     0.031 C 
ATOM     71  C   UNL A   1      46.646  27.490  26.650  1.00  0.00     0.037 A 
BRANCH  58  72
ATOM     72  C   UNL A   1      41.541  24.146  27.543  1.00  0.00     0.057 A 
ATOM     73  C   UNL A   1      40.556  23.913  26.574  1.00  0.00     0.134 A 
ATOM     74  C   UNL A   1      41.898  23.079  28.375  1.00  0.00     0.134 A 
ATOM     75  F   UNL A   1      40.157  24.899  25.758  1.00  0.00    -0.206 F 
ATOM     76  C   UNL A   1      39.937  22.668  26.452  1.00  0.00     0.040 A 
ATOM     77  C   UNL A   1      41.303  21.824  28.246  1.00  0.00     0.040 A 
ATOM     78  F   UNL A   1      42.835  23.238  29.322  1.00  0.00    -0.206 F 
ATOM     79  C   UNL A   1      40.316  21.617  27.285  1.00  0.00     0.006 A 
ENDBRANCH  58  72
BRANCH  59  80
ATOM     80  C   UNL A   1      45.707  33.083  28.740  1.00  0.00     0.057 A 
ATOM     81  C   UNL A   1      46.471  33.356  29.882  1.00  0.00     0.134 A 
ATOM     82  C   UNL A   1      45.533  34.121  27.818  1.00  0.00     0.134 A 
ATOM     83  F   UNL A   1      46.643  32.413  30.819  1.00  0.00    -0.206 F 
ATOM     84  C   UNL A   1      47.023  34.618  30.107  1.00  0.00     0.040 A 
ATOM     85  C   UNL A   1      46.101  35.381  28.018  1.00  0.00     0.040 A 
ATOM     86  F   UNL A   1      44.802  33.928  26.710  1.00  0.00    -0.206 F 
ATOM     87  C   UNL A   1      46.843  35.634  29.171  1.00  0.00     0.006 A 
ENDBRANCH  59  80
BRANCH  71  88
ATOM     88  C   UNL A   1      47.953  27.076  26.035  1.00  0.00     0.057 A 
ATOM     89  C   UNL A   1      48.211  27.235  24.668  1.00  0.00     0.134 A 
ATOM     90  C   UNL A   1      48.980  26.545  26.828  1.00  0.00     0.134 A 
ATOM     91  F   UNL A   1      47.270  27.728  23.850  1.00  0.00    -0.206 F 
ATOM     92  C   UNL A   1      49.434  26.857  24.107  1.00  0.00     0.040 A 
ATOM     93  C   UNL A   1      50.216  26.189  26.282  1.00  0.00     0.040 A 
ATOM     94  F   UNL A   1      48.806  26.377  28.146  1.00  0.00    -0.206 F 
ATOM     95  C   UNL A   1      50.442  26.337  24.916  1.00  0.00     0.006 A 
ENDBRANCH  71  88
ENDBRANCH  45  46
ENDBRANCH  38  40
ENDBRANCH  37  38
ENDBRANCH  36  37
ENDBRANCH  35  36
ENDBRANCH  34  35
ENDBRANCH  33  34
ENDBRANCH   1  33
TORSDOF 22
ENDMDL
