MODEL 1
REMARK VINA RESULT:     -10.6      0.000      0.000
REMARK SMILES CCCc1cc2c(cc1Cl)C=C(C(=O)OCCOCCOCCOC(=O)c1ccc(-c3c4nc(c(-c5c(F)cccc5F)c5ccc([nH]5)c(-c5c(F)cccc5F)c5nc(c(-c6c(F)cccc6F)c6ccc3[nH]6)C=C5)C=C4)cc1)[C@H](C(F)(F)F)O2
REMARK SMILES IDX 19 1 18 2 17 3 16 4 15 5 13 6 14 7 12 8 4 9 5 10 9 11 6 12
REMARK SMILES IDX 8 13 10 14 7 15 86 16 11 17 81 18 3 19 2 20 1 21 82 22 83 23
REMARK SMILES IDX 84 24 85 25 20 26 21 27 22 28 23 29 24 30 25 31 26 32 27 33
REMARK SMILES IDX 28 34 80 35 29 36 79 37 30 38 31 39 32 40 73 41 33 42 78 43
REMARK SMILES IDX 72 44 74 45 34 46 77 47 71 48 70 49 35 51 61 52 44 53 60 54
REMARK SMILES IDX 45 55 48 56 59 57 75 58 46 59 47 60 58 62 76 63 49 64 36 65
REMARK SMILES IDX 37 66 42 67 38 68 39 69 41 70 43 71 40 72 62 73 63 74 68 75
REMARK SMILES IDX 64 76 65 77 67 78 69 79 66 80 50 81 51 82 56 83 52 84 53 85
REMARK SMILES IDX 55 86 57 87 54 88
REMARK H PARENT 74 50 48 61
REMARK Flexibility Score: inf
ROOT
ATOM      1  C   UNL A   1      36.407  23.723  25.751  1.00  0.00     0.188 C 
ENDROOT
BRANCH   1   2
ATOM      2  O   UNL A   1      35.076  23.217  25.746  1.00  0.00    -0.376 OA
BRANCH   2   3
ATOM      3  C   UNL A   1      34.529  22.621  26.915  1.00  0.00     0.202 C 
BRANCH   3   4
ATOM      4  C   UNL A   1      33.369  21.640  26.722  1.00  0.00     0.261 C 
BRANCH   4   5
ATOM      5  O   UNL A   1      32.288  22.160  25.926  1.00  0.00    -0.460 OA
BRANCH   5   6
ATOM      6  C   UNL A   1      31.588  23.171  26.481  1.00  0.00     0.338 C 
ATOM      7  O   UNL A   1      31.161  23.220  27.624  1.00  0.00    -0.246 OA
BRANCH   6   8
ATOM      8  C   UNL A   1      31.493  24.316  25.558  1.00  0.00     0.087 C 
ATOM      9  C   UNL A   1      30.456  28.987  24.008  1.00  0.00    -0.026 A 
ATOM     10  C   UNL A   1      30.235  27.695  23.494  1.00  0.00     0.052 A 
ATOM     11  C   UNL A   1      31.265  29.110  25.150  1.00  0.00     0.045 A 
ATOM     12  C   UNL A   1      30.697  26.563  24.164  1.00  0.00     0.128 A 
ATOM     13  C   UNL A   1      31.755  27.973  25.806  1.00  0.00     0.032 A 
ATOM     14  Cl  UNL A   1      31.671  30.643  25.837  1.00  0.00    -0.084 Cl
ATOM     15  C   UNL A   1      31.444  26.697  25.331  1.00  0.00     0.019 A 
ATOM     16  O   UNL A   1      30.277  25.359  23.670  1.00  0.00    -0.475 OA
ATOM     17  C   UNL A   1      31.768  25.510  26.104  1.00  0.00     0.027 C 
ATOM     18  C   UNL A   1      30.919  24.153  24.175  1.00  0.00     0.316 C 
BRANCH   9  19
ATOM     19  C   UNL A   1      29.799  30.175  23.333  1.00  0.00     0.037 C 
BRANCH  19  20
ATOM     20  C   UNL A   1      28.270  30.085  23.196  1.00  0.00     0.001 C 
ATOM     21  C   UNL A   1      27.551  31.391  23.515  1.00  0.00     0.004 C 
ENDBRANCH  19  20
ENDBRANCH   9  19
BRANCH  18  22
ATOM     22  C   UNL A   1      31.906  23.651  23.108  1.00  0.00     0.430 C 
ATOM     23  F   UNL A   1      33.185  23.724  23.555  1.00  0.00    -0.167 F 
ATOM     24  F   UNL A   1      31.682  22.362  22.764  1.00  0.00    -0.167 F 
ATOM     25  F   UNL A   1      31.852  24.399  21.983  1.00  0.00    -0.167 F 
ENDBRANCH  18  22
ENDBRANCH   6   8
ENDBRANCH   5   6
ENDBRANCH   4   5
ENDBRANCH   3   4
ENDBRANCH   2   3
ENDBRANCH   1   2
BRANCH   1  26
ATOM     26  C   UNL A   1      37.598  22.826  25.372  1.00  0.00     0.188 C 
BRANCH  26  27
ATOM     27  O   UNL A   1      37.224  21.602  24.767  1.00  0.00    -0.376 OA
BRANCH  27  28
ATOM     28  C   UNL A   1      38.081  20.498  25.005  1.00  0.00     0.202 C 
BRANCH  28  29
ATOM     29  C   UNL A   1      39.309  20.868  25.841  1.00  0.00     0.261 C 
BRANCH  29  30
ATOM     30  O   UNL A   1      40.152  19.757  26.191  1.00  0.00    -0.460 OA
BRANCH  30  31
ATOM     31  C   UNL A   1      41.477  19.887  25.961  1.00  0.00     0.338 C 
ATOM     32  O   UNL A   1      42.178  19.182  25.258  1.00  0.00    -0.246 OA
BRANCH  31  33
ATOM     33  C   UNL A   1      41.893  21.176  26.559  1.00  0.00     0.060 A 
ATOM     34  C   UNL A   1      42.333  22.218  25.740  1.00  0.00     0.016 A 
ATOM     35  C   UNL A   1      41.890  21.323  27.952  1.00  0.00     0.016 A 
ATOM     36  C   UNL A   1      42.759  23.415  26.314  1.00  0.00     0.010 A 
ATOM     37  C   UNL A   1      42.324  22.522  28.527  1.00  0.00     0.010 A 
ATOM     38  C   UNL A   1      42.747  23.582  27.711  1.00  0.00    -0.014 A 
BRANCH  38  39
ATOM     39  C   UNL A   1      43.019  24.924  28.278  1.00  0.00     0.031 A 
ATOM     40  C   UNL A   1      44.405  25.380  28.621  1.00  0.00     0.074 A 
ATOM     41  C   UNL A   1      41.974  25.753  28.455  1.00  0.00     0.049 A 
ATOM     42  N   UNL A   1      44.806  26.569  28.999  1.00  0.00    -0.248 NA
ATOM     43  C   UNL A   1      45.476  24.378  28.539  1.00  0.00     0.031 C 
ATOM     44  C   UNL A   1      40.576  25.408  28.185  1.00  0.00     0.029 A 
ATOM     45  N   UNL A   1      41.921  27.052  28.887  1.00  0.00    -0.354 N 
ATOM     46  C   UNL A   1      46.179  26.470  29.175  1.00  0.00     0.074 A 
ATOM     47  C   UNL A   1      46.534  25.089  28.910  1.00  0.00     0.031 C 
ATOM     48  C   UNL A   1      39.806  26.478  28.432  1.00  0.00     0.029 A 
ATOM     49  C   UNL A   1      40.651  27.575  28.893  1.00  0.00     0.049 A 
ATOM     50  H   UNL A   1      42.715  27.561  29.167  1.00  0.00     0.167 HD
ATOM     51  C   UNL A   1      47.060  27.447  29.508  1.00  0.00     0.037 A 
ATOM     52  C   UNL A   1      40.217  28.804  29.223  1.00  0.00     0.037 A 
ATOM     53  C   UNL A   1      46.697  28.815  29.792  1.00  0.00     0.049 A 
ATOM     54  C   UNL A   1      41.212  29.850  29.636  1.00  0.00     0.074 A 
ATOM     55  C   UNL A   1      47.525  29.884  30.092  1.00  0.00     0.029 A 
ATOM     56  N   UNL A   1      45.397  29.299  29.832  1.00  0.00    -0.354 N 
ATOM     57  N   UNL A   1      42.518  29.771  29.700  1.00  0.00    -0.248 NA
ATOM     58  C   UNL A   1      40.669  31.162  30.013  1.00  0.00     0.031 C 
ATOM     59  C   UNL A   1      46.725  31.001  30.364  1.00  0.00     0.029 A 
ATOM     60  C   UNL A   1      45.399  30.641  30.184  1.00  0.00     0.049 A 
ATOM     61  H   UNL A   1      44.591  28.769  29.639  1.00  0.00     0.167 HD
ATOM     62  C   UNL A   1      42.955  31.027  30.097  1.00  0.00     0.074 A 
ATOM     63  C   UNL A   1      41.775  31.855  30.238  1.00  0.00     0.031 C 
ATOM     64  C   UNL A   1      44.220  31.456  30.327  1.00  0.00     0.037 A 
BRANCH  51  65
ATOM     65  C   UNL A   1      48.514  27.078  29.581  1.00  0.00     0.057 A 
ATOM     66  C   UNL A   1      49.314  27.069  28.430  1.00  0.00     0.134 A 
ATOM     67  C   UNL A   1      49.106  26.663  30.780  1.00  0.00     0.134 A 
ATOM     68  F   UNL A   1      48.807  27.441  27.245  1.00  0.00    -0.206 F 
ATOM     69  C   UNL A   1      50.648  26.659  28.471  1.00  0.00     0.040 A 
ATOM     70  C   UNL A   1      50.446  26.274  30.838  1.00  0.00     0.040 A 
ATOM     71  F   UNL A   1      48.397  26.648  31.919  1.00  0.00    -0.206 F 
ATOM     72  C   UNL A   1      51.220  26.265  29.679  1.00  0.00     0.006 A 
ENDBRANCH  51  65
BRANCH  52  73
ATOM     73  C   UNL A   1      38.770  29.126  29.156  1.00  0.00     0.057 A 
ATOM     74  C   UNL A   1      37.951  29.033  30.286  1.00  0.00     0.134 A 
ATOM     75  C   UNL A   1      38.182  29.565  27.964  1.00  0.00     0.134 A 
ATOM     76  F   UNL A   1      38.454  28.610  31.456  1.00  0.00    -0.206 F 
ATOM     77  C   UNL A   1      36.598  29.369  30.236  1.00  0.00     0.040 A 
ATOM     78  C   UNL A   1      36.837  29.930  27.906  1.00  0.00     0.040 A 
ATOM     79  F   UNL A   1      38.922  29.688  26.852  1.00  0.00    -0.206 F 
ATOM     80  C   UNL A   1      36.041  29.830  29.045  1.00  0.00     0.006 A 
ENDBRANCH  52  73
BRANCH  64  81
ATOM     81  C   UNL A   1      44.386  32.893  30.730  1.00  0.00     0.057 A 
ATOM     82  C   UNL A   1      44.514  33.898  29.763  1.00  0.00     0.134 A 
ATOM     83  C   UNL A   1      44.414  33.286  32.075  1.00  0.00     0.134 A 
ATOM     84  F   UNL A   1      44.501  33.593  28.457  1.00  0.00    -0.206 F 
ATOM     85  C   UNL A   1      44.659  35.241  30.118  1.00  0.00     0.040 A 
ATOM     86  C   UNL A   1      44.530  34.628  32.442  1.00  0.00     0.040 A 
ATOM     87  F   UNL A   1      44.277  32.376  33.052  1.00  0.00    -0.206 F 
ATOM     88  C   UNL A   1      44.657  35.610  31.462  1.00  0.00     0.006 A 
ENDBRANCH  64  81
ENDBRANCH  38  39
ENDBRANCH  31  33
ENDBRANCH  30  31
ENDBRANCH  29  30
ENDBRANCH  28  29
ENDBRANCH  27  28
ENDBRANCH  26  27
ENDBRANCH   1  26
TORSDOF 20
ENDMDL
MODEL 2
REMARK VINA RESULT:     -10.5      1.542      2.066
REMARK SMILES CCCc1cc2c(cc1Cl)C=C(C(=O)OCCOCCOCCOC(=O)c1ccc(-c3c4nc(c(-c5c(F)cccc5F)c5ccc([nH]5)c(-c5c(F)cccc5F)c5nc(c(-c6c(F)cccc6F)c6ccc3[nH]6)C=C5)C=C4)cc1)[C@H](C(F)(F)F)O2
REMARK SMILES IDX 19 1 18 2 17 3 16 4 15 5 13 6 14 7 12 8 4 9 5 10 9 11 6 12
REMARK SMILES IDX 8 13 10 14 7 15 86 16 11 17 81 18 3 19 2 20 1 21 82 22 83 23
REMARK SMILES IDX 84 24 85 25 20 26 21 27 22 28 23 29 24 30 25 31 26 32 27 33
REMARK SMILES IDX 28 34 80 35 29 36 79 37 30 38 31 39 32 40 73 41 33 42 78 43
REMARK SMILES IDX 72 44 74 45 34 46 77 47 71 48 70 49 35 51 61 52 44 53 60 54
REMARK SMILES IDX 45 55 48 56 59 57 75 58 46 59 47 60 58 62 76 63 49 64 36 65
REMARK SMILES IDX 37 66 42 67 38 68 39 69 41 70 43 71 40 72 62 73 63 74 68 75
REMARK SMILES IDX 64 76 65 77 67 78 69 79 66 80 50 81 51 82 56 83 52 84 53 85
REMARK SMILES IDX 55 86 57 87 54 88
REMARK H PARENT 74 50 48 61
REMARK Flexibility Score: inf
ROOT
ATOM      1  C   UNL A   1      36.214  22.091  25.442  1.00  0.00     0.188 C 
ENDROOT
BRANCH   1   2
ATOM      2  O   UNL A   1      35.176  21.196  25.829  1.00  0.00    -0.376 OA
BRANCH   2   3
ATOM      3  C   UNL A   1      33.853  21.378  25.343  1.00  0.00     0.202 C 
BRANCH   3   4
ATOM      4  C   UNL A   1      33.635  22.485  24.306  1.00  0.00     0.261 C 
BRANCH   4   5
ATOM      5  O   UNL A   1      32.735  23.522  24.738  1.00  0.00    -0.460 OA
BRANCH   5   6
ATOM      6  C   UNL A   1      33.308  24.707  25.034  1.00  0.00     0.338 C 
ATOM      7  O   UNL A   1      34.318  24.881  25.700  1.00  0.00    -0.246 OA
BRANCH   6   8
ATOM      8  C   UNL A   1      32.626  25.813  24.339  1.00  0.00     0.087 C 
ATOM      9  C   UNL A   1      29.789  29.927  23.774  1.00  0.00    -0.026 A 
ATOM     10  C   UNL A   1      29.880  28.683  23.122  1.00  0.00     0.052 A 
ATOM     11  C   UNL A   1      30.767  30.238  24.734  1.00  0.00     0.045 A 
ATOM     12  C   UNL A   1      30.832  27.737  23.501  1.00  0.00     0.128 A 
ATOM     13  C   UNL A   1      31.742  29.299  25.093  1.00  0.00     0.032 A 
ATOM     14  Cl  UNL A   1      30.808  31.759  25.554  1.00  0.00    -0.084 Cl
ATOM     15  C   UNL A   1      31.756  28.035  24.498  1.00  0.00     0.019 A 
ATOM     16  O   UNL A   1      30.717  26.504  22.921  1.00  0.00    -0.475 OA
ATOM     17  C   UNL A   1      32.624  26.982  24.996  1.00  0.00     0.027 C 
ATOM     18  C   UNL A   1      31.817  25.565  23.092  1.00  0.00     0.316 C 
BRANCH   9  19
ATOM     19  C   UNL A   1      28.639  30.858  23.439  1.00  0.00     0.037 C 
BRANCH  19  20
ATOM     20  C   UNL A   1      28.846  31.724  22.185  1.00  0.00     0.001 C 
ATOM     21  C   UNL A   1      28.021  31.267  20.986  1.00  0.00     0.004 C 
ENDBRANCH  19  20
ENDBRANCH   9  19
BRANCH  18  22
ATOM     22  C   UNL A   1      32.622  25.524  21.783  1.00  0.00     0.430 C 
ATOM     23  F   UNL A   1      33.650  26.410  21.815  1.00  0.00    -0.167 F 
ATOM     24  F   UNL A   1      33.160  24.306  21.545  1.00  0.00    -0.167 F 
ATOM     25  F   UNL A   1      31.863  25.861  20.716  1.00  0.00    -0.167 F 
ENDBRANCH  18  22
ENDBRANCH   6   8
ENDBRANCH   5   6
ENDBRANCH   4   5
ENDBRANCH   3   4
ENDBRANCH   2   3
ENDBRANCH   1   2
BRANCH   1  26
ATOM     26  C   UNL A   1      37.670  21.609  25.321  1.00  0.00     0.188 C 
BRANCH  26  27
ATOM     27  O   UNL A   1      37.824  20.436  24.544  1.00  0.00    -0.376 OA
BRANCH  27  28
ATOM     28  C   UNL A   1      38.385  19.315  25.207  1.00  0.00     0.202 C 
BRANCH  28  29
ATOM     29  C   UNL A   1      39.659  19.660  25.984  1.00  0.00     0.261 C 
BRANCH  29  30
ATOM     30  O   UNL A   1      40.865  19.109  25.430  1.00  0.00    -0.460 OA
BRANCH  30  31
ATOM     31  C   UNL A   1      41.955  19.074  26.229  1.00  0.00     0.338 C 
ATOM     32  O   UNL A   1      42.663  18.114  26.473  1.00  0.00    -0.246 OA
BRANCH  31  33
ATOM     33  C   UNL A   1      42.261  20.475  26.598  1.00  0.00     0.060 A 
ATOM     34  C   UNL A   1      42.271  20.859  27.940  1.00  0.00     0.016 A 
ATOM     35  C   UNL A   1      42.488  21.421  25.589  1.00  0.00     0.016 A 
ATOM     36  C   UNL A   1      42.522  22.189  28.275  1.00  0.00     0.010 A 
ATOM     37  C   UNL A   1      42.734  22.755  25.926  1.00  0.00     0.010 A 
ATOM     38  C   UNL A   1      42.768  23.145  27.274  1.00  0.00    -0.014 A 
BRANCH  38  39
ATOM     39  C   UNL A   1      43.221  24.501  27.668  1.00  0.00     0.031 A 
ATOM     40  C   UNL A   1      44.660  24.913  27.597  1.00  0.00     0.074 A 
ATOM     41  C   UNL A   1      42.286  25.381  28.070  1.00  0.00     0.049 A 
ATOM     42  N   UNL A   1      45.182  26.101  27.783  1.00  0.00    -0.248 NA
ATOM     43  C   UNL A   1      45.640  23.864  27.289  1.00  0.00     0.031 C 
ATOM     44  C   UNL A   1      40.858  25.084  28.207  1.00  0.00     0.029 A 
ATOM     45  N   UNL A   1      42.389  26.701  28.423  1.00  0.00    -0.354 N 
ATOM     46  C   UNL A   1      46.548  25.953  27.588  1.00  0.00     0.074 A 
ATOM     47  C   UNL A   1      46.779  24.546  27.319  1.00  0.00     0.031 C 
ATOM     48  C   UNL A   1      40.215  26.196  28.588  1.00  0.00     0.029 A 
ATOM     49  C   UNL A   1      41.183  27.277  28.740  1.00  0.00     0.049 A 
ATOM     50  H   UNL A   1      43.243  27.188  28.448  1.00  0.00     0.167 HD
ATOM     51  C   UNL A   1      47.513  26.905  27.613  1.00  0.00     0.037 A 
ATOM     52  C   UNL A   1      40.889  28.538  29.101  1.00  0.00     0.037 A 
ATOM     53  C   UNL A   1      47.278  28.301  27.904  1.00  0.00     0.049 A 
ATOM     54  C   UNL A   1      41.988  29.560  29.169  1.00  0.00     0.074 A 
ATOM     55  C   UNL A   1      48.187  29.347  27.906  1.00  0.00     0.029 A 
ATOM     56  N   UNL A   1      46.052  28.841  28.264  1.00  0.00    -0.354 N 
ATOM     57  N   UNL A   1      43.260  29.429  28.884  1.00  0.00    -0.248 NA
ATOM     58  C   UNL A   1      41.604  30.912  29.600  1.00  0.00     0.031 C 
ATOM     59  C   UNL A   1      47.522  30.509  28.317  1.00  0.00     0.029 A 
ATOM     60  C   UNL A   1      46.187  30.197  28.523  1.00  0.00     0.049 A 
ATOM     61  H   UNL A   1      45.210  28.337  28.326  1.00  0.00     0.167 HD
ATOM     62  C   UNL A   1      43.823  30.683  29.074  1.00  0.00     0.074 A 
ATOM     63  C   UNL A   1      42.749  31.566  29.478  1.00  0.00     0.031 C 
ATOM     64  C   UNL A   1      45.114  31.068  28.929  1.00  0.00     0.037 A 
BRANCH  51  65
ATOM     65  C   UNL A   1      48.921  26.478  27.314  1.00  0.00     0.057 A 
ATOM     66  C   UNL A   1      49.404  26.461  25.999  1.00  0.00     0.134 A 
ATOM     67  C   UNL A   1      49.778  26.019  28.321  1.00  0.00     0.134 A 
ATOM     68  F   UNL A   1      48.632  26.874  24.983  1.00  0.00    -0.206 F 
ATOM     69  C   UNL A   1      50.687  25.998  25.698  1.00  0.00     0.040 A 
ATOM     70  C   UNL A   1      51.072  25.576  28.036  1.00  0.00     0.040 A 
ATOM     71  F   UNL A   1      49.378  26.010  29.602  1.00  0.00    -0.206 F 
ATOM     72  C   UNL A   1      51.527  25.559  26.719  1.00  0.00     0.006 A 
ENDBRANCH  51  65
BRANCH  52  73
ATOM     73  C   UNL A   1      39.488  28.918  29.407  1.00  0.00     0.057 A 
ATOM     74  C   UNL A   1      38.640  29.429  28.418  1.00  0.00     0.134 A 
ATOM     75  C   UNL A   1      38.957  28.748  30.690  1.00  0.00     0.134 A 
ATOM     76  F   UNL A   1      39.094  29.624  27.171  1.00  0.00    -0.206 F 
ATOM     77  C   UNL A   1      37.312  29.754  28.693  1.00  0.00     0.040 A 
ATOM     78  C   UNL A   1      37.623  29.043  30.974  1.00  0.00     0.040 A 
ATOM     79  F   UNL A   1      39.719  28.247  31.675  1.00  0.00    -0.206 F 
ATOM     80  C   UNL A   1      36.797  29.550  29.972  1.00  0.00     0.006 A 
ENDBRANCH  52  73
BRANCH  64  81
ATOM     81  C   UNL A   1      45.423  32.515  29.188  1.00  0.00     0.057 A 
ATOM     82  C   UNL A   1      45.255  33.474  28.180  1.00  0.00     0.134 A 
ATOM     83  C   UNL A   1      45.883  32.963  30.434  1.00  0.00     0.134 A 
ATOM     84  F   UNL A   1      44.823  33.115  26.963  1.00  0.00    -0.206 F 
ATOM     85  C   UNL A   1      45.527  34.825  28.404  1.00  0.00     0.040 A 
ATOM     86  C   UNL A   1      46.132  34.315  30.678  1.00  0.00     0.040 A 
ATOM     87  F   UNL A   1      46.047  32.099  31.447  1.00  0.00    -0.206 F 
ATOM     88  C   UNL A   1      45.958  35.250  29.660  1.00  0.00     0.006 A 
ENDBRANCH  64  81
ENDBRANCH  38  39
ENDBRANCH  31  33
ENDBRANCH  30  31
ENDBRANCH  29  30
ENDBRANCH  28  29
ENDBRANCH  27  28
ENDBRANCH  26  27
ENDBRANCH   1  26
TORSDOF 20
ENDMDL
MODEL 3
REMARK VINA RESULT:     -10.5      4.340      8.250
REMARK SMILES CCCc1cc2c(cc1Cl)C=C(C(=O)OCCOCCOCCOC(=O)c1ccc(-c3c4nc(c(-c5c(F)cccc5F)c5ccc([nH]5)c(-c5c(F)cccc5F)c5nc(c(-c6c(F)cccc6F)c6ccc3[nH]6)C=C5)C=C4)cc1)[C@H](C(F)(F)F)O2
REMARK SMILES IDX 19 1 18 2 17 3 16 4 15 5 13 6 14 7 12 8 4 9 5 10 9 11 6 12
REMARK SMILES IDX 8 13 10 14 7 15 86 16 11 17 81 18 3 19 2 20 1 21 82 22 83 23
REMARK SMILES IDX 84 24 85 25 20 26 21 27 22 28 23 29 24 30 25 31 26 32 27 33
REMARK SMILES IDX 28 34 80 35 29 36 79 37 30 38 31 39 32 40 73 41 33 42 78 43
REMARK SMILES IDX 72 44 74 45 34 46 77 47 71 48 70 49 35 51 61 52 44 53 60 54
REMARK SMILES IDX 45 55 48 56 59 57 75 58 46 59 47 60 58 62 76 63 49 64 36 65
REMARK SMILES IDX 37 66 42 67 38 68 39 69 41 70 43 71 40 72 62 73 63 74 68 75
REMARK SMILES IDX 64 76 65 77 67 78 69 79 66 80 50 81 51 82 56 83 52 84 53 85
REMARK SMILES IDX 55 86 57 87 54 88
REMARK H PARENT 74 50 48 61
REMARK Flexibility Score: inf
ROOT
ATOM      1  C   UNL A   1      40.414  20.409  26.362  1.00  0.00     0.188 C 
ENDROOT
BRANCH   1   2
ATOM      2  O   UNL A   1      39.464  21.294  25.779  1.00  0.00    -0.376 OA
BRANCH   2   3
ATOM      3  C   UNL A   1      38.184  20.818  25.387  1.00  0.00     0.202 C 
BRANCH   3   4
ATOM      4  C   UNL A   1      37.196  21.847  24.830  1.00  0.00     0.261 C 
BRANCH   4   5
ATOM      5  O   UNL A   1      36.025  22.037  25.646  1.00  0.00    -0.460 OA
BRANCH   5   6
ATOM      6  C   UNL A   1      34.850  21.713  25.066  1.00  0.00     0.338 C 
ATOM      7  O   UNL A   1      34.531  20.617  24.630  1.00  0.00    -0.246 OA
BRANCH   6   8
ATOM      8  C   UNL A   1      33.903  22.840  25.125  1.00  0.00     0.087 C 
ATOM      9  C   UNL A   1      32.342  27.611  25.441  1.00  0.00    -0.026 A 
ATOM     10  C   UNL A   1      31.978  26.401  26.062  1.00  0.00     0.052 A 
ATOM     11  C   UNL A   1      33.252  27.553  24.372  1.00  0.00     0.045 A 
ATOM     12  C   UNL A   1      32.593  25.198  25.715  1.00  0.00     0.128 A 
ATOM     13  C   UNL A   1      33.847  26.339  24.003  1.00  0.00     0.032 A 
ATOM     14  Cl  UNL A   1      33.725  28.956  23.480  1.00  0.00    -0.084 Cl
ATOM     15  C   UNL A   1      33.541  25.165  24.696  1.00  0.00     0.019 A 
ATOM     16  O   UNL A   1      32.290  24.121  26.499  1.00  0.00    -0.475 OA
ATOM     17  C   UNL A   1      34.291  23.942  24.467  1.00  0.00     0.027 C 
ATOM     18  C   UNL A   1      32.707  22.803  26.040  1.00  0.00     0.316 C 
BRANCH   9  19
ATOM     19  C   UNL A   1      31.765  28.914  25.960  1.00  0.00     0.037 C 
BRANCH  19  20
ATOM     20  C   UNL A   1      32.420  29.452  27.243  1.00  0.00     0.001 C 
ATOM     21  C   UNL A   1      33.837  29.974  27.032  1.00  0.00     0.004 C 
ENDBRANCH  19  20
ENDBRANCH   9  19
BRANCH  18  22
ATOM     22  C   UNL A   1      31.472  22.077  25.479  1.00  0.00     0.430 C 
ATOM     23  F   UNL A   1      31.149  22.545  24.247  1.00  0.00    -0.167 F 
ATOM     24  F   UNL A   1      31.670  20.745  25.355  1.00  0.00    -0.167 F 
ATOM     25  F   UNL A   1      30.383  22.267  26.257  1.00  0.00    -0.167 F 
ENDBRANCH  18  22
ENDBRANCH   6   8
ENDBRANCH   5   6
ENDBRANCH   4   5
ENDBRANCH   3   4
ENDBRANCH   2   3
ENDBRANCH   1   2
BRANCH   1  26
ATOM     26  C   UNL A   1      41.926  20.657  26.210  1.00  0.00     0.188 C 
BRANCH  26  27
ATOM     27  O   UNL A   1      42.246  21.749  25.369  1.00  0.00    -0.376 OA
BRANCH  27  28
ATOM     28  C   UNL A   1      43.003  22.793  25.959  1.00  0.00     0.202 C 
BRANCH  28  29
ATOM     29  C   UNL A   1      42.147  23.747  26.798  1.00  0.00     0.261 C 
BRANCH  29  30
ATOM     30  O   UNL A   1      41.473  24.767  26.041  1.00  0.00    -0.460 OA
BRANCH  30  31
ATOM     31  C   UNL A   1      40.184  25.023  26.357  1.00  0.00     0.338 C 
ATOM     32  O   UNL A   1      39.193  24.447  25.946  1.00  0.00    -0.246 OA
BRANCH  31  33
ATOM     33  C   UNL A   1      40.201  26.007  27.464  1.00  0.00     0.060 A 
ATOM     34  C   UNL A   1      41.084  27.087  27.426  1.00  0.00     0.016 A 
ATOM     35  C   UNL A   1      39.362  25.816  28.570  1.00  0.00     0.016 A 
ATOM     36  C   UNL A   1      41.120  27.987  28.491  1.00  0.00     0.010 A 
ATOM     37  C   UNL A   1      39.404  26.715  29.640  1.00  0.00     0.010 A 
ATOM     38  C   UNL A   1      40.273  27.816  29.600  1.00  0.00    -0.014 A 
BRANCH  38  39
ATOM     39  C   UNL A   1      40.196  28.889  30.621  1.00  0.00     0.031 A 
ATOM     40  C   UNL A   1      39.204  30.009  30.528  1.00  0.00     0.074 A 
ATOM     41  C   UNL A   1      41.035  28.817  31.670  1.00  0.00     0.049 A 
ATOM     42  N   UNL A   1      38.935  30.940  31.410  1.00  0.00    -0.248 NA
ATOM     43  C   UNL A   1      38.421  30.105  29.290  1.00  0.00     0.031 C 
ATOM     44  C   UNL A   1      42.063  27.789  31.852  1.00  0.00     0.029 A 
ATOM     45  N   UNL A   1      41.151  29.607  32.783  1.00  0.00    -0.354 N 
ATOM     46  C   UNL A   1      37.932  31.719  30.850  1.00  0.00     0.074 A 
ATOM     47  C   UNL A   1      37.677  31.180  29.528  1.00  0.00     0.031 C 
ATOM     48  C   UNL A   1      42.686  27.996  33.020  1.00  0.00     0.029 A 
ATOM     49  C   UNL A   1      42.116  29.177  33.660  1.00  0.00     0.049 A 
ATOM     50  H   UNL A   1      40.597  30.405  32.939  1.00  0.00     0.167 HD
ATOM     51  C   UNL A   1      37.276  32.772  31.397  1.00  0.00     0.037 A 
ATOM     52  C   UNL A   1      42.493  29.673  34.852  1.00  0.00     0.037 A 
ATOM     53  C   UNL A   1      37.552  33.318  32.706  1.00  0.00     0.049 A 
ATOM     54  C   UNL A   1      41.780  30.872  35.409  1.00  0.00     0.074 A 
ATOM     55  C   UNL A   1      36.907  34.354  33.362  1.00  0.00     0.029 A 
ATOM     56  N   UNL A   1      38.566  32.887  33.548  1.00  0.00    -0.354 N 
ATOM     57  N   UNL A   1      40.766  31.537  34.913  1.00  0.00    -0.248 NA
ATOM     58  C   UNL A   1      42.261  31.382  36.701  1.00  0.00     0.031 C 
ATOM     59  C   UNL A   1      37.562  34.582  34.578  1.00  0.00     0.029 A 
ATOM     60  C   UNL A   1      38.585  33.656  34.702  1.00  0.00     0.049 A 
ATOM     61  H   UNL A   1      39.181  32.143  33.356  1.00  0.00     0.167 HD
ATOM     62  C   UNL A   1      40.471  32.525  35.842  1.00  0.00     0.074 A 
ATOM     63  C   UNL A   1      41.398  32.358  36.941  1.00  0.00     0.031 C 
ATOM     64  C   UNL A   1      39.516  33.486  35.789  1.00  0.00     0.037 A 
BRANCH  51  65
ATOM     65  C   UNL A   1      36.186  33.411  30.586  1.00  0.00     0.057 A 
ATOM     66  C   UNL A   1      34.837  33.134  30.847  1.00  0.00     0.134 A 
ATOM     67  C   UNL A   1      36.473  34.248  29.500  1.00  0.00     0.134 A 
ATOM     68  F   UNL A   1      34.491  32.329  31.862  1.00  0.00    -0.206 F 
ATOM     69  C   UNL A   1      33.816  33.664  30.055  1.00  0.00     0.040 A 
ATOM     70  C   UNL A   1      35.460  34.803  28.716  1.00  0.00     0.040 A 
ATOM     71  F   UNL A   1      37.744  34.554  29.196  1.00  0.00    -0.206 F 
ATOM     72  C   UNL A   1      34.126  34.506  28.989  1.00  0.00     0.006 A 
ENDBRANCH  51  65
BRANCH  52  73
ATOM     73  C   UNL A   1      43.587  29.026  35.616  1.00  0.00     0.057 A 
ATOM     74  C   UNL A   1      44.907  29.481  35.525  1.00  0.00     0.134 A 
ATOM     75  C   UNL A   1      43.330  27.956  36.480  1.00  0.00     0.134 A 
ATOM     76  F   UNL A   1      45.219  30.498  34.707  1.00  0.00    -0.206 F 
ATOM     77  C   UNL A   1      45.933  28.898  36.269  1.00  0.00     0.040 A 
ATOM     78  C   UNL A   1      44.341  27.380  37.250  1.00  0.00     0.040 A 
ATOM     79  F   UNL A   1      42.081  27.487  36.620  1.00  0.00    -0.206 F 
ATOM     80  C   UNL A   1      45.648  27.852  37.143  1.00  0.00     0.006 A 
ENDBRANCH  52  73
BRANCH  64  81
ATOM     81  C   UNL A   1      39.419  34.412  36.968  1.00  0.00     0.057 A 
ATOM     82  C   UNL A   1      38.633  34.078  38.078  1.00  0.00     0.134 A 
ATOM     83  C   UNL A   1      40.108  35.632  37.009  1.00  0.00     0.134 A 
ATOM     84  F   UNL A   1      37.943  32.928  38.103  1.00  0.00    -0.206 F 
ATOM     85  C   UNL A   1      38.538  34.920  39.187  1.00  0.00     0.040 A 
ATOM     86  C   UNL A   1      40.043  36.470  38.125  1.00  0.00     0.040 A 
ATOM     87  F   UNL A   1      40.894  36.003  35.987  1.00  0.00    -0.206 F 
ATOM     88  C   UNL A   1      39.253  36.116  39.216  1.00  0.00     0.006 A 
ENDBRANCH  64  81
ENDBRANCH  38  39
ENDBRANCH  31  33
ENDBRANCH  30  31
ENDBRANCH  29  30
ENDBRANCH  28  29
ENDBRANCH  27  28
ENDBRANCH  26  27
ENDBRANCH   1  26
TORSDOF 20
ENDMDL
