MODEL 1
REMARK VINA RESULT:     -10.8      0.000      0.000
REMARK SMILES CCOc1ccc2[nH]c(=O)c(C(=O)OCCOCCOCCOC(=O)c3ccc(-c4c5nc(c(-c6c(F)cccc6F)c6ccc([nH]6)c(-c6c(F)cccc6F)c6nc(c(-c7c(F)cccc7F)c7ccc4[nH]7)C=C6)C=C5)cc3)cc2c1
REMARK SMILES IDX 18 1 17 2 16 3 15 4 14 5 12 6 13 7 11 8 4 9 5 10 82 11 6 12
REMARK SMILES IDX 81 13 7 14 80 15 8 16 9 17 10 19 3 20 2 21 1 22 19 23 20 24
REMARK SMILES IDX 21 25 22 26 23 27 24 28 25 29 26 30 27 31 79 32 28 33 78 34
REMARK SMILES IDX 29 35 30 36 31 37 72 38 32 39 77 40 71 41 73 42 33 43 76 44
REMARK SMILES IDX 70 45 69 46 34 48 60 49 43 50 59 51 44 52 47 53 58 54 74 55
REMARK SMILES IDX 45 56 46 57 57 59 75 60 48 61 35 62 36 63 41 64 37 65 38 66
REMARK SMILES IDX 40 67 42 68 39 69 61 70 62 71 67 72 63 73 64 74 66 75 68 76
REMARK SMILES IDX 65 77 49 78 50 79 55 80 51 81 52 82 54 83 56 84 53 85
REMARK H PARENT 8 18 73 47 47 58
REMARK Flexibility Score: inf
ROOT
ATOM      1  C   UNL A   1      42.453  19.118  27.178  1.00  0.00     0.188 C 
ENDROOT
BRANCH   1   2
ATOM      2  O   UNL A   1      41.165  19.709  27.275  1.00  0.00    -0.376 OA
BRANCH   2   3
ATOM      3  C   UNL A   1      40.600  20.366  26.147  1.00  0.00     0.202 C 
BRANCH   3   4
ATOM      4  C   UNL A   1      39.762  21.638  26.344  1.00  0.00     0.261 C 
BRANCH   4   5
ATOM      5  O   UNL A   1      38.660  21.772  25.435  1.00  0.00    -0.459 OA
BRANCH   5   6
ATOM      6  C   UNL A   1      37.702  22.670  25.775  1.00  0.00     0.343 C 
ATOM      7  O   UNL A   1      37.895  23.792  26.221  1.00  0.00    -0.246 OA
BRANCH   6   8
ATOM      8  C   UNL A   1      36.369  22.193  25.348  1.00  0.00     0.125 A 
ATOM      9  C   UNL A   1      33.484  18.428  24.277  1.00  0.00     0.120 A 
ATOM     10  C   UNL A   1      32.419  19.300  24.057  1.00  0.00     0.048 A 
ATOM     11  C   UNL A   1      34.728  18.912  24.686  1.00  0.00     0.056 A 
ATOM     12  C   UNL A   1      32.602  20.675  24.201  1.00  0.00     0.030 A 
ATOM     13  C   UNL A   1      34.920  20.291  24.828  1.00  0.00     0.003 A 
ATOM     14  C   UNL A   1      33.848  21.162  24.588  1.00  0.00     0.049 A 
ATOM     15  C   UNL A   1      36.210  20.860  25.223  1.00  0.00     0.032 A 
ATOM     16  N   UNL A   1      34.035  22.540  24.747  1.00  0.00    -0.321 N 
ATOM     17  C   UNL A   1      35.229  23.116  25.104  1.00  0.00     0.263 A 
ATOM     18  H   UNL A   1      33.263  23.132  24.593  1.00  0.00     0.170 HD
ATOM     19  O   UNL A   1      35.330  24.335  25.186  1.00  0.00    -0.269 OA
BRANCH   9  20
ATOM     20  O   UNL A   1      33.283  17.077  24.215  1.00  0.00    -0.494 OA
BRANCH  20  21
ATOM     21  C   UNL A   1      33.285  16.452  25.506  1.00  0.00     0.226 C 
ATOM     22  C   UNL A   1      32.613  15.087  25.480  1.00  0.00     0.049 C 
ENDBRANCH  20  21
ENDBRANCH   9  20
ENDBRANCH   6   8
ENDBRANCH   5   6
ENDBRANCH   4   5
ENDBRANCH   3   4
ENDBRANCH   2   3
ENDBRANCH   1   2
BRANCH   1  23
ATOM     23  C   UNL A   1      42.989  18.625  25.816  1.00  0.00     0.188 C 
BRANCH  23  24
ATOM     24  O   UNL A   1      44.257  19.116  25.465  1.00  0.00    -0.376 OA
BRANCH  24  25
ATOM     25  C   UNL A   1      44.401  20.385  24.856  1.00  0.00     0.202 C 
BRANCH  25  26
ATOM     26  C   UNL A   1      44.794  21.689  25.580  1.00  0.00     0.261 C 
BRANCH  26  27
ATOM     27  O   UNL A   1      43.791  22.688  25.776  1.00  0.00    -0.460 OA
BRANCH  27  28
ATOM     28  C   UNL A   1      44.111  23.945  25.401  1.00  0.00     0.338 C 
ATOM     29  O   UNL A   1      44.734  24.290  24.404  1.00  0.00    -0.246 OA
BRANCH  28  30
ATOM     30  C   UNL A   1      43.442  24.885  26.314  1.00  0.00     0.060 A 
ATOM     31  C   UNL A   1      43.878  26.216  26.358  1.00  0.00     0.016 A 
ATOM     32  C   UNL A   1      42.398  24.453  27.135  1.00  0.00     0.016 A 
ATOM     33  C   UNL A   1      43.284  27.116  27.242  1.00  0.00     0.010 A 
ATOM     34  C   UNL A   1      41.818  25.351  28.034  1.00  0.00     0.010 A 
ATOM     35  C   UNL A   1      42.275  26.679  28.111  1.00  0.00    -0.014 A 
BRANCH  35  36
ATOM     36  C   UNL A   1      41.813  27.555  29.213  1.00  0.00     0.031 A 
ATOM     37  C   UNL A   1      42.531  27.491  30.533  1.00  0.00     0.074 A 
ATOM     38  C   UNL A   1      40.778  28.396  29.049  1.00  0.00     0.049 A 
ATOM     39  N   UNL A   1      42.268  28.110  31.655  1.00  0.00    -0.248 NA
ATOM     40  C   UNL A   1      43.704  26.605  30.594  1.00  0.00     0.031 C 
ATOM     41  C   UNL A   1      40.022  28.578  27.812  1.00  0.00     0.029 A 
ATOM     42  N   UNL A   1      40.174  29.247  29.942  1.00  0.00    -0.354 N 
ATOM     43  C   UNL A   1      43.235  27.683  32.556  1.00  0.00     0.074 A 
ATOM     44  C   UNL A   1      44.073  26.731  31.860  1.00  0.00     0.031 C 
ATOM     45  C   UNL A   1      39.043  29.474  28.028  1.00  0.00     0.029 A 
ATOM     46  C   UNL A   1      39.083  29.902  29.425  1.00  0.00     0.049 A 
ATOM     47  H   UNL A   1      40.493  29.375  30.864  1.00  0.00     0.167 HD
ATOM     48  C   UNL A   1      43.414  28.057  33.845  1.00  0.00     0.037 A 
ATOM     49  C   UNL A   1      38.203  30.729  30.022  1.00  0.00     0.037 A 
ATOM     50  C   UNL A   1      42.576  28.999  34.539  1.00  0.00     0.049 A 
ATOM     51  C   UNL A   1      38.376  31.069  31.481  1.00  0.00     0.074 A 
ATOM     52  C   UNL A   1      42.686  29.455  35.841  1.00  0.00     0.029 A 
ATOM     53  N   UNL A   1      41.465  29.621  33.990  1.00  0.00    -0.354 N 
ATOM     54  N   UNL A   1      39.310  30.685  32.317  1.00  0.00    -0.248 NA
ATOM     55  C   UNL A   1      37.369  31.960  32.078  1.00  0.00     0.031 C 
ATOM     56  C   UNL A   1      41.611  30.312  36.095  1.00  0.00     0.029 A 
ATOM     57  C   UNL A   1      40.864  30.436  34.935  1.00  0.00     0.049 A 
ATOM     58  H   UNL A   1      41.150  29.501  33.064  1.00  0.00     0.167 HD
ATOM     59  C   UNL A   1      39.023  31.311  33.525  1.00  0.00     0.074 A 
ATOM     60  C   UNL A   1      37.834  32.109  33.311  1.00  0.00     0.031 C 
ATOM     61  C   UNL A   1      39.687  31.234  34.706  1.00  0.00     0.037 A 
BRANCH  48  62
ATOM     62  C   UNL A   1      44.546  27.420  34.597  1.00  0.00     0.057 A 
ATOM     63  C   UNL A   1      45.836  27.964  34.597  1.00  0.00     0.134 A 
ATOM     64  C   UNL A   1      44.334  26.259  35.353  1.00  0.00     0.134 A 
ATOM     65  F   UNL A   1      46.110  29.065  33.882  1.00  0.00    -0.206 F 
ATOM     66  C   UNL A   1      46.882  27.363  35.301  1.00  0.00     0.040 A 
ATOM     67  C   UNL A   1      45.364  25.666  36.083  1.00  0.00     0.040 A 
ATOM     68  F   UNL A   1      43.121  25.687  35.399  1.00  0.00    -0.206 F 
ATOM     69  C   UNL A   1      46.645  26.214  36.053  1.00  0.00     0.006 A 
ENDBRANCH  48  62
BRANCH  49  70
ATOM     70  C   UNL A   1      37.063  31.288  29.251  1.00  0.00     0.057 A 
ATOM     71  C   UNL A   1      35.930  30.517  28.967  1.00  0.00     0.134 A 
ATOM     72  C   UNL A   1      37.091  32.597  28.755  1.00  0.00     0.134 A 
ATOM     73  F   UNL A   1      35.854  29.247  29.394  1.00  0.00    -0.206 F 
ATOM     74  C   UNL A   1      34.877  31.018  28.201  1.00  0.00     0.040 A 
ATOM     75  C   UNL A   1      36.033  33.121  28.010  1.00  0.00     0.040 A 
ATOM     76  F   UNL A   1      38.149  33.389  28.990  1.00  0.00    -0.206 F 
ATOM     77  C   UNL A   1      34.924  32.327  27.724  1.00  0.00     0.006 A 
ENDBRANCH  49  70
BRANCH  61  78
ATOM     78  C   UNL A   1      39.173  32.067  35.845  1.00  0.00     0.057 A 
ATOM     79  C   UNL A   1      38.256  31.567  36.779  1.00  0.00     0.134 A 
ATOM     80  C   UNL A   1      39.639  33.375  36.036  1.00  0.00     0.134 A 
ATOM     81  F   UNL A   1      37.761  30.328  36.649  1.00  0.00    -0.206 F 
ATOM     82  C   UNL A   1      37.804  32.346  37.847  1.00  0.00     0.040 A 
ATOM     83  C   UNL A   1      39.217  34.153  37.115  1.00  0.00     0.040 A 
ATOM     84  F   UNL A   1      40.527  33.913  35.185  1.00  0.00    -0.206 F 
ATOM     85  C   UNL A   1      38.291  33.641  38.021  1.00  0.00     0.006 A 
ENDBRANCH  61  78
ENDBRANCH  35  36
ENDBRANCH  28  30
ENDBRANCH  27  28
ENDBRANCH  26  27
ENDBRANCH  25  26
ENDBRANCH  24  25
ENDBRANCH  23  24
ENDBRANCH   1  23
TORSDOF 19
ENDMDL
MODEL 2
REMARK VINA RESULT:     -10.4      1.814      3.628
REMARK SMILES CCOc1ccc2[nH]c(=O)c(C(=O)OCCOCCOCCOC(=O)c3ccc(-c4c5nc(c(-c6c(F)cccc6F)c6ccc([nH]6)c(-c6c(F)cccc6F)c6nc(c(-c7c(F)cccc7F)c7ccc4[nH]7)C=C6)C=C5)cc3)cc2c1
REMARK SMILES IDX 18 1 17 2 16 3 15 4 14 5 12 6 13 7 11 8 4 9 5 10 82 11 6 12
REMARK SMILES IDX 81 13 7 14 80 15 8 16 9 17 10 19 3 20 2 21 1 22 19 23 20 24
REMARK SMILES IDX 21 25 22 26 23 27 24 28 25 29 26 30 27 31 79 32 28 33 78 34
REMARK SMILES IDX 29 35 30 36 31 37 72 38 32 39 77 40 71 41 73 42 33 43 76 44
REMARK SMILES IDX 70 45 69 46 34 48 60 49 43 50 59 51 44 52 47 53 58 54 74 55
REMARK SMILES IDX 45 56 46 57 57 59 75 60 48 61 35 62 36 63 41 64 37 65 38 66
REMARK SMILES IDX 40 67 42 68 39 69 61 70 62 71 67 72 63 73 64 74 66 75 68 76
REMARK SMILES IDX 65 77 49 78 50 79 55 80 51 81 52 82 54 83 56 84 53 85
REMARK H PARENT 8 18 73 47 47 58
REMARK Flexibility Score: inf
ROOT
ATOM      1  C   UNL A   1      39.253  21.646  26.141  1.00  0.00     0.188 C 
ENDROOT
BRANCH   1   2
ATOM      2  O   UNL A   1      39.024  22.991  25.745  1.00  0.00    -0.376 OA
BRANCH   2   3
ATOM      3  C   UNL A   1      37.932  23.716  26.298  1.00  0.00     0.202 C 
BRANCH   3   4
ATOM      4  C   UNL A   1      36.494  23.231  26.060  1.00  0.00     0.261 C 
BRANCH   4   5
ATOM      5  O   UNL A   1      36.321  22.444  24.873  1.00  0.00    -0.459 OA
BRANCH   5   6
ATOM      6  C   UNL A   1      35.888  23.103  23.769  1.00  0.00     0.343 C 
ATOM      7  O   UNL A   1      36.474  23.171  22.698  1.00  0.00    -0.246 OA
BRANCH   6   8
ATOM      8  C   UNL A   1      34.500  23.576  23.958  1.00  0.00     0.125 A 
ATOM      9  C   UNL A   1      31.469  27.333  24.548  1.00  0.00     0.120 A 
ATOM     10  C   UNL A   1      30.382  26.459  24.562  1.00  0.00     0.048 A 
ATOM     11  C   UNL A   1      32.767  26.852  24.361  1.00  0.00     0.056 A 
ATOM     12  C   UNL A   1      30.589  25.087  24.434  1.00  0.00     0.030 A 
ATOM     13  C   UNL A   1      32.981  25.474  24.237  1.00  0.00     0.003 A 
ATOM     14  C   UNL A   1      31.884  24.602  24.269  1.00  0.00     0.049 A 
ATOM     15  C   UNL A   1      34.322  24.907  24.071  1.00  0.00     0.032 A 
ATOM     16  N   UNL A   1      32.096  23.226  24.127  1.00  0.00    -0.321 N 
ATOM     17  C   UNL A   1      33.335  22.652  23.982  1.00  0.00     0.263 A 
ATOM     18  H   UNL A   1      31.310  22.634  24.133  1.00  0.00     0.170 HD
ATOM     19  O   UNL A   1      33.449  21.434  23.902  1.00  0.00    -0.269 OA
BRANCH   9  20
ATOM     20  O   UNL A   1      31.259  28.683  24.592  1.00  0.00    -0.494 OA
BRANCH  20  21
ATOM     21  C   UNL A   1      32.192  29.366  25.441  1.00  0.00     0.226 C 
ATOM     22  C   UNL A   1      31.623  30.672  25.978  1.00  0.00     0.049 C 
ENDBRANCH  20  21
ENDBRANCH   9  20
ENDBRANCH   6   8
ENDBRANCH   5   6
ENDBRANCH   4   5
ENDBRANCH   3   4
ENDBRANCH   2   3
ENDBRANCH   1   2
BRANCH   1  23
ATOM     23  C   UNL A   1      40.540  21.263  26.906  1.00  0.00     0.188 C 
BRANCH  23  24
ATOM     24  O   UNL A   1      41.468  20.513  26.167  1.00  0.00    -0.376 OA
BRANCH  24  25
ATOM     25  C   UNL A   1      42.847  20.830  26.197  1.00  0.00     0.202 C 
BRANCH  25  26
ATOM     26  C   UNL A   1      43.576  21.763  25.208  1.00  0.00     0.261 C 
BRANCH  26  27
ATOM     27  O   UNL A   1      42.998  23.038  24.922  1.00  0.00    -0.460 OA
BRANCH  27  28
ATOM     28  C   UNL A   1      43.803  24.112  25.072  1.00  0.00     0.338 C 
ATOM     29  O   UNL A   1      44.829  24.368  24.453  1.00  0.00    -0.246 OA
BRANCH  28  30
ATOM     30  C   UNL A   1      43.159  25.045  26.011  1.00  0.00     0.060 A 
ATOM     31  C   UNL A   1      43.630  26.363  26.088  1.00  0.00     0.016 A 
ATOM     32  C   UNL A   1      42.107  24.618  26.823  1.00  0.00     0.016 A 
ATOM     33  C   UNL A   1      43.061  27.254  26.996  1.00  0.00     0.010 A 
ATOM     34  C   UNL A   1      41.551  25.507  27.747  1.00  0.00     0.010 A 
ATOM     35  C   UNL A   1      42.043  26.820  27.856  1.00  0.00    -0.014 A 
BRANCH  35  36
ATOM     36  C   UNL A   1      41.605  27.679  28.982  1.00  0.00     0.031 A 
ATOM     37  C   UNL A   1      42.345  27.586  30.289  1.00  0.00     0.074 A 
ATOM     38  C   UNL A   1      40.573  28.530  28.851  1.00  0.00     0.049 A 
ATOM     39  N   UNL A   1      42.105  28.186  31.426  1.00  0.00    -0.248 NA
ATOM     40  C   UNL A   1      43.512  26.691  30.313  1.00  0.00     0.031 C 
ATOM     41  C   UNL A   1      39.798  28.740  27.630  1.00  0.00     0.029 A 
ATOM     42  N   UNL A   1      39.990  29.369  29.770  1.00  0.00    -0.354 N 
ATOM     43  C   UNL A   1      43.083  27.736  32.302  1.00  0.00     0.074 A 
ATOM     44  C   UNL A   1      43.903  26.791  31.575  1.00  0.00     0.031 C 
ATOM     45  C   UNL A   1      38.830  29.638  27.879  1.00  0.00     0.029 A 
ATOM     46  C   UNL A   1      38.895  30.040  29.284  1.00  0.00     0.049 A 
ATOM     47  H   UNL A   1      40.326  29.478  30.688  1.00  0.00     0.167 HD
ATOM     48  C   UNL A   1      43.287  28.084  33.595  1.00  0.00     0.037 A 
ATOM     49  C   UNL A   1      38.032  30.862  29.910  1.00  0.00     0.037 A 
ATOM     50  C   UNL A   1      42.467  29.019  34.320  1.00  0.00     0.049 A 
ATOM     51  C   UNL A   1      38.231  31.174  31.372  1.00  0.00     0.074 A 
ATOM     52  C   UNL A   1      42.603  29.450  35.628  1.00  0.00     0.029 A 
ATOM     53  N   UNL A   1      41.352  29.658  33.801  1.00  0.00    -0.354 N 
ATOM     54  N   UNL A   1      39.176  30.768  32.185  1.00  0.00    -0.248 NA
ATOM     55  C   UNL A   1      37.241  32.060  32.003  1.00  0.00     0.031 C 
ATOM     56  C   UNL A   1      41.537  30.310  35.917  1.00  0.00     0.029 A 
ATOM     57  C   UNL A   1      40.772  30.460  34.772  1.00  0.00     0.049 A 
ATOM     58  H   UNL A   1      41.020  29.558  32.879  1.00  0.00     0.167 HD
ATOM     59  C   UNL A   1      38.915  31.373  33.409  1.00  0.00     0.074 A 
ATOM     60  C   UNL A   1      37.728  32.183  33.229  1.00  0.00     0.031 C 
ATOM     61  C   UNL A   1      39.597  31.270  34.577  1.00  0.00     0.037 A 
BRANCH  48  62
ATOM     62  C   UNL A   1      44.426  27.426  34.316  1.00  0.00     0.057 A 
ATOM     63  C   UNL A   1      44.293  26.172  34.926  1.00  0.00     0.134 A 
ATOM     64  C   UNL A   1      45.682  28.045  34.379  1.00  0.00     0.134 A 
ATOM     65  F   UNL A   1      43.113  25.532  34.916  1.00  0.00    -0.206 F 
ATOM     66  C   UNL A   1      45.360  25.568  35.595  1.00  0.00     0.040 A 
ATOM     67  C   UNL A   1      46.762  27.438  35.019  1.00  0.00     0.040 A 
ATOM     68  F   UNL A   1      45.879  29.245  33.813  1.00  0.00    -0.206 F 
ATOM     69  C   UNL A   1      46.602  26.199  35.636  1.00  0.00     0.006 A 
ENDBRANCH  48  62
BRANCH  49  70
ATOM     70  C   UNL A   1      36.883  31.443  29.169  1.00  0.00     0.057 A 
ATOM     71  C   UNL A   1      35.759  30.672  28.850  1.00  0.00     0.134 A 
ATOM     72  C   UNL A   1      36.893  32.774  28.736  1.00  0.00     0.134 A 
ATOM     73  F   UNL A   1      35.700  29.382  29.215  1.00  0.00    -0.206 F 
ATOM     74  C   UNL A   1      34.697  31.196  28.111  1.00  0.00     0.040 A 
ATOM     75  C   UNL A   1      35.827  33.320  28.019  1.00  0.00     0.040 A 
ATOM     76  F   UNL A   1      37.941  33.567  29.007  1.00  0.00    -0.206 F 
ATOM     77  C   UNL A   1      34.728  32.527  27.698  1.00  0.00     0.006 A 
ENDBRANCH  49  70
BRANCH  61  78
ATOM     78  C   UNL A   1      39.108  32.086  35.740  1.00  0.00     0.057 A 
ATOM     79  C   UNL A   1      38.246  31.558  36.709  1.00  0.00     0.134 A 
ATOM     80  C   UNL A   1      39.546  33.406  35.916  1.00  0.00     0.134 A 
ATOM     81  F   UNL A   1      37.780  30.305  36.596  1.00  0.00    -0.206 F 
ATOM     82  C   UNL A   1      37.817  32.321  37.798  1.00  0.00     0.040 A 
ATOM     83  C   UNL A   1      39.147  34.169  37.014  1.00  0.00     0.040 A 
ATOM     84  F   UNL A   1      40.382  33.971  35.030  1.00  0.00    -0.206 F 
ATOM     85  C   UNL A   1      38.274  33.628  37.956  1.00  0.00     0.006 A 
ENDBRANCH  61  78
ENDBRANCH  35  36
ENDBRANCH  28  30
ENDBRANCH  27  28
ENDBRANCH  26  27
ENDBRANCH  25  26
ENDBRANCH  24  25
ENDBRANCH  23  24
ENDBRANCH   1  23
TORSDOF 19
ENDMDL
MODEL 3
REMARK VINA RESULT:     -10.4      4.602     10.088
REMARK SMILES CCOc1ccc2[nH]c(=O)c(C(=O)OCCOCCOCCOC(=O)c3ccc(-c4c5nc(c(-c6c(F)cccc6F)c6ccc([nH]6)c(-c6c(F)cccc6F)c6nc(c(-c7c(F)cccc7F)c7ccc4[nH]7)C=C6)C=C5)cc3)cc2c1
REMARK SMILES IDX 18 1 17 2 16 3 15 4 14 5 12 6 13 7 11 8 4 9 5 10 82 11 6 12
REMARK SMILES IDX 81 13 7 14 80 15 8 16 9 17 10 19 3 20 2 21 1 22 19 23 20 24
REMARK SMILES IDX 21 25 22 26 23 27 24 28 25 29 26 30 27 31 79 32 28 33 78 34
REMARK SMILES IDX 29 35 30 36 31 37 72 38 32 39 77 40 71 41 73 42 33 43 76 44
REMARK SMILES IDX 70 45 69 46 34 48 60 49 43 50 59 51 44 52 47 53 58 54 74 55
REMARK SMILES IDX 45 56 46 57 57 59 75 60 48 61 35 62 36 63 41 64 37 65 38 66
REMARK SMILES IDX 40 67 42 68 39 69 61 70 62 71 67 72 63 73 64 74 66 75 68 76
REMARK SMILES IDX 65 77 49 78 50 79 55 80 51 81 52 82 54 83 56 84 53 85
REMARK H PARENT 8 18 73 47 47 58
REMARK Flexibility Score: inf
ROOT
ATOM      1  C   UNL A   1      34.273  31.609  27.593  1.00  0.00     0.188 C 
ENDROOT
BRANCH   1   2
ATOM      2  O   UNL A   1      32.880  31.390  27.416  1.00  0.00    -0.376 OA
BRANCH   2   3
ATOM      3  C   UNL A   1      32.428  30.309  26.610  1.00  0.00     0.202 C 
BRANCH   3   4
ATOM      4  C   UNL A   1      33.104  28.935  26.727  1.00  0.00     0.261 C 
BRANCH   4   5
ATOM      5  O   UNL A   1      32.537  27.919  25.888  1.00  0.00    -0.459 OA
BRANCH   5   6
ATOM      6  C   UNL A   1      31.755  26.996  26.501  1.00  0.00     0.343 C 
ATOM      7  O   UNL A   1      30.984  27.208  27.427  1.00  0.00    -0.246 OA
BRANCH   6   8
ATOM      8  C   UNL A   1      31.801  25.711  25.772  1.00  0.00     0.125 A 
ATOM      9  C   UNL A   1      34.068  21.474  25.022  1.00  0.00     0.120 A 
ATOM     10  C   UNL A   1      33.084  21.105  24.106  1.00  0.00     0.048 A 
ATOM     11  C   UNL A   1      33.989  22.693  25.698  1.00  0.00     0.056 A 
ATOM     12  C   UNL A   1      32.032  21.975  23.823  1.00  0.00     0.030 A 
ATOM     13  C   UNL A   1      32.939  23.574  25.414  1.00  0.00     0.003 A 
ATOM     14  C   UNL A   1      31.963  23.201  24.479  1.00  0.00     0.049 A 
ATOM     15  C   UNL A   1      32.821  24.880  26.067  1.00  0.00     0.032 A 
ATOM     16  N   UNL A   1      30.903  24.074  24.208  1.00  0.00    -0.321 N 
ATOM     17  C   UNL A   1      30.761  25.311  24.788  1.00  0.00     0.263 A 
ATOM     18  H   UNL A   1      30.218  23.783  23.563  1.00  0.00     0.170 HD
ATOM     19  O   UNL A   1      29.826  26.039  24.473  1.00  0.00    -0.269 OA
BRANCH   9  20
ATOM     20  O   UNL A   1      35.053  20.587  25.359  1.00  0.00    -0.494 OA
BRANCH  20  21
ATOM     21  C   UNL A   1      36.363  21.170  25.329  1.00  0.00     0.226 C 
ATOM     22  C   UNL A   1      37.404  20.202  24.785  1.00  0.00     0.049 C 
ENDBRANCH  20  21
ENDBRANCH   9  20
ENDBRANCH   6   8
ENDBRANCH   5   6
ENDBRANCH   4   5
ENDBRANCH   3   4
ENDBRANCH   2   3
ENDBRANCH   1   2
BRANCH   1  23
ATOM     23  C   UNL A   1      34.801  32.998  28.016  1.00  0.00     0.188 C 
BRANCH  23  24
ATOM     24  O   UNL A   1      33.942  33.729  28.851  1.00  0.00    -0.376 OA
BRANCH  24  25
ATOM     25  C   UNL A   1      34.425  34.349  30.027  1.00  0.00     0.202 C 
BRANCH  25  26
ATOM     26  C   UNL A   1      34.295  33.787  31.458  1.00  0.00     0.261 C 
BRANCH  26  27
ATOM     27  O   UNL A   1      34.742  32.452  31.709  1.00  0.00    -0.460 OA
BRANCH  27  28
ATOM     28  C   UNL A   1      35.788  32.316  32.551  1.00  0.00     0.338 C 
ATOM     29  O   UNL A   1      35.836  32.622  33.737  1.00  0.00    -0.246 OA
BRANCH  28  30
ATOM     30  C   UNL A   1      36.850  31.571  31.855  1.00  0.00     0.060 A 
ATOM     31  C   UNL A   1      37.796  30.868  32.614  1.00  0.00     0.016 A 
ATOM     32  C   UNL A   1      36.921  31.578  30.461  1.00  0.00     0.016 A 
ATOM     33  C   UNL A   1      38.832  30.187  31.978  1.00  0.00     0.010 A 
ATOM     34  C   UNL A   1      37.972  30.911  29.826  1.00  0.00     0.010 A 
ATOM     35  C   UNL A   1      38.947  30.235  30.582  1.00  0.00    -0.014 A 
BRANCH  35  36
ATOM     36  C   UNL A   1      40.171  29.725  29.919  1.00  0.00     0.031 A 
ATOM     37  C   UNL A   1      41.319  30.672  29.702  1.00  0.00     0.074 A 
ATOM     38  C   UNL A   1      40.266  28.446  29.519  1.00  0.00     0.049 A 
ATOM     39  N   UNL A   1      42.457  30.473  29.090  1.00  0.00    -0.248 NA
ATOM     40  C   UNL A   1      41.156  32.029  30.247  1.00  0.00     0.031 C 
ATOM     41  C   UNL A   1      39.241  27.422  29.702  1.00  0.00     0.029 A 
ATOM     42  N   UNL A   1      41.279  27.795  28.857  1.00  0.00    -0.354 N 
ATOM     43  C   UNL A   1      43.142  31.678  29.169  1.00  0.00     0.074 A 
ATOM     44  C   UNL A   1      42.282  32.612  29.862  1.00  0.00     0.031 C 
ATOM     45  C   UNL A   1      39.670  26.273  29.151  1.00  0.00     0.029 A 
ATOM     46  C   UNL A   1      40.984  26.490  28.548  1.00  0.00     0.049 A 
ATOM     47  H   UNL A   1      42.135  28.224  28.627  1.00  0.00     0.167 HD
ATOM     48  C   UNL A   1      44.382  31.979  28.713  1.00  0.00     0.037 A 
ATOM     49  C   UNL A   1      41.685  25.587  27.835  1.00  0.00     0.037 A 
ATOM     50  C   UNL A   1      45.235  31.053  28.017  1.00  0.00     0.049 A 
ATOM     51  C   UNL A   1      43.028  25.969  27.268  1.00  0.00     0.074 A 
ATOM     52  C   UNL A   1      46.514  31.258  27.530  1.00  0.00     0.029 A 
ATOM     53  N   UNL A   1      44.890  29.748  27.699  1.00  0.00    -0.354 N 
ATOM     54  N   UNL A   1      43.682  27.100  27.374  1.00  0.00    -0.248 NA
ATOM     55  C   UNL A   1      43.732  24.944  26.481  1.00  0.00     0.031 C 
ATOM     56  C   UNL A   1      46.922  30.093  26.871  1.00  0.00     0.029 A 
ATOM     57  C   UNL A   1      45.921  29.144  26.998  1.00  0.00     0.049 A 
ATOM     58  H   UNL A   1      44.039  29.314  27.937  1.00  0.00     0.167 HD
ATOM     59  C   UNL A   1      44.883  26.914  26.698  1.00  0.00     0.074 A 
ATOM     60  C   UNL A   1      44.872  25.556  26.195  1.00  0.00     0.031 C 
ATOM     61  C   UNL A   1      45.904  27.787  26.513  1.00  0.00     0.037 A 
BRANCH  48  62
ATOM     62  C   UNL A   1      44.875  33.381  28.927  1.00  0.00     0.057 A 
ATOM     63  C   UNL A   1      44.616  34.407  28.010  1.00  0.00     0.134 A 
ATOM     64  C   UNL A   1      45.598  33.712  30.081  1.00  0.00     0.134 A 
ATOM     65  F   UNL A   1      43.943  34.153  26.877  1.00  0.00    -0.206 F 
ATOM     66  C   UNL A   1      45.079  35.707  28.219  1.00  0.00     0.040 A 
ATOM     67  C   UNL A   1      46.041  35.014  30.314  1.00  0.00     0.040 A 
ATOM     68  F   UNL A   1      45.877  32.777  31.002  1.00  0.00    -0.206 F 
ATOM     69  C   UNL A   1      45.788  36.015  29.379  1.00  0.00     0.006 A 
ENDBRANCH  48  62
BRANCH  49  70
ATOM     70  C   UNL A   1      41.128  24.230  27.598  1.00  0.00     0.057 A 
ATOM     71  C   UNL A   1      41.631  23.110  28.271  1.00  0.00     0.134 A 
ATOM     72  C   UNL A   1      40.102  24.015  26.670  1.00  0.00     0.134 A 
ATOM     73  F   UNL A   1      42.632  23.247  29.154  1.00  0.00    -0.206 F 
ATOM     74  C   UNL A   1      41.148  21.826  28.017  1.00  0.00     0.040 A 
ATOM     75  C   UNL A   1      39.590  22.739  26.425  1.00  0.00     0.040 A 
ATOM     76  F   UNL A   1      39.577  25.045  25.989  1.00  0.00    -0.206 F 
ATOM     77  C   UNL A   1      40.120  21.639  27.095  1.00  0.00     0.006 A 
ENDBRANCH  49  70
BRANCH  61  78
ATOM     78  C   UNL A   1      47.115  27.292  25.775  1.00  0.00     0.057 A 
ATOM     79  C   UNL A   1      48.116  26.542  26.406  1.00  0.00     0.134 A 
ATOM     80  C   UNL A   1      47.256  27.529  24.401  1.00  0.00     0.134 A 
ATOM     81  F   UNL A   1      48.048  26.288  27.721  1.00  0.00    -0.206 F 
ATOM     82  C   UNL A   1      49.225  26.068  25.702  1.00  0.00     0.040 A 
ATOM     83  C   UNL A   1      48.345  27.036  23.681  1.00  0.00     0.040 A 
ATOM     84  F   UNL A   1      46.328  28.231  23.732  1.00  0.00    -0.206 F 
ATOM     85  C   UNL A   1      49.338  26.308  24.334  1.00  0.00     0.006 A 
ENDBRANCH  61  78
ENDBRANCH  35  36
ENDBRANCH  28  30
ENDBRANCH  27  28
ENDBRANCH  26  27
ENDBRANCH  25  26
ENDBRANCH  24  25
ENDBRANCH  23  24
ENDBRANCH   1  23
TORSDOF 19
ENDMDL
