MODEL 1
REMARK VINA RESULT:     -10.1      0.000      0.000
REMARK SMILES CCC[NH2+][C@]1(C(=O)OCCOCCOCCOC(=O)c2ccc(-c3c4nc(c(-c5c(F)cccc5F)c5ccc([nH]5)c(-c5c(F)cccc5F)c5nc(c(-c6c(F)cccc6F)c6ccc3[nH]6)C=C5)C=C4)cc2)CC[C@@H](Sc2nnc(C)n2C)C1
REMARK SMILES IDX 12 1 11 2 10 3 9 4 8 5 6 6 7 7 5 8 74 9 85 10 75 11 76 12
REMARK SMILES IDX 4 13 3 16 2 17 1 18 77 19 78 20 79 21 83 22 80 23 81 24
REMARK SMILES IDX 84 25 82 26 13 27 14 28 15 29 16 30 17 31 18 32 19 33 20 34
REMARK SMILES IDX 21 35 73 36 22 37 72 38 23 39 24 40 25 41 66 42 26 43 71 44
REMARK SMILES IDX 65 45 67 46 27 47 70 48 64 49 63 50 28 52 54 53 37 54 53 55
REMARK SMILES IDX 38 56 41 57 52 58 68 59 39 60 40 61 51 63 69 64 42 65 29 66
REMARK SMILES IDX 30 67 35 68 31 69 32 70 34 71 36 72 33 73 55 74 56 75 61 76
REMARK SMILES IDX 57 77 58 78 60 79 62 80 59 81 43 82 44 83 49 84 45 85 46 86
REMARK SMILES IDX 48 87 50 88 47 89
REMARK H PARENT 4 14 4 15 67 51 41 62
REMARK Flexibility Score: inf
ROOT
ATOM      1  C   UNL A   1      34.433  32.291  27.909  1.00  0.00     0.188 C 
ENDROOT
BRANCH   1   2
ATOM      2  O   UNL A   1      33.903  31.116  27.305  1.00  0.00    -0.376 OA
BRANCH   2   3
ATOM      3  C   UNL A   1      34.375  29.849  27.736  1.00  0.00     0.202 C 
BRANCH   3   4
ATOM      4  C   UNL A   1      34.513  28.786  26.654  1.00  0.00     0.261 C 
BRANCH   4   5
ATOM      5  O   UNL A   1      33.710  29.066  25.498  1.00  0.00    -0.459 OA
BRANCH   5   6
ATOM      6  C   UNL A   1      32.500  28.448  25.442  1.00  0.00     0.368 C 
ATOM      7  O   UNL A   1      31.829  28.144  26.425  1.00  0.00    -0.245 OA
BRANCH   6   8
ATOM      8  C   UNL A   1      32.072  28.117  23.993  1.00  0.00     0.195 C 
ATOM      9  C   UNL A   1      33.233  27.512  23.172  1.00  0.00     0.082 C 
ATOM     10  C   UNL A   1      31.106  26.920  24.074  1.00  0.00     0.096 C 
ATOM     11  C   UNL A   1      32.563  26.620  22.130  1.00  0.00     0.022 C 
ATOM     12  C   UNL A   1      31.293  26.095  22.804  1.00  0.00     0.062 C 
BRANCH   8  13
ATOM     13  N   UNL A   1      31.543  29.306  23.279  1.00  0.00    -0.332 N 
ATOM     14  H   UNL A   1      32.153  30.096  23.488  1.00  0.00     0.347 HD
ATOM     15  H   UNL A   1      31.523  29.054  22.290  1.00  0.00     0.347 HD
BRANCH  13  16
ATOM     16  C   UNL A   1      30.174  29.688  23.623  1.00  0.00     0.261 C 
BRANCH  16  17
ATOM     17  C   UNL A   1      29.232  29.495  22.435  1.00  0.00     0.058 C 
ATOM     18  C   UNL A   1      27.891  28.874  22.801  1.00  0.00     0.010 C 
ENDBRANCH  16  17
ENDBRANCH  13  16
ENDBRANCH   8  13
BRANCH  12  19
ATOM     19  S   UNL A   1      31.262  24.304  23.192  1.00  0.00    -0.082 SA
BRANCH  19  20
ATOM     20  C   UNL A   1      32.946  23.949  23.362  1.00  0.00     0.191 A 
ATOM     21  N   UNL A   1      33.722  23.550  22.384  1.00  0.00    -0.123 NA
ATOM     22  N   UNL A   1      33.685  24.107  24.503  1.00  0.00    -0.309 N 
ATOM     23  N   UNL A   1      35.006  23.485  22.867  1.00  0.00    -0.135 NA
ATOM     24  C   UNL A   1      34.985  23.844  24.134  1.00  0.00     0.130 A 
ATOM     25  C   UNL A   1      33.271  24.533  25.816  1.00  0.00     0.154 C 
ATOM     26  C   UNL A   1      36.158  23.970  25.027  1.00  0.00     0.090 C 
ENDBRANCH  19  20
ENDBRANCH  12  19
ENDBRANCH   6   8
ENDBRANCH   5   6
ENDBRANCH   4   5
ENDBRANCH   3   4
ENDBRANCH   2   3
ENDBRANCH   1   2
BRANCH   1  27
ATOM     27  C   UNL A   1      33.517  33.506  28.164  1.00  0.00     0.188 C 
BRANCH  27  28
ATOM     28  O   UNL A   1      33.439  34.043  29.482  1.00  0.00    -0.376 OA
BRANCH  28  29
ATOM     29  C   UNL A   1      34.658  34.299  30.175  1.00  0.00     0.202 C 
BRANCH  29  30
ATOM     30  C   UNL A   1      34.601  33.985  31.666  1.00  0.00     0.261 C 
BRANCH  30  31
ATOM     31  O   UNL A   1      34.730  32.568  31.843  1.00  0.00    -0.460 OA
BRANCH  31  32
ATOM     32  C   UNL A   1      35.730  32.195  32.663  1.00  0.00     0.338 C 
ATOM     33  O   UNL A   1      35.866  32.460  33.842  1.00  0.00    -0.246 OA
BRANCH  32  34
ATOM     34  C   UNL A   1      36.599  31.260  31.934  1.00  0.00     0.060 A 
ATOM     35  C   UNL A   1      37.619  30.628  32.647  1.00  0.00     0.016 A 
ATOM     36  C   UNL A   1      36.503  31.128  30.547  1.00  0.00     0.016 A 
ATOM     37  C   UNL A   1      38.598  29.917  31.956  1.00  0.00     0.010 A 
ATOM     38  C   UNL A   1      37.483  30.403  29.858  1.00  0.00     0.010 A 
ATOM     39  C   UNL A   1      38.560  29.832  30.559  1.00  0.00    -0.014 A 
BRANCH  39  40
ATOM     40  C   UNL A   1      39.789  29.391  29.856  1.00  0.00     0.031 A 
ATOM     41  C   UNL A   1      40.931  30.365  29.756  1.00  0.00     0.074 A 
ATOM     42  C   UNL A   1      39.950  28.129  29.419  1.00  0.00     0.049 A 
ATOM     43  N   UNL A   1      42.108  30.216  29.205  1.00  0.00    -0.248 NA
ATOM     44  C   UNL A   1      40.720  31.679  30.386  1.00  0.00     0.031 C 
ATOM     45  C   UNL A   1      38.967  27.056  29.540  1.00  0.00     0.029 A 
ATOM     46  N   UNL A   1      41.021  27.541  28.792  1.00  0.00    -0.354 N 
ATOM     47  C   UNL A   1      42.774  31.416  29.416  1.00  0.00     0.074 A 
ATOM     48  C   UNL A   1      41.870  32.285  30.138  1.00  0.00     0.031 C 
ATOM     49  C   UNL A   1      39.481  25.936  29.000  1.00  0.00     0.029 A 
ATOM     50  C   UNL A   1      40.813  26.224  28.467  1.00  0.00     0.049 A 
ATOM     51  H   UNL A   1      41.859  28.018  28.595  1.00  0.00     0.167 HD
ATOM     52  C   UNL A   1      44.026  31.771  29.043  1.00  0.00     0.037 A 
ATOM     53  C   UNL A   1      41.602  25.359  27.798  1.00  0.00     0.037 A 
ATOM     54  C   UNL A   1      44.927  30.928  28.309  1.00  0.00     0.049 A 
ATOM     55  C   UNL A   1      42.955  25.805  27.304  1.00  0.00     0.074 A 
ATOM     56  C   UNL A   1      46.193  31.223  27.835  1.00  0.00     0.029 A 
ATOM     57  N   UNL A   1      44.654  29.621  27.939  1.00  0.00    -0.354 N 
ATOM     58  N   UNL A   1      43.560  26.956  27.470  1.00  0.00    -0.248 NA
ATOM     59  C   UNL A   1      43.730  24.831  26.521  1.00  0.00     0.031 C 
ATOM     60  C   UNL A   1      46.672  30.103  27.147  1.00  0.00     0.029 A 
ATOM     61  C   UNL A   1      45.721  29.099  27.227  1.00  0.00     0.049 A 
ATOM     62  H   UNL A   1      43.824  29.136  28.150  1.00  0.00     0.167 HD
ATOM     63  C   UNL A   1      44.787  26.840  26.827  1.00  0.00     0.074 A 
ATOM     64  C   UNL A   1      44.849  25.500  26.282  1.00  0.00     0.031 C 
ATOM     65  C   UNL A   1      45.771  27.763  26.694  1.00  0.00     0.037 A 
BRANCH  52  66
ATOM     66  C   UNL A   1      44.449  33.166  29.380  1.00  0.00     0.057 A 
ATOM     67  C   UNL A   1      44.219  34.239  28.511  1.00  0.00     0.134 A 
ATOM     68  C   UNL A   1      45.140  33.427  30.569  1.00  0.00     0.134 A 
ATOM     69  F   UNL A   1      43.588  34.044  27.343  1.00  0.00    -0.206 F 
ATOM     70  C   UNL A   1      44.686  35.521  28.801  1.00  0.00     0.040 A 
ATOM     71  C   UNL A   1      45.595  34.708  30.880  1.00  0.00     0.040 A 
ATOM     72  F   UNL A   1      45.397  32.438  31.439  1.00  0.00    -0.206 F 
ATOM     73  C   UNL A   1      45.377  35.759  29.989  1.00  0.00     0.006 A 
ENDBRANCH  52  66
BRANCH  53  74
ATOM     74  C   UNL A   1      41.120  23.985  27.511  1.00  0.00     0.057 A 
ATOM     75  C   UNL A   1      40.124  23.745  26.558  1.00  0.00     0.134 A 
ATOM     76  C   UNL A   1      41.618  22.884  28.217  1.00  0.00     0.134 A 
ATOM     77  F   UNL A   1      39.585  24.763  25.872  1.00  0.00    -0.206 F 
ATOM     78  C   UNL A   1      39.630  22.459  26.327  1.00  0.00     0.040 A 
ATOM     79  C   UNL A   1      41.150  21.590  27.980  1.00  0.00     0.040 A 
ATOM     80  F   UNL A   1      42.568  23.050  29.149  1.00  0.00    -0.206 F 
ATOM     81  C   UNL A   1      40.148  21.377  27.036  1.00  0.00     0.006 A 
ENDBRANCH  53  74
BRANCH  65  82
ATOM     82  C   UNL A   1      47.008  27.353  25.948  1.00  0.00     0.057 A 
ATOM     83  C   UNL A   1      47.143  27.569  24.572  1.00  0.00     0.134 A 
ATOM     84  C   UNL A   1      48.095  26.785  26.625  1.00  0.00     0.134 A 
ATOM     85  F   UNL A   1      46.135  28.101  23.864  1.00  0.00    -0.206 F 
ATOM     86  C   UNL A   1      48.310  27.218  23.890  1.00  0.00     0.040 A 
ATOM     87  C   UNL A   1      49.274  26.448  25.958  1.00  0.00     0.040 A 
ATOM     88  F   UNL A   1      48.033  26.559  27.946  1.00  0.00    -0.206 F 
ATOM     89  C   UNL A   1      49.383  26.661  24.585  1.00  0.00     0.006 A 
ENDBRANCH  65  82
ENDBRANCH  39  40
ENDBRANCH  32  34
ENDBRANCH  31  32
ENDBRANCH  30  31
ENDBRANCH  29  30
ENDBRANCH  28  29
ENDBRANCH  27  28
ENDBRANCH   1  27
TORSDOF 22
ENDMDL
MODEL 2
REMARK VINA RESULT:      -9.6      1.111      2.006
REMARK SMILES CCC[NH2+][C@]1(C(=O)OCCOCCOCCOC(=O)c2ccc(-c3c4nc(c(-c5c(F)cccc5F)c5ccc([nH]5)c(-c5c(F)cccc5F)c5nc(c(-c6c(F)cccc6F)c6ccc3[nH]6)C=C5)C=C4)cc2)CC[C@@H](Sc2nnc(C)n2C)C1
REMARK SMILES IDX 12 1 11 2 10 3 9 4 8 5 6 6 7 7 5 8 74 9 85 10 75 11 76 12
REMARK SMILES IDX 4 13 3 16 2 17 1 18 77 19 78 20 79 21 83 22 80 23 81 24
REMARK SMILES IDX 84 25 82 26 13 27 14 28 15 29 16 30 17 31 18 32 19 33 20 34
REMARK SMILES IDX 21 35 73 36 22 37 72 38 23 39 24 40 25 41 66 42 26 43 71 44
REMARK SMILES IDX 65 45 67 46 27 47 70 48 64 49 63 50 28 52 54 53 37 54 53 55
REMARK SMILES IDX 38 56 41 57 52 58 68 59 39 60 40 61 51 63 69 64 42 65 29 66
REMARK SMILES IDX 30 67 35 68 31 69 32 70 34 71 36 72 33 73 55 74 56 75 61 76
REMARK SMILES IDX 57 77 58 78 60 79 62 80 59 81 43 82 44 83 49 84 45 85 46 86
REMARK SMILES IDX 48 87 50 88 47 89
REMARK H PARENT 4 14 4 15 67 51 41 62
REMARK Flexibility Score: inf
ROOT
ATOM      1  C   UNL A   1      34.290  31.956  27.996  1.00  0.00     0.188 C 
ENDROOT
BRANCH   1   2
ATOM      2  O   UNL A   1      33.623  30.798  27.504  1.00  0.00    -0.376 OA
BRANCH   2   3
ATOM      3  C   UNL A   1      34.379  29.624  27.252  1.00  0.00     0.202 C 
BRANCH   3   4
ATOM      4  C   UNL A   1      33.946  28.798  26.049  1.00  0.00     0.261 C 
BRANCH   4   5
ATOM      5  O   UNL A   1      32.989  27.784  26.389  1.00  0.00    -0.459 OA
BRANCH   5   6
ATOM      6  C   UNL A   1      33.167  26.567  25.807  1.00  0.00     0.368 C 
ATOM      7  O   UNL A   1      34.247  25.986  25.733  1.00  0.00    -0.245 OA
BRANCH   6   8
ATOM      8  C   UNL A   1      31.862  26.008  25.196  1.00  0.00     0.195 C 
ATOM      9  C   UNL A   1      32.129  25.190  23.913  1.00  0.00     0.082 C 
ATOM     10  C   UNL A   1      31.355  24.912  26.152  1.00  0.00     0.096 C 
ATOM     11  C   UNL A   1      30.996  24.169  23.847  1.00  0.00     0.022 C 
ATOM     12  C   UNL A   1      30.646  23.859  25.304  1.00  0.00     0.062 C 
BRANCH   8  13
ATOM     13  N   UNL A   1      30.880  27.080  24.891  1.00  0.00    -0.332 N 
ATOM     14  H   UNL A   1      29.948  26.715  25.083  1.00  0.00     0.347 HD
ATOM     15  H   UNL A   1      31.139  27.872  25.479  1.00  0.00     0.347 HD
BRANCH  13  16
ATOM     16  C   UNL A   1      30.898  27.575  23.516  1.00  0.00     0.261 C 
BRANCH  16  17
ATOM     17  C   UNL A   1      29.595  28.297  23.172  1.00  0.00     0.058 C 
ATOM     18  C   UNL A   1      28.340  27.500  23.499  1.00  0.00     0.010 C 
ENDBRANCH  16  17
ENDBRANCH  13  16
ENDBRANCH   8  13
BRANCH  12  19
ATOM     19  S   UNL A   1      31.058  22.175  25.897  1.00  0.00    -0.082 SA
BRANCH  19  20
ATOM     20  C   UNL A   1      32.707  22.019  25.404  1.00  0.00     0.191 A 
ATOM     21  N   UNL A   1      33.094  21.730  24.185  1.00  0.00    -0.123 NA
ATOM     22  N   UNL A   1      33.802  22.245  26.194  1.00  0.00    -0.309 N 
ATOM     23  N   UNL A   1      34.464  21.811  24.148  1.00  0.00    -0.135 NA
ATOM     24  C   UNL A   1      34.886  22.144  25.351  1.00  0.00     0.130 A 
ATOM     25  C   UNL A   1      33.873  22.597  27.590  1.00  0.00     0.154 C 
ATOM     26  C   UNL A   1      36.289  22.394  25.747  1.00  0.00     0.090 C 
ENDBRANCH  19  20
ENDBRANCH  12  19
ENDBRANCH   6   8
ENDBRANCH   5   6
ENDBRANCH   4   5
ENDBRANCH   3   4
ENDBRANCH   2   3
ENDBRANCH   1   2
BRANCH   1  27
ATOM     27  C   UNL A   1      33.557  33.313  28.023  1.00  0.00     0.188 C 
BRANCH  27  28
ATOM     28  O   UNL A   1      33.345  33.955  29.278  1.00  0.00    -0.376 OA
BRANCH  28  29
ATOM     29  C   UNL A   1      34.489  34.371  30.020  1.00  0.00     0.202 C 
BRANCH  29  30
ATOM     30  C   UNL A   1      34.427  34.021  31.502  1.00  0.00     0.261 C 
BRANCH  30  31
ATOM     31  O   UNL A   1      34.619  32.607  31.649  1.00  0.00    -0.460 OA
BRANCH  31  32
ATOM     32  C   UNL A   1      35.592  32.261  32.513  1.00  0.00     0.338 C 
ATOM     33  O   UNL A   1      35.684  32.556  33.689  1.00  0.00    -0.246 OA
BRANCH  32  34
ATOM     34  C   UNL A   1      36.492  31.315  31.838  1.00  0.00     0.060 A 
ATOM     35  C   UNL A   1      37.555  30.790  32.574  1.00  0.00     0.016 A 
ATOM     36  C   UNL A   1      36.377  31.072  30.468  1.00  0.00     0.016 A 
ATOM     37  C   UNL A   1      38.554  30.075  31.918  1.00  0.00     0.010 A 
ATOM     38  C   UNL A   1      37.378  30.343  29.815  1.00  0.00     0.010 A 
ATOM     39  C   UNL A   1      38.495  29.880  30.533  1.00  0.00    -0.014 A 
BRANCH  39  40
ATOM     40  C   UNL A   1      39.731  29.445  29.838  1.00  0.00     0.031 A 
ATOM     41  C   UNL A   1      40.845  30.445  29.691  1.00  0.00     0.074 A 
ATOM     42  C   UNL A   1      39.923  28.172  29.451  1.00  0.00     0.049 A 
ATOM     43  N   UNL A   1      42.022  30.306  29.136  1.00  0.00    -0.248 NA
ATOM     44  C   UNL A   1      40.601  31.777  30.268  1.00  0.00     0.031 C 
ATOM     45  C   UNL A   1      38.972  27.078  29.623  1.00  0.00     0.029 A 
ATOM     46  N   UNL A   1      41.006  27.587  28.839  1.00  0.00    -0.354 N 
ATOM     47  C   UNL A   1      42.655  31.531  29.294  1.00  0.00     0.074 A 
ATOM     48  C   UNL A   1      41.733  32.403  29.987  1.00  0.00     0.031 C 
ATOM     49  C   UNL A   1      39.513  25.952  29.124  1.00  0.00     0.029 A 
ATOM     50  C   UNL A   1      40.833  26.254  28.570  1.00  0.00     0.049 A 
ATOM     51  H   UNL A   1      41.829  28.080  28.617  1.00  0.00     0.167 HD
ATOM     52  C   UNL A   1      43.894  31.905  28.896  1.00  0.00     0.037 A 
ATOM     53  C   UNL A   1      41.640  25.385  27.929  1.00  0.00     0.037 A 
ATOM     54  C   UNL A   1      44.814  31.059  28.190  1.00  0.00     0.049 A 
ATOM     55  C   UNL A   1      42.977  25.847  27.407  1.00  0.00     0.074 A 
ATOM     56  C   UNL A   1      46.067  31.368  27.694  1.00  0.00     0.029 A 
ATOM     57  N   UNL A   1      44.574  29.730  27.875  1.00  0.00    -0.354 N 
ATOM     58  N   UNL A   1      43.551  27.020  27.522  1.00  0.00    -0.248 NA
ATOM     59  C   UNL A   1      43.773  24.863  26.657  1.00  0.00     0.031 C 
ATOM     60  C   UNL A   1      46.573  30.235  27.047  1.00  0.00     0.029 A 
ATOM     61  C   UNL A   1      45.650  29.210  27.175  1.00  0.00     0.049 A 
ATOM     62  H   UNL A   1      43.759  29.232  28.112  1.00  0.00     0.167 HD
ATOM     63  C   UNL A   1      44.776  26.912  26.873  1.00  0.00     0.074 A 
ATOM     64  C   UNL A   1      44.872  25.553  26.383  1.00  0.00     0.031 C 
ATOM     65  C   UNL A   1      45.734  27.855  26.696  1.00  0.00     0.037 A 
BRANCH  52  66
ATOM     66  C   UNL A   1      44.281  33.324  29.174  1.00  0.00     0.057 A 
ATOM     67  C   UNL A   1      44.895  33.701  30.375  1.00  0.00     0.134 A 
ATOM     68  C   UNL A   1      43.990  34.330  28.246  1.00  0.00     0.134 A 
ATOM     69  F   UNL A   1      45.171  32.784  31.315  1.00  0.00    -0.206 F 
ATOM     70  C   UNL A   1      45.181  35.038  30.654  1.00  0.00     0.040 A 
ATOM     71  C   UNL A   1      44.290  35.667  28.505  1.00  0.00     0.040 A 
ATOM     72  F   UNL A   1      43.397  34.031  27.080  1.00  0.00    -0.206 F 
ATOM     73  C   UNL A   1      44.878  36.026  29.718  1.00  0.00     0.006 A 
ENDBRANCH  52  66
BRANCH  53  74
ATOM     74  C   UNL A   1      41.195  23.987  27.702  1.00  0.00     0.057 A 
ATOM     75  C   UNL A   1      41.764  22.916  28.400  1.00  0.00     0.134 A 
ATOM     76  C   UNL A   1      40.216  23.688  26.747  1.00  0.00     0.134 A 
ATOM     77  F   UNL A   1      42.729  23.137  29.305  1.00  0.00    -0.206 F 
ATOM     78  C   UNL A   1      41.386  21.596  28.147  1.00  0.00     0.040 A 
ATOM     79  C   UNL A   1      39.811  22.376  26.500  1.00  0.00     0.040 A 
ATOM     80  F   UNL A   1      39.638  24.670  26.039  1.00  0.00    -0.206 F 
ATOM     81  C   UNL A   1      40.403  21.324  27.197  1.00  0.00     0.006 A 
ENDBRANCH  53  74
BRANCH  65  82
ATOM     82  C   UNL A   1      46.976  27.450  25.957  1.00  0.00     0.057 A 
ATOM     83  C   UNL A   1      48.054  26.839  26.609  1.00  0.00     0.134 A 
ATOM     84  C   UNL A   1      47.074  27.628  24.572  1.00  0.00     0.134 A 
ATOM     85  F   UNL A   1      48.027  26.648  27.937  1.00  0.00    -0.206 F 
ATOM     86  C   UNL A   1      49.193  26.433  25.911  1.00  0.00     0.040 A 
ATOM     87  C   UNL A   1      48.199  27.209  23.859  1.00  0.00     0.040 A 
ATOM     88  F   UNL A   1      46.073  28.201  23.886  1.00  0.00    -0.206 F 
ATOM     89  C   UNL A   1      49.265  26.612  24.531  1.00  0.00     0.006 A 
ENDBRANCH  65  82
ENDBRANCH  39  40
ENDBRANCH  32  34
ENDBRANCH  31  32
ENDBRANCH  30  31
ENDBRANCH  29  30
ENDBRANCH  28  29
ENDBRANCH  27  28
ENDBRANCH   1  27
TORSDOF 22
ENDMDL
MODEL 3
REMARK VINA RESULT:      -9.5      5.077      9.900
REMARK SMILES CCC[NH2+][C@]1(C(=O)OCCOCCOCCOC(=O)c2ccc(-c3c4nc(c(-c5c(F)cccc5F)c5ccc([nH]5)c(-c5c(F)cccc5F)c5nc(c(-c6c(F)cccc6F)c6ccc3[nH]6)C=C5)C=C4)cc2)CC[C@@H](Sc2nnc(C)n2C)C1
REMARK SMILES IDX 12 1 11 2 10 3 9 4 8 5 6 6 7 7 5 8 74 9 85 10 75 11 76 12
REMARK SMILES IDX 4 13 3 16 2 17 1 18 77 19 78 20 79 21 83 22 80 23 81 24
REMARK SMILES IDX 84 25 82 26 13 27 14 28 15 29 16 30 17 31 18 32 19 33 20 34
REMARK SMILES IDX 21 35 73 36 22 37 72 38 23 39 24 40 25 41 66 42 26 43 71 44
REMARK SMILES IDX 65 45 67 46 27 47 70 48 64 49 63 50 28 52 54 53 37 54 53 55
REMARK SMILES IDX 38 56 41 57 52 58 68 59 39 60 40 61 51 63 69 64 42 65 29 66
REMARK SMILES IDX 30 67 35 68 31 69 32 70 34 71 36 72 33 73 55 74 56 75 61 76
REMARK SMILES IDX 57 77 58 78 60 79 62 80 59 81 43 82 44 83 49 84 45 85 46 86
REMARK SMILES IDX 48 87 50 88 47 89
REMARK H PARENT 4 14 4 15 67 51 41 62
REMARK Flexibility Score: inf
ROOT
ATOM      1  C   UNL A   1      36.452  34.269  34.795  1.00  0.00     0.188 C 
ENDROOT
BRANCH   1   2
ATOM      2  O   UNL A   1      37.693  34.880  34.459  1.00  0.00    -0.376 OA
BRANCH   2   3
ATOM      3  C   UNL A   1      38.793  34.734  35.344  1.00  0.00     0.202 C 
BRANCH   3   4
ATOM      4  C   UNL A   1      39.841  33.706  34.941  1.00  0.00     0.261 C 
BRANCH   4   5
ATOM      5  O   UNL A   1      39.293  32.390  34.782  1.00  0.00    -0.459 OA
BRANCH   5   6
ATOM      6  C   UNL A   1      39.948  31.383  35.421  1.00  0.00     0.368 C 
ATOM      7  O   UNL A   1      40.123  31.330  36.636  1.00  0.00    -0.245 OA
BRANCH   6   8
ATOM      8  C   UNL A   1      40.502  30.325  34.440  1.00  0.00     0.195 C 
ATOM      9  C   UNL A   1      41.957  30.632  34.019  1.00  0.00     0.082 C 
ATOM     10  C   UNL A   1      40.691  29.025  35.245  1.00  0.00     0.096 C 
ATOM     11  C   UNL A   1      42.578  29.273  33.707  1.00  0.00     0.022 C 
ATOM     12  C   UNL A   1      41.883  28.285  34.646  1.00  0.00     0.062 C 
BRANCH   8  13
ATOM     13  N   UNL A   1      39.664  30.194  33.222  1.00  0.00    -0.332 N 
ATOM     14  H   UNL A   1      39.687  31.085  32.728  1.00  0.00     0.347 HD
ATOM     15  H   UNL A   1      40.061  29.420  32.690  1.00  0.00     0.347 HD
BRANCH  13  16
ATOM     16  C   UNL A   1      38.264  29.844  33.457  1.00  0.00     0.261 C 
BRANCH  16  17
ATOM     17  C   UNL A   1      37.778  28.804  32.448  1.00  0.00     0.058 C 
ATOM     18  C   UNL A   1      38.799  27.718  32.137  1.00  0.00     0.010 C 
ENDBRANCH  16  17
ENDBRANCH  13  16
ENDBRANCH   8  13
BRANCH  12  19
ATOM     19  S   UNL A   1      42.920  27.560  35.971  1.00  0.00    -0.082 SA
BRANCH  19  20
ATOM     20  C   UNL A   1      42.760  25.867  35.662  1.00  0.00     0.191 A 
ATOM     21  N   UNL A   1      41.646  25.189  35.799  1.00  0.00    -0.123 NA
ATOM     22  N   UNL A   1      43.741  25.048  35.172  1.00  0.00    -0.309 N 
ATOM     23  N   UNL A   1      41.873  23.912  35.351  1.00  0.00    -0.135 NA
ATOM     24  C   UNL A   1      43.126  23.835  34.951  1.00  0.00     0.130 A 
ATOM     25  C   UNL A   1      45.114  25.345  34.853  1.00  0.00     0.154 C 
ATOM     26  C   UNL A   1      43.779  22.655  34.343  1.00  0.00     0.090 C 
ENDBRANCH  19  20
ENDBRANCH  12  19
ENDBRANCH   6   8
ENDBRANCH   5   6
ENDBRANCH   4   5
ENDBRANCH   3   4
ENDBRANCH   2   3
ENDBRANCH   1   2
BRANCH   1  27
ATOM     27  C   UNL A   1      35.213  34.503  33.907  1.00  0.00     0.188 C 
BRANCH  27  28
ATOM     28  O   UNL A   1      35.135  35.700  33.136  1.00  0.00    -0.376 OA
BRANCH  28  29
ATOM     29  C   UNL A   1      33.846  36.258  32.894  1.00  0.00     0.202 C 
BRANCH  29  30
ATOM     30  C   UNL A   1      33.427  36.235  31.429  1.00  0.00     0.261 C 
BRANCH  30  31
ATOM     31  O   UNL A   1      33.198  34.874  31.036  1.00  0.00    -0.460 OA
BRANCH  31  32
ATOM     32  C   UNL A   1      33.393  34.630  29.727  1.00  0.00     0.338 C 
ATOM     33  O   UNL A   1      32.814  35.128  28.781  1.00  0.00    -0.246 OA
BRANCH  32  34
ATOM     34  C   UNL A   1      34.557  33.742  29.593  1.00  0.00     0.060 A 
ATOM     35  C   UNL A   1      34.869  32.911  30.671  1.00  0.00     0.016 A 
ATOM     36  C   UNL A   1      35.408  33.838  28.491  1.00  0.00     0.016 A 
ATOM     37  C   UNL A   1      36.082  32.226  30.678  1.00  0.00     0.010 A 
ATOM     38  C   UNL A   1      36.621  33.139  28.498  1.00  0.00     0.010 A 
ATOM     39  C   UNL A   1      36.982  32.365  29.614  1.00  0.00    -0.014 A 
BRANCH  39  40
ATOM     40  C   UNL A   1      38.382  31.924  29.826  1.00  0.00     0.031 A 
ATOM     41  C   UNL A   1      38.780  30.570  29.304  1.00  0.00     0.074 A 
ATOM     42  C   UNL A   1      39.315  32.733  30.357  1.00  0.00     0.049 A 
ATOM     43  N   UNL A   1      39.938  29.965  29.354  1.00  0.00    -0.248 NA
ATOM     44  C   UNL A   1      37.728  29.807  28.613  1.00  0.00     0.031 C 
ATOM     45  C   UNL A   1      39.093  34.103  30.811  1.00  0.00     0.029 A 
ATOM     46  N   UNL A   1      40.651  32.511  30.587  1.00  0.00    -0.354 N 
ATOM     47  C   UNL A   1      39.753  28.751  28.706  1.00  0.00     0.074 A 
ATOM     48  C   UNL A   1      38.372  28.700  28.279  1.00  0.00     0.031 C 
ATOM     49  C   UNL A   1      40.256  34.600  31.270  1.00  0.00     0.029 A 
ATOM     50  C   UNL A   1      41.293  33.572  31.172  1.00  0.00     0.049 A 
ATOM     51  H   UNL A   1      41.105  31.669  30.353  1.00  0.00     0.167 HD
ATOM     52  C   UNL A   1      40.649  27.760  28.486  1.00  0.00     0.037 A 
ATOM     53  C   UNL A   1      42.567  33.690  31.598  1.00  0.00     0.037 A 
ATOM     54  C   UNL A   1      42.017  27.785  28.921  1.00  0.00     0.049 A 
ATOM     55  C   UNL A   1      43.524  32.537  31.431  1.00  0.00     0.074 A 
ATOM     56  C   UNL A   1      42.982  26.803  28.795  1.00  0.00     0.029 A 
ATOM     57  N   UNL A   1      42.613  28.854  29.572  1.00  0.00    -0.354 N 
ATOM     58  N   UNL A   1      43.329  31.375  30.856  1.00  0.00    -0.248 NA
ATOM     59  C   UNL A   1      44.876  32.712  31.982  1.00  0.00     0.031 C 
ATOM     60  C   UNL A   1      44.156  27.265  29.402  1.00  0.00     0.029 A 
ATOM     61  C   UNL A   1      43.930  28.549  29.870  1.00  0.00     0.049 A 
ATOM     62  H   UNL A   1      42.166  29.703  29.790  1.00  0.00     0.167 HD
ATOM     63  C   UNL A   1      44.533  30.688  30.964  1.00  0.00     0.074 A 
ATOM     64  C   UNL A   1      45.459  31.570  31.643  1.00  0.00     0.031 C 
ATOM     65  C   UNL A   1      44.842  29.437  30.543  1.00  0.00     0.037 A 
BRANCH  52  66
ATOM     66  C   UNL A   1      40.132  26.539  27.790  1.00  0.00     0.057 A 
ATOM     67  C   UNL A   1      39.309  25.612  28.440  1.00  0.00     0.134 A 
ATOM     68  C   UNL A   1      40.505  26.268  26.469  1.00  0.00     0.134 A 
ATOM     69  F   UNL A   1      38.942  25.804  29.716  1.00  0.00    -0.206 F 
ATOM     70  C   UNL A   1      38.896  24.439  27.806  1.00  0.00     0.040 A 
ATOM     71  C   UNL A   1      40.082  25.109  25.818  1.00  0.00     0.040 A 
ATOM     72  F   UNL A   1      41.298  27.116  25.797  1.00  0.00    -0.206 F 
ATOM     73  C   UNL A   1      39.283  24.186  26.490  1.00  0.00     0.006 A 
ENDBRANCH  52  66
BRANCH  53  74
ATOM     74  C   UNL A   1      43.013  34.938  32.268  1.00  0.00     0.057 A 
ATOM     75  C   UNL A   1      43.396  36.065  31.532  1.00  0.00     0.134 A 
ATOM     76  C   UNL A   1      43.107  35.014  33.662  1.00  0.00     0.134 A 
ATOM     77  F   UNL A   1      43.358  36.042  30.192  1.00  0.00    -0.206 F 
ATOM     78  C   UNL A   1      43.869  37.219  32.159  1.00  0.00     0.040 A 
ATOM     79  C   UNL A   1      43.556  36.169  34.303  1.00  0.00     0.040 A 
ATOM     80  F   UNL A   1      42.762  33.964  34.423  1.00  0.00    -0.206 F 
ATOM     81  C   UNL A   1      43.946  37.274  33.550  1.00  0.00     0.006 A 
ENDBRANCH  53  74
BRANCH  65  82
ATOM     82  C   UNL A   1      46.242  28.951  30.786  1.00  0.00     0.057 A 
ATOM     83  C   UNL A   1      47.264  29.153  29.851  1.00  0.00     0.134 A 
ATOM     84  C   UNL A   1      46.579  28.318  31.989  1.00  0.00     0.134 A 
ATOM     85  F   UNL A   1      47.003  29.745  28.675  1.00  0.00    -0.206 F 
ATOM     86  C   UNL A   1      48.571  28.729  30.097  1.00  0.00     0.040 A 
ATOM     87  C   UNL A   1      47.887  27.907  32.255  1.00  0.00     0.040 A 
ATOM     88  F   UNL A   1      45.648  28.100  32.929  1.00  0.00    -0.206 F 
ATOM     89  C   UNL A   1      48.887  28.110  31.305  1.00  0.00     0.006 A 
ENDBRANCH  65  82
ENDBRANCH  39  40
ENDBRANCH  32  34
ENDBRANCH  31  32
ENDBRANCH  30  31
ENDBRANCH  29  30
ENDBRANCH  28  29
ENDBRANCH  27  28
ENDBRANCH   1  27
TORSDOF 22
ENDMDL
