MODEL 1
REMARK VINA RESULT:     -11.2      0.000      0.000
REMARK SMILES Cc1cc(OC(F)(F)F)cc2c1O[C@@H](C(F)(F)F)C(C(=O)OCCOCCOCCOC(=O)c1ccc(-c3c4nc(c(-c5c(F)cccc5F)c5ccc([nH]5)c(-c5c(F)cccc5F)c5nc(c(-c6c(F)cccc6F)c6ccc3[nH]6)C=C5)C=C4)cc1)=C2
REMARK SMILES IDX 26 1 25 2 24 3 23 4 22 5 20 6 21 7 19 8 1 9 2 10 3 11 12 12
REMARK SMILES IDX 4 13 11 14 13 15 10 16 88 17 14 18 5 19 6 20 7 21 8 22 9 23
REMARK SMILES IDX 15 24 16 25 17 26 18 27 27 28 28 29 29 30 30 31 31 32 32 33
REMARK SMILES IDX 33 34 34 35 35 36 87 37 36 38 86 39 37 40 38 41 39 42 80 43
REMARK SMILES IDX 40 44 85 45 79 46 81 47 41 48 84 49 78 50 77 51 42 53 68 54
REMARK SMILES IDX 51 55 67 56 52 57 55 58 66 59 82 60 53 61 54 62 65 64 83 65
REMARK SMILES IDX 56 66 43 67 44 68 49 69 45 70 46 71 48 72 50 73 47 74 69 75
REMARK SMILES IDX 70 76 75 77 71 78 72 79 74 80 76 81 73 82 57 83 58 84 63 85
REMARK SMILES IDX 59 86 60 87 62 88 64 89 61 90
REMARK H PARENT 81 52 55 63
REMARK Flexibility Score: inf
ROOT
ATOM      1  C   UNL A   1      31.210  28.702  24.950  1.00  0.00     0.188 C 
ENDROOT
BRANCH   1   2
ATOM      2  O   UNL A   1      30.531  28.058  23.879  1.00  0.00    -0.376 OA
BRANCH   2   3
ATOM      3  C   UNL A   1      29.957  26.771  24.076  1.00  0.00     0.202 C 
BRANCH   3   4
ATOM      4  C   UNL A   1      30.377  25.952  25.309  1.00  0.00     0.261 C 
BRANCH   4   5
ATOM      5  O   UNL A   1      30.492  24.530  25.097  1.00  0.00    -0.460 OA
BRANCH   5   6
ATOM      6  C   UNL A   1      31.092  23.829  26.085  1.00  0.00     0.338 C 
ATOM      7  O   UNL A   1      30.732  23.781  27.252  1.00  0.00    -0.246 OA
BRANCH   6   8
ATOM      8  C   UNL A   1      32.191  22.990  25.562  1.00  0.00     0.087 C 
ATOM      9  C   UNL A   1      36.741  20.650  25.203  1.00  0.00     0.048 C 
ATOM     10  C   UNL A   1      35.306  20.267  24.974  1.00  0.00    -0.005 A 
ATOM     11  C   UNL A   1      35.001  18.937  24.628  1.00  0.00     0.054 A 
ATOM     12  C   UNL A   1      34.262  21.179  25.176  1.00  0.00     0.131 A 
ATOM     13  C   UNL A   1      33.677  18.528  24.459  1.00  0.00     0.130 A 
ATOM     14  C   UNL A   1      32.935  20.784  24.981  1.00  0.00     0.021 A 
ATOM     15  O   UNL A   1      34.590  22.421  25.660  1.00  0.00    -0.475 OA
ATOM     16  C   UNL A   1      32.650  19.465  24.609  1.00  0.00     0.058 A 
ATOM     17  C   UNL A   1      31.862  21.716  25.296  1.00  0.00     0.027 C 
ATOM     18  C   UNL A   1      33.611  23.489  25.508  1.00  0.00     0.316 C 
BRANCH  13  19
ATOM     19  O   UNL A   1      33.256  17.260  24.167  1.00  0.00    -0.406 OA
BRANCH  19  20
ATOM     20  C   UNL A   1      33.222  16.318  25.228  1.00  0.00     0.573 C 
ATOM     21  F   UNL A   1      32.291  15.367  24.996  1.00  0.00    -0.132 F 
ATOM     22  F   UNL A   1      34.426  15.734  25.408  1.00  0.00    -0.132 F 
ATOM     23  F   UNL A   1      32.893  16.958  26.372  1.00  0.00    -0.132 F 
ENDBRANCH  19  20
ENDBRANCH  13  19
BRANCH  18  24
ATOM     24  C   UNL A   1      33.996  24.322  24.270  1.00  0.00     0.430 C 
ATOM     25  F   UNL A   1      34.221  25.618  24.610  1.00  0.00    -0.167 F 
ATOM     26  F   UNL A   1      35.124  23.870  23.675  1.00  0.00    -0.167 F 
ATOM     27  F   UNL A   1      33.015  24.340  23.344  1.00  0.00    -0.167 F 
ENDBRANCH  18  24
ENDBRANCH   6   8
ENDBRANCH   5   6
ENDBRANCH   4   5
ENDBRANCH   3   4
ENDBRANCH   2   3
ENDBRANCH   1   2
BRANCH   1  28
ATOM     28  C   UNL A   1      31.161  30.236  25.075  1.00  0.00     0.188 C 
BRANCH  28  29
ATOM     29  O   UNL A   1      31.948  30.747  26.124  1.00  0.00    -0.376 OA
BRANCH  29  30
ATOM     30  C   UNL A   1      31.496  31.916  26.782  1.00  0.00     0.202 C 
BRANCH  30  31
ATOM     31  C   UNL A   1      32.421  33.141  26.876  1.00  0.00     0.261 C 
BRANCH  31  32
ATOM     32  O   UNL A   1      32.333  33.937  28.069  1.00  0.00    -0.460 OA
BRANCH  32  33
ATOM     33  C   UNL A   1      33.416  34.660  28.429  1.00  0.00     0.338 C 
ATOM     34  O   UNL A   1      33.491  35.872  28.555  1.00  0.00    -0.246 OA
BRANCH  33  35
ATOM     35  C   UNL A   1      34.469  33.700  28.825  1.00  0.00     0.060 A 
ATOM     36  C   UNL A   1      34.144  32.609  29.645  1.00  0.00     0.016 A 
ATOM     37  C   UNL A   1      35.774  33.874  28.363  1.00  0.00     0.016 A 
ATOM     38  C   UNL A   1      35.126  31.682  29.999  1.00  0.00     0.010 A 
ATOM     39  C   UNL A   1      36.765  32.971  28.755  1.00  0.00     0.010 A 
ATOM     40  C   UNL A   1      36.450  31.884  29.591  1.00  0.00    -0.014 A 
BRANCH  40  41
ATOM     41  C   UNL A   1      37.546  31.118  30.228  1.00  0.00     0.031 A 
ATOM     42  C   UNL A   1      37.873  31.432  31.662  1.00  0.00     0.074 A 
ATOM     43  C   UNL A   1      38.245  30.185  29.562  1.00  0.00     0.049 A 
ATOM     44  N   UNL A   1      38.842  30.981  32.415  1.00  0.00    -0.248 NA
ATOM     45  C   UNL A   1      36.981  32.392  32.332  1.00  0.00     0.031 C 
ATOM     46  C   UNL A   1      37.989  29.745  28.193  1.00  0.00     0.029 A 
ATOM     47  N   UNL A   1      39.335  29.449  29.958  1.00  0.00    -0.354 N 
ATOM     48  C   UNL A   1      38.674  31.600  33.647  1.00  0.00     0.074 A 
ATOM     49  C   UNL A   1      37.534  32.482  33.530  1.00  0.00     0.031 C 
ATOM     50  C   UNL A   1      38.912  28.826  27.854  1.00  0.00     0.029 A 
ATOM     51  C   UNL A   1      39.843  28.646  28.967  1.00  0.00     0.049 A 
ATOM     52  H   UNL A   1      39.715  29.493  30.864  1.00  0.00     0.167 HD
ATOM     53  C   UNL A   1      39.402  31.448  34.779  1.00  0.00     0.037 A 
ATOM     54  C   UNL A   1      40.953  27.881  28.958  1.00  0.00     0.037 A 
ATOM     55  C   UNL A   1      40.565  30.606  34.880  1.00  0.00     0.049 A 
ATOM     56  C   UNL A   1      41.829  27.832  30.185  1.00  0.00     0.074 A 
ATOM     57  C   UNL A   1      41.385  30.395  35.973  1.00  0.00     0.029 A 
ATOM     58  N   UNL A   1      41.085  29.854  33.837  1.00  0.00    -0.354 N 
ATOM     59  N   UNL A   1      41.660  28.408  31.352  1.00  0.00    -0.248 NA
ATOM     60  C   UNL A   1      43.056  27.028  30.089  1.00  0.00     0.031 C 
ATOM     61  C   UNL A   1      42.436  29.562  35.574  1.00  0.00     0.029 A 
ATOM     62  C   UNL A   1      42.232  29.199  34.252  1.00  0.00     0.049 A 
ATOM     63  H   UNL A   1      40.694  29.792  32.935  1.00  0.00     0.167 HD
ATOM     64  C   UNL A   1      42.735  28.005  32.138  1.00  0.00     0.074 A 
ATOM     65  C   UNL A   1      43.544  27.127  31.317  1.00  0.00     0.031 C 
ATOM     66  C   UNL A   1      43.026  28.326  33.425  1.00  0.00     0.037 A 
BRANCH  53  67
ATOM     67  C   UNL A   1      38.979  32.254  35.971  1.00  0.00     0.057 A 
ATOM     68  C   UNL A   1      38.167  31.691  36.962  1.00  0.00     0.134 A 
ATOM     69  C   UNL A   1      39.393  33.582  36.153  1.00  0.00     0.134 A 
ATOM     70  F   UNL A   1      37.734  30.426  36.852  1.00  0.00    -0.206 F 
ATOM     71  C   UNL A   1      37.790  32.413  38.095  1.00  0.00     0.040 A 
ATOM     72  C   UNL A   1      39.048  34.303  37.297  1.00  0.00     0.040 A 
ATOM     73  F   UNL A   1      40.190  34.175  35.252  1.00  0.00    -0.206 F 
ATOM     74  C   UNL A   1      38.241  33.720  38.271  1.00  0.00     0.006 A 
ENDBRANCH  53  67
BRANCH  54  75
ATOM     75  C   UNL A   1      41.326  27.106  27.745  1.00  0.00     0.057 A 
ATOM     76  C   UNL A   1      40.915  25.780  27.565  1.00  0.00     0.134 A 
ATOM     77  C   UNL A   1      42.057  27.699  26.708  1.00  0.00     0.134 A 
ATOM     78  F   UNL A   1      40.206  25.156  28.517  1.00  0.00    -0.206 F 
ATOM     79  C   UNL A   1      41.218  25.072  26.401  1.00  0.00     0.040 A 
ATOM     80  C   UNL A   1      42.344  27.011  25.527  1.00  0.00     0.040 A 
ATOM     81  F   UNL A   1      42.455  28.976  26.807  1.00  0.00    -0.206 F 
ATOM     82  C   UNL A   1      41.925  25.691  25.373  1.00  0.00     0.006 A 
ENDBRANCH  54  75
BRANCH  66  83
ATOM     83  C   UNL A   1      44.239  27.684  34.038  1.00  0.00     0.057 A 
ATOM     84  C   UNL A   1      45.485  28.324  33.983  1.00  0.00     0.134 A 
ATOM     85  C   UNL A   1      44.188  26.428  34.658  1.00  0.00     0.134 A 
ATOM     86  F   UNL A   1      45.610  29.522  33.393  1.00  0.00    -0.206 F 
ATOM     87  C   UNL A   1      46.633  27.741  34.521  1.00  0.00     0.040 A 
ATOM     88  C   UNL A   1      45.324  25.851  35.230  1.00  0.00     0.040 A 
ATOM     89  F   UNL A   1      43.027  25.765  34.757  1.00  0.00    -0.206 F 
ATOM     90  C   UNL A   1      46.552  26.504  35.157  1.00  0.00     0.006 A 
ENDBRANCH  66  83
ENDBRANCH  40  41
ENDBRANCH  33  35
ENDBRANCH  32  33
ENDBRANCH  31  32
ENDBRANCH  30  31
ENDBRANCH  29  30
ENDBRANCH  28  29
ENDBRANCH   1  28
TORSDOF 20
ENDMDL
MODEL 2
REMARK VINA RESULT:     -11.2      4.462      9.321
REMARK SMILES Cc1cc(OC(F)(F)F)cc2c1O[C@@H](C(F)(F)F)C(C(=O)OCCOCCOCCOC(=O)c1ccc(-c3c4nc(c(-c5c(F)cccc5F)c5ccc([nH]5)c(-c5c(F)cccc5F)c5nc(c(-c6c(F)cccc6F)c6ccc3[nH]6)C=C5)C=C4)cc1)=C2
REMARK SMILES IDX 26 1 25 2 24 3 23 4 22 5 20 6 21 7 19 8 1 9 2 10 3 11 12 12
REMARK SMILES IDX 4 13 11 14 13 15 10 16 88 17 14 18 5 19 6 20 7 21 8 22 9 23
REMARK SMILES IDX 15 24 16 25 17 26 18 27 27 28 28 29 29 30 30 31 31 32 32 33
REMARK SMILES IDX 33 34 34 35 35 36 87 37 36 38 86 39 37 40 38 41 39 42 80 43
REMARK SMILES IDX 40 44 85 45 79 46 81 47 41 48 84 49 78 50 77 51 42 53 68 54
REMARK SMILES IDX 51 55 67 56 52 57 55 58 66 59 82 60 53 61 54 62 65 64 83 65
REMARK SMILES IDX 56 66 43 67 44 68 49 69 45 70 46 71 48 72 50 73 47 74 69 75
REMARK SMILES IDX 70 76 75 77 71 78 72 79 74 80 76 81 73 82 57 83 58 84 63 85
REMARK SMILES IDX 59 86 60 87 62 88 64 89 61 90
REMARK H PARENT 81 52 55 63
REMARK Flexibility Score: inf
ROOT
ATOM      1  C   UNL A   1      35.289  21.305  25.358  1.00  0.00     0.188 C 
ENDROOT
BRANCH   1   2
ATOM      2  O   UNL A   1      34.501  20.179  24.990  1.00  0.00    -0.376 OA
BRANCH   2   3
ATOM      3  C   UNL A   1      33.471  20.324  24.019  1.00  0.00     0.202 C 
BRANCH   3   4
ATOM      4  C   UNL A   1      32.549  21.553  24.094  1.00  0.00     0.261 C 
BRANCH   4   5
ATOM      5  O   UNL A   1      32.565  22.411  22.935  1.00  0.00    -0.460 OA
BRANCH   5   6
ATOM      6  C   UNL A   1      33.432  23.447  22.975  1.00  0.00     0.338 C 
ATOM      7  O   UNL A   1      34.560  23.459  22.504  1.00  0.00    -0.246 OA
BRANCH   6   8
ATOM      8  C   UNL A   1      32.804  24.655  23.551  1.00  0.00     0.087 C 
ATOM      9  C   UNL A   1      32.270  29.124  26.011  1.00  0.00     0.048 C 
ATOM     10  C   UNL A   1      31.748  28.520  24.737  1.00  0.00    -0.005 A 
ATOM     11  C   UNL A   1      30.946  29.305  23.887  1.00  0.00     0.054 A 
ATOM     12  C   UNL A   1      32.106  27.226  24.339  1.00  0.00     0.131 A 
ATOM     13  C   UNL A   1      30.486  28.800  22.671  1.00  0.00     0.130 A 
ATOM     14  C   UNL A   1      31.626  26.703  23.134  1.00  0.00     0.021 A 
ATOM     15  O   UNL A   1      33.011  26.550  25.118  1.00  0.00    -0.475 OA
ATOM     16  C   UNL A   1      30.806  27.487  22.313  1.00  0.00     0.058 A 
ATOM     17  C   UNL A   1      32.093  25.398  22.689  1.00  0.00     0.027 C 
ATOM     18  C   UNL A   1      33.098  25.104  24.959  1.00  0.00     0.316 C 
BRANCH  13  19
ATOM     19  O   UNL A   1      29.740  29.478  21.746  1.00  0.00    -0.406 OA
BRANCH  19  20
ATOM     20  C   UNL A   1      28.451  29.924  22.140  1.00  0.00     0.573 C 
ATOM     21  F   UNL A   1      27.902  29.076  23.036  1.00  0.00    -0.132 F 
ATOM     22  F   UNL A   1      28.500  31.166  22.668  1.00  0.00    -0.132 F 
ATOM     23  F   UNL A   1      27.651  29.964  21.052  1.00  0.00    -0.132 F 
ENDBRANCH  19  20
ENDBRANCH  13  19
BRANCH  18  24
ATOM     24  C   UNL A   1      32.264  24.446  26.075  1.00  0.00     0.430 C 
ATOM     25  F   UNL A   1      32.927  23.391  26.615  1.00  0.00    -0.167 F 
ATOM     26  F   UNL A   1      31.993  25.301  27.088  1.00  0.00    -0.167 F 
ATOM     27  F   UNL A   1      31.092  23.960  25.614  1.00  0.00    -0.167 F 
ENDBRANCH  18  24
ENDBRANCH   6   8
ENDBRANCH   5   6
ENDBRANCH   4   5
ENDBRANCH   3   4
ENDBRANCH   2   3
ENDBRANCH   1   2
BRANCH   1  28
ATOM     28  C   UNL A   1      36.571  21.633  24.569  1.00  0.00     0.188 C 
BRANCH  28  29
ATOM     29  O   UNL A   1      37.753  21.205  25.200  1.00  0.00    -0.376 OA
BRANCH  29  30
ATOM     30  C   UNL A   1      38.162  19.864  24.999  1.00  0.00     0.202 C 
BRANCH  30  31
ATOM     31  C   UNL A   1      39.283  19.273  25.870  1.00  0.00     0.261 C 
BRANCH  31  32
ATOM     32  O   UNL A   1      40.593  19.197  25.285  1.00  0.00    -0.460 OA
BRANCH  32  33
ATOM     33  C   UNL A   1      41.658  19.172  26.117  1.00  0.00     0.338 C 
ATOM     34  O   UNL A   1      42.366  18.215  26.386  1.00  0.00    -0.246 OA
BRANCH  33  35
ATOM     35  C   UNL A   1      41.932  20.568  26.516  1.00  0.00     0.060 A 
ATOM     36  C   UNL A   1      42.108  21.553  25.531  1.00  0.00     0.016 A 
ATOM     37  C   UNL A   1      41.994  20.903  27.870  1.00  0.00     0.016 A 
ATOM     38  C   UNL A   1      42.338  22.879  25.900  1.00  0.00     0.010 A 
ATOM     39  C   UNL A   1      42.268  22.222  28.237  1.00  0.00     0.010 A 
ATOM     40  C   UNL A   1      42.462  23.211  27.255  1.00  0.00    -0.014 A 
BRANCH  40  41
ATOM     41  C   UNL A   1      43.037  24.518  27.647  1.00  0.00     0.031 A 
ATOM     42  C   UNL A   1      42.084  25.592  28.095  1.00  0.00     0.074 A 
ATOM     43  C   UNL A   1      44.356  24.762  27.595  1.00  0.00     0.049 A 
ATOM     44  N   UNL A   1      42.317  26.843  28.394  1.00  0.00    -0.248 NA
ATOM     45  C   UNL A   1      40.673  25.192  28.218  1.00  0.00     0.031 C 
ATOM     46  C   UNL A   1      45.388  23.792  27.238  1.00  0.00     0.029 A 
ATOM     47  N   UNL A   1      45.050  25.924  27.833  1.00  0.00    -0.354 N 
ATOM     48  C   UNL A   1      41.084  27.378  28.743  1.00  0.00     0.074 A 
ATOM     49  C   UNL A   1      40.102  26.327  28.585  1.00  0.00     0.031 C 
ATOM     50  C   UNL A   1      46.586  24.405  27.261  1.00  0.00     0.029 A 
ATOM     51  C   UNL A   1      46.398  25.817  27.594  1.00  0.00     0.049 A 
ATOM     52  H   UNL A   1      44.622  26.753  28.145  1.00  0.00     0.167 HD
ATOM     53  C   UNL A   1      40.791  28.633  29.159  1.00  0.00     0.037 A 
ATOM     54  C   UNL A   1      47.357  26.763  27.614  1.00  0.00     0.037 A 
ATOM     55  C   UNL A   1      41.760  29.691  29.269  1.00  0.00     0.049 A 
ATOM     56  C   UNL A   1      46.987  28.187  27.946  1.00  0.00     0.074 A 
ATOM     57  C   UNL A   1      41.566  31.003  29.662  1.00  0.00     0.029 A 
ATOM     58  N   UNL A   1      43.106  29.560  28.961  1.00  0.00    -0.354 N 
ATOM     59  N   UNL A   1      45.822  28.686  28.288  1.00  0.00    -0.248 NA
ATOM     60  C   UNL A   1      48.068  29.181  27.890  1.00  0.00     0.031 C 
ATOM     61  C   UNL A   1      42.784  31.680  29.534  1.00  0.00     0.029 A 
ATOM     62  C   UNL A   1      43.750  30.774  29.127  1.00  0.00     0.049 A 
ATOM     63  H   UNL A   1      43.540  28.725  28.669  1.00  0.00     0.167 HD
ATOM     64  C   UNL A   1      46.040  30.040  28.523  1.00  0.00     0.074 A 
ATOM     65  C   UNL A   1      47.450  30.280  28.296  1.00  0.00     0.031 C 
ATOM     66  C   UNL A   1      45.156  30.999  28.900  1.00  0.00     0.037 A 
BRANCH  53  67
ATOM     67  C   UNL A   1      39.353  28.926  29.471  1.00  0.00     0.057 A 
ATOM     68  C   UNL A   1      38.861  28.781  30.774  1.00  0.00     0.134 A 
ATOM     69  C   UNL A   1      38.457  29.374  28.489  1.00  0.00     0.134 A 
ATOM     70  F   UNL A   1      39.663  28.357  31.762  1.00  0.00    -0.206 F 
ATOM     71  C   UNL A   1      37.536  29.080  31.092  1.00  0.00     0.040 A 
ATOM     72  C   UNL A   1      37.138  29.706  28.801  1.00  0.00     0.040 A 
ATOM     73  F   UNL A   1      38.868  29.554  27.225  1.00  0.00    -0.206 F 
ATOM     74  C   UNL A   1      36.673  29.556  30.106  1.00  0.00     0.006 A 
ENDBRANCH  53  67
BRANCH  54  75
ATOM     75  C   UNL A   1      48.767  26.416  27.290  1.00  0.00     0.057 A 
ATOM     76  C   UNL A   1      49.680  26.052  28.287  1.00  0.00     0.134 A 
ATOM     77  C   UNL A   1      49.215  26.382  25.964  1.00  0.00     0.134 A 
ATOM     78  F   UNL A   1      49.313  26.056  29.577  1.00  0.00    -0.206 F 
ATOM     79  C   UNL A   1      50.988  25.672  27.977  1.00  0.00     0.040 A 
ATOM     80  C   UNL A   1      50.511  25.978  25.638  1.00  0.00     0.040 A 
ATOM     81  F   UNL A   1      48.379  26.691  24.961  1.00  0.00    -0.206 F 
ATOM     82  C   UNL A   1      51.403  25.624  26.648  1.00  0.00     0.006 A 
ENDBRANCH  54  75
BRANCH  66  83
ATOM     83  C   UNL A   1      45.697  32.380  29.141  1.00  0.00     0.057 A 
ATOM     84  C   UNL A   1      45.797  33.297  28.084  1.00  0.00     0.134 A 
ATOM     85  C   UNL A   1      46.143  32.800  30.401  1.00  0.00     0.134 A 
ATOM     86  F   UNL A   1      45.401  32.958  26.848  1.00  0.00    -0.206 F 
ATOM     87  C   UNL A   1      46.320  34.577  28.273  1.00  0.00     0.040 A 
ATOM     88  C   UNL A   1      46.636  34.090  30.608  1.00  0.00     0.040 A 
ATOM     89  F   UNL A   1      46.066  31.978  31.458  1.00  0.00    -0.206 F 
ATOM     90  C   UNL A   1      46.731  34.981  29.541  1.00  0.00     0.006 A 
ENDBRANCH  66  83
ENDBRANCH  40  41
ENDBRANCH  33  35
ENDBRANCH  32  33
ENDBRANCH  31  32
ENDBRANCH  30  31
ENDBRANCH  29  30
ENDBRANCH  28  29
ENDBRANCH   1  28
TORSDOF 20
ENDMDL
MODEL 3
REMARK VINA RESULT:     -11.1      0.709      5.987
REMARK SMILES Cc1cc(OC(F)(F)F)cc2c1O[C@@H](C(F)(F)F)C(C(=O)OCCOCCOCCOC(=O)c1ccc(-c3c4nc(c(-c5c(F)cccc5F)c5ccc([nH]5)c(-c5c(F)cccc5F)c5nc(c(-c6c(F)cccc6F)c6ccc3[nH]6)C=C5)C=C4)cc1)=C2
REMARK SMILES IDX 26 1 25 2 24 3 23 4 22 5 20 6 21 7 19 8 1 9 2 10 3 11 12 12
REMARK SMILES IDX 4 13 11 14 13 15 10 16 88 17 14 18 5 19 6 20 7 21 8 22 9 23
REMARK SMILES IDX 15 24 16 25 17 26 18 27 27 28 28 29 29 30 30 31 31 32 32 33
REMARK SMILES IDX 33 34 34 35 35 36 87 37 36 38 86 39 37 40 38 41 39 42 80 43
REMARK SMILES IDX 40 44 85 45 79 46 81 47 41 48 84 49 78 50 77 51 42 53 68 54
REMARK SMILES IDX 51 55 67 56 52 57 55 58 66 59 82 60 53 61 54 62 65 64 83 65
REMARK SMILES IDX 56 66 43 67 44 68 49 69 45 70 46 71 48 72 50 73 47 74 69 75
REMARK SMILES IDX 70 76 75 77 71 78 72 79 74 80 76 81 73 82 57 83 58 84 63 85
REMARK SMILES IDX 59 86 60 87 62 88 64 89 61 90
REMARK H PARENT 81 52 55 63
REMARK Flexibility Score: inf
ROOT
ATOM      1  C   UNL A   1      32.721  28.784  24.364  1.00  0.00     0.188 C 
ENDROOT
BRANCH   1   2
ATOM      2  O   UNL A   1      31.646  27.949  23.951  1.00  0.00    -0.376 OA
BRANCH   2   3
ATOM      3  C   UNL A   1      30.727  27.450  24.915  1.00  0.00     0.202 C 
BRANCH   3   4
ATOM      4  C   UNL A   1      30.705  25.941  25.210  1.00  0.00     0.261 C 
BRANCH   4   5
ATOM      5  O   UNL A   1      31.844  25.435  25.935  1.00  0.00    -0.460 OA
BRANCH   5   6
ATOM      6  C   UNL A   1      31.710  24.198  26.464  1.00  0.00     0.338 C 
ATOM      7  O   UNL A   1      30.867  23.853  27.279  1.00  0.00    -0.246 OA
BRANCH   6   8
ATOM      8  C   UNL A   1      32.637  23.235  25.831  1.00  0.00     0.087 C 
ATOM      9  C   UNL A   1      36.783  20.324  25.031  1.00  0.00     0.048 C 
ATOM     10  C   UNL A   1      35.295  20.141  24.923  1.00  0.00    -0.005 A 
ATOM     11  C   UNL A   1      34.785  18.875  24.581  1.00  0.00     0.054 A 
ATOM     12  C   UNL A   1      34.405  21.178  25.232  1.00  0.00     0.131 A 
ATOM     13  C   UNL A   1      33.409  18.650  24.523  1.00  0.00     0.130 A 
ATOM     14  C   UNL A   1      33.025  20.969  25.148  1.00  0.00     0.021 A 
ATOM     15  O   UNL A   1      34.937  22.350  25.707  1.00  0.00    -0.475 OA
ATOM     16  C   UNL A   1      32.534  19.710  24.779  1.00  0.00     0.058 A 
ATOM     17  C   UNL A   1      32.118  22.025  25.572  1.00  0.00     0.027 C 
ATOM     18  C   UNL A   1      34.101  23.544  25.661  1.00  0.00     0.316 C 
BRANCH  13  19
ATOM     19  O   UNL A   1      32.798  17.459  24.247  1.00  0.00    -0.406 OA
BRANCH  19  20
ATOM     20  C   UNL A   1      33.423  16.274  24.716  1.00  0.00     0.573 C 
ATOM     21  F   UNL A   1      33.820  16.416  25.999  1.00  0.00    -0.132 F 
ATOM     22  F   UNL A   1      32.599  15.209  24.616  1.00  0.00    -0.132 F 
ATOM     23  F   UNL A   1      34.516  16.028  23.961  1.00  0.00    -0.132 F 
ENDBRANCH  19  20
ENDBRANCH  13  19
BRANCH  18  24
ATOM     24  C   UNL A   1      34.489  24.353  24.409  1.00  0.00     0.430 C 
ATOM     25  F   UNL A   1      33.987  23.777  23.286  1.00  0.00    -0.167 F 
ATOM     26  F   UNL A   1      34.014  25.620  24.447  1.00  0.00    -0.167 F 
ATOM     27  F   UNL A   1      35.826  24.414  24.236  1.00  0.00    -0.167 F 
ENDBRANCH  18  24
ENDBRANCH   6   8
ENDBRANCH   5   6
ENDBRANCH   4   5
ENDBRANCH   3   4
ENDBRANCH   2   3
ENDBRANCH   1   2
BRANCH   1  28
ATOM     28  C   UNL A   1      32.994  28.994  25.865  1.00  0.00     0.188 C 
BRANCH  28  29
ATOM     29  O   UNL A   1      32.990  30.344  26.261  1.00  0.00    -0.376 OA
BRANCH  29  30
ATOM     30  C   UNL A   1      31.755  30.914  26.653  1.00  0.00     0.202 C 
BRANCH  30  31
ATOM     31  C   UNL A   1      31.647  32.438  26.839  1.00  0.00     0.261 C 
BRANCH  31  32
ATOM     32  O   UNL A   1      32.874  33.185  26.835  1.00  0.00    -0.460 OA
BRANCH  32  33
ATOM     33  C   UNL A   1      33.228  33.827  27.969  1.00  0.00     0.338 C 
ATOM     34  O   UNL A   1      32.596  34.685  28.565  1.00  0.00    -0.246 OA
BRANCH  33  35
ATOM     35  C   UNL A   1      34.456  33.176  28.474  1.00  0.00     0.060 A 
ATOM     36  C   UNL A   1      34.378  31.905  29.064  1.00  0.00     0.016 A 
ATOM     37  C   UNL A   1      35.687  33.820  28.341  1.00  0.00     0.016 A 
ATOM     38  C   UNL A   1      35.536  31.271  29.517  1.00  0.00     0.010 A 
ATOM     39  C   UNL A   1      36.838  33.204  28.835  1.00  0.00     0.010 A 
ATOM     40  C   UNL A   1      36.766  31.937  29.443  1.00  0.00    -0.014 A 
BRANCH  40  41
ATOM     41  C   UNL A   1      37.926  31.435  30.214  1.00  0.00     0.031 A 
ATOM     42  C   UNL A   1      38.810  30.412  29.557  1.00  0.00     0.074 A 
ATOM     43  C   UNL A   1      38.188  31.855  31.463  1.00  0.00     0.049 A 
ATOM     44  N   UNL A   1      39.822  29.745  30.047  1.00  0.00    -0.248 NA
ATOM     45  C   UNL A   1      38.501  30.097  28.153  1.00  0.00     0.031 C 
ATOM     46  C   UNL A   1      37.448  32.885  32.188  1.00  0.00     0.029 A 
ATOM     47  N   UNL A   1      39.153  31.443  32.349  1.00  0.00    -0.354 N 
ATOM     48  C   UNL A   1      40.272  28.936  29.011  1.00  0.00     0.074 A 
ATOM     49  C   UNL A   1      39.402  29.170  27.879  1.00  0.00     0.031 C 
ATOM     50  C   UNL A   1      37.975  33.011  33.419  1.00  0.00     0.029 A 
ATOM     51  C   UNL A   1      39.060  32.044  33.580  1.00  0.00     0.049 A 
ATOM     52  H   UNL A   1      39.845  30.781  32.123  1.00  0.00     0.167 HD
ATOM     53  C   UNL A   1      41.317  28.075  29.000  1.00  0.00     0.037 A 
ATOM     54  C   UNL A   1      39.755  31.810  34.711  1.00  0.00     0.037 A 
ATOM     55  C   UNL A   1      42.151  27.808  30.141  1.00  0.00     0.049 A 
ATOM     56  C   UNL A   1      40.825  30.747  34.716  1.00  0.00     0.074 A 
ATOM     57  C   UNL A   1      43.224  26.941  30.242  1.00  0.00     0.029 A 
ATOM     58  N   UNL A   1      41.989  28.392  31.389  1.00  0.00    -0.354 N 
ATOM     59  N   UNL A   1      41.256  29.994  33.732  1.00  0.00    -0.248 NA
ATOM     60  C   UNL A   1      41.503  30.499  35.997  1.00  0.00     0.031 C 
ATOM     61  C   UNL A   1      43.672  26.956  31.568  1.00  0.00     0.029 A 
ATOM     62  C   UNL A   1      42.923  27.883  32.275  1.00  0.00     0.049 A 
ATOM     63  H   UNL A   1      41.310  29.070  31.611  1.00  0.00     0.167 HD
ATOM     64  C   UNL A   1      42.278  29.215  34.264  1.00  0.00     0.074 A 
ATOM     65  C   UNL A   1      42.409  29.595  35.656  1.00  0.00     0.031 C 
ATOM     66  C   UNL A   1      43.044  28.273  33.657  1.00  0.00     0.037 A 
BRANCH  53  67
ATOM     67  C   UNL A   1      41.568  27.330  27.721  1.00  0.00     0.057 A 
ATOM     68  C   UNL A   1      41.018  26.059  27.516  1.00  0.00     0.134 A 
ATOM     69  C   UNL A   1      42.333  27.879  26.682  1.00  0.00     0.134 A 
ATOM     70  F   UNL A   1      40.276  25.475  28.468  1.00  0.00    -0.206 F 
ATOM     71  C   UNL A   1      41.212  25.365  26.321  1.00  0.00     0.040 A 
ATOM     72  C   UNL A   1      42.508  27.207  25.472  1.00  0.00     0.040 A 
ATOM     73  F   UNL A   1      42.871  29.101  26.806  1.00  0.00    -0.206 F 
ATOM     74  C   UNL A   1      41.949  25.944  25.290  1.00  0.00     0.006 A 
ENDBRANCH  53  67
BRANCH  54  75
ATOM     75  C   UNL A   1      39.459  32.576  35.951  1.00  0.00     0.057 A 
ATOM     76  C   UNL A   1      40.078  33.802  36.222  1.00  0.00     0.134 A 
ATOM     77  C   UNL A   1      38.501  32.123  36.866  1.00  0.00     0.134 A 
ATOM     78  F   UNL A   1      40.999  34.296  35.382  1.00  0.00    -0.206 F 
ATOM     79  C   UNL A   1      39.758  34.547  37.358  1.00  0.00     0.040 A 
ATOM     80  C   UNL A   1      38.151  32.871  37.992  1.00  0.00     0.040 A 
ATOM     81  F   UNL A   1      37.851  30.969  36.648  1.00  0.00    -0.206 F 
ATOM     82  C   UNL A   1      38.784  34.087  38.242  1.00  0.00     0.006 A 
ENDBRANCH  54  75
BRANCH  66  83
ATOM     83  C   UNL A   1      44.125  27.628  34.479  1.00  0.00     0.057 A 
ATOM     84  C   UNL A   1      45.392  28.220  34.576  1.00  0.00     0.134 A 
ATOM     85  C   UNL A   1      43.929  26.414  35.153  1.00  0.00     0.134 A 
ATOM     86  F   UNL A   1      45.654  29.375  33.947  1.00  0.00    -0.206 F 
ATOM     87  C   UNL A   1      46.422  27.631  35.311  1.00  0.00     0.040 A 
ATOM     88  C   UNL A   1      44.942  25.834  35.919  1.00  0.00     0.040 A 
ATOM     89  F   UNL A   1      42.738  25.799  35.113  1.00  0.00    -0.206 F 
ATOM     90  C   UNL A   1      46.195  26.439  35.994  1.00  0.00     0.006 A 
ENDBRANCH  66  83
ENDBRANCH  40  41
ENDBRANCH  33  35
ENDBRANCH  32  33
ENDBRANCH  31  32
ENDBRANCH  30  31
ENDBRANCH  29  30
ENDBRANCH  28  29
ENDBRANCH   1  28
TORSDOF 20
ENDMDL
