MODEL 1
REMARK VINA RESULT:     -11.2      0.000      0.000
REMARK SMILES C[C@H]1N=N[C@H](S/C(=C/c2ccc(-c3cccc(Cl)c3)o2)C(=O)OCCOCCOCCOC(=O)c2ccc(-c3c4nc(c(-c5c(F)cccc5F)c5ccc([nH]5)c(-c5c(F)cccc5F)c5nc(c(-c6c(F)cccc6F)c6ccc3[nH]6)C=C5)C=C4)cc2)[NH2+]1
REMARK SMILES IDX 27 1 26 2 25 3 24 4 23 5 21 6 22 7 7 8 8 9 6 10 5 11 1 12
REMARK SMILES IDX 2 13 3 14 89 15 4 16 9 19 10 20 20 21 11 22 12 23 13 24
REMARK SMILES IDX 14 25 19 26 15 27 17 28 16 29 18 30 28 31 29 32 30 33 31 34
REMARK SMILES IDX 32 35 33 36 34 37 35 38 36 39 88 40 37 41 87 42 38 43 39 44
REMARK SMILES IDX 40 45 81 46 41 47 86 48 80 49 82 50 42 51 85 52 79 53 78 54
REMARK SMILES IDX 43 56 69 57 52 58 68 59 53 60 56 61 67 62 83 63 54 64 55 65
REMARK SMILES IDX 66 67 84 68 57 69 44 70 45 71 50 72 46 73 47 74 49 75 51 76
REMARK SMILES IDX 48 77 70 78 71 79 76 80 72 81 73 82 75 83 77 84 74 85 58 86
REMARK SMILES IDX 59 87 64 88 60 89 61 90 63 91 65 92 62 93
REMARK H PARENT 89 17 89 18 82 55 56 66
REMARK Flexibility Score: inf
ROOT
ATOM      1  C   UNL A   1      39.775  22.668  26.483  1.00  0.00     0.188 C 
ENDROOT
BRANCH   1   2
ATOM      2  O   UNL A   1      38.378  22.726  26.211  1.00  0.00    -0.376 OA
BRANCH   2   3
ATOM      3  C   UNL A   1      37.807  21.739  25.352  1.00  0.00     0.202 C 
BRANCH   3   4
ATOM      4  C   UNL A   1      36.962  22.206  24.157  1.00  0.00     0.261 C 
BRANCH   4   5
ATOM      5  O   UNL A   1      35.977  23.175  24.545  1.00  0.00    -0.459 OA
BRANCH   5   6
ATOM      6  C   UNL A   1      34.973  22.773  25.366  1.00  0.00     0.345 C 
ATOM      7  O   UNL A   1      34.701  23.250  26.457  1.00  0.00    -0.246 OA
BRANCH   6   8
ATOM      8  C   UNL A   1      34.153  21.719  24.667  1.00  0.00     0.104 C 
ATOM      9  C   UNL A   1      33.212  22.030  23.753  1.00  0.00     0.070 C 
BRANCH   8  10
ATOM     10  S   UNL A   1      34.362  20.146  25.405  1.00  0.00    -0.028 SA
BRANCH  10  11
ATOM     11  C   UNL A   1      32.793  19.240  25.239  1.00  0.00     0.393 C 
ATOM     12  C   UNL A   1      32.388  15.747  25.777  1.00  0.00     0.106 C 
ATOM     13  C   UNL A   1      33.124  17.021  25.383  1.00  0.00     0.324 C 
ATOM     14  N   UNL A   1      32.768  17.371  23.999  1.00  0.00    -0.126 NA
ATOM     15  N   UNL A   1      32.759  18.159  26.237  1.00  0.00    -0.293 N 
ATOM     16  N   UNL A   1      32.579  18.610  23.918  1.00  0.00    -0.115 NA
ATOM     17  H   UNL A   1      33.442  18.309  26.981  1.00  0.00     0.350 HD
ATOM     18  H   UNL A   1      31.876  18.059  26.737  1.00  0.00     0.350 HD
ENDBRANCH  10  11
ENDBRANCH   8  10
BRANCH   9  19
ATOM     19  C   UNL A   1      32.959  23.352  23.271  1.00  0.00     0.128 A 
ATOM     20  C   UNL A   1      33.054  23.886  21.989  1.00  0.00     0.051 A 
ATOM     21  O   UNL A   1      32.552  24.381  24.108  1.00  0.00    -0.457 OA
ATOM     22  C   UNL A   1      32.795  25.269  22.065  1.00  0.00     0.051 A 
ATOM     23  C   UNL A   1      32.464  25.526  23.373  1.00  0.00     0.134 A 
BRANCH  23  24
ATOM     24  C   UNL A   1      32.025  26.738  24.044  1.00  0.00     0.019 A 
ATOM     25  C   UNL A   1      31.710  27.865  23.264  1.00  0.00     0.012 A 
ATOM     26  C   UNL A   1      31.981  26.846  25.438  1.00  0.00     0.032 A 
ATOM     27  C   UNL A   1      31.371  29.080  23.858  1.00  0.00     0.002 A 
ATOM     28  C   UNL A   1      31.653  28.070  26.029  1.00  0.00     0.041 A 
ATOM     29  C   UNL A   1      31.350  29.185  25.246  1.00  0.00     0.020 A 
ATOM     30  Cl  UNL A   1      31.648  28.220  27.744  1.00  0.00    -0.084 Cl
ENDBRANCH  23  24
ENDBRANCH   9  19
ENDBRANCH   6   8
ENDBRANCH   5   6
ENDBRANCH   4   5
ENDBRANCH   3   4
ENDBRANCH   2   3
ENDBRANCH   1   2
BRANCH   1  31
ATOM     31  C   UNL A   1      40.387  21.343  26.993  1.00  0.00     0.188 C 
BRANCH  31  32
ATOM     32  O   UNL A   1      41.780  21.379  27.182  1.00  0.00    -0.376 OA
BRANCH  32  33
ATOM     33  C   UNL A   1      42.635  20.875  26.174  1.00  0.00     0.202 C 
BRANCH  33  34
ATOM     34  C   UNL A   1      43.587  21.732  25.311  1.00  0.00     0.261 C 
BRANCH  34  35
ATOM     35  O   UNL A   1      43.302  23.126  25.151  1.00  0.00    -0.460 OA
BRANCH  35  36
ATOM     36  C   UNL A   1      44.215  23.996  25.647  1.00  0.00     0.338 C 
ATOM     37  O   UNL A   1      45.385  24.100  25.333  1.00  0.00    -0.246 OA
BRANCH  36  38
ATOM     38  C   UNL A   1      43.505  24.953  26.522  1.00  0.00     0.060 A 
ATOM     39  C   UNL A   1      43.825  26.315  26.445  1.00  0.00     0.016 A 
ATOM     40  C   UNL A   1      42.530  24.503  27.414  1.00  0.00     0.016 A 
ATOM     41  C   UNL A   1      43.186  27.233  27.281  1.00  0.00     0.010 A 
ATOM     42  C   UNL A   1      41.908  25.419  28.266  1.00  0.00     0.010 A 
ATOM     43  C   UNL A   1      42.254  26.783  28.225  1.00  0.00    -0.014 A 
BRANCH  43  44
ATOM     44  C   UNL A   1      41.781  27.690  29.299  1.00  0.00     0.031 A 
ATOM     45  C   UNL A   1      42.505  27.673  30.617  1.00  0.00     0.074 A 
ATOM     46  C   UNL A   1      40.732  28.510  29.117  1.00  0.00     0.049 A 
ATOM     47  N   UNL A   1      42.236  28.315  31.725  1.00  0.00    -0.248 NA
ATOM     48  C   UNL A   1      43.692  26.807  30.693  1.00  0.00     0.031 C 
ATOM     49  C   UNL A   1      39.977  28.658  27.877  1.00  0.00     0.029 A 
ATOM     50  N   UNL A   1      40.116  29.366  29.995  1.00  0.00    -0.354 N 
ATOM     51  C   UNL A   1      43.214  27.926  32.630  1.00  0.00     0.074 A 
ATOM     52  C   UNL A   1      44.059  26.965  31.954  1.00  0.00     0.031 C 
ATOM     53  C   UNL A   1      38.987  29.547  28.075  1.00  0.00     0.029 A 
ATOM     54  C   UNL A   1      39.019  30.000  29.466  1.00  0.00     0.049 A 
ATOM     55  H   UNL A   1      40.431  29.513  30.917  1.00  0.00     0.167 HD
ATOM     56  C   UNL A   1      43.400  28.336  33.908  1.00  0.00     0.037 A 
ATOM     57  C   UNL A   1      38.133  30.833  30.047  1.00  0.00     0.037 A 
ATOM     58  C   UNL A   1      42.546  29.277  34.585  1.00  0.00     0.049 A 
ATOM     59  C   UNL A   1      38.296  31.198  31.499  1.00  0.00     0.074 A 
ATOM     60  C   UNL A   1      42.653  29.764  35.877  1.00  0.00     0.029 A 
ATOM     61  N   UNL A   1      41.419  29.862  34.029  1.00  0.00    -0.354 N 
ATOM     62  N   UNL A   1      39.234  30.845  32.344  1.00  0.00    -0.248 NA
ATOM     63  C   UNL A   1      37.273  32.081  32.079  1.00  0.00     0.031 C 
ATOM     64  C   UNL A   1      41.558  30.598  36.120  1.00  0.00     0.029 A 
ATOM     65  C   UNL A   1      40.802  30.683  34.961  1.00  0.00     0.049 A 
ATOM     66  H   UNL A   1      41.103  29.716  33.109  1.00  0.00     0.167 HD
ATOM     67  C   UNL A   1      38.937  31.488  33.540  1.00  0.00     0.074 A 
ATOM     68  C   UNL A   1      37.732  32.258  33.309  1.00  0.00     0.031 C 
ATOM     69  C   UNL A   1      39.606  31.451  34.719  1.00  0.00     0.037 A 
BRANCH  56  70
ATOM     70  C   UNL A   1      44.549  27.729  34.659  1.00  0.00     0.057 A 
ATOM     71  C   UNL A   1      44.428  26.515  35.351  1.00  0.00     0.134 A 
ATOM     72  C   UNL A   1      45.793  28.371  34.700  1.00  0.00     0.134 A 
ATOM     73  F   UNL A   1      43.260  25.856  35.366  1.00  0.00    -0.206 F 
ATOM     74  C   UNL A   1      45.488  25.985  36.089  1.00  0.00     0.040 A 
ATOM     75  C   UNL A   1      46.870  27.835  35.408  1.00  0.00     0.040 A 
ATOM     76  F   UNL A   1      45.983  29.533  34.056  1.00  0.00    -0.206 F 
ATOM     77  C   UNL A   1      46.715  26.644  36.115  1.00  0.00     0.006 A 
ENDBRANCH  56  70
BRANCH  57  78
ATOM     78  C   UNL A   1      37.006  31.386  29.252  1.00  0.00     0.057 A 
ATOM     79  C   UNL A   1      37.045  32.696  28.763  1.00  0.00     0.134 A 
ATOM     80  C   UNL A   1      35.864  30.626  28.972  1.00  0.00     0.134 A 
ATOM     81  F   UNL A   1      38.099  33.482  29.023  1.00  0.00    -0.206 F 
ATOM     82  C   UNL A   1      35.985  33.236  28.031  1.00  0.00     0.040 A 
ATOM     83  C   UNL A   1      34.807  31.144  28.220  1.00  0.00     0.040 A 
ATOM     84  F   UNL A   1      35.763  29.365  29.417  1.00  0.00    -0.206 F 
ATOM     85  C   UNL A   1      34.865  32.454  27.752  1.00  0.00     0.006 A 
ENDBRANCH  57  78
BRANCH  69  86
ATOM     86  C   UNL A   1      39.082  32.302  35.843  1.00  0.00     0.057 A 
ATOM     87  C   UNL A   1      38.240  31.788  36.838  1.00  0.00     0.134 A 
ATOM     88  C   UNL A   1      39.466  33.645  35.955  1.00  0.00     0.134 A 
ATOM     89  F   UNL A   1      37.825  30.513  36.787  1.00  0.00    -0.206 F 
ATOM     90  C   UNL A   1      37.781  32.586  37.889  1.00  0.00     0.040 A 
ATOM     91  C   UNL A   1      39.038  34.444  37.016  1.00  0.00     0.040 A 
ATOM     92  F   UNL A   1      40.280  34.198  35.042  1.00  0.00    -0.206 F 
ATOM     93  C   UNL A   1      38.188  33.915  37.984  1.00  0.00     0.006 A 
ENDBRANCH  69  86
ENDBRANCH  43  44
ENDBRANCH  36  38
ENDBRANCH  35  36
ENDBRANCH  34  35
ENDBRANCH  33  34
ENDBRANCH  32  33
ENDBRANCH  31  32
ENDBRANCH   1  31
TORSDOF 21
ENDMDL
MODEL 2
REMARK VINA RESULT:     -10.9      4.343      6.666
REMARK SMILES C[C@H]1N=N[C@H](S/C(=C/c2ccc(-c3cccc(Cl)c3)o2)C(=O)OCCOCCOCCOC(=O)c2ccc(-c3c4nc(c(-c5c(F)cccc5F)c5ccc([nH]5)c(-c5c(F)cccc5F)c5nc(c(-c6c(F)cccc6F)c6ccc3[nH]6)C=C5)C=C4)cc2)[NH2+]1
REMARK SMILES IDX 27 1 26 2 25 3 24 4 23 5 21 6 22 7 7 8 8 9 6 10 5 11 1 12
REMARK SMILES IDX 2 13 3 14 89 15 4 16 9 19 10 20 20 21 11 22 12 23 13 24
REMARK SMILES IDX 14 25 19 26 15 27 17 28 16 29 18 30 28 31 29 32 30 33 31 34
REMARK SMILES IDX 32 35 33 36 34 37 35 38 36 39 88 40 37 41 87 42 38 43 39 44
REMARK SMILES IDX 40 45 81 46 41 47 86 48 80 49 82 50 42 51 85 52 79 53 78 54
REMARK SMILES IDX 43 56 69 57 52 58 68 59 53 60 56 61 67 62 83 63 54 64 55 65
REMARK SMILES IDX 66 67 84 68 57 69 44 70 45 71 50 72 46 73 47 74 49 75 51 76
REMARK SMILES IDX 48 77 70 78 71 79 76 80 72 81 73 82 75 83 77 84 74 85 58 86
REMARK SMILES IDX 59 87 64 88 60 89 61 90 63 91 65 92 62 93
REMARK H PARENT 89 17 89 18 82 55 56 66
REMARK Flexibility Score: inf
ROOT
ATOM      1  C   UNL A   1      39.772  21.817  26.115  1.00  0.00     0.188 C 
ENDROOT
BRANCH   1   2
ATOM      2  O   UNL A   1      38.460  21.482  25.672  1.00  0.00    -0.376 OA
BRANCH   2   3
ATOM      3  C   UNL A   1      37.493  22.525  25.552  1.00  0.00     0.202 C 
BRANCH   3   4
ATOM      4  C   UNL A   1      36.095  22.301  26.147  1.00  0.00     0.261 C 
BRANCH   4   5
ATOM      5  O   UNL A   1      35.071  22.917  25.353  1.00  0.00    -0.459 OA
BRANCH   5   6
ATOM      6  C   UNL A   1      33.785  22.822  25.779  1.00  0.00     0.345 C 
ATOM      7  O   UNL A   1      33.392  22.994  26.923  1.00  0.00    -0.246 OA
BRANCH   6   8
ATOM      8  C   UNL A   1      32.885  22.593  24.593  1.00  0.00     0.104 C 
ATOM      9  C   UNL A   1      31.801  23.358  24.354  1.00  0.00     0.070 C 
BRANCH   8  10
ATOM     10  S   UNL A   1      33.246  21.078  23.794  1.00  0.00    -0.028 SA
BRANCH  10  11
ATOM     11  C   UNL A   1      33.386  19.792  25.074  1.00  0.00     0.393 C 
ATOM     12  C   UNL A   1      34.045  16.353  24.446  1.00  0.00     0.106 C 
ATOM     13  C   UNL A   1      33.502  17.746  24.151  1.00  0.00     0.324 C 
ATOM     14  N   UNL A   1      32.202  17.904  24.821  1.00  0.00    -0.126 NA
ATOM     15  N   UNL A   1      34.390  18.805  24.648  1.00  0.00    -0.293 N 
ATOM     16  N   UNL A   1      32.137  19.046  25.340  1.00  0.00    -0.115 NA
ATOM     17  H   UNL A   1      34.994  19.171  23.911  1.00  0.00     0.350 HD
ATOM     18  H   UNL A   1      35.046  18.514  25.374  1.00  0.00     0.350 HD
ENDBRANCH  10  11
ENDBRANCH   8  10
BRANCH   9  19
ATOM     19  C   UNL A   1      31.444  24.514  25.118  1.00  0.00     0.128 A 
ATOM     20  C   UNL A   1      30.296  24.796  25.855  1.00  0.00     0.051 A 
ATOM     21  O   UNL A   1      32.275  25.618  25.224  1.00  0.00    -0.457 OA
ATOM     22  C   UNL A   1      30.393  26.117  26.334  1.00  0.00     0.051 A 
ATOM     23  C   UNL A   1      31.630  26.575  25.950  1.00  0.00     0.134 A 
BRANCH  23  24
ATOM     24  C   UNL A   1      32.329  27.822  26.215  1.00  0.00     0.019 A 
ATOM     25  C   UNL A   1      33.686  27.772  26.579  1.00  0.00     0.012 A 
ATOM     26  C   UNL A   1      31.679  29.060  26.195  1.00  0.00     0.032 A 
ATOM     27  C   UNL A   1      34.381  28.928  26.931  1.00  0.00     0.002 A 
ATOM     28  C   UNL A   1      32.377  30.216  26.561  1.00  0.00     0.041 A 
ATOM     29  C   UNL A   1      33.721  30.154  26.929  1.00  0.00     0.020 A 
ATOM     30  Cl  UNL A   1      31.566  31.735  26.588  1.00  0.00    -0.084 Cl
ENDBRANCH  23  24
ENDBRANCH   9  19
ENDBRANCH   6   8
ENDBRANCH   5   6
ENDBRANCH   4   5
ENDBRANCH   3   4
ENDBRANCH   2   3
ENDBRANCH   1   2
BRANCH   1  31
ATOM     31  C   UNL A   1      40.616  20.746  26.844  1.00  0.00     0.188 C 
BRANCH  31  32
ATOM     32  O   UNL A   1      41.778  20.353  26.157  1.00  0.00    -0.376 OA
BRANCH  32  33
ATOM     33  C   UNL A   1      42.188  19.000  26.195  1.00  0.00     0.202 C 
BRANCH  33  34
ATOM     34  C   UNL A   1      43.485  18.450  25.562  1.00  0.00     0.261 C 
BRANCH  34  35
ATOM     35  O   UNL A   1      43.892  18.951  24.284  1.00  0.00    -0.460 OA
BRANCH  35  36
ATOM     36  C   UNL A   1      45.101  19.562  24.225  1.00  0.00     0.338 C 
ATOM     37  O   UNL A   1      46.117  19.144  23.707  1.00  0.00    -0.246 OA
BRANCH  36  38
ATOM     38  C   UNL A   1      44.942  20.938  24.742  1.00  0.00     0.060 A 
ATOM     39  C   UNL A   1      44.551  21.957  23.862  1.00  0.00     0.016 A 
ATOM     40  C   UNL A   1      45.179  21.218  26.089  1.00  0.00     0.016 A 
ATOM     41  C   UNL A   1      44.421  23.268  24.323  1.00  0.00     0.010 A 
ATOM     42  C   UNL A   1      45.071  22.534  26.544  1.00  0.00     0.010 A 
ATOM     43  C   UNL A   1      44.721  23.570  25.657  1.00  0.00    -0.014 A 
BRANCH  43  44
ATOM     44  C   UNL A   1      44.862  24.982  26.089  1.00  0.00     0.031 A 
ATOM     45  C   UNL A   1      46.223  25.617  26.019  1.00  0.00     0.074 A 
ATOM     46  C   UNL A   1      43.811  25.688  26.540  1.00  0.00     0.049 A 
ATOM     47  N   UNL A   1      46.611  26.805  26.407  1.00  0.00    -0.248 NA
ATOM     48  C   UNL A   1      47.292  24.794  25.434  1.00  0.00     0.031 C 
ATOM     49  C   UNL A   1      42.435  25.208  26.613  1.00  0.00     0.029 A 
ATOM     50  N   UNL A   1      43.752  26.968  27.034  1.00  0.00    -0.354 N 
ATOM     51  C   UNL A   1      47.968  26.868  26.120  1.00  0.00     0.074 A 
ATOM     52  C   UNL A   1      48.343  25.588  25.561  1.00  0.00     0.031 C 
ATOM     53  C   UNL A   1      41.664  26.179  27.134  1.00  0.00     0.029 A 
ATOM     54  C   UNL A   1      42.500  27.333  27.465  1.00  0.00     0.049 A 
ATOM     55  H   UNL A   1      44.532  27.567  27.076  1.00  0.00     0.167 HD
ATOM     56  C   UNL A   1      48.825  27.902  26.299  1.00  0.00     0.037 A 
ATOM     57  C   UNL A   1      42.086  28.461  28.075  1.00  0.00     0.037 A 
ATOM     58  C   UNL A   1      48.455  29.168  26.874  1.00  0.00     0.049 A 
ATOM     59  C   UNL A   1      43.076  29.560  28.358  1.00  0.00     0.074 A 
ATOM     60  C   UNL A   1      49.247  30.282  27.091  1.00  0.00     0.029 A 
ATOM     61  N   UNL A   1      47.186  29.483  27.340  1.00  0.00    -0.354 N 
ATOM     62  N   UNL A   1      44.353  29.624  28.066  1.00  0.00    -0.248 NA
ATOM     63  C   UNL A   1      42.566  30.747  29.060  1.00  0.00     0.031 C 
ATOM     64  C   UNL A   1      48.472  31.249  27.740  1.00  0.00     0.029 A 
ATOM     65  C   UNL A   1      47.181  30.763  27.871  1.00  0.00     0.049 A 
ATOM     66  H   UNL A   1      46.406  28.885  27.299  1.00  0.00     0.167 HD
ATOM     67  C   UNL A   1      44.788  30.867  28.512  1.00  0.00     0.074 A 
ATOM     68  C   UNL A   1      43.636  31.527  29.091  1.00  0.00     0.031 C 
ATOM     69  C   UNL A   1      46.027  31.414  28.439  1.00  0.00     0.037 A 
BRANCH  56  70
ATOM     70  C   UNL A   1      50.255  27.677  25.901  1.00  0.00     0.057 A 
ATOM     71  C   UNL A   1      51.254  27.396  26.844  1.00  0.00     0.134 A 
ATOM     72  C   UNL A   1      50.642  27.753  24.557  1.00  0.00     0.134 A 
ATOM     73  F   UNL A   1      50.956  27.325  28.149  1.00  0.00    -0.206 F 
ATOM     74  C   UNL A   1      52.590  27.240  26.469  1.00  0.00     0.040 A 
ATOM     75  C   UNL A   1      51.969  27.567  24.166  1.00  0.00     0.040 A 
ATOM     76  F   UNL A   1      49.737  28.013  23.600  1.00  0.00    -0.206 F 
ATOM     77  C   UNL A   1      52.950  27.322  25.125  1.00  0.00     0.006 A 
ENDBRANCH  56  70
BRANCH  57  78
ATOM     78  C   UNL A   1      40.660  28.613  28.459  1.00  0.00     0.057 A 
ATOM     79  C   UNL A   1      40.221  28.285  29.747  1.00  0.00     0.134 A 
ATOM     80  C   UNL A   1      39.702  29.079  27.550  1.00  0.00     0.134 A 
ATOM     81  F   UNL A   1      41.086  27.807  30.653  1.00  0.00    -0.206 F 
ATOM     82  C   UNL A   1      38.880  28.405  30.116  1.00  0.00     0.040 A 
ATOM     83  C   UNL A   1      38.361  29.227  27.914  1.00  0.00     0.040 A 
ATOM     84  F   UNL A   1      40.057  29.405  26.299  1.00  0.00    -0.206 F 
ATOM     85  C   UNL A   1      37.947  28.885  29.198  1.00  0.00     0.006 A 
ENDBRANCH  57  78
BRANCH  69  86
ATOM     86  C   UNL A   1      46.199  32.815  28.958  1.00  0.00     0.057 A 
ATOM     87  C   UNL A   1      45.986  33.940  28.151  1.00  0.00     0.134 A 
ATOM     88  C   UNL A   1      46.537  33.039  30.299  1.00  0.00     0.134 A 
ATOM     89  F   UNL A   1      45.670  33.799  26.855  1.00  0.00    -0.206 F 
ATOM     90  C   UNL A   1      46.126  35.236  28.655  1.00  0.00     0.040 A 
ATOM     91  C   UNL A   1      46.652  34.328  30.821  1.00  0.00     0.040 A 
ATOM     92  F   UNL A   1      46.745  32.006  31.130  1.00  0.00    -0.206 F 
ATOM     93  C   UNL A   1      46.451  35.432  29.996  1.00  0.00     0.006 A 
ENDBRANCH  69  86
ENDBRANCH  43  44
ENDBRANCH  36  38
ENDBRANCH  35  36
ENDBRANCH  34  35
ENDBRANCH  33  34
ENDBRANCH  32  33
ENDBRANCH  31  32
ENDBRANCH   1  31
TORSDOF 21
ENDMDL
MODEL 3
REMARK VINA RESULT:     -10.7      1.547      6.256
REMARK SMILES C[C@H]1N=N[C@H](S/C(=C/c2ccc(-c3cccc(Cl)c3)o2)C(=O)OCCOCCOCCOC(=O)c2ccc(-c3c4nc(c(-c5c(F)cccc5F)c5ccc([nH]5)c(-c5c(F)cccc5F)c5nc(c(-c6c(F)cccc6F)c6ccc3[nH]6)C=C5)C=C4)cc2)[NH2+]1
REMARK SMILES IDX 27 1 26 2 25 3 24 4 23 5 21 6 22 7 7 8 8 9 6 10 5 11 1 12
REMARK SMILES IDX 2 13 3 14 89 15 4 16 9 19 10 20 20 21 11 22 12 23 13 24
REMARK SMILES IDX 14 25 19 26 15 27 17 28 16 29 18 30 28 31 29 32 30 33 31 34
REMARK SMILES IDX 32 35 33 36 34 37 35 38 36 39 88 40 37 41 87 42 38 43 39 44
REMARK SMILES IDX 40 45 81 46 41 47 86 48 80 49 82 50 42 51 85 52 79 53 78 54
REMARK SMILES IDX 43 56 69 57 52 58 68 59 53 60 56 61 67 62 83 63 54 64 55 65
REMARK SMILES IDX 66 67 84 68 57 69 44 70 45 71 50 72 46 73 47 74 49 75 51 76
REMARK SMILES IDX 48 77 70 78 71 79 76 80 72 81 73 82 75 83 77 84 74 85 58 86
REMARK SMILES IDX 59 87 64 88 60 89 61 90 63 91 65 92 62 93
REMARK H PARENT 89 17 89 18 82 55 56 66
REMARK Flexibility Score: inf
ROOT
ATOM      1  C   UNL A   1      39.745  21.800  26.084  1.00  0.00     0.188 C 
ENDROOT
BRANCH   1   2
ATOM      2  O   UNL A   1      38.548  21.109  25.737  1.00  0.00    -0.376 OA
BRANCH   2   3
ATOM      3  C   UNL A   1      37.332  21.850  25.651  1.00  0.00     0.202 C 
BRANCH   3   4
ATOM      4  C   UNL A   1      36.128  21.207  24.946  1.00  0.00     0.261 C 
BRANCH   4   5
ATOM      5  O   UNL A   1      35.108  22.170  24.646  1.00  0.00    -0.459 OA
BRANCH   5   6
ATOM      6  C   UNL A   1      33.840  21.910  25.061  1.00  0.00     0.345 C 
ATOM      7  O   UNL A   1      33.425  22.007  26.205  1.00  0.00    -0.246 OA
BRANCH   6   8
ATOM      8  C   UNL A   1      32.981  21.601  23.863  1.00  0.00     0.104 C 
ATOM      9  C   UNL A   1      32.444  22.570  23.094  1.00  0.00     0.070 C 
BRANCH   8  10
ATOM     10  S   UNL A   1      32.541  19.908  23.805  1.00  0.00    -0.028 SA
BRANCH  10  11
ATOM     11  C   UNL A   1      33.386  19.065  25.179  1.00  0.00     0.393 C 
ATOM     12  C   UNL A   1      34.822  15.815  25.003  1.00  0.00     0.106 C 
ATOM     13  C   UNL A   1      33.840  16.927  24.655  1.00  0.00     0.324 C 
ATOM     14  N   UNL A   1      32.778  16.963  25.673  1.00  0.00    -0.126 NA
ATOM     15  N   UNL A   1      34.481  18.248  24.634  1.00  0.00    -0.293 N 
ATOM     16  N   UNL A   1      32.526  18.158  25.969  1.00  0.00    -0.115 NA
ATOM     17  H   UNL A   1      34.732  18.532  23.687  1.00  0.00     0.350 HD
ATOM     18  H   UNL A   1      35.362  18.309  25.145  1.00  0.00     0.350 HD
ENDBRANCH  10  11
ENDBRANCH   8  10
BRANCH   9  19
ATOM     19  C   UNL A   1      32.704  23.967  23.255  1.00  0.00     0.128 A 
ATOM     20  C   UNL A   1      33.140  24.921  22.340  1.00  0.00     0.051 A 
ATOM     21  O   UNL A   1      32.549  24.614  24.472  1.00  0.00    -0.457 OA
ATOM     22  C   UNL A   1      33.340  26.134  23.027  1.00  0.00     0.051 A 
ATOM     23  C   UNL A   1      32.941  25.912  24.323  1.00  0.00     0.134 A 
BRANCH  23  24
ATOM     24  C   UNL A   1      32.839  26.795  25.473  1.00  0.00     0.019 A 
ATOM     25  C   UNL A   1      31.582  26.973  26.078  1.00  0.00     0.012 A 
ATOM     26  C   UNL A   1      33.929  27.531  25.947  1.00  0.00     0.032 A 
ATOM     27  C   UNL A   1      31.409  27.876  27.126  1.00  0.00     0.002 A 
ATOM     28  C   UNL A   1      33.748  28.445  26.990  1.00  0.00     0.041 A 
ATOM     29  C   UNL A   1      32.495  28.621  27.578  1.00  0.00     0.020 A 
ATOM     30  Cl  UNL A   1      35.077  29.390  27.542  1.00  0.00    -0.084 Cl
ENDBRANCH  23  24
ENDBRANCH   9  19
ENDBRANCH   6   8
ENDBRANCH   5   6
ENDBRANCH   4   5
ENDBRANCH   3   4
ENDBRANCH   2   3
ENDBRANCH   1   2
BRANCH   1  31
ATOM     31  C   UNL A   1      40.944  20.996  26.638  1.00  0.00     0.188 C 
BRANCH  31  32
ATOM     32  O   UNL A   1      42.045  21.782  27.020  1.00  0.00    -0.376 OA
BRANCH  32  33
ATOM     33  C   UNL A   1      42.946  22.248  26.033  1.00  0.00     0.202 C 
BRANCH  33  34
ATOM     34  C   UNL A   1      42.968  23.682  25.462  1.00  0.00     0.261 C 
BRANCH  34  35
ATOM     35  O   UNL A   1      41.912  24.581  25.820  1.00  0.00    -0.460 OA
BRANCH  35  36
ATOM     36  C   UNL A   1      42.160  25.905  25.669  1.00  0.00     0.338 C 
ATOM     37  O   UNL A   1      42.301  26.517  24.628  1.00  0.00    -0.246 OA
BRANCH  36  38
ATOM     38  C   UNL A   1      42.045  26.545  26.997  1.00  0.00     0.060 A 
ATOM     39  C   UNL A   1      41.094  26.062  27.907  1.00  0.00     0.016 A 
ATOM     40  C   UNL A   1      42.873  27.616  27.337  1.00  0.00     0.016 A 
ATOM     41  C   UNL A   1      40.951  26.668  29.156  1.00  0.00     0.010 A 
ATOM     42  C   UNL A   1      42.712  28.237  28.578  1.00  0.00     0.010 A 
ATOM     43  C   UNL A   1      41.731  27.786  29.481  1.00  0.00    -0.014 A 
BRANCH  43  44
ATOM     44  C   UNL A   1      41.399  28.606  30.672  1.00  0.00     0.031 A 
ATOM     45  C   UNL A   1      40.262  29.584  30.570  1.00  0.00     0.074 A 
ATOM     46  C   UNL A   1      42.091  28.495  31.818  1.00  0.00     0.049 A 
ATOM     47  N   UNL A   1      39.832  30.459  31.443  1.00  0.00    -0.248 NA
ATOM     48  C   UNL A   1      39.511  29.574  29.305  1.00  0.00     0.031 C 
ATOM     49  C   UNL A   1      43.181  27.555  32.063  1.00  0.00     0.029 A 
ATOM     50  N   UNL A   1      41.977  29.198  32.992  1.00  0.00    -0.354 N 
ATOM     51  C   UNL A   1      38.767  31.107  30.831  1.00  0.00     0.074 A 
ATOM     52  C   UNL A   1      38.641  30.552  29.501  1.00  0.00     0.031 C 
ATOM     53  C   UNL A   1      43.646  27.747  33.310  1.00  0.00     0.029 A 
ATOM     54  C   UNL A   1      42.911  28.846  33.935  1.00  0.00     0.049 A 
ATOM     55  H   UNL A   1      41.291  29.888  33.144  1.00  0.00     0.167 HD
ATOM     56  C   UNL A   1      37.961  32.074  31.333  1.00  0.00     0.037 A 
ATOM     57  C   UNL A   1      43.155  29.370  35.153  1.00  0.00     0.037 A 
ATOM     58  C   UNL A   1      38.102  32.639  32.649  1.00  0.00     0.049 A 
ATOM     59  C   UNL A   1      42.313  30.513  35.654  1.00  0.00     0.074 A 
ATOM     60  C   UNL A   1      37.331  33.617  33.255  1.00  0.00     0.029 A 
ATOM     61  N   UNL A   1      39.089  32.288  33.558  1.00  0.00    -0.354 N 
ATOM     62  N   UNL A   1      41.294  31.108  35.081  1.00  0.00    -0.248 NA
ATOM     63  C   UNL A   1      42.657  31.061  36.975  1.00  0.00     0.031 C 
ATOM     64  C   UNL A   1      37.888  33.897  34.506  1.00  0.00     0.029 A 
ATOM     65  C   UNL A   1      38.966  33.051  34.709  1.00  0.00     0.049 A 
ATOM     66  H   UNL A   1      39.775  31.599  33.407  1.00  0.00     0.167 HD
ATOM     67  C   UNL A   1      40.854  32.070  35.983  1.00  0.00     0.074 A 
ATOM     68  C   UNL A   1      41.714  31.977  37.144  1.00  0.00     0.031 C 
ATOM     69  C   UNL A   1      39.824  32.945  35.863  1.00  0.00     0.037 A 
BRANCH  56  70
ATOM     70  C   UNL A   1      36.885  32.600  30.429  1.00  0.00     0.057 A 
ATOM     71  C   UNL A   1      37.096  33.699  29.583  1.00  0.00     0.134 A 
ATOM     72  C   UNL A   1      35.616  32.008  30.409  1.00  0.00     0.134 A 
ATOM     73  F   UNL A   1      38.283  34.323  29.563  1.00  0.00    -0.206 F 
ATOM     74  C   UNL A   1      36.073  34.213  28.784  1.00  0.00     0.040 A 
ATOM     75  C   UNL A   1      34.594  32.493  29.591  1.00  0.00     0.040 A 
ATOM     76  F   UNL A   1      35.345  30.949  31.188  1.00  0.00    -0.206 F 
ATOM     77  C   UNL A   1      34.819  33.608  28.784  1.00  0.00     0.006 A 
ENDBRANCH  56  70
BRANCH  57  78
ATOM     78  C   UNL A   1      44.247  28.813  35.992  1.00  0.00     0.057 A 
ATOM     79  C   UNL A   1      45.546  29.330  35.920  1.00  0.00     0.134 A 
ATOM     80  C   UNL A   1      44.024  27.750  36.875  1.00  0.00     0.134 A 
ATOM     81  F   UNL A   1      45.828  30.329  35.072  1.00  0.00    -0.206 F 
ATOM     82  C   UNL A   1      46.586  28.803  36.688  1.00  0.00     0.040 A 
ATOM     83  C   UNL A   1      45.050  27.231  37.668  1.00  0.00     0.040 A 
ATOM     84  F   UNL A   1      42.803  27.207  36.987  1.00  0.00    -0.206 F 
ATOM     85  C   UNL A   1      46.336  27.755  37.572  1.00  0.00     0.006 A 
ENDBRANCH  57  78
BRANCH  69  86
ATOM     86  C   UNL A   1      39.536  33.844  37.033  1.00  0.00     0.057 A 
ATOM     87  C   UNL A   1      40.015  35.159  37.100  1.00  0.00     0.134 A 
ATOM     88  C   UNL A   1      38.726  33.399  38.087  1.00  0.00     0.134 A 
ATOM     89  F   UNL A   1      40.805  35.646  36.131  1.00  0.00    -0.206 F 
ATOM     90  C   UNL A   1      39.719  35.989  38.184  1.00  0.00     0.040 A 
ATOM     91  C   UNL A   1      38.399  34.229  39.161  1.00  0.00     0.040 A 
ATOM     92  F   UNL A   1      38.225  32.155  38.082  1.00  0.00    -0.206 F 
ATOM     93  C   UNL A   1      38.901  35.527  39.213  1.00  0.00     0.006 A 
ENDBRANCH  69  86
ENDBRANCH  43  44
ENDBRANCH  36  38
ENDBRANCH  35  36
ENDBRANCH  34  35
ENDBRANCH  33  34
ENDBRANCH  32  33
ENDBRANCH  31  32
ENDBRANCH   1  31
TORSDOF 21
ENDMDL
