MODEL 1
REMARK VINA RESULT:     -12.6      0.000      0.000
REMARK SMILES Cc1ccc(Nc2c(F)cccc2I)c(CC(=O)OCCOCCOCCOC(=O)c2ccc(-c3c4nc(c(-c5c(F)cccc5F)c5ccc([nH]5)c(-c5c(F)cccc5F)c5nc(c(-c6c(F)cccc6F)c6ccc3[nH]6)C=C5)C=C4)cc2)c1
REMARK SMILES IDX 23 1 22 2 21 3 20 4 19 5 17 6 18 7 16 8 15 9 1 10 2 11 3 12
REMARK SMILES IDX 85 13 4 14 5 15 6 16 7 18 8 19 13 20 9 21 10 22 12 23 14 24
REMARK SMILES IDX 11 25 24 26 25 27 26 28 27 29 28 30 29 31 30 32 31 33 32 34
REMARK SMILES IDX 84 35 33 36 83 37 34 38 35 39 36 40 77 41 37 42 82 43 76 44
REMARK SMILES IDX 78 45 38 46 81 47 75 48 74 49 39 51 65 52 48 53 64 54 49 55
REMARK SMILES IDX 52 56 63 57 79 58 50 59 51 60 62 62 80 63 53 64 40 65 41 66
REMARK SMILES IDX 46 67 42 68 43 69 45 70 47 71 44 72 66 73 67 74 72 75 68 76
REMARK SMILES IDX 69 77 71 78 73 79 70 80 54 81 55 82 60 83 56 84 57 85 59 86
REMARK SMILES IDX 61 87 58 88
REMARK H PARENT 6 17 78 50 52 61
REMARK Flexibility Score: inf
ROOT
ATOM      1  C   UNL A   1      41.088  21.450  26.487  1.00  0.00     0.188 C 
ENDROOT
BRANCH   1   2
ATOM      2  O   UNL A   1      39.730  21.774  26.581  1.00  0.00    -0.376 OA
BRANCH   2   3
ATOM      3  C   UNL A   1      39.337  23.101  26.841  1.00  0.00     0.202 C 
BRANCH   3   4
ATOM      4  C   UNL A   1      38.265  24.094  26.139  1.00  0.00     0.261 C 
BRANCH   4   5
ATOM      5  O   UNL A   1      36.664  24.002  25.271  1.00  0.00    -0.463 OA
BRANCH   5   6
ATOM      6  C   UNL A   1      35.794  23.233  24.093  1.00  0.00     0.310 C 
ATOM      7  O   UNL A   1      35.666  23.381  22.869  1.00  0.00    -0.252 OA
BRANCH   6   8
ATOM      8  C   UNL A   1      35.312  21.954  24.502  1.00  0.00     0.160 C 
BRANCH   8   9
ATOM      9  C   UNL A   1      33.940  21.972  23.944  1.00  0.00    -0.013 A 
ATOM     10  C   UNL A   1      32.530  18.497  24.812  1.00  0.00     0.044 C 
ATOM     11  C   UNL A   1      32.646  19.982  24.691  1.00  0.00    -0.051 A 
ATOM     12  C   UNL A   1      31.865  20.873  25.384  1.00  0.00     0.005 A 
ATOM     13  C   UNL A   1      33.652  20.535  23.941  1.00  0.00     0.009 A 
ATOM     14  C   UNL A   1      32.096  22.278  25.266  1.00  0.00     0.026 A 
ATOM     15  C   UNL A   1      33.097  23.072  24.280  1.00  0.00     0.042 A 
BRANCH  15  16
ATOM     16  N   UNL A   1      32.765  24.940  23.574  1.00  0.00    -0.352 N 
ATOM     17  H   UNL A   1      32.556  24.953  22.612  1.00  0.00     0.167 HD
BRANCH  16  18
ATOM     18  C   UNL A   1      32.768  26.615  24.326  1.00  0.00     0.088 A 
ATOM     19  C   UNL A   1      33.649  26.966  25.570  1.00  0.00     0.147 A 
ATOM     20  C   UNL A   1      31.801  27.644  24.120  1.00  0.00     0.040 A 
ATOM     21  F   UNL A   1      34.470  26.114  26.224  1.00  0.00    -0.205 F 
ATOM     22  C   UNL A   1      33.593  28.119  26.355  1.00  0.00     0.041 A 
ATOM     23  C   UNL A   1      31.788  28.805  25.019  1.00  0.00     0.017 A 
ATOM     24  I   UNL A   1      30.195  28.044  22.874  1.00  0.00    -0.042 I 
ATOM     25  C   UNL A   1      32.632  29.040  26.098  1.00  0.00     0.004 A 
ENDBRANCH  16  18
ENDBRANCH  15  16
ENDBRANCH   8   9
ENDBRANCH   6   8
ENDBRANCH   5   6
ENDBRANCH   4   5
ENDBRANCH   3   4
ENDBRANCH   2   3
ENDBRANCH   1   2
BRANCH   1  26
ATOM     26  C   UNL A   1      42.143  22.543  26.580  1.00  0.00     0.188 C 
BRANCH  26  27
ATOM     27  O   UNL A   1      42.519  23.145  25.365  1.00  0.00    -0.376 OA
BRANCH  27  28
ATOM     28  C   UNL A   1      43.681  23.967  25.459  1.00  0.00     0.202 C 
BRANCH  28  29
ATOM     29  C   UNL A   1      43.577  25.523  25.148  1.00  0.00     0.261 C 
BRANCH  29  30
ATOM     30  O   UNL A   1      42.207  26.086  25.002  1.00  0.00    -0.460 OA
BRANCH  30  31
ATOM     31  C   UNL A   1      41.780  27.287  25.613  1.00  0.00     0.338 C 
ATOM     32  O   UNL A   1      42.014  28.337  25.045  1.00  0.00    -0.246 OA
BRANCH  31  33
ATOM     33  C   UNL A   1      41.105  27.005  27.146  1.00  0.00     0.060 A 
ATOM     34  C   UNL A   1      39.358  27.013  28.042  1.00  0.00     0.016 A 
ATOM     35  C   UNL A   1      42.232  28.260  27.775  1.00  0.00     0.016 A 
ATOM     36  C   UNL A   1      38.951  28.438  29.222  1.00  0.00     0.010 A 
ATOM     37  C   UNL A   1      41.696  29.548  28.808  1.00  0.00     0.010 A 
ATOM     38  C   UNL A   1      40.115  29.804  29.602  1.00  0.00    -0.014 A 
BRANCH  38  39
ATOM     39  C   UNL A   1      40.172  31.243  30.836  1.00  0.00     0.031 A 
ATOM     40  C   UNL A   1      41.499  31.582  32.190  1.00  0.00     0.074 A 
ATOM     41  C   UNL A   1      39.448  32.374  30.659  1.00  0.00     0.049 A 
ATOM     42  N   UNL A   1      41.349  31.615  33.506  1.00  0.00    -0.248 NA
ATOM     43  C   UNL A   1      43.162  31.335  32.097  1.00  0.00     0.031 C 
ATOM     44  C   UNL A   1      39.726  33.705  31.232  1.00  0.00     0.029 A 
ATOM     45  N   UNL A   1      38.364  32.634  29.823  1.00  0.00    -0.354 N 
ATOM     46  C   UNL A   1      42.659  31.568  34.104  1.00  0.00     0.074 A 
ATOM     47  C   UNL A   1      43.511  30.840  33.261  1.00  0.00     0.031 C 
ATOM     48  C   UNL A   1      38.672  34.517  31.009  1.00  0.00     0.029 A 
ATOM     49  C   UNL A   1      37.638  33.691  30.415  1.00  0.00     0.049 A 
ATOM     50  H   UNL A   1      38.147  32.171  28.982  1.00  0.00     0.167 HD
ATOM     51  C   UNL A   1      43.184  32.607  34.833  1.00  0.00     0.037 A 
ATOM     52  C   UNL A   1      36.435  33.380  30.968  1.00  0.00     0.037 A 
ATOM     53  C   UNL A   1      42.169  33.631  34.847  1.00  0.00     0.049 A 
ATOM     54  C   UNL A   1      36.579  33.406  32.473  1.00  0.00     0.074 A 
ATOM     55  C   UNL A   1      41.961  34.788  34.118  1.00  0.00     0.029 A 
ATOM     56  N   UNL A   1      40.933  33.228  35.304  1.00  0.00    -0.354 N 
ATOM     57  N   UNL A   1      37.726  33.297  33.099  1.00  0.00    -0.248 NA
ATOM     58  C   UNL A   1      35.486  33.739  33.375  1.00  0.00     0.031 C 
ATOM     59  C   UNL A   1      40.551  35.048  34.138  1.00  0.00     0.029 A 
ATOM     60  C   UNL A   1      39.923  34.038  34.852  1.00  0.00     0.049 A 
ATOM     61  H   UNL A   1      40.791  32.448  35.888  1.00  0.00     0.167 HD
ATOM     62  C   UNL A   1      37.568  33.619  34.411  1.00  0.00     0.074 A 
ATOM     63  C   UNL A   1      36.144  33.864  34.541  1.00  0.00     0.031 C 
ATOM     64  C   UNL A   1      38.583  33.715  35.317  1.00  0.00     0.037 A 
BRANCH  51  65
ATOM     65  C   UNL A   1      44.679  32.811  35.169  1.00  0.00     0.057 A 
ATOM     66  C   UNL A   1      45.262  32.102  36.236  1.00  0.00     0.134 A 
ATOM     67  C   UNL A   1      45.610  33.636  34.481  1.00  0.00     0.134 A 
ATOM     68  F   UNL A   1      44.547  31.234  36.963  1.00  0.00    -0.206 F 
ATOM     69  C   UNL A   1      46.615  32.221  36.605  1.00  0.00     0.040 A 
ATOM     70  C   UNL A   1      46.950  33.818  34.884  1.00  0.00     0.040 A 
ATOM     71  F   UNL A   1      45.302  34.270  33.342  1.00  0.00    -0.206 F 
ATOM     72  C   UNL A   1      47.464  33.093  35.943  1.00  0.00     0.006 A 
ENDBRANCH  51  65
BRANCH  52  73
ATOM     73  C   UNL A   1      35.727  32.413  30.065  1.00  0.00     0.057 A 
ATOM     74  C   UNL A   1      35.254  32.939  28.835  1.00  0.00     0.134 A 
ATOM     75  C   UNL A   1      36.000  31.038  30.093  1.00  0.00     0.134 A 
ATOM     76  F   UNL A   1      35.048  34.260  28.701  1.00  0.00    -0.206 F 
ATOM     77  C   UNL A   1      35.155  32.161  27.680  1.00  0.00     0.040 A 
ATOM     78  C   UNL A   1      35.910  30.252  28.934  1.00  0.00     0.040 A 
ATOM     79  F   UNL A   1      36.499  30.465  31.195  1.00  0.00    -0.206 F 
ATOM     80  C   UNL A   1      35.491  30.812  27.730  1.00  0.00     0.006 A 
ENDBRANCH  52  73
BRANCH  64  81
ATOM     81  C   UNL A   1      38.386  33.459  36.797  1.00  0.00     0.057 A 
ATOM     82  C   UNL A   1      37.998  32.216  37.312  1.00  0.00     0.134 A 
ATOM     83  C   UNL A   1      38.770  34.410  37.777  1.00  0.00     0.134 A 
ATOM     84  F   UNL A   1      37.789  31.152  36.526  1.00  0.00    -0.206 F 
ATOM     85  C   UNL A   1      37.857  31.986  38.680  1.00  0.00     0.040 A 
ATOM     86  C   UNL A   1      38.764  34.142  39.142  1.00  0.00     0.040 A 
ATOM     87  F   UNL A   1      39.202  35.642  37.467  1.00  0.00    -0.206 F 
ATOM     88  C   UNL A   1      38.251  32.943  39.601  1.00  0.00     0.006 A 
ENDBRANCH  64  81
ENDBRANCH  38  39
ENDBRANCH  31  33
ENDBRANCH  30  31
ENDBRANCH  29  30
ENDBRANCH  28  29
ENDBRANCH  27  28
ENDBRANCH  26  27
ENDBRANCH   1  26
TORSDOF 20
ENDMDL
MODEL 2
REMARK VINA RESULT:     -12.5      5.102     10.400
REMARK SMILES Cc1ccc(Nc2c(F)cccc2I)c(CC(=O)OCCOCCOCCOC(=O)c2ccc(-c3c4nc(c(-c5c(F)cccc5F)c5ccc([nH]5)c(-c5c(F)cccc5F)c5nc(c(-c6c(F)cccc6F)c6ccc3[nH]6)C=C5)C=C4)cc2)c1
REMARK SMILES IDX 23 1 22 2 21 3 20 4 19 5 17 6 18 7 16 8 15 9 1 10 2 11 3 12
REMARK SMILES IDX 85 13 4 14 5 15 6 16 7 18 8 19 13 20 9 21 10 22 12 23 14 24
REMARK SMILES IDX 11 25 24 26 25 27 26 28 27 29 28 30 29 31 30 32 31 33 32 34
REMARK SMILES IDX 84 35 33 36 83 37 34 38 35 39 36 40 77 41 37 42 82 43 76 44
REMARK SMILES IDX 78 45 38 46 81 47 75 48 74 49 39 51 65 52 48 53 64 54 49 55
REMARK SMILES IDX 52 56 63 57 79 58 50 59 51 60 62 62 80 63 53 64 40 65 41 66
REMARK SMILES IDX 46 67 42 68 43 69 45 70 47 71 44 72 66 73 67 74 72 75 68 76
REMARK SMILES IDX 69 77 71 78 73 79 70 80 54 81 55 82 60 83 56 84 57 85 59 86
REMARK SMILES IDX 61 87 58 88
REMARK H PARENT 6 17 78 50 52 61
REMARK Flexibility Score: inf
ROOT
ATOM      1  C   UNL A   1      34.944  31.109  28.189  1.00  0.00     0.188 C 
ENDROOT
BRANCH   1   2
ATOM      2  O   UNL A   1      33.740  30.574  27.716  1.00  0.00    -0.376 OA
BRANCH   2   3
ATOM      3  C   UNL A   1      33.698  29.920  26.471  1.00  0.00     0.202 C 
BRANCH   3   4
ATOM      4  C   UNL A   1      32.901  28.614  25.935  1.00  0.00     0.261 C 
BRANCH   4   5
ATOM      5  O   UNL A   1      32.604  26.883  26.425  1.00  0.00    -0.463 OA
BRANCH   5   6
ATOM      6  C   UNL A   1      31.524  25.630  26.419  1.00  0.00     0.310 C 
ATOM      7  O   UNL A   1      31.502  24.497  26.924  1.00  0.00    -0.252 OA
BRANCH   6   8
ATOM      8  C   UNL A   1      30.220  26.021  25.994  1.00  0.00     0.160 C 
BRANCH   8   9
ATOM      9  C   UNL A   1      30.233  25.576  24.581  1.00  0.00    -0.013 A 
ATOM     10  C   UNL A   1      29.226  28.720  22.601  1.00  0.00     0.044 C 
ATOM     11  C   UNL A   1      29.990  27.511  23.034  1.00  0.00    -0.051 A 
ATOM     12  C   UNL A   1      31.274  27.230  22.639  1.00  0.00     0.005 A 
ATOM     13  C   UNL A   1      29.459  26.661  23.971  1.00  0.00     0.009 A 
ATOM     14  C   UNL A   1      31.956  26.090  23.164  1.00  0.00     0.026 A 
ATOM     15  C   UNL A   1      31.396  24.904  24.104  1.00  0.00     0.042 A 
BRANCH  15  16
ATOM     16  N   UNL A   1      32.091  23.002  24.082  1.00  0.00    -0.352 N 
ATOM     17  H   UNL A   1      31.468  22.372  23.653  1.00  0.00     0.167 HD
BRANCH  16  18
ATOM     18  C   UNL A   1      33.622  22.189  24.687  1.00  0.00     0.088 A 
ATOM     19  C   UNL A   1      34.947  22.985  24.927  1.00  0.00     0.147 A 
ATOM     20  C   UNL A   1      33.898  20.789  24.696  1.00  0.00     0.040 A 
ATOM     21  F   UNL A   1      35.124  24.309  24.714  1.00  0.00    -0.205 F 
ATOM     22  C   UNL A   1      36.218  22.466  25.181  1.00  0.00     0.041 A 
ATOM     23  C   UNL A   1      35.273  20.331  24.933  1.00  0.00     0.017 A 
ATOM     24  I   UNL A   1      32.896  19.003  24.382  1.00  0.00    -0.042 I 
ATOM     25  C   UNL A   1      36.394  21.123  25.156  1.00  0.00     0.004 A 
ENDBRANCH  16  18
ENDBRANCH  15  16
ENDBRANCH   8   9
ENDBRANCH   6   8
ENDBRANCH   5   6
ENDBRANCH   4   5
ENDBRANCH   3   4
ENDBRANCH   2   3
ENDBRANCH   1   2
BRANCH   1  26
ATOM     26  C   UNL A   1      34.997  32.543  28.695  1.00  0.00     0.188 C 
BRANCH  26  27
ATOM     27  O   UNL A   1      34.482  32.763  29.987  1.00  0.00    -0.376 OA
BRANCH  27  28
ATOM     28  C   UNL A   1      35.481  32.981  30.982  1.00  0.00     0.202 C 
BRANCH  28  29
ATOM     29  C   UNL A   1      35.828  31.827  32.020  1.00  0.00     0.261 C 
BRANCH  29  30
ATOM     30  O   UNL A   1      37.161  31.182  31.883  1.00  0.00    -0.460 OA
BRANCH  30  31
ATOM     31  C   UNL A   1      37.389  29.992  31.154  1.00  0.00     0.338 C 
ATOM     32  O   UNL A   1      36.980  28.945  31.619  1.00  0.00    -0.246 OA
BRANCH  31  33
ATOM     33  C   UNL A   1      38.340  30.275  29.775  1.00  0.00     0.060 A 
ATOM     34  C   UNL A   1      38.611  29.561  27.965  1.00  0.00     0.016 A 
ATOM     35  C   UNL A   1      39.780  30.082  30.838  1.00  0.00     0.016 A 
ATOM     36  C   UNL A   1      40.173  28.547  27.616  1.00  0.00     0.010 A 
ATOM     37  C   UNL A   1      41.118  29.065  30.404  1.00  0.00     0.010 A 
ATOM     38  C   UNL A   1      41.470  28.219  28.869  1.00  0.00    -0.014 A 
BRANCH  38  39
ATOM     39  C   UNL A   1      43.211  27.464  28.865  1.00  0.00     0.031 A 
ATOM     40  C   UNL A   1      44.875  28.339  29.280  1.00  0.00     0.074 A 
ATOM     41  C   UNL A   1      43.416  26.125  28.894  1.00  0.00     0.049 A 
ATOM     42  N   UNL A   1      45.918  28.548  28.492  1.00  0.00    -0.248 NA
ATOM     43  C   UNL A   1      45.167  29.505  30.459  1.00  0.00     0.031 C 
ATOM     44  C   UNL A   1      44.629  25.423  29.355  1.00  0.00     0.029 A 
ATOM     45  N   UNL A   1      42.544  25.070  28.638  1.00  0.00    -0.354 N 
ATOM     46  C   UNL A   1      46.770  29.519  29.130  1.00  0.00     0.074 A 
ATOM     47  C   UNL A   1      45.973  30.378  29.900  1.00  0.00     0.031 C 
ATOM     48  C   UNL A   1      44.540  24.117  29.030  1.00  0.00     0.029 A 
ATOM     49  C   UNL A   1      43.338  23.975  28.230  1.00  0.00     0.049 A 
ATOM     50  H   UNL A   1      41.564  25.083  28.725  1.00  0.00     0.167 HD
ATOM     51  C   UNL A   1      48.038  29.226  29.570  1.00  0.00     0.037 A 
ATOM     52  C   UNL A   1      43.278  23.623  26.917  1.00  0.00     0.037 A 
ATOM     53  C   UNL A   1      48.260  27.840  29.238  1.00  0.00     0.049 A 
ATOM     54  C   UNL A   1      44.560  24.061  26.245  1.00  0.00     0.074 A 
ATOM     55  C   UNL A   1      48.181  26.657  29.949  1.00  0.00     0.029 A 
ATOM     56  N   UNL A   1      48.065  27.515  27.914  1.00  0.00    -0.354 N 
ATOM     57  N   UNL A   1      45.355  24.988  26.722  1.00  0.00    -0.248 NA
ATOM     58  C   UNL A   1      45.138  23.372  25.100  1.00  0.00     0.031 C 
ATOM     59  C   UNL A   1      47.910  25.615  29.002  1.00  0.00     0.029 A 
ATOM     60  C   UNL A   1      47.802  26.180  27.740  1.00  0.00     0.049 A 
ATOM     61  H   UNL A   1      48.110  28.166  27.176  1.00  0.00     0.167 HD
ATOM     62  C   UNL A   1      46.537  24.972  26.050  1.00  0.00     0.074 A 
ATOM     63  C   UNL A   1      46.344  23.960  25.028  1.00  0.00     0.031 C 
ATOM     64  C   UNL A   1      47.624  25.733  26.367  1.00  0.00     0.037 A 
BRANCH  51  65
ATOM     65  C   UNL A   1      48.856  30.054  30.588  1.00  0.00     0.057 A 
ATOM     66  C   UNL A   1      49.610  31.158  30.150  1.00  0.00     0.134 A 
ATOM     67  C   UNL A   1      48.922  29.864  31.995  1.00  0.00     0.134 A 
ATOM     68  F   UNL A   1      49.622  31.521  28.861  1.00  0.00    -0.206 F 
ATOM     69  C   UNL A   1      50.375  31.970  31.008  1.00  0.00     0.040 A 
ATOM     70  C   UNL A   1      49.740  30.627  32.856  1.00  0.00     0.040 A 
ATOM     71  F   UNL A   1      48.154  28.972  32.636  1.00  0.00    -0.206 F 
ATOM     72  C   UNL A   1      50.460  31.699  32.364  1.00  0.00     0.006 A 
ENDBRANCH  51  65
BRANCH  52  73
ATOM     73  C   UNL A   1      41.851  23.709  26.462  1.00  0.00     0.057 A 
ATOM     74  C   UNL A   1      40.988  22.679  26.917  1.00  0.00     0.134 A 
ATOM     75  C   UNL A   1      41.248  24.933  26.143  1.00  0.00     0.134 A 
ATOM     76  F   UNL A   1      41.496  21.503  27.321  1.00  0.00    -0.206 F 
ATOM     77  C   UNL A   1      39.624  22.888  27.133  1.00  0.00     0.040 A 
ATOM     78  C   UNL A   1      39.880  25.153  26.366  1.00  0.00     0.040 A 
ATOM     79  F   UNL A   1      41.990  25.978  25.756  1.00  0.00    -0.206 F 
ATOM     80  C   UNL A   1      39.070  24.135  26.861  1.00  0.00     0.006 A 
ENDBRANCH  52  73
BRANCH  64  81
ATOM     81  C   UNL A   1      48.643  26.173  25.337  1.00  0.00     0.057 A 
ATOM     82  C   UNL A   1      48.324  26.997  24.250  1.00  0.00     0.134 A 
ATOM     83  C   UNL A   1      50.031  25.940  25.513  1.00  0.00     0.134 A 
ATOM     84  F   UNL A   1      47.088  27.471  24.053  1.00  0.00    -0.206 F 
ATOM     85  C   UNL A   1      49.282  27.424  23.331  1.00  0.00     0.040 A 
ATOM     86  C   UNL A   1      51.006  26.477  24.678  1.00  0.00     0.040 A 
ATOM     87  F   UNL A   1      50.524  25.203  26.520  1.00  0.00    -0.206 F 
ATOM     88  C   UNL A   1      50.628  27.177  23.549  1.00  0.00     0.006 A 
ENDBRANCH  64  81
ENDBRANCH  38  39
ENDBRANCH  31  33
ENDBRANCH  30  31
ENDBRANCH  29  30
ENDBRANCH  28  29
ENDBRANCH  27  28
ENDBRANCH  26  27
ENDBRANCH   1  26
TORSDOF 20
ENDMDL
MODEL 3
REMARK VINA RESULT:     -12.3      5.237     10.448
REMARK SMILES Cc1ccc(Nc2c(F)cccc2I)c(CC(=O)OCCOCCOCCOC(=O)c2ccc(-c3c4nc(c(-c5c(F)cccc5F)c5ccc([nH]5)c(-c5c(F)cccc5F)c5nc(c(-c6c(F)cccc6F)c6ccc3[nH]6)C=C5)C=C4)cc2)c1
REMARK SMILES IDX 23 1 22 2 21 3 20 4 19 5 17 6 18 7 16 8 15 9 1 10 2 11 3 12
REMARK SMILES IDX 85 13 4 14 5 15 6 16 7 18 8 19 13 20 9 21 10 22 12 23 14 24
REMARK SMILES IDX 11 25 24 26 25 27 26 28 27 29 28 30 29 31 30 32 31 33 32 34
REMARK SMILES IDX 84 35 33 36 83 37 34 38 35 39 36 40 77 41 37 42 82 43 76 44
REMARK SMILES IDX 78 45 38 46 81 47 75 48 74 49 39 51 65 52 48 53 64 54 49 55
REMARK SMILES IDX 52 56 63 57 79 58 50 59 51 60 62 62 80 63 53 64 40 65 41 66
REMARK SMILES IDX 46 67 42 68 43 69 45 70 47 71 44 72 66 73 67 74 72 75 68 76
REMARK SMILES IDX 69 77 71 78 73 79 70 80 54 81 55 82 60 83 56 84 57 85 59 86
REMARK SMILES IDX 61 87 58 88
REMARK H PARENT 6 17 78 50 52 61
REMARK Flexibility Score: inf
ROOT
ATOM      1  C   UNL A   1      34.810  30.957  28.011  1.00  0.00     0.188 C 
ENDROOT
BRANCH   1   2
ATOM      2  O   UNL A   1      33.763  30.206  27.464  1.00  0.00    -0.376 OA
BRANCH   2   3
ATOM      3  C   UNL A   1      33.937  29.541  26.236  1.00  0.00     0.202 C 
BRANCH   3   4
ATOM      4  C   UNL A   1      33.405  28.122  25.661  1.00  0.00     0.261 C 
BRANCH   4   5
ATOM      5  O   UNL A   1      32.577  26.614  26.267  1.00  0.00    -0.463 OA
BRANCH   5   6
ATOM      6  C   UNL A   1      31.511  25.403  25.901  1.00  0.00     0.310 C 
ATOM      7  O   UNL A   1      31.522  24.169  26.021  1.00  0.00    -0.252 OA
BRANCH   6   8
ATOM      8  C   UNL A   1      30.187  25.879  25.667  1.00  0.00     0.160 C 
BRANCH   8   9
ATOM      9  C   UNL A   1      30.096  25.761  24.193  1.00  0.00    -0.013 A 
ATOM     10  C   UNL A   1      27.529  28.451  23.197  1.00  0.00     0.044 C 
ATOM     11  C   UNL A   1      28.786  27.644  23.227  1.00  0.00    -0.051 A 
ATOM     12  C   UNL A   1      29.967  28.037  22.647  1.00  0.00     0.005 A 
ATOM     13  C   UNL A   1      28.844  26.487  23.961  1.00  0.00     0.009 A 
ATOM     14  C   UNL A   1      31.142  27.238  22.791  1.00  0.00     0.026 A 
ATOM     15  C   UNL A   1      31.310  25.773  23.446  1.00  0.00     0.042 A 
BRANCH  15  16
ATOM     16  N   UNL A   1      32.695  24.414  22.869  1.00  0.00    -0.352 N 
ATOM     17  H   UNL A   1      33.253  24.730  22.122  1.00  0.00     0.167 HD
BRANCH  16  18
ATOM     18  C   UNL A   1      33.143  22.723  23.426  1.00  0.00     0.088 A 
ATOM     19  C   UNL A   1      32.337  21.459  22.978  1.00  0.00     0.147 A 
ATOM     20  C   UNL A   1      33.995  22.382  24.519  1.00  0.00     0.040 A 
ATOM     21  F   UNL A   1      31.251  21.458  22.171  1.00  0.00    -0.205 F 
ATOM     22  C   UNL A   1      32.438  20.161  23.481  1.00  0.00     0.041 A 
ATOM     23  C   UNL A   1      34.010  20.999  25.012  1.00  0.00     0.017 A 
ATOM     24  I   UNL A   1      35.308  23.318  25.819  1.00  0.00    -0.042 I 
ATOM     25  C   UNL A   1      33.263  19.929  24.531  1.00  0.00     0.004 A 
ENDBRANCH  16  18
ENDBRANCH  15  16
ENDBRANCH   8   9
ENDBRANCH   6   8
ENDBRANCH   5   6
ENDBRANCH   4   5
ENDBRANCH   3   4
ENDBRANCH   2   3
ENDBRANCH   1   2
BRANCH   1  26
ATOM     26  C   UNL A   1      34.544  32.350  28.562  1.00  0.00     0.188 C 
BRANCH  26  27
ATOM     27  O   UNL A   1      34.152  32.417  29.912  1.00  0.00    -0.376 OA
BRANCH  27  28
ATOM     28  C   UNL A   1      35.116  33.025  30.769  1.00  0.00     0.202 C 
BRANCH  28  29
ATOM     29  C   UNL A   1      35.748  32.191  31.967  1.00  0.00     0.261 C 
BRANCH  29  30
ATOM     30  O   UNL A   1      37.066  31.551  31.714  1.00  0.00    -0.460 OA
BRANCH  30  31
ATOM     31  C   UNL A   1      37.227  30.321  31.035  1.00  0.00     0.338 C 
ATOM     32  O   UNL A   1      36.923  29.297  31.617  1.00  0.00    -0.246 OA
BRANCH  31  33
ATOM     33  C   UNL A   1      37.963  30.535  29.519  1.00  0.00     0.060 A 
ATOM     34  C   UNL A   1      38.250  29.561  27.838  1.00  0.00     0.016 A 
ATOM     35  C   UNL A   1      39.489  30.883  30.408  1.00  0.00     0.016 A 
ATOM     36  C   UNL A   1      39.978  28.876  27.471  1.00  0.00     0.010 A 
ATOM     37  C   UNL A   1      40.994  30.129  29.988  1.00  0.00     0.010 A 
ATOM     38  C   UNL A   1      41.415  29.100  28.588  1.00  0.00    -0.014 A 
BRANCH  38  39
ATOM     39  C   UNL A   1      43.281  28.771  28.492  1.00  0.00     0.031 A 
ATOM     40  C   UNL A   1      44.684  30.040  28.130  1.00  0.00     0.074 A 
ATOM     41  C   UNL A   1      43.843  27.652  29.009  1.00  0.00     0.049 A 
ATOM     42  N   UNL A   1      45.528  30.071  27.110  1.00  0.00    -0.248 NA
ATOM     43  C   UNL A   1      44.791  31.640  28.640  1.00  0.00     0.031 C 
ATOM     44  C   UNL A   1      45.248  27.476  29.425  1.00  0.00     0.029 A 
ATOM     45  N   UNL A   1      43.265  26.448  29.405  1.00  0.00    -0.354 N 
ATOM     46  C   UNL A   1      46.155  31.367  27.091  1.00  0.00     0.074 A 
ATOM     47  C   UNL A   1      45.255  32.309  27.610  1.00  0.00     0.031 C 
ATOM     48  C   UNL A   1      45.478  26.172  29.682  1.00  0.00     0.029 A 
ATOM     49  C   UNL A   1      44.271  25.461  29.303  1.00  0.00     0.049 A 
ATOM     50  H   UNL A   1      42.337  26.311  29.700  1.00  0.00     0.167 HD
ATOM     51  C   UNL A   1      47.499  31.550  27.311  1.00  0.00     0.037 A 
ATOM     52  C   UNL A   1      44.148  24.557  28.294  1.00  0.00     0.037 A 
ATOM     53  C   UNL A   1      48.046  30.232  27.524  1.00  0.00     0.049 A 
ATOM     54  C   UNL A   1      45.172  24.886  27.231  1.00  0.00     0.074 A 
ATOM     55  C   UNL A   1      48.378  29.499  28.648  1.00  0.00     0.029 A 
ATOM     56  N   UNL A   1      47.787  29.320  26.524  1.00  0.00    -0.354 N 
ATOM     57  N   UNL A   1      45.738  26.061  27.100  1.00  0.00    -0.248 NA
ATOM     58  C   UNL A   1      45.771  23.883  26.361  1.00  0.00     0.031 C 
ATOM     59  C   UNL A   1      48.286  28.115  28.289  1.00  0.00     0.029 A 
ATOM     60  C   UNL A   1      47.876  28.025  26.967  1.00  0.00     0.049 A 
ATOM     61  H   UNL A   1      47.564  29.570  25.597  1.00  0.00     0.167 HD
ATOM     62  C   UNL A   1      46.789  25.973  26.241  1.00  0.00     0.074 A 
ATOM     63  C   UNL A   1      46.755  24.596  25.786  1.00  0.00     0.031 C 
ATOM     64  C   UNL A   1      47.659  26.989  25.970  1.00  0.00     0.037 A 
BRANCH  51  65
ATOM     65  C   UNL A   1      48.180  32.884  27.695  1.00  0.00     0.057 A 
ATOM     66  C   UNL A   1      48.357  33.217  29.050  1.00  0.00     0.134 A 
ATOM     67  C   UNL A   1      48.718  33.859  26.812  1.00  0.00     0.134 A 
ATOM     68  F   UNL A   1      47.960  32.388  30.025  1.00  0.00    -0.206 F 
ATOM     69  C   UNL A   1      48.973  34.405  29.488  1.00  0.00     0.040 A 
ATOM     70  C   UNL A   1      49.274  35.085  27.237  1.00  0.00     0.040 A 
ATOM     71  F   UNL A   1      48.798  33.663  25.489  1.00  0.00    -0.206 F 
ATOM     72  C   UNL A   1      49.419  35.355  28.585  1.00  0.00     0.006 A 
ENDBRANCH  51  65
BRANCH  52  73
ATOM     73  C   UNL A   1      42.707  24.156  28.181  1.00  0.00     0.057 A 
ATOM     74  C   UNL A   1      41.988  24.714  27.093  1.00  0.00     0.134 A 
ATOM     75  C   UNL A   1      42.238  22.933  28.678  1.00  0.00     0.134 A 
ATOM     76  F   UNL A   1      42.421  25.842  26.505  1.00  0.00    -0.206 F 
ATOM     77  C   UNL A   1      40.928  24.045  26.477  1.00  0.00     0.040 A 
ATOM     78  C   UNL A   1      41.179  22.251  28.059  1.00  0.00     0.040 A 
ATOM     79  F   UNL A   1      42.885  22.307  29.669  1.00  0.00    -0.206 F 
ATOM     80  C   UNL A   1      40.526  22.804  26.961  1.00  0.00     0.006 A 
ENDBRANCH  52  73
BRANCH  64  81
ATOM     81  C   UNL A   1      48.388  27.109  24.647  1.00  0.00     0.057 A 
ATOM     82  C   UNL A   1      47.784  27.602  23.484  1.00  0.00     0.134 A 
ATOM     83  C   UNL A   1      49.789  26.914  24.547  1.00  0.00     0.134 A 
ATOM     84  F   UNL A   1      46.512  28.021  23.464  1.00  0.00    -0.206 F 
ATOM     85  C   UNL A   1      48.479  27.742  22.284  1.00  0.00     0.040 A 
ATOM     86  C   UNL A   1      50.515  27.183  23.390  1.00  0.00     0.040 A 
ATOM     87  F   UNL A   1      50.540  26.479  25.570  1.00  0.00    -0.206 F 
ATOM     88  C   UNL A   1      49.850  27.546  22.235  1.00  0.00     0.006 A 
ENDBRANCH  64  81
ENDBRANCH  38  39
ENDBRANCH  31  33
ENDBRANCH  30  31
ENDBRANCH  29  30
ENDBRANCH  28  29
ENDBRANCH  27  28
ENDBRANCH  26  27
ENDBRANCH   1  26
TORSDOF 20
ENDMDL
