MODEL 1
REMARK VINA RESULT:     -10.6      0.000      0.000
REMARK SMILES O=C(COc1ccc(/C=N/NC(=O)C(=O)Nc2ccc(F)cc2)cc1)OCCOCCOCCOC(=O)c1ccc(-c2c3nc(c(-c4c(F)cccc4F)c4ccc([nH]4)c(-c4c(F)cccc4F)c4nc(c(-c5c(F)cccc5F)c5ccc2[nH]5)C=C4)C=C3)cc1
REMARK SMILES IDX 28 1 27 2 26 3 2 4 1 5 3 6 4 7 5 8 6 9 25 10 7 11 24 12 8 13
REMARK SMILES IDX 9 14 10 15 11 16 12 17 13 19 14 20 15 21 16 22 17 24 18 25
REMARK SMILES IDX 23 26 19 27 22 28 20 29 21 30 29 31 30 32 31 33 32 34 33 35
REMARK SMILES IDX 34 36 35 37 36 38 37 39 38 40 39 41 91 42 40 43 90 44 41 45
REMARK SMILES IDX 42 46 43 47 84 48 44 49 89 50 83 51 85 52 45 53 88 54 82 55
REMARK SMILES IDX 81 56 46 58 72 59 55 60 71 61 56 62 59 63 70 64 86 65 57 66
REMARK SMILES IDX 58 67 69 69 87 70 60 71 47 72 48 73 53 74 49 75 50 76 52 77
REMARK SMILES IDX 54 78 51 79 73 80 74 81 79 82 75 83 76 84 78 85 80 86 77 87
REMARK SMILES IDX 61 88 62 89 67 90 63 91 64 92 66 93 68 94 65 95
REMARK H PARENT 11 18 16 23 85 57 59 68
REMARK Flexibility Score: inf
ROOT
ATOM      1  C   UNL A   1      34.309  34.245  31.057  1.00  0.00     0.202 C 
ENDROOT
BRANCH   1   2
ATOM      2  C   UNL A   1      33.803  34.847  29.749  1.00  0.00     0.261 C 
BRANCH   2   3
ATOM      3  O   UNL A   1      33.338  33.914  28.742  1.00  0.00    -0.461 OA
BRANCH   3   4
ATOM      4  C   UNL A   1      34.037  32.959  28.090  1.00  0.00     0.344 C 
ATOM      5  O   UNL A   1      35.158  33.219  27.655  1.00  0.00    -0.248 OA
BRANCH   4   6
ATOM      6  C   UNL A   1      33.389  31.606  27.816  1.00  0.00     0.351 C 
BRANCH   6   7
ATOM      7  O   UNL A   1      32.445  31.542  26.754  1.00  0.00    -0.482 OA
BRANCH   7   8
ATOM      8  C   UNL A   1      32.274  30.235  26.407  1.00  0.00     0.120 A 
ATOM      9  C   UNL A   1      32.749  29.270  27.291  1.00  0.00     0.047 A 
ATOM     10  C   UNL A   1      31.559  29.904  25.256  1.00  0.00     0.047 A 
ATOM     11  C   UNL A   1      32.408  27.943  27.077  1.00  0.00     0.013 A 
ATOM     12  C   UNL A   1      31.221  28.585  25.040  1.00  0.00     0.013 A 
ATOM     13  C   UNL A   1      31.634  27.622  25.961  1.00  0.00    -0.005 A 
BRANCH  13  14
ATOM     14  C   UNL A   1      31.169  26.267  25.714  1.00  0.00     0.141 C 
ATOM     15  N   UNL A   1      30.865  25.450  26.670  1.00  0.00    -0.180 NA
BRANCH  15  16
ATOM     16  N   UNL A   1      30.302  24.284  26.254  1.00  0.00    -0.239 N 
ATOM     17  C   UNL A   1      30.640  22.981  26.596  1.00  0.00     0.329 C 
ATOM     18  H   UNL A   1      29.550  24.376  25.624  1.00  0.00     0.194 HD
ATOM     19  O   UNL A   1      29.780  22.111  26.498  1.00  0.00    -0.262 OA
BRANCH  17  20
ATOM     20  C   UNL A   1      32.092  22.643  27.105  1.00  0.00     0.315 C 
ATOM     21  O   UNL A   1      32.367  22.491  28.290  1.00  0.00    -0.263 OA
ATOM     22  N   UNL A   1      33.069  22.344  26.173  1.00  0.00    -0.318 N 
ATOM     23  H   UNL A   1      33.806  21.780  26.502  1.00  0.00     0.170 HD
BRANCH  22  24
ATOM     24  C   UNL A   1      33.161  22.727  24.833  1.00  0.00     0.041 A 
ATOM     25  C   UNL A   1      32.678  21.842  23.864  1.00  0.00     0.029 A 
ATOM     26  C   UNL A   1      33.756  23.931  24.442  1.00  0.00     0.029 A 
ATOM     27  C   UNL A   1      32.703  22.207  22.517  1.00  0.00     0.041 A 
ATOM     28  C   UNL A   1      33.792  24.288  23.095  1.00  0.00     0.041 A 
ATOM     29  C   UNL A   1      33.251  23.430  22.148  1.00  0.00     0.123 A 
ATOM     30  F   UNL A   1      33.262  23.784  20.856  1.00  0.00    -0.207 F 
ENDBRANCH  22  24
ENDBRANCH  17  20
ENDBRANCH  15  16
ENDBRANCH  13  14
ENDBRANCH   7   8
ENDBRANCH   6   7
ENDBRANCH   4   6
ENDBRANCH   3   4
ENDBRANCH   2   3
ENDBRANCH   1   2
BRANCH   1  31
ATOM     31  O   UNL A   1      34.014  35.044  32.182  1.00  0.00    -0.376 OA
BRANCH  31  32
ATOM     32  C   UNL A   1      35.096  35.441  33.000  1.00  0.00     0.188 C 
BRANCH  32  33
ATOM     33  C   UNL A   1      35.112  34.764  34.378  1.00  0.00     0.188 C 
BRANCH  33  34
ATOM     34  O   UNL A   1      35.342  33.365  34.490  1.00  0.00    -0.376 OA
BRANCH  34  35
ATOM     35  C   UNL A   1      36.498  32.787  33.906  1.00  0.00     0.202 C 
BRANCH  35  36
ATOM     36  C   UNL A   1      36.293  31.638  32.908  1.00  0.00     0.261 C 
BRANCH  36  37
ATOM     37  O   UNL A   1      37.057  31.718  31.686  1.00  0.00    -0.460 OA
BRANCH  37  38
ATOM     38  C   UNL A   1      36.626  30.949  30.660  1.00  0.00     0.338 C 
ATOM     39  O   UNL A   1      35.513  30.980  30.138  1.00  0.00    -0.246 OA
BRANCH  38  40
ATOM     40  C   UNL A   1      37.722  30.121  30.096  1.00  0.00     0.060 A 
ATOM     41  C   UNL A   1      38.503  29.362  30.981  1.00  0.00     0.016 A 
ATOM     42  C   UNL A   1      38.054  30.161  28.740  1.00  0.00     0.016 A 
ATOM     43  C   UNL A   1      39.660  28.716  30.537  1.00  0.00     0.010 A 
ATOM     44  C   UNL A   1      39.228  29.527  28.298  1.00  0.00     0.010 A 
ATOM     45  C   UNL A   1      40.070  28.854  29.205  1.00  0.00    -0.014 A 
BRANCH  45  46
ATOM     46  C   UNL A   1      41.485  28.552  28.845  1.00  0.00     0.031 A 
ATOM     47  C   UNL A   1      41.815  27.152  28.383  1.00  0.00     0.074 A 
ATOM     48  C   UNL A   1      42.458  29.481  28.869  1.00  0.00     0.049 A 
ATOM     49  N   UNL A   1      42.964  26.635  28.026  1.00  0.00    -0.248 NA
ATOM     50  C   UNL A   1      40.688  26.208  28.321  1.00  0.00     0.031 C 
ATOM     51  C   UNL A   1      42.286  30.883  29.237  1.00  0.00     0.029 A 
ATOM     52  N   UNL A   1      43.797  29.372  28.573  1.00  0.00    -0.354 N 
ATOM     53  C   UNL A   1      42.699  25.306  27.713  1.00  0.00     0.074 A 
ATOM     54  C   UNL A   1      41.290  25.088  27.955  1.00  0.00     0.031 C 
ATOM     55  C   UNL A   1      43.476  31.506  29.148  1.00  0.00     0.029 A 
ATOM     56  C   UNL A   1      44.499  30.540  28.743  1.00  0.00     0.049 A 
ATOM     57  H   UNL A   1      44.214  28.534  28.268  1.00  0.00     0.167 HD
ATOM     58  C   UNL A   1      43.545  24.350  27.257  1.00  0.00     0.037 A 
ATOM     59  C   UNL A   1      45.814  30.799  28.597  1.00  0.00     0.037 A 
ATOM     60  C   UNL A   1      44.947  24.556  27.007  1.00  0.00     0.049 A 
ATOM     61  C   UNL A   1      46.754  29.703  28.156  1.00  0.00     0.074 A 
ATOM     62  C   UNL A   1      45.879  23.652  26.524  1.00  0.00     0.029 A 
ATOM     63  N   UNL A   1      45.623  25.746  27.229  1.00  0.00    -0.354 N 
ATOM     64  N   UNL A   1      46.488  28.458  27.840  1.00  0.00    -0.248 NA
ATOM     65  C   UNL A   1      48.178  30.055  28.045  1.00  0.00     0.031 C 
ATOM     66  C   UNL A   1      47.128  24.279  26.508  1.00  0.00     0.029 A 
ATOM     67  C   UNL A   1      46.964  25.592  26.919  1.00  0.00     0.049 A 
ATOM     68  H   UNL A   1      45.211  26.576  27.559  1.00  0.00     0.167 HD
ATOM     69  C   UNL A   1      47.699  27.895  27.448  1.00  0.00     0.074 A 
ATOM     70  C   UNL A   1      48.700  28.934  27.567  1.00  0.00     0.031 C 
ATOM     71  C   UNL A   1      47.955  26.634  27.020  1.00  0.00     0.037 A 
BRANCH  58  72
ATOM     72  C   UNL A   1      42.974  22.978  27.038  1.00  0.00     0.057 A 
ATOM     73  C   UNL A   1      42.683  22.486  25.758  1.00  0.00     0.134 A 
ATOM     74  C   UNL A   1      42.715  22.136  28.127  1.00  0.00     0.134 A 
ATOM     75  F   UNL A   1      42.892  23.247  24.674  1.00  0.00    -0.206 F 
ATOM     76  C   UNL A   1      42.120  21.222  25.573  1.00  0.00     0.040 A 
ATOM     77  C   UNL A   1      42.183  20.857  27.953  1.00  0.00     0.040 A 
ATOM     78  F   UNL A   1      42.976  22.541  29.379  1.00  0.00    -0.206 F 
ATOM     79  C   UNL A   1      41.874  20.401  26.673  1.00  0.00     0.006 A 
ENDBRANCH  58  72
BRANCH  59  80
ATOM     80  C   UNL A   1      46.342  32.165  28.858  1.00  0.00     0.057 A 
ATOM     81  C   UNL A   1      46.466  33.103  27.826  1.00  0.00     0.134 A 
ATOM     82  C   UNL A   1      46.771  32.551  30.134  1.00  0.00     0.134 A 
ATOM     83  F   UNL A   1      46.102  32.783  26.575  1.00  0.00    -0.206 F 
ATOM     84  C   UNL A   1      47.012  34.369  28.048  1.00  0.00     0.040 A 
ATOM     85  C   UNL A   1      47.295  33.822  30.376  1.00  0.00     0.040 A 
ATOM     86  F   UNL A   1      46.686  31.698  31.164  1.00  0.00    -0.206 F 
ATOM     87  C   UNL A   1      47.424  34.733  29.328  1.00  0.00     0.006 A 
ENDBRANCH  59  80
BRANCH  71  88
ATOM     88  C   UNL A   1      49.358  26.317  26.579  1.00  0.00     0.057 A 
ATOM     89  C   UNL A   1      50.305  25.746  27.439  1.00  0.00     0.134 A 
ATOM     90  C   UNL A   1      49.754  26.560  25.256  1.00  0.00     0.134 A 
ATOM     91  F   UNL A   1      49.996  25.495  28.720  1.00  0.00    -0.206 F 
ATOM     92  C   UNL A   1      51.601  25.456  27.008  1.00  0.00     0.040 A 
ATOM     93  C   UNL A   1      51.038  26.247  24.806  1.00  0.00     0.040 A 
ATOM     94  F   UNL A   1      48.895  27.094  24.374  1.00  0.00    -0.206 F 
ATOM     95  C   UNL A   1      51.969  25.702  25.686  1.00  0.00     0.006 A 
ENDBRANCH  71  88
ENDBRANCH  45  46
ENDBRANCH  38  40
ENDBRANCH  37  38
ENDBRANCH  36  37
ENDBRANCH  35  36
ENDBRANCH  34  35
ENDBRANCH  33  34
ENDBRANCH  32  33
ENDBRANCH  31  32
ENDBRANCH   1  31
TORSDOF 23
ENDMDL
MODEL 2
REMARK VINA RESULT:     -10.4      0.689      5.888
REMARK SMILES O=C(COc1ccc(/C=N/NC(=O)C(=O)Nc2ccc(F)cc2)cc1)OCCOCCOCCOC(=O)c1ccc(-c2c3nc(c(-c4c(F)cccc4F)c4ccc([nH]4)c(-c4c(F)cccc4F)c4nc(c(-c5c(F)cccc5F)c5ccc2[nH]5)C=C4)C=C3)cc1
REMARK SMILES IDX 28 1 27 2 26 3 2 4 1 5 3 6 4 7 5 8 6 9 25 10 7 11 24 12 8 13
REMARK SMILES IDX 9 14 10 15 11 16 12 17 13 19 14 20 15 21 16 22 17 24 18 25
REMARK SMILES IDX 23 26 19 27 22 28 20 29 21 30 29 31 30 32 31 33 32 34 33 35
REMARK SMILES IDX 34 36 35 37 36 38 37 39 38 40 39 41 91 42 40 43 90 44 41 45
REMARK SMILES IDX 42 46 43 47 84 48 44 49 89 50 83 51 85 52 45 53 88 54 82 55
REMARK SMILES IDX 81 56 46 58 72 59 55 60 71 61 56 62 59 63 70 64 86 65 57 66
REMARK SMILES IDX 58 67 69 69 87 70 60 71 47 72 48 73 53 74 49 75 50 76 52 77
REMARK SMILES IDX 54 78 51 79 73 80 74 81 79 82 75 83 76 84 78 85 80 86 77 87
REMARK SMILES IDX 61 88 62 89 67 90 63 91 64 92 66 93 68 94 65 95
REMARK H PARENT 11 18 16 23 85 57 59 68
REMARK Flexibility Score: inf
ROOT
ATOM      1  C   UNL A   1      34.339  34.298  31.102  1.00  0.00     0.202 C 
ENDROOT
BRANCH   1   2
ATOM      2  C   UNL A   1      33.977  34.866  29.732  1.00  0.00     0.261 C 
BRANCH   2   3
ATOM      3  O   UNL A   1      33.573  33.909  28.720  1.00  0.00    -0.461 OA
BRANCH   3   4
ATOM      4  C   UNL A   1      34.334  33.007  28.061  1.00  0.00     0.344 C 
ATOM      5  O   UNL A   1      35.434  33.344  27.628  1.00  0.00    -0.248 OA
BRANCH   4   6
ATOM      6  C   UNL A   1      33.777  31.616  27.778  1.00  0.00     0.351 C 
BRANCH   6   7
ATOM      7  O   UNL A   1      32.580  31.540  27.012  1.00  0.00    -0.482 OA
BRANCH   7   8
ATOM      8  C   UNL A   1      32.387  30.242  26.643  1.00  0.00     0.120 A 
ATOM      9  C   UNL A   1      32.780  29.254  27.542  1.00  0.00     0.047 A 
ATOM     10  C   UNL A   1      31.727  29.944  25.451  1.00  0.00     0.047 A 
ATOM     11  C   UNL A   1      32.409  27.941  27.296  1.00  0.00     0.013 A 
ATOM     12  C   UNL A   1      31.359  28.639  25.203  1.00  0.00     0.013 A 
ATOM     13  C   UNL A   1      31.689  27.656  26.135  1.00  0.00    -0.005 A 
BRANCH  13  14
ATOM     14  C   UNL A   1      31.194  26.318  25.849  1.00  0.00     0.141 C 
ATOM     15  N   UNL A   1      30.868  25.482  26.781  1.00  0.00    -0.180 NA
BRANCH  15  16
ATOM     16  N   UNL A   1      30.281  24.341  26.331  1.00  0.00    -0.239 N 
ATOM     17  C   UNL A   1      30.612  23.021  26.608  1.00  0.00     0.329 C 
ATOM     18  H   UNL A   1      29.515  24.468  25.725  1.00  0.00     0.194 HD
ATOM     19  O   UNL A   1      29.739  22.166  26.496  1.00  0.00    -0.262 OA
BRANCH  17  20
ATOM     20  C   UNL A   1      32.072  22.646  27.065  1.00  0.00     0.315 C 
ATOM     21  O   UNL A   1      32.409  22.579  28.243  1.00  0.00    -0.263 OA
ATOM     22  N   UNL A   1      32.976  22.215  26.111  1.00  0.00    -0.318 N 
ATOM     23  H   UNL A   1      33.701  21.640  26.447  1.00  0.00     0.170 HD
BRANCH  22  24
ATOM     24  C   UNL A   1      33.008  22.479  24.740  1.00  0.00     0.041 A 
ATOM     25  C   UNL A   1      33.696  23.617  24.308  1.00  0.00     0.029 A 
ATOM     26  C   UNL A   1      32.342  21.673  23.811  1.00  0.00     0.029 A 
ATOM     27  C   UNL A   1      33.797  23.890  22.943  1.00  0.00     0.041 A 
ATOM     28  C   UNL A   1      32.433  21.955  22.449  1.00  0.00     0.041 A 
ATOM     29  C   UNL A   1      33.172  23.051  22.027  1.00  0.00     0.123 A 
ATOM     30  F   UNL A   1      33.281  23.307  20.717  1.00  0.00    -0.207 F 
ENDBRANCH  22  24
ENDBRANCH  17  20
ENDBRANCH  15  16
ENDBRANCH  13  14
ENDBRANCH   7   8
ENDBRANCH   6   7
ENDBRANCH   4   6
ENDBRANCH   3   4
ENDBRANCH   2   3
ENDBRANCH   1   2
BRANCH   1  31
ATOM     31  O   UNL A   1      34.250  35.255  32.134  1.00  0.00    -0.376 OA
BRANCH  31  32
ATOM     32  C   UNL A   1      35.340  35.351  33.030  1.00  0.00     0.188 C 
BRANCH  32  33
ATOM     33  C   UNL A   1      35.144  34.561  34.332  1.00  0.00     0.188 C 
BRANCH  33  34
ATOM     34  O   UNL A   1      35.590  33.214  34.431  1.00  0.00    -0.376 OA
BRANCH  34  35
ATOM     35  C   UNL A   1      36.543  32.713  33.508  1.00  0.00     0.202 C 
BRANCH  35  36
ATOM     36  C   UNL A   1      36.216  31.395  32.790  1.00  0.00     0.261 C 
BRANCH  36  37
ATOM     37  O   UNL A   1      36.303  31.422  31.349  1.00  0.00    -0.460 OA
BRANCH  37  38
ATOM     38  C   UNL A   1      36.679  30.269  30.752  1.00  0.00     0.338 C 
ATOM     39  O   UNL A   1      35.954  29.309  30.489  1.00  0.00    -0.246 OA
BRANCH  38  40
ATOM     40  C   UNL A   1      38.087  30.323  30.286  1.00  0.00     0.060 A 
ATOM     41  C   UNL A   1      38.334  30.228  28.907  1.00  0.00     0.016 A 
ATOM     42  C   UNL A   1      39.160  30.361  31.180  1.00  0.00     0.016 A 
ATOM     43  C   UNL A   1      39.637  30.083  28.425  1.00  0.00     0.010 A 
ATOM     44  C   UNL A   1      40.469  30.195  30.695  1.00  0.00     0.010 A 
ATOM     45  C   UNL A   1      40.708  29.993  29.322  1.00  0.00    -0.014 A 
BRANCH  45  46
ATOM     46  C   UNL A   1      42.000  29.410  28.856  1.00  0.00     0.031 A 
ATOM     47  C   UNL A   1      43.209  30.314  28.811  1.00  0.00     0.074 A 
ATOM     48  C   UNL A   1      42.137  28.114  28.524  1.00  0.00     0.049 A 
ATOM     49  N   UNL A   1      44.437  30.055  28.435  1.00  0.00    -0.248 NA
ATOM     50  C   UNL A   1      42.998  31.703  29.249  1.00  0.00     0.031 C 
ATOM     51  C   UNL A   1      41.080  27.108  28.569  1.00  0.00     0.029 A 
ATOM     52  N   UNL A   1      43.241  27.424  28.080  1.00  0.00    -0.354 N 
ATOM     53  C   UNL A   1      45.136  31.249  28.577  1.00  0.00     0.074 A 
ATOM     54  C   UNL A   1      44.189  32.239  29.041  1.00  0.00     0.031 C 
ATOM     55  C   UNL A   1      41.585  25.927  28.165  1.00  0.00     0.029 A 
ATOM     56  C   UNL A   1      42.994  26.100  27.807  1.00  0.00     0.049 A 
ATOM     57  H   UNL A   1      44.126  27.839  27.967  1.00  0.00     0.167 HD
ATOM     58  C   UNL A   1      46.448  31.504  28.353  1.00  0.00     0.037 A 
ATOM     59  C   UNL A   1      43.807  25.141  27.319  1.00  0.00     0.037 A 
ATOM     60  C   UNL A   1      47.401  30.527  27.899  1.00  0.00     0.049 A 
ATOM     61  C   UNL A   1      45.249  25.462  27.007  1.00  0.00     0.074 A 
ATOM     62  C   UNL A   1      48.756  30.688  27.664  1.00  0.00     0.029 A 
ATOM     63  N   UNL A   1      47.098  29.207  27.600  1.00  0.00    -0.354 N 
ATOM     64  N   UNL A   1      45.903  26.587  27.170  1.00  0.00    -0.248 NA
ATOM     65  C   UNL A   1      46.066  24.372  26.452  1.00  0.00     0.031 C 
ATOM     66  C   UNL A   1      49.261  29.481  27.170  1.00  0.00     0.029 A 
ATOM     67  C   UNL A   1      48.235  28.550  27.158  1.00  0.00     0.049 A 
ATOM     68  H   UNL A   1      46.207  28.799  27.688  1.00  0.00     0.167 HD
ATOM     69  C   UNL A   1      47.214  26.327  26.783  1.00  0.00     0.074 A 
ATOM     70  C   UNL A   1      47.263  24.938  26.378  1.00  0.00     0.031 C 
ATOM     71  C   UNL A   1      48.283  27.162  26.774  1.00  0.00     0.037 A 
BRANCH  58  72
ATOM     72  C   UNL A   1      46.916  32.916  28.562  1.00  0.00     0.057 A 
ATOM     73  C   UNL A   1      46.896  33.870  27.535  1.00  0.00     0.134 A 
ATOM     74  C   UNL A   1      47.394  33.327  29.814  1.00  0.00     0.134 A 
ATOM     75  F   UNL A   1      46.467  33.538  26.308  1.00  0.00    -0.206 F 
ATOM     76  C   UNL A   1      47.368  35.168  27.735  1.00  0.00     0.040 A 
ATOM     77  C   UNL A   1      47.837  34.631  30.035  1.00  0.00     0.040 A 
ATOM     78  F   UNL A   1      47.434  32.467  30.843  1.00  0.00    -0.206 F 
ATOM     79  C   UNL A   1      47.835  35.554  28.991  1.00  0.00     0.006 A 
ENDBRANCH  58  72
BRANCH  59  80
ATOM     80  C   UNL A   1      43.291  23.765  27.095  1.00  0.00     0.057 A 
ATOM     81  C   UNL A   1      43.116  22.874  28.161  1.00  0.00     0.134 A 
ATOM     82  C   UNL A   1      42.997  23.294  25.809  1.00  0.00     0.134 A 
ATOM     83  F   UNL A   1      43.410  23.254  29.413  1.00  0.00    -0.206 F 
ATOM     84  C   UNL A   1      42.686  21.562  27.957  1.00  0.00     0.040 A 
ATOM     85  C   UNL A   1      42.542  21.992  25.593  1.00  0.00     0.040 A 
ATOM     86  F   UNL A   1      43.149  24.093  24.744  1.00  0.00    -0.206 F 
ATOM     87  C   UNL A   1      42.392  21.119  26.669  1.00  0.00     0.006 A 
ENDBRANCH  59  80
BRANCH  71  88
ATOM     88  C   UNL A   1      49.616  26.587  26.380  1.00  0.00     0.057 A 
ATOM     89  C   UNL A   1      50.412  25.855  27.270  1.00  0.00     0.134 A 
ATOM     90  C   UNL A   1      50.094  26.744  25.071  1.00  0.00     0.134 A 
ATOM     91  F   UNL A   1      50.020  25.673  28.541  1.00  0.00    -0.206 F 
ATOM     92  C   UNL A   1      51.645  25.326  26.883  1.00  0.00     0.040 A 
ATOM     93  C   UNL A   1      51.311  26.195  24.664  1.00  0.00     0.040 A 
ATOM     94  F   UNL A   1      49.379  27.423  24.161  1.00  0.00    -0.206 F 
ATOM     95  C   UNL A   1      52.096  25.492  25.573  1.00  0.00     0.006 A 
ENDBRANCH  71  88
ENDBRANCH  45  46
ENDBRANCH  38  40
ENDBRANCH  37  38
ENDBRANCH  36  37
ENDBRANCH  35  36
ENDBRANCH  34  35
ENDBRANCH  33  34
ENDBRANCH  32  33
ENDBRANCH  31  32
ENDBRANCH   1  31
TORSDOF 23
ENDMDL
MODEL 3
REMARK VINA RESULT:     -10.1      1.522      6.282
REMARK SMILES O=C(COc1ccc(/C=N/NC(=O)C(=O)Nc2ccc(F)cc2)cc1)OCCOCCOCCOC(=O)c1ccc(-c2c3nc(c(-c4c(F)cccc4F)c4ccc([nH]4)c(-c4c(F)cccc4F)c4nc(c(-c5c(F)cccc5F)c5ccc2[nH]5)C=C4)C=C3)cc1
REMARK SMILES IDX 28 1 27 2 26 3 2 4 1 5 3 6 4 7 5 8 6 9 25 10 7 11 24 12 8 13
REMARK SMILES IDX 9 14 10 15 11 16 12 17 13 19 14 20 15 21 16 22 17 24 18 25
REMARK SMILES IDX 23 26 19 27 22 28 20 29 21 30 29 31 30 32 31 33 32 34 33 35
REMARK SMILES IDX 34 36 35 37 36 38 37 39 38 40 39 41 91 42 40 43 90 44 41 45
REMARK SMILES IDX 42 46 43 47 84 48 44 49 89 50 83 51 85 52 45 53 88 54 82 55
REMARK SMILES IDX 81 56 46 58 72 59 55 60 71 61 56 62 59 63 70 64 86 65 57 66
REMARK SMILES IDX 58 67 69 69 87 70 60 71 47 72 48 73 53 74 49 75 50 76 52 77
REMARK SMILES IDX 54 78 51 79 73 80 74 81 79 82 75 83 76 84 78 85 80 86 77 87
REMARK SMILES IDX 61 88 62 89 67 90 63 91 64 92 66 93 68 94 65 95
REMARK H PARENT 11 18 16 23 85 57 59 68
REMARK Flexibility Score: inf
ROOT
ATOM      1  C   UNL A   1      34.320  34.089  31.057  1.00  0.00     0.202 C 
ENDROOT
BRANCH   1   2
ATOM      2  C   UNL A   1      34.187  34.539  29.604  1.00  0.00     0.261 C 
BRANCH   2   3
ATOM      3  O   UNL A   1      33.679  33.558  28.666  1.00  0.00    -0.461 OA
BRANCH   3   4
ATOM      4  C   UNL A   1      34.294  32.456  28.182  1.00  0.00     0.344 C 
ATOM      5  O   UNL A   1      35.509  32.474  27.993  1.00  0.00    -0.248 OA
BRANCH   4   6
ATOM      6  C   UNL A   1      33.461  31.241  27.785  1.00  0.00     0.351 C 
BRANCH   6   7
ATOM      7  O   UNL A   1      33.191  31.065  26.399  1.00  0.00    -0.482 OA
BRANCH   7   8
ATOM      8  C   UNL A   1      32.756  29.789  26.204  1.00  0.00     0.120 A 
ATOM      9  C   UNL A   1      33.031  29.199  24.973  1.00  0.00     0.047 A 
ATOM     10  C   UNL A   1      32.150  29.088  27.246  1.00  0.00     0.047 A 
ATOM     11  C   UNL A   1      32.794  27.842  24.815  1.00  0.00     0.013 A 
ATOM     12  C   UNL A   1      31.911  27.739  27.091  1.00  0.00     0.013 A 
ATOM     13  C   UNL A   1      32.251  27.128  25.884  1.00  0.00    -0.005 A 
BRANCH  13  14
ATOM     14  C   UNL A   1      32.050  25.689  25.822  1.00  0.00     0.141 C 
ATOM     15  N   UNL A   1      33.002  24.866  25.522  1.00  0.00    -0.180 NA
BRANCH  15  16
ATOM     16  N   UNL A   1      32.674  23.553  25.665  1.00  0.00    -0.239 N 
ATOM     17  C   UNL A   1      33.164  22.451  24.977  1.00  0.00     0.329 C 
ATOM     18  H   UNL A   1      31.996  23.357  26.352  1.00  0.00     0.194 HD
ATOM     19  O   UNL A   1      33.105  21.352  25.519  1.00  0.00    -0.262 OA
BRANCH  17  20
ATOM     20  C   UNL A   1      33.788  22.623  23.541  1.00  0.00     0.315 C 
ATOM     21  O   UNL A   1      33.123  22.566  22.511  1.00  0.00    -0.263 OA
ATOM     22  N   UNL A   1      35.109  23.017  23.432  1.00  0.00    -0.318 N 
ATOM     23  H   UNL A   1      35.343  23.479  22.595  1.00  0.00     0.170 HD
BRANCH  22  24
ATOM     24  C   UNL A   1      36.158  22.852  24.339  1.00  0.00     0.041 A 
ATOM     25  C   UNL A   1      36.782  21.602  24.398  1.00  0.00     0.029 A 
ATOM     26  C   UNL A   1      36.560  23.873  25.206  1.00  0.00     0.029 A 
ATOM     27  C   UNL A   1      37.868  21.409  25.253  1.00  0.00     0.041 A 
ATOM     28  C   UNL A   1      37.637  23.673  26.069  1.00  0.00     0.041 A 
ATOM     29  C   UNL A   1      38.290  22.449  26.073  1.00  0.00     0.123 A 
ATOM     30  F   UNL A   1      39.340  22.266  26.884  1.00  0.00    -0.207 F 
ENDBRANCH  22  24
ENDBRANCH  17  20
ENDBRANCH  15  16
ENDBRANCH  13  14
ENDBRANCH   7   8
ENDBRANCH   6   7
ENDBRANCH   4   6
ENDBRANCH   3   4
ENDBRANCH   2   3
ENDBRANCH   1   2
BRANCH   1  31
ATOM     31  O   UNL A   1      34.241  35.159  31.973  1.00  0.00    -0.376 OA
BRANCH  31  32
ATOM     32  C   UNL A   1      35.319  35.329  32.872  1.00  0.00     0.188 C 
BRANCH  32  33
ATOM     33  C   UNL A   1      35.118  34.625  34.222  1.00  0.00     0.188 C 
BRANCH  33  34
ATOM     34  O   UNL A   1      35.548  33.282  34.404  1.00  0.00    -0.376 OA
BRANCH  34  35
ATOM     35  C   UNL A   1      36.565  32.744  33.575  1.00  0.00     0.202 C 
BRANCH  35  36
ATOM     36  C   UNL A   1      36.262  31.432  32.836  1.00  0.00     0.261 C 
BRANCH  36  37
ATOM     37  O   UNL A   1      36.399  31.469  31.399  1.00  0.00    -0.460 OA
BRANCH  37  38
ATOM     38  C   UNL A   1      36.732  30.304  30.800  1.00  0.00     0.338 C 
ATOM     39  O   UNL A   1      35.985  29.348  30.591  1.00  0.00    -0.246 OA
BRANCH  38  40
ATOM     40  C   UNL A   1      38.114  30.337  30.259  1.00  0.00     0.060 A 
ATOM     41  C   UNL A   1      38.297  30.083  28.891  1.00  0.00     0.016 A 
ATOM     42  C   UNL A   1      39.227  30.509  31.085  1.00  0.00     0.016 A 
ATOM     43  C   UNL A   1      39.579  29.913  28.362  1.00  0.00     0.010 A 
ATOM     44  C   UNL A   1      40.515  30.320  30.557  1.00  0.00     0.010 A 
ATOM     45  C   UNL A   1      40.695  29.960  29.207  1.00  0.00    -0.014 A 
BRANCH  45  46
ATOM     46  C   UNL A   1      41.980  29.358  28.748  1.00  0.00     0.031 A 
ATOM     47  C   UNL A   1      43.197  30.250  28.685  1.00  0.00     0.074 A 
ATOM     48  C   UNL A   1      42.105  28.054  28.438  1.00  0.00     0.049 A 
ATOM     49  N   UNL A   1      44.421  29.974  28.310  1.00  0.00    -0.248 NA
ATOM     50  C   UNL A   1      42.999  31.648  29.100  1.00  0.00     0.031 C 
ATOM     51  C   UNL A   1      41.040  27.059  28.503  1.00  0.00     0.029 A 
ATOM     52  N   UNL A   1      43.202  27.347  28.003  1.00  0.00    -0.354 N 
ATOM     53  C   UNL A   1      45.131  31.164  28.430  1.00  0.00     0.074 A 
ATOM     54  C   UNL A   1      44.194  32.170  28.879  1.00  0.00     0.031 C 
ATOM     55  C   UNL A   1      41.533  25.867  28.119  1.00  0.00     0.029 A 
ATOM     56  C   UNL A   1      42.942  26.021  27.754  1.00  0.00     0.049 A 
ATOM     57  H   UNL A   1      44.090  27.753  27.881  1.00  0.00     0.167 HD
ATOM     58  C   UNL A   1      46.444  31.404  28.198  1.00  0.00     0.037 A 
ATOM     59  C   UNL A   1      43.746  25.047  27.280  1.00  0.00     0.037 A 
ATOM     60  C   UNL A   1      47.388  30.410  27.758  1.00  0.00     0.049 A 
ATOM     61  C   UNL A   1      45.189  25.350  26.959  1.00  0.00     0.074 A 
ATOM     62  C   UNL A   1      48.744  30.556  27.518  1.00  0.00     0.029 A 
ATOM     63  N   UNL A   1      47.073  29.089  27.482  1.00  0.00    -0.354 N 
ATOM     64  N   UNL A   1      45.854  26.472  27.100  1.00  0.00    -0.248 NA
ATOM     65  C   UNL A   1      45.996  24.244  26.421  1.00  0.00     0.031 C 
ATOM     66  C   UNL A   1      49.237  29.336  27.042  1.00  0.00     0.029 A 
ATOM     67  C   UNL A   1      48.202  28.414  27.049  1.00  0.00     0.049 A 
ATOM     68  H   UNL A   1      46.179  28.689  27.580  1.00  0.00     0.167 HD
ATOM     69  C   UNL A   1      47.162  26.194  26.715  1.00  0.00     0.074 A 
ATOM     70  C   UNL A   1      47.197  24.798  26.334  1.00  0.00     0.031 C 
ATOM     71  C   UNL A   1      48.238  27.019  26.689  1.00  0.00     0.037 A 
BRANCH  58  72
ATOM     72  C   UNL A   1      46.926  32.814  28.382  1.00  0.00     0.057 A 
ATOM     73  C   UNL A   1      47.246  33.337  29.643  1.00  0.00     0.134 A 
ATOM     74  C   UNL A   1      47.074  33.663  27.277  1.00  0.00     0.134 A 
ATOM     75  F   UNL A   1      47.111  32.583  30.745  1.00  0.00    -0.206 F 
ATOM     76  C   UNL A   1      47.660  34.661  29.801  1.00  0.00     0.040 A 
ATOM     77  C   UNL A   1      47.518  34.978  27.419  1.00  0.00     0.040 A 
ATOM     78  F   UNL A   1      46.791  33.226  26.040  1.00  0.00    -0.206 F 
ATOM     79  C   UNL A   1      47.802  35.484  28.686  1.00  0.00     0.006 A 
ENDBRANCH  58  72
BRANCH  59  80
ATOM     80  C   UNL A   1      43.217  23.672  27.081  1.00  0.00     0.057 A 
ATOM     81  C   UNL A   1      43.052  22.795  28.160  1.00  0.00     0.134 A 
ATOM     82  C   UNL A   1      42.901  23.187  25.805  1.00  0.00     0.134 A 
ATOM     83  F   UNL A   1      43.367  23.190  29.403  1.00  0.00    -0.206 F 
ATOM     84  C   UNL A   1      42.610  21.484  27.980  1.00  0.00     0.040 A 
ATOM     85  C   UNL A   1      42.434  21.885  25.612  1.00  0.00     0.040 A 
ATOM     86  F   UNL A   1      43.043  23.972  24.728  1.00  0.00    -0.206 F 
ATOM     87  C   UNL A   1      42.294  21.027  26.702  1.00  0.00     0.006 A 
ENDBRANCH  59  80
BRANCH  71  88
ATOM     88  C   UNL A   1      49.564  26.426  26.301  1.00  0.00     0.057 A 
ATOM     89  C   UNL A   1      50.097  26.555  25.012  1.00  0.00     0.134 A 
ATOM     90  C   UNL A   1      50.336  25.740  27.250  1.00  0.00     0.134 A 
ATOM     91  F   UNL A   1      49.409  27.191  24.052  1.00  0.00    -0.206 F 
ATOM     92  C   UNL A   1      51.333  25.999  24.673  1.00  0.00     0.040 A 
ATOM     93  C   UNL A   1      51.586  25.205  26.931  1.00  0.00     0.040 A 
ATOM     94  F   UNL A   1      49.893  25.588  28.508  1.00  0.00    -0.206 F 
ATOM     95  C   UNL A   1      52.084  25.326  25.637  1.00  0.00     0.006 A 
ENDBRANCH  71  88
ENDBRANCH  45  46
ENDBRANCH  38  40
ENDBRANCH  37  38
ENDBRANCH  36  37
ENDBRANCH  35  36
ENDBRANCH  34  35
ENDBRANCH  33  34
ENDBRANCH  32  33
ENDBRANCH  31  32
ENDBRANCH   1  31
TORSDOF 23
ENDMDL
