MODEL 1
REMARK VINA RESULT:      -9.8      0.000      0.000
REMARK SMILES CC(C)C[C@H](Nc1ncnc2scc(-c3ccccc3)c12)C(=O)OCCOCCOCCOC(=O)c1ccc(-c2c3nc(c(-c4c(F)cccc4F)c4ccc([nH]4)c(-c4c(F)cccc4F)c4nc(c(-c5c(F)cccc5F)c5ccc2[nH]5)C=C4)C=C3)cc1
REMARK SMILES IDX 28 1 27 2 26 3 25 4 24 5 22 6 23 7 5 8 4 9 2 10 1 11 3 12
REMARK SMILES IDX 6 13 7 15 8 16 21 17 9 18 11 19 14 20 10 21 12 22 13 23
REMARK SMILES IDX 15 24 16 25 20 26 17 27 19 28 18 29 29 30 30 31 31 32 32 33
REMARK SMILES IDX 33 34 34 35 35 36 36 37 37 38 89 39 38 40 88 41 39 42 40 43
REMARK SMILES IDX 41 44 82 45 42 46 87 47 81 48 83 49 43 50 86 51 80 52 79 53
REMARK SMILES IDX 44 55 70 56 53 57 69 58 54 59 57 60 68 61 84 62 55 63 56 64
REMARK SMILES IDX 67 66 85 67 58 68 45 69 46 70 51 71 47 72 48 73 50 74 52 75
REMARK SMILES IDX 49 76 71 77 72 78 77 79 73 80 74 81 76 82 78 83 75 84 59 85
REMARK SMILES IDX 60 86 65 87 61 88 62 89 64 90 66 91 63 92
REMARK H PARENT 6 14 83 54 57 65
REMARK Flexibility Score: inf
ROOT
ATOM      1  C   UNL A   1      32.550  30.064  26.222  1.00  0.00     0.188 C 
ENDROOT
BRANCH   1   2
ATOM      2  O   UNL A   1      32.149  28.888  25.524  1.00  0.00    -0.376 OA
BRANCH   2   3
ATOM      3  C   UNL A   1      31.682  28.992  24.192  1.00  0.00     0.202 C 
BRANCH   3   4
ATOM      4  C   UNL A   1      32.646  28.506  23.113  1.00  0.00     0.261 C 
BRANCH   4   5
ATOM      5  O   UNL A   1      33.633  27.573  23.582  1.00  0.00    -0.462 OA
BRANCH   5   6
ATOM      6  C   UNL A   1      33.707  26.406  22.884  1.00  0.00     0.328 C 
ATOM      7  O   UNL A   1      33.865  26.337  21.667  1.00  0.00    -0.250 OA
BRANCH   6   8
ATOM      8  C   UNL A   1      33.389  25.172  23.731  1.00  0.00     0.191 C 
BRANCH   8   9
ATOM      9  C   UNL A   1      33.573  25.595  25.198  1.00  0.00     0.040 C 
BRANCH   9  10
ATOM     10  C   UNL A   1      32.374  25.330  26.125  1.00  0.00    -0.015 C 
ATOM     11  C   UNL A   1      31.048  25.502  25.382  1.00  0.00     0.007 C 
ATOM     12  C   UNL A   1      32.477  23.909  26.684  1.00  0.00     0.007 C 
ENDBRANCH   9  10
ENDBRANCH   8   9
BRANCH   8  13
ATOM     13  N   UNL A   1      34.239  23.985  23.476  1.00  0.00    -0.356 N 
ATOM     14  H   UNL A   1      35.220  24.046  23.422  1.00  0.00     0.163 HD
BRANCH  13  15
ATOM     15  C   UNL A   1      33.563  22.775  23.317  1.00  0.00     0.139 A 
ATOM     16  N   UNL A   1      32.473  22.771  22.513  1.00  0.00    -0.219 NA
ATOM     17  C   UNL A   1      33.932  21.556  23.952  1.00  0.00     0.062 A 
ATOM     18  C   UNL A   1      31.809  21.618  22.328  1.00  0.00     0.225 A 
ATOM     19  C   UNL A   1      33.093  20.472  23.715  1.00  0.00     0.129 A 
ATOM     20  C   UNL A   1      34.997  21.141  24.841  1.00  0.00     0.006 A 
ATOM     21  N   UNL A   1      32.031  20.444  22.904  1.00  0.00    -0.225 NA
ATOM     22  S   UNL A   1      33.509  19.069  24.581  1.00  0.00    -0.123 S 
ATOM     23  C   UNL A   1      34.859  19.835  25.272  1.00  0.00     0.076 A 
BRANCH  20  24
ATOM     24  C   UNL A   1      36.155  21.894  25.282  1.00  0.00    -0.017 A 
ATOM     25  C   UNL A   1      35.969  23.121  25.926  1.00  0.00     0.009 A 
ATOM     26  C   UNL A   1      37.445  21.421  25.039  1.00  0.00     0.009 A 
ATOM     27  C   UNL A   1      37.073  23.855  26.355  1.00  0.00     0.001 A 
ATOM     28  C   UNL A   1      38.548  22.142  25.498  1.00  0.00     0.001 A 
ATOM     29  C   UNL A   1      38.360  23.357  26.156  1.00  0.00     0.000 A 
ENDBRANCH  20  24
ENDBRANCH  13  15
ENDBRANCH   8  13
ENDBRANCH   6   8
ENDBRANCH   5   6
ENDBRANCH   4   5
ENDBRANCH   3   4
ENDBRANCH   2   3
ENDBRANCH   1   2
BRANCH   1  30
ATOM     30  C   UNL A   1      31.542  31.198  26.504  1.00  0.00     0.188 C 
BRANCH  30  31
ATOM     31  O   UNL A   1      32.014  32.542  26.467  1.00  0.00    -0.376 OA
BRANCH  31  32
ATOM     32  C   UNL A   1      32.264  33.186  27.713  1.00  0.00     0.202 C 
BRANCH  32  33
ATOM     33  C   UNL A   1      33.743  33.358  28.049  1.00  0.00     0.261 C 
BRANCH  33  34
ATOM     34  O   UNL A   1      34.385  32.071  28.124  1.00  0.00    -0.460 OA
BRANCH  34  35
ATOM     35  C   UNL A   1      34.995  31.796  29.286  1.00  0.00     0.338 C 
ATOM     36  O   UNL A   1      34.750  32.281  30.394  1.00  0.00    -0.246 OA
BRANCH  35  37
ATOM     37  C   UNL A   1      35.990  30.732  29.116  1.00  0.00     0.060 A 
ATOM     38  C   UNL A   1      36.503  30.109  30.256  1.00  0.00     0.016 A 
ATOM     39  C   UNL A   1      36.601  30.546  27.878  1.00  0.00     0.016 A 
ATOM     40  C   UNL A   1      37.715  29.423  30.192  1.00  0.00     0.010 A 
ATOM     41  C   UNL A   1      37.797  29.824  27.808  1.00  0.00     0.010 A 
ATOM     42  C   UNL A   1      38.409  29.339  28.980  1.00  0.00    -0.014 A 
BRANCH  42  43
ATOM     43  C   UNL A   1      39.857  28.986  28.974  1.00  0.00     0.031 A 
ATOM     44  C   UNL A   1      40.853  30.020  29.445  1.00  0.00     0.074 A 
ATOM     45  C   UNL A   1      40.296  27.760  28.639  1.00  0.00     0.049 A 
ATOM     46  N   UNL A   1      42.159  30.021  29.359  1.00  0.00    -0.248 NA
ATOM     47  C   UNL A   1      40.295  31.219  30.093  1.00  0.00     0.031 C 
ATOM     48  C   UNL A   1      39.455  26.622  28.274  1.00  0.00     0.029 A 
ATOM     49  N   UNL A   1      41.577  27.268  28.561  1.00  0.00    -0.354 N 
ATOM     50  C   UNL A   1      42.570  31.245  29.875  1.00  0.00     0.074 A 
ATOM     51  C   UNL A   1      41.377  31.958  30.279  1.00  0.00     0.031 C 
ATOM     52  C   UNL A   1      40.240  25.561  28.023  1.00  0.00     0.029 A 
ATOM     53  C   UNL A   1      41.640  25.961  28.148  1.00  0.00     0.049 A 
ATOM     54  H   UNL A   1      42.374  27.803  28.780  1.00  0.00     0.167 HD
ATOM     55  C   UNL A   1      43.826  31.736  30.000  1.00  0.00     0.037 A 
ATOM     56  C   UNL A   1      42.707  25.186  27.869  1.00  0.00     0.037 A 
ATOM     57  C   UNL A   1      45.019  31.002  29.674  1.00  0.00     0.049 A 
ATOM     58  C   UNL A   1      44.095  25.755  27.990  1.00  0.00     0.074 A 
ATOM     59  C   UNL A   1      46.338  31.415  29.752  1.00  0.00     0.029 A 
ATOM     60  N   UNL A   1      45.035  29.687  29.237  1.00  0.00    -0.354 N 
ATOM     61  N   UNL A   1      44.470  26.948  28.382  1.00  0.00    -0.248 NA
ATOM     62  C   UNL A   1      45.208  24.871  27.614  1.00  0.00     0.031 C 
ATOM     63  C   UNL A   1      47.152  30.353  29.343  1.00  0.00     0.029 A 
ATOM     64  C   UNL A   1      46.340  29.271  29.043  1.00  0.00     0.049 A 
ATOM     65  H   UNL A   1      44.236  29.132  29.087  1.00  0.00     0.167 HD
ATOM     66  C   UNL A   1      45.858  26.951  28.322  1.00  0.00     0.074 A 
ATOM     67  C   UNL A   1      46.260  25.636  27.867  1.00  0.00     0.031 C 
ATOM     68  C   UNL A   1      46.723  27.953  28.612  1.00  0.00     0.037 A 
BRANCH  55  69
ATOM     69  C   UNL A   1      43.967  33.152  30.473  1.00  0.00     0.057 A 
ATOM     70  C   UNL A   1      44.149  33.477  31.822  1.00  0.00     0.134 A 
ATOM     71  C   UNL A   1      43.928  34.207  29.551  1.00  0.00     0.134 A 
ATOM     72  F   UNL A   1      44.175  32.513  32.755  1.00  0.00    -0.206 F 
ATOM     73  C   UNL A   1      44.263  34.803  32.242  1.00  0.00     0.040 A 
ATOM     74  C   UNL A   1      44.064  35.535  29.957  1.00  0.00     0.040 A 
ATOM     75  F   UNL A   1      43.759  33.963  28.243  1.00  0.00    -0.206 F 
ATOM     76  C   UNL A   1      44.226  35.837  31.307  1.00  0.00     0.006 A 
ENDBRANCH  55  69
BRANCH  56  77
ATOM     77  C   UNL A   1      42.510  23.787  27.413  1.00  0.00     0.057 A 
ATOM     78  C   UNL A   1      42.451  23.472  26.051  1.00  0.00     0.134 A 
ATOM     79  C   UNL A   1      42.346  22.739  28.327  1.00  0.00     0.134 A 
ATOM     80  F   UNL A   1      42.571  24.438  25.129  1.00  0.00    -0.206 F 
ATOM     81  C   UNL A   1      42.225  22.166  25.613  1.00  0.00     0.040 A 
ATOM     82  C   UNL A   1      42.144  21.425  27.902  1.00  0.00     0.040 A 
ATOM     83  F   UNL A   1      42.387  22.977  29.645  1.00  0.00    -0.206 F 
ATOM     84  C   UNL A   1      42.076  21.137  26.541  1.00  0.00     0.006 A 
ENDBRANCH  56  77
BRANCH  68  85
ATOM     85  C   UNL A   1      48.187  27.651  28.494  1.00  0.00     0.057 A 
ATOM     86  C   UNL A   1      48.896  27.885  27.312  1.00  0.00     0.134 A 
ATOM     87  C   UNL A   1      48.898  27.150  29.592  1.00  0.00     0.134 A 
ATOM     88  F   UNL A   1      48.268  28.353  26.223  1.00  0.00    -0.206 F 
ATOM     89  C   UNL A   1      50.263  27.611  27.217  1.00  0.00     0.040 A 
ATOM     90  C   UNL A   1      50.267  26.890  29.515  1.00  0.00     0.040 A 
ATOM     91  F   UNL A   1      48.277  26.911  30.757  1.00  0.00    -0.206 F 
ATOM     92  C   UNL A   1      50.952  27.117  28.323  1.00  0.00     0.006 A 
ENDBRANCH  68  85
ENDBRANCH  42  43
ENDBRANCH  35  37
ENDBRANCH  34  35
ENDBRANCH  33  34
ENDBRANCH  32  33
ENDBRANCH  31  32
ENDBRANCH  30  31
ENDBRANCH   1  30
TORSDOF 22
ENDMDL
MODEL 2
REMARK VINA RESULT:      -9.8      1.405      2.824
REMARK SMILES CC(C)C[C@H](Nc1ncnc2scc(-c3ccccc3)c12)C(=O)OCCOCCOCCOC(=O)c1ccc(-c2c3nc(c(-c4c(F)cccc4F)c4ccc([nH]4)c(-c4c(F)cccc4F)c4nc(c(-c5c(F)cccc5F)c5ccc2[nH]5)C=C4)C=C3)cc1
REMARK SMILES IDX 28 1 27 2 26 3 25 4 24 5 22 6 23 7 5 8 4 9 2 10 1 11 3 12
REMARK SMILES IDX 6 13 7 15 8 16 21 17 9 18 11 19 14 20 10 21 12 22 13 23
REMARK SMILES IDX 15 24 16 25 20 26 17 27 19 28 18 29 29 30 30 31 31 32 32 33
REMARK SMILES IDX 33 34 34 35 35 36 36 37 37 38 89 39 38 40 88 41 39 42 40 43
REMARK SMILES IDX 41 44 82 45 42 46 87 47 81 48 83 49 43 50 86 51 80 52 79 53
REMARK SMILES IDX 44 55 70 56 53 57 69 58 54 59 57 60 68 61 84 62 55 63 56 64
REMARK SMILES IDX 67 66 85 67 58 68 45 69 46 70 51 71 47 72 48 73 50 74 52 75
REMARK SMILES IDX 49 76 71 77 72 78 77 79 73 80 74 81 76 82 78 83 75 84 59 85
REMARK SMILES IDX 60 86 65 87 61 88 62 89 64 90 66 91 63 92
REMARK H PARENT 6 14 83 54 57 65
REMARK Flexibility Score: inf
ROOT
ATOM      1  C   UNL A   1      30.698  27.854  23.859  1.00  0.00     0.188 C 
ENDROOT
BRANCH   1   2
ATOM      2  O   UNL A   1      31.389  26.837  23.139  1.00  0.00    -0.376 OA
BRANCH   2   3
ATOM      3  C   UNL A   1      32.516  27.180  22.355  1.00  0.00     0.202 C 
BRANCH   3   4
ATOM      4  C   UNL A   1      33.583  26.097  22.220  1.00  0.00     0.261 C 
BRANCH   4   5
ATOM      5  O   UNL A   1      33.382  24.962  23.078  1.00  0.00    -0.462 OA
BRANCH   5   6
ATOM      6  C   UNL A   1      34.408  24.067  23.109  1.00  0.00     0.328 C 
ATOM      7  O   UNL A   1      34.550  23.150  22.303  1.00  0.00    -0.250 OA
BRANCH   6   8
ATOM      8  C   UNL A   1      35.284  24.191  24.357  1.00  0.00     0.191 C 
BRANCH   8   9
ATOM      9  C   UNL A   1      36.505  23.285  24.121  1.00  0.00     0.040 C 
BRANCH   9  10
ATOM     10  C   UNL A   1      36.847  22.315  25.265  1.00  0.00    -0.015 C 
ATOM     11  C   UNL A   1      36.771  20.859  24.802  1.00  0.00     0.007 C 
ATOM     12  C   UNL A   1      38.254  22.625  25.781  1.00  0.00     0.007 C 
ENDBRANCH   9  10
ENDBRANCH   8   9
BRANCH   8  13
ATOM     13  N   UNL A   1      34.642  23.788  25.631  1.00  0.00    -0.356 N 
ATOM     14  H   UNL A   1      34.995  23.055  26.185  1.00  0.00     0.163 HD
BRANCH  13  15
ATOM     15  C   UNL A   1      33.507  24.513  25.996  1.00  0.00     0.139 A 
ATOM     16  N   UNL A   1      33.670  25.829  26.271  1.00  0.00    -0.219 NA
ATOM     17  C   UNL A   1      32.200  23.960  26.112  1.00  0.00     0.062 A 
ATOM     18  C   UNL A   1      32.594  26.558  26.612  1.00  0.00     0.225 A 
ATOM     19  C   UNL A   1      31.211  24.834  26.550  1.00  0.00     0.129 A 
ATOM     20  C   UNL A   1      31.615  22.653  25.901  1.00  0.00     0.006 A 
ATOM     21  N   UNL A   1      31.348  26.141  26.799  1.00  0.00    -0.225 NA
ATOM     22  S   UNL A   1      29.692  24.105  26.781  1.00  0.00    -0.123 S 
ATOM     23  C   UNL A   1      30.279  22.599  26.257  1.00  0.00     0.076 A 
BRANCH  20  24
ATOM     24  C   UNL A   1      32.231  21.461  25.353  1.00  0.00    -0.017 A 
ATOM     25  C   UNL A   1      32.108  21.193  23.987  1.00  0.00     0.009 A 
ATOM     26  C   UNL A   1      32.913  20.569  26.182  1.00  0.00     0.009 A 
ATOM     27  C   UNL A   1      32.695  20.051  23.447  1.00  0.00     0.001 A 
ATOM     28  C   UNL A   1      33.528  19.443  25.634  1.00  0.00     0.001 A 
ATOM     29  C   UNL A   1      33.419  19.185  24.268  1.00  0.00     0.000 A 
ENDBRANCH  20  24
ENDBRANCH  13  15
ENDBRANCH   8  13
ENDBRANCH   6   8
ENDBRANCH   5   6
ENDBRANCH   4   5
ENDBRANCH   3   4
ENDBRANCH   2   3
ENDBRANCH   1   2
BRANCH   1  30
ATOM     30  C   UNL A   1      31.344  29.236  24.090  1.00  0.00     0.188 C 
BRANCH  30  31
ATOM     31  O   UNL A   1      31.525  29.679  25.431  1.00  0.00    -0.376 OA
BRANCH  31  32
ATOM     32  C   UNL A   1      32.829  30.110  25.812  1.00  0.00     0.202 C 
BRANCH  32  33
ATOM     33  C   UNL A   1      32.962  30.496  27.282  1.00  0.00     0.261 C 
BRANCH  33  34
ATOM     34  O   UNL A   1      33.975  31.509  27.436  1.00  0.00    -0.460 OA
BRANCH  34  35
ATOM     35  C   UNL A   1      34.672  31.458  28.581  1.00  0.00     0.338 C 
ATOM     36  O   UNL A   1      34.474  32.111  29.608  1.00  0.00    -0.246 OA
BRANCH  35  37
ATOM     37  C   UNL A   1      35.710  30.423  28.516  1.00  0.00     0.060 A 
ATOM     38  C   UNL A   1      36.127  29.821  29.704  1.00  0.00     0.016 A 
ATOM     39  C   UNL A   1      36.444  30.250  27.344  1.00  0.00     0.016 A 
ATOM     40  C   UNL A   1      37.359  29.170  29.764  1.00  0.00     0.010 A 
ATOM     41  C   UNL A   1      37.661  29.562  27.397  1.00  0.00     0.010 A 
ATOM     42  C   UNL A   1      38.169  29.101  28.626  1.00  0.00    -0.014 A 
BRANCH  42  43
ATOM     43  C   UNL A   1      39.620  28.790  28.763  1.00  0.00     0.031 A 
ATOM     44  C   UNL A   1      40.528  29.840  29.360  1.00  0.00     0.074 A 
ATOM     45  C   UNL A   1      40.131  27.587  28.447  1.00  0.00     0.049 A 
ATOM     46  N   UNL A   1      41.836  29.881  29.411  1.00  0.00    -0.248 NA
ATOM     47  C   UNL A   1      39.869  31.004  29.974  1.00  0.00     0.031 C 
ATOM     48  C   UNL A   1      39.368  26.435  27.970  1.00  0.00     0.029 A 
ATOM     49  N   UNL A   1      41.428  27.134  28.493  1.00  0.00    -0.354 N 
ATOM     50  C   UNL A   1      42.152  31.102  29.996  1.00  0.00     0.074 A 
ATOM     51  C   UNL A   1      40.902  31.769  30.289  1.00  0.00     0.031 C 
ATOM     52  C   UNL A   1      40.208  25.404  27.778  1.00  0.00     0.029 A 
ATOM     53  C   UNL A   1      41.575  25.841  28.058  1.00  0.00     0.049 A 
ATOM     54  H   UNL A   1      42.180  27.687  28.806  1.00  0.00     0.167 HD
ATOM     55  C   UNL A   1      43.372  31.626  30.264  1.00  0.00     0.037 A 
ATOM     56  C   UNL A   1      42.688  25.105  27.874  1.00  0.00     0.037 A 
ATOM     57  C   UNL A   1      44.615  30.936  30.047  1.00  0.00     0.049 A 
ATOM     58  C   UNL A   1      44.038  25.711  28.153  1.00  0.00     0.074 A 
ATOM     59  C   UNL A   1      45.905  31.384  30.272  1.00  0.00     0.029 A 
ATOM     60  N   UNL A   1      44.718  29.634  29.583  1.00  0.00    -0.354 N 
ATOM     61  N   UNL A   1      44.332  26.904  28.610  1.00  0.00    -0.248 NA
ATOM     62  C   UNL A   1      45.211  24.870  27.874  1.00  0.00     0.031 C 
ATOM     63  C   UNL A   1      46.791  30.357  29.927  1.00  0.00     0.029 A 
ATOM     64  C   UNL A   1      46.049  29.260  29.517  1.00  0.00     0.049 A 
ATOM     65  H   UNL A   1      43.957  29.060  29.337  1.00  0.00     0.167 HD
ATOM     66  C   UNL A   1      45.718  26.948  28.695  1.00  0.00     0.074 A 
ATOM     67  C   UNL A   1      46.206  25.658  28.254  1.00  0.00     0.031 C 
ATOM     68  C   UNL A   1      46.516  27.966  29.098  1.00  0.00     0.037 A 
BRANCH  55  69
ATOM     69  C   UNL A   1      43.419  33.032  30.782  1.00  0.00     0.057 A 
ATOM     70  C   UNL A   1      43.438  33.326  32.150  1.00  0.00     0.134 A 
ATOM     71  C   UNL A   1      43.454  34.109  29.886  1.00  0.00     0.134 A 
ATOM     72  F   UNL A   1      43.385  32.340  33.058  1.00  0.00    -0.206 F 
ATOM     73  C   UNL A   1      43.466  34.644  32.610  1.00  0.00     0.040 A 
ATOM     74  C   UNL A   1      43.506  35.430  30.335  1.00  0.00     0.040 A 
ATOM     75  F   UNL A   1      43.441  33.895  28.562  1.00  0.00    -0.206 F 
ATOM     76  C   UNL A   1      43.505  35.701  31.701  1.00  0.00     0.006 A 
ENDBRANCH  55  69
BRANCH  56  77
ATOM     77  C   UNL A   1      42.584  23.714  27.367  1.00  0.00     0.057 A 
ATOM     78  C   UNL A   1      42.661  23.435  25.998  1.00  0.00     0.134 A 
ATOM     79  C   UNL A   1      42.376  22.635  28.236  1.00  0.00     0.134 A 
ATOM     80  F   UNL A   1      42.829  24.430  25.115  1.00  0.00    -0.206 F 
ATOM     81  C   UNL A   1      42.522  22.135  25.508  1.00  0.00     0.040 A 
ATOM     82  C   UNL A   1      42.260  21.328  27.762  1.00  0.00     0.040 A 
ATOM     83  F   UNL A   1      42.288  22.838  29.558  1.00  0.00    -0.206 F 
ATOM     84  C   UNL A   1      42.327  21.077  26.393  1.00  0.00     0.006 A 
ENDBRANCH  56  77
BRANCH  68  85
ATOM     85  C   UNL A   1      47.993  27.710  29.127  1.00  0.00     0.057 A 
ATOM     86  C   UNL A   1      48.816  28.009  28.036  1.00  0.00     0.134 A 
ATOM     87  C   UNL A   1      48.600  27.189  30.277  1.00  0.00     0.134 A 
ATOM     88  F   UNL A   1      48.291  28.500  26.903  1.00  0.00    -0.206 F 
ATOM     89  C   UNL A   1      50.192  27.777  28.078  1.00  0.00     0.040 A 
ATOM     90  C   UNL A   1      49.977  26.970  30.338  1.00  0.00     0.040 A 
ATOM     91  F   UNL A   1      47.866  26.889  31.360  1.00  0.00    -0.206 F 
ATOM     92  C   UNL A   1      50.776  27.261  29.234  1.00  0.00     0.006 A 
ENDBRANCH  68  85
ENDBRANCH  42  43
ENDBRANCH  35  37
ENDBRANCH  34  35
ENDBRANCH  33  34
ENDBRANCH  32  33
ENDBRANCH  31  32
ENDBRANCH  30  31
ENDBRANCH   1  30
TORSDOF 22
ENDMDL
MODEL 3
REMARK VINA RESULT:      -9.4      2.296      3.463
REMARK SMILES CC(C)C[C@H](Nc1ncnc2scc(-c3ccccc3)c12)C(=O)OCCOCCOCCOC(=O)c1ccc(-c2c3nc(c(-c4c(F)cccc4F)c4ccc([nH]4)c(-c4c(F)cccc4F)c4nc(c(-c5c(F)cccc5F)c5ccc2[nH]5)C=C4)C=C3)cc1
REMARK SMILES IDX 28 1 27 2 26 3 25 4 24 5 22 6 23 7 5 8 4 9 2 10 1 11 3 12
REMARK SMILES IDX 6 13 7 15 8 16 21 17 9 18 11 19 14 20 10 21 12 22 13 23
REMARK SMILES IDX 15 24 16 25 20 26 17 27 19 28 18 29 29 30 30 31 31 32 32 33
REMARK SMILES IDX 33 34 34 35 35 36 36 37 37 38 89 39 38 40 88 41 39 42 40 43
REMARK SMILES IDX 41 44 82 45 42 46 87 47 81 48 83 49 43 50 86 51 80 52 79 53
REMARK SMILES IDX 44 55 70 56 53 57 69 58 54 59 57 60 68 61 84 62 55 63 56 64
REMARK SMILES IDX 67 66 85 67 58 68 45 69 46 70 51 71 47 72 48 73 50 74 52 75
REMARK SMILES IDX 49 76 71 77 72 78 77 79 73 80 74 81 76 82 78 83 75 84 59 85
REMARK SMILES IDX 60 86 65 87 61 88 62 89 64 90 66 91 63 92
REMARK H PARENT 6 14 83 54 57 65
REMARK Flexibility Score: inf
ROOT
ATOM      1  C   UNL A   1      34.357  33.998  28.322  1.00  0.00     0.188 C 
ENDROOT
BRANCH   1   2
ATOM      2  O   UNL A   1      33.787  33.166  27.316  1.00  0.00    -0.376 OA
BRANCH   2   3
ATOM      3  C   UNL A   1      33.300  31.883  27.664  1.00  0.00     0.202 C 
BRANCH   3   4
ATOM      4  C   UNL A   1      34.272  30.725  27.451  1.00  0.00     0.261 C 
BRANCH   4   5
ATOM      5  O   UNL A   1      33.904  29.838  26.382  1.00  0.00    -0.462 OA
BRANCH   5   6
ATOM      6  C   UNL A   1      33.196  28.737  26.758  1.00  0.00     0.328 C 
ATOM      7  O   UNL A   1      33.142  28.310  27.910  1.00  0.00    -0.250 OA
BRANCH   6   8
ATOM      8  C   UNL A   1      32.612  27.959  25.578  1.00  0.00     0.191 C 
BRANCH   8   9
ATOM      9  C   UNL A   1      31.160  27.620  25.958  1.00  0.00     0.040 C 
BRANCH   9  10
ATOM     10  C   UNL A   1      30.541  26.418  25.224  1.00  0.00    -0.015 C 
ATOM     11  C   UNL A   1      29.699  25.561  26.169  1.00  0.00     0.007 C 
ATOM     12  C   UNL A   1      29.673  26.928  24.071  1.00  0.00     0.007 C 
ENDBRANCH   9  10
ENDBRANCH   8   9
BRANCH   8  13
ATOM     13  N   UNL A   1      33.312  26.699  25.233  1.00  0.00    -0.356 N 
ATOM     14  H   UNL A   1      33.720  26.123  25.919  1.00  0.00     0.163 HD
BRANCH  13  15
ATOM     15  C   UNL A   1      33.356  26.379  23.876  1.00  0.00     0.139 A 
ATOM     16  N   UNL A   1      33.434  27.406  22.996  1.00  0.00    -0.219 NA
ATOM     17  C   UNL A   1      33.312  25.054  23.358  1.00  0.00     0.062 A 
ATOM     18  C   UNL A   1      33.493  27.130  21.682  1.00  0.00     0.225 A 
ATOM     19  C   UNL A   1      33.305  24.947  21.971  1.00  0.00     0.129 A 
ATOM     20  C   UNL A   1      33.247  23.727  23.933  1.00  0.00     0.006 A 
ATOM     21  N   UNL A   1      33.408  25.947  21.089  1.00  0.00    -0.225 NA
ATOM     22  S   UNL A   1      33.138  23.355  21.398  1.00  0.00    -0.123 S 
ATOM     23  C   UNL A   1      33.119  22.734  22.980  1.00  0.00     0.076 A 
BRANCH  20  24
ATOM     24  C   UNL A   1      33.332  23.338  25.327  1.00  0.00    -0.017 A 
ATOM     25  C   UNL A   1      34.589  23.167  25.914  1.00  0.00     0.009 A 
ATOM     26  C   UNL A   1      32.175  23.102  26.070  1.00  0.00     0.009 A 
ATOM     27  C   UNL A   1      34.685  22.792  27.253  1.00  0.00     0.001 A 
ATOM     28  C   UNL A   1      32.273  22.760  27.419  1.00  0.00     0.001 A 
ATOM     29  C   UNL A   1      33.528  22.605  28.009  1.00  0.00     0.000 A 
ENDBRANCH  20  24
ENDBRANCH  13  15
ENDBRANCH   8  13
ENDBRANCH   6   8
ENDBRANCH   5   6
ENDBRANCH   4   5
ENDBRANCH   3   4
ENDBRANCH   2   3
ENDBRANCH   1   2
BRANCH   1  30
ATOM     30  C   UNL A   1      34.142  33.688  29.818  1.00  0.00     0.188 C 
BRANCH  30  31
ATOM     31  O   UNL A   1      34.145  34.776  30.738  1.00  0.00    -0.376 OA
BRANCH  31  32
ATOM     32  C   UNL A   1      34.115  34.463  32.128  1.00  0.00     0.202 C 
BRANCH  32  33
ATOM     33  C   UNL A   1      34.532  33.033  32.462  1.00  0.00     0.261 C 
BRANCH  33  34
ATOM     34  O   UNL A   1      35.801  33.036  33.143  1.00  0.00    -0.460 OA
BRANCH  34  35
ATOM     35  C   UNL A   1      36.852  33.417  32.403  1.00  0.00     0.338 C 
ATOM     36  O   UNL A   1      37.365  34.538  32.352  1.00  0.00    -0.246 OA
BRANCH  35  37
ATOM     37  C   UNL A   1      37.421  32.277  31.675  1.00  0.00     0.060 A 
ATOM     38  C   UNL A   1      38.121  31.308  32.397  1.00  0.00     0.016 A 
ATOM     39  C   UNL A   1      37.495  32.309  30.285  1.00  0.00     0.016 A 
ATOM     40  C   UNL A   1      39.019  30.463  31.744  1.00  0.00     0.010 A 
ATOM     41  C   UNL A   1      38.366  31.434  29.627  1.00  0.00     0.010 A 
ATOM     42  C   UNL A   1      39.202  30.571  30.362  1.00  0.00    -0.014 A 
BRANCH  42  43
ATOM     43  C   UNL A   1      40.417  29.989  29.724  1.00  0.00     0.031 A 
ATOM     44  C   UNL A   1      41.643  30.860  29.582  1.00  0.00     0.074 A 
ATOM     45  C   UNL A   1      40.482  28.701  29.344  1.00  0.00     0.049 A 
ATOM     46  N   UNL A   1      42.743  30.648  28.905  1.00  0.00    -0.248 NA
ATOM     47  C   UNL A   1      41.618  32.148  30.295  1.00  0.00     0.031 C 
ATOM     48  C   UNL A   1      39.427  27.706  29.519  1.00  0.00     0.029 A 
ATOM     49  N   UNL A   1      41.499  28.007  28.734  1.00  0.00    -0.354 N 
ATOM     50  C   UNL A   1      43.506  31.802  29.053  1.00  0.00     0.074 A 
ATOM     51  C   UNL A   1      42.748  32.707  29.889  1.00  0.00     0.031 C 
ATOM     52  C   UNL A   1      39.855  26.526  29.038  1.00  0.00     0.029 A 
ATOM     53  C   UNL A   1      41.188  26.697  28.466  1.00  0.00     0.049 A 
ATOM     54  H   UNL A   1      42.368  28.412  28.509  1.00  0.00     0.167 HD
ATOM     55  C   UNL A   1      44.726  32.086  28.538  1.00  0.00     0.037 A 
ATOM     56  C   UNL A   1      41.886  25.754  27.803  1.00  0.00     0.037 A 
ATOM     57  C   UNL A   1      45.518  31.162  27.772  1.00  0.00     0.049 A 
ATOM     58  C   UNL A   1      43.230  26.095  27.217  1.00  0.00     0.074 A 
ATOM     59  C   UNL A   1      46.760  31.359  27.194  1.00  0.00     0.029 A 
ATOM     60  N   UNL A   1      45.153  29.852  27.506  1.00  0.00    -0.354 N 
ATOM     61  N   UNL A   1      43.899  27.221  27.276  1.00  0.00    -0.248 NA
ATOM     62  C   UNL A   1      43.909  25.034  26.458  1.00  0.00     0.031 C 
ATOM     63  C   UNL A   1      47.139  30.170  26.561  1.00  0.00     0.029 A 
ATOM     64  C   UNL A   1      46.147  29.226  26.774  1.00  0.00     0.049 A 
ATOM     65  H   UNL A   1      44.312  29.430  27.795  1.00  0.00     0.167 HD
ATOM     66  C   UNL A   1      45.082  26.998  26.583  1.00  0.00     0.074 A 
ATOM     67  C   UNL A   1      45.047  25.625  26.123  1.00  0.00     0.031 C 
ATOM     68  C   UNL A   1      46.106  27.854  26.345  1.00  0.00     0.037 A 
BRANCH  55  69
ATOM     69  C   UNL A   1      45.257  33.472  28.754  1.00  0.00     0.057 A 
ATOM     70  C   UNL A   1      46.080  33.798  29.838  1.00  0.00     0.134 A 
ATOM     71  C   UNL A   1      44.942  34.494  27.848  1.00  0.00     0.134 A 
ATOM     72  F   UNL A   1      46.401  32.869  30.751  1.00  0.00    -0.206 F 
ATOM     73  C   UNL A   1      46.551  35.099  30.028  1.00  0.00     0.040 A 
ATOM     74  C   UNL A   1      45.426  35.792  28.015  1.00  0.00     0.040 A 
ATOM     75  F   UNL A   1      44.160  34.246  26.787  1.00  0.00    -0.206 F 
ATOM     76  C   UNL A   1      46.228  36.099  29.112  1.00  0.00     0.006 A 
ENDBRANCH  55  69
BRANCH  56  77
ATOM     77  C   UNL A   1      41.316  24.395  27.627  1.00  0.00     0.057 A 
ATOM     78  C   UNL A   1      41.833  23.298  28.327  1.00  0.00     0.134 A 
ATOM     79  C   UNL A   1      40.264  24.156  26.735  1.00  0.00     0.134 A 
ATOM     80  F   UNL A   1      42.860  23.460  29.173  1.00  0.00    -0.206 F 
ATOM     81  C   UNL A   1      41.331  22.009  28.137  1.00  0.00     0.040 A 
ATOM     82  C   UNL A   1      39.737  22.877  26.554  1.00  0.00     0.040 A 
ATOM     83  F   UNL A   1      39.730  25.164  26.032  1.00  0.00    -0.206 F 
ATOM     84  C   UNL A   1      40.276  21.798  27.251  1.00  0.00     0.006 A 
ENDBRANCH  56  77
BRANCH  68  85
ATOM     85  C   UNL A   1      47.289  27.317  25.596  1.00  0.00     0.057 A 
ATOM     86  C   UNL A   1      47.426  27.485  24.214  1.00  0.00     0.134 A 
ATOM     87  C   UNL A   1      48.317  26.653  26.277  1.00  0.00     0.134 A 
ATOM     88  F   UNL A   1      46.469  28.102  23.505  1.00  0.00    -0.206 F 
ATOM     89  C   UNL A   1      48.538  26.991  23.529  1.00  0.00     0.040 A 
ATOM     90  C   UNL A   1      49.442  26.172  25.606  1.00  0.00     0.040 A 
ATOM     91  F   UNL A   1      48.248  26.467  27.604  1.00  0.00    -0.206 F 
ATOM     92  C   UNL A   1      49.552  26.336  24.227  1.00  0.00     0.006 A 
ENDBRANCH  68  85
ENDBRANCH  42  43
ENDBRANCH  35  37
ENDBRANCH  34  35
ENDBRANCH  33  34
ENDBRANCH  32  33
ENDBRANCH  31  32
ENDBRANCH  30  31
ENDBRANCH   1  30
TORSDOF 22
ENDMDL
