MODEL 1
REMARK VINA RESULT:      -9.6      0.000      0.000
REMARK SMILES CCOc1ccc([C@H](C)[C@](O)(C(=O)OCCOCCOCCOC(=O)c2ccc(-c3c4nc(c(-c5c(F)cccc5F)c5ccc([nH]5)c(-c5c(F)cccc5F)c5nc(c(-c6c(F)cccc6F)c6ccc3[nH]6)C=C5)C=C4)cc2)C(C)C)cc1
REMARK SMILES IDX 18 1 17 2 16 3 15 4 14 5 12 6 13 7 10 8 8 9 9 10 7 11 4 12
REMARK SMILES IDX 5 13 84 14 6 15 83 16 3 17 2 18 1 19 80 20 81 21 82 22 11 23
REMARK SMILES IDX 19 25 20 26 21 27 22 28 23 29 24 30 25 31 26 32 27 33 79 34
REMARK SMILES IDX 28 35 78 36 29 37 30 38 31 39 72 40 32 41 77 42 71 43 73 44
REMARK SMILES IDX 33 45 76 46 70 47 69 48 34 50 60 51 43 52 59 53 44 54 47 55
REMARK SMILES IDX 58 56 74 57 45 58 46 59 57 61 75 62 48 63 35 64 36 65 41 66
REMARK SMILES IDX 37 67 38 68 40 69 42 70 39 71 61 72 62 73 67 74 63 75 64 76
REMARK SMILES IDX 66 77 68 78 65 79 49 80 50 81 55 82 51 83 52 84 54 85 56 86
REMARK SMILES IDX 53 87
REMARK H PARENT 11 24 73 49 47 60
REMARK Flexibility Score: inf
ROOT
ATOM      1  C   UNL A   1      34.691  31.090  27.777  1.00  0.00     0.188 C 
ENDROOT
BRANCH   1   2
ATOM      2  O   UNL A   1      33.328  30.933  27.473  1.00  0.00    -0.376 OA
BRANCH   2   3
ATOM      3  C   UNL A   1      32.806  29.637  27.228  1.00  0.00     0.202 C 
BRANCH   3   4
ATOM      4  C   UNL A   1      33.270  28.664  26.123  1.00  0.00     0.261 C 
BRANCH   4   5
ATOM      5  O   UNL A   1      33.224  27.255  26.377  1.00  0.00    -0.461 OA
BRANCH   5   6
ATOM      6  C   UNL A   1      33.228  26.435  25.274  1.00  0.00     0.339 C 
ATOM      7  O   UNL A   1      34.100  26.431  24.416  1.00  0.00    -0.249 OA
BRANCH   6   8
ATOM      8  C   UNL A   1      31.937  25.566  25.237  1.00  0.00     0.170 C 
BRANCH   8   9
ATOM      9  C   UNL A   1      31.329  25.660  23.776  1.00  0.00     0.060 C 
ATOM     10  C   UNL A   1      30.523  24.430  23.319  1.00  0.00     0.016 C 
BRANCH   9  11
ATOM     11  C   UNL A   1      30.578  26.948  23.517  1.00  0.00    -0.041 A 
ATOM     12  C   UNL A   1      28.953  28.944  22.420  1.00  0.00     0.119 A 
ATOM     13  C   UNL A   1      30.342  29.017  22.297  1.00  0.00     0.047 A 
ATOM     14  C   UNL A   1      28.389  27.936  23.194  1.00  0.00     0.047 A 
ATOM     15  C   UNL A   1      31.161  28.035  22.858  1.00  0.00     0.008 A 
ATOM     16  C   UNL A   1      29.199  26.957  23.759  1.00  0.00     0.008 A 
BRANCH  12  17
ATOM     17  O   UNL A   1      28.246  29.841  21.673  1.00  0.00    -0.494 OA
BRANCH  17  18
ATOM     18  C   UNL A   1      28.303  31.215  22.059  1.00  0.00     0.226 C 
ATOM     19  C   UNL A   1      27.673  31.479  23.420  1.00  0.00     0.049 C 
ENDBRANCH  17  18
ENDBRANCH  12  17
ENDBRANCH   9  11
ENDBRANCH   8   9
BRANCH   8  20
ATOM     20  C   UNL A   1      32.256  24.107  25.791  1.00  0.00     0.027 C 
ATOM     21  C   UNL A   1      33.605  23.956  26.516  1.00  0.00     0.011 C 
ATOM     22  C   UNL A   1      31.208  23.562  26.777  1.00  0.00     0.011 C 
ENDBRANCH   8  20
BRANCH   8  23
ATOM     23  O   UNL A   1      30.904  26.096  26.093  1.00  0.00    -0.377 OA
ATOM     24  H   UNL A   1      30.034  25.875  25.726  1.00  0.00     0.212 HD
ENDBRANCH   8  23
ENDBRANCH   6   8
ENDBRANCH   5   6
ENDBRANCH   4   5
ENDBRANCH   3   4
ENDBRANCH   2   3
ENDBRANCH   1   2
BRANCH   1  25
ATOM     25  C   UNL A   1      35.089  32.383  28.508  1.00  0.00     0.188 C 
BRANCH  25  26
ATOM     26  O   UNL A   1      34.188  33.007  29.394  1.00  0.00    -0.376 OA
BRANCH  26  27
ATOM     27  C   UNL A   1      34.709  33.571  30.586  1.00  0.00     0.202 C 
BRANCH  27  28
ATOM     28  C   UNL A   1      34.512  32.918  31.974  1.00  0.00     0.261 C 
BRANCH  28  29
ATOM     29  O   UNL A   1      35.259  31.722  32.261  1.00  0.00    -0.460 OA
BRANCH  29  30
ATOM     30  C   UNL A   1      36.466  31.901  32.856  1.00  0.00     0.338 C 
ATOM     31  O   UNL A   1      36.675  32.377  33.965  1.00  0.00    -0.246 OA
BRANCH  30  32
ATOM     32  C   UNL A   1      37.525  31.236  32.062  1.00  0.00     0.060 A 
ATOM     33  C   UNL A   1      38.651  30.733  32.733  1.00  0.00     0.016 A 
ATOM     34  C   UNL A   1      37.445  31.138  30.673  1.00  0.00     0.016 A 
ATOM     35  C   UNL A   1      39.699  30.141  32.022  1.00  0.00     0.010 A 
ATOM     36  C   UNL A   1      38.515  30.579  29.956  1.00  0.00     0.010 A 
ATOM     37  C   UNL A   1      39.658  30.098  30.623  1.00  0.00    -0.014 A 
BRANCH  37  38
ATOM     38  C   UNL A   1      40.888  29.748  29.862  1.00  0.00     0.031 A 
ATOM     39  C   UNL A   1      41.021  28.347  29.324  1.00  0.00     0.074 A 
ATOM     40  C   UNL A   1      41.856  30.649  29.609  1.00  0.00     0.049 A 
ATOM     41  N   UNL A   1      42.019  27.788  28.686  1.00  0.00    -0.248 NA
ATOM     42  C   UNL A   1      39.865  27.460  29.532  1.00  0.00     0.031 C 
ATOM     43  C   UNL A   1      41.832  32.055  30.000  1.00  0.00     0.029 A 
ATOM     44  N   UNL A   1      43.060  30.500  28.961  1.00  0.00    -0.354 N 
ATOM     45  C   UNL A   1      41.608  26.490  28.408  1.00  0.00     0.074 A 
ATOM     46  C   UNL A   1      40.288  26.332  28.980  1.00  0.00     0.031 C 
ATOM     47  C   UNL A   1      42.977  32.637  29.599  1.00  0.00     0.029 A 
ATOM     48  C   UNL A   1      43.831  31.638  28.957  1.00  0.00     0.049 A 
ATOM     49  H   UNL A   1      43.344  29.655  28.540  1.00  0.00     0.167 HD
ATOM     50  C   UNL A   1      42.263  25.517  27.731  1.00  0.00     0.037 A 
ATOM     51  C   UNL A   1      45.088  31.838  28.511  1.00  0.00     0.037 A 
ATOM     52  C   UNL A   1      43.585  25.654  27.181  1.00  0.00     0.049 A 
ATOM     53  C   UNL A   1      45.849  30.698  27.875  1.00  0.00     0.074 A 
ATOM     54  C   UNL A   1      44.341  24.710  26.506  1.00  0.00     0.029 A 
ATOM     55  N   UNL A   1      44.354  26.806  27.246  1.00  0.00    -0.354 N 
ATOM     56  N   UNL A   1      45.454  29.474  27.618  1.00  0.00    -0.248 NA
ATOM     57  C   UNL A   1      47.237  30.970  27.468  1.00  0.00     0.031 C 
ATOM     58  C   UNL A   1      45.585  25.275  26.209  1.00  0.00     0.029 A 
ATOM     59  C   UNL A   1      45.582  26.590  26.643  1.00  0.00     0.049 A 
ATOM     60  H   UNL A   1      44.068  27.653  27.661  1.00  0.00     0.167 HD
ATOM     61  C   UNL A   1      46.524  28.851  26.982  1.00  0.00     0.074 A 
ATOM     62  C   UNL A   1      47.580  29.833  26.881  1.00  0.00     0.031 C 
ATOM     63  C   UNL A   1      46.622  27.579  26.523  1.00  0.00     0.037 A 
BRANCH  50  64
ATOM     64  C   UNL A   1      41.561  24.200  27.570  1.00  0.00     0.057 A 
ATOM     65  C   UNL A   1      40.521  24.027  26.647  1.00  0.00     0.134 A 
ATOM     66  C   UNL A   1      41.946  23.086  28.326  1.00  0.00     0.134 A 
ATOM     67  F   UNL A   1      40.093  25.059  25.904  1.00  0.00    -0.206 F 
ATOM     68  C   UNL A   1      39.875  22.800  26.497  1.00  0.00     0.040 A 
ATOM     69  C   UNL A   1      41.327  21.846  28.164  1.00  0.00     0.040 A 
ATOM     70  F   UNL A   1      42.938  23.181  29.224  1.00  0.00    -0.206 F 
ATOM     71  C   UNL A   1      40.284  21.702  27.252  1.00  0.00     0.006 A 
ENDBRANCH  50  64
BRANCH  51  72
ATOM     72  C   UNL A   1      45.749  33.163  28.670  1.00  0.00     0.057 A 
ATOM     73  C   UNL A   1      45.677  34.139  27.668  1.00  0.00     0.134 A 
ATOM     74  C   UNL A   1      46.543  33.450  29.788  1.00  0.00     0.134 A 
ATOM     75  F   UNL A   1      44.962  33.914  26.556  1.00  0.00    -0.206 F 
ATOM     76  C   UNL A   1      46.397  35.334  27.754  1.00  0.00     0.040 A 
ATOM     77  C   UNL A   1      47.242  34.654  29.902  1.00  0.00     0.040 A 
ATOM     78  F   UNL A   1      46.664  32.557  30.781  1.00  0.00    -0.206 F 
ATOM     79  C   UNL A   1      47.181  35.594  28.876  1.00  0.00     0.006 A 
ENDBRANCH  51  72
BRANCH  63  80
ATOM     80  C   UNL A   1      47.888  27.188  25.812  1.00  0.00     0.057 A 
ATOM     81  C   UNL A   1      48.058  27.367  24.433  1.00  0.00     0.134 A 
ATOM     82  C   UNL A   1      48.970  26.658  26.528  1.00  0.00     0.134 A 
ATOM     83  F   UNL A   1      47.061  27.860  23.683  1.00  0.00    -0.206 F 
ATOM     84  C   UNL A   1      49.243  27.005  23.789  1.00  0.00     0.040 A 
ATOM     85  C   UNL A   1      50.172  26.323  25.902  1.00  0.00     0.040 A 
ATOM     86  F   UNL A   1      48.884  26.470  27.854  1.00  0.00    -0.206 F 
ATOM     87  C   UNL A   1      50.308  26.488  24.525  1.00  0.00     0.006 A 
ENDBRANCH  63  80
ENDBRANCH  37  38
ENDBRANCH  30  32
ENDBRANCH  29  30
ENDBRANCH  28  29
ENDBRANCH  27  28
ENDBRANCH  26  27
ENDBRANCH  25  26
ENDBRANCH   1  25
TORSDOF 23
ENDMDL
MODEL 2
REMARK VINA RESULT:      -9.4      2.396      4.313
REMARK SMILES CCOc1ccc([C@H](C)[C@](O)(C(=O)OCCOCCOCCOC(=O)c2ccc(-c3c4nc(c(-c5c(F)cccc5F)c5ccc([nH]5)c(-c5c(F)cccc5F)c5nc(c(-c6c(F)cccc6F)c6ccc3[nH]6)C=C5)C=C4)cc2)C(C)C)cc1
REMARK SMILES IDX 18 1 17 2 16 3 15 4 14 5 12 6 13 7 10 8 8 9 9 10 7 11 4 12
REMARK SMILES IDX 5 13 84 14 6 15 83 16 3 17 2 18 1 19 80 20 81 21 82 22 11 23
REMARK SMILES IDX 19 25 20 26 21 27 22 28 23 29 24 30 25 31 26 32 27 33 79 34
REMARK SMILES IDX 28 35 78 36 29 37 30 38 31 39 72 40 32 41 77 42 71 43 73 44
REMARK SMILES IDX 33 45 76 46 70 47 69 48 34 50 60 51 43 52 59 53 44 54 47 55
REMARK SMILES IDX 58 56 74 57 45 58 46 59 57 61 75 62 48 63 35 64 36 65 41 66
REMARK SMILES IDX 37 67 38 68 40 69 42 70 39 71 61 72 62 73 67 74 63 75 64 76
REMARK SMILES IDX 66 77 68 78 65 79 49 80 50 81 55 82 51 83 52 84 54 85 56 86
REMARK SMILES IDX 53 87
REMARK H PARENT 11 24 73 49 47 60
REMARK Flexibility Score: inf
ROOT
ATOM      1  C   UNL A   1      32.052  29.771  26.780  1.00  0.00     0.188 C 
ENDROOT
BRANCH   1   2
ATOM      2  O   UNL A   1      31.908  28.833  25.743  1.00  0.00    -0.376 OA
BRANCH   2   3
ATOM      3  C   UNL A   1      32.171  29.218  24.404  1.00  0.00     0.202 C 
BRANCH   3   4
ATOM      4  C   UNL A   1      32.889  28.364  23.336  1.00  0.00     0.261 C 
BRANCH   4   5
ATOM      5  O   UNL A   1      33.452  27.104  23.720  1.00  0.00    -0.461 OA
BRANCH   5   6
ATOM      6  C   UNL A   1      33.371  26.091  22.795  1.00  0.00     0.339 C 
ATOM      7  O   UNL A   1      33.734  26.185  21.631  1.00  0.00    -0.249 OA
BRANCH   6   8
ATOM      8  C   UNL A   1      32.691  24.837  23.419  1.00  0.00     0.170 C 
BRANCH   8   9
ATOM      9  C   UNL A   1      33.717  23.631  23.324  1.00  0.00     0.060 C 
ATOM     10  C   UNL A   1      35.072  23.865  24.019  1.00  0.00     0.016 C 
BRANCH   9  11
ATOM     11  C   UNL A   1      33.116  22.296  23.708  1.00  0.00    -0.041 A 
ATOM     12  C   UNL A   1      32.693  19.575  24.198  1.00  0.00     0.119 A 
ATOM     13  C   UNL A   1      32.150  20.181  23.063  1.00  0.00     0.047 A 
ATOM     14  C   UNL A   1      33.344  20.358  25.144  1.00  0.00     0.047 A 
ATOM     15  C   UNL A   1      32.339  21.542  22.822  1.00  0.00     0.008 A 
ATOM     16  C   UNL A   1      33.533  21.715  24.912  1.00  0.00     0.008 A 
BRANCH  12  17
ATOM     17  O   UNL A   1      32.613  18.212  24.235  1.00  0.00    -0.494 OA
BRANCH  17  18
ATOM     18  C   UNL A   1      32.993  17.494  23.061  1.00  0.00     0.226 C 
ATOM     19  C   UNL A   1      34.256  16.664  23.252  1.00  0.00     0.049 C 
ENDBRANCH  17  18
ENDBRANCH  12  17
ENDBRANCH   9  11
ENDBRANCH   8   9
BRANCH   8  20
ATOM     20  C   UNL A   1      32.131  25.193  24.866  1.00  0.00     0.027 C 
ATOM     21  C   UNL A   1      30.802  24.517  25.246  1.00  0.00     0.011 C 
ATOM     22  C   UNL A   1      33.094  24.859  26.018  1.00  0.00     0.011 C 
ENDBRANCH   8  20
BRANCH   8  23
ATOM     23  O   UNL A   1      31.551  24.402  22.650  1.00  0.00    -0.377 OA
ATOM     24  H   UNL A   1      30.824  25.035  22.762  1.00  0.00     0.212 HD
ENDBRANCH   8  23
ENDBRANCH   6   8
ENDBRANCH   5   6
ENDBRANCH   4   5
ENDBRANCH   3   4
ENDBRANCH   2   3
ENDBRANCH   1   2
BRANCH   1  25
ATOM     25  C   UNL A   1      33.438  30.416  26.938  1.00  0.00     0.188 C 
BRANCH  25  26
ATOM     26  O   UNL A   1      33.578  31.661  27.585  1.00  0.00    -0.376 OA
BRANCH  26  27
ATOM     27  C   UNL A   1      34.862  32.026  28.058  1.00  0.00     0.202 C 
BRANCH  27  28
ATOM     28  C   UNL A   1      35.437  31.508  29.397  1.00  0.00     0.261 C 
BRANCH  28  29
ATOM     29  O   UNL A   1      35.865  30.136  29.454  1.00  0.00    -0.460 OA
BRANCH  29  30
ATOM     30  C   UNL A   1      36.665  29.803  30.499  1.00  0.00     0.338 C 
ATOM     31  O   UNL A   1      36.307  29.413  31.603  1.00  0.00    -0.246 OA
BRANCH  30  32
ATOM     32  C   UNL A   1      38.080  29.765  30.061  1.00  0.00     0.060 A 
ATOM     33  C   UNL A   1      38.355  29.702  28.686  1.00  0.00     0.016 A 
ATOM     34  C   UNL A   1      39.129  29.753  30.980  1.00  0.00     0.016 A 
ATOM     35  C   UNL A   1      39.673  29.616  28.227  1.00  0.00     0.010 A 
ATOM     36  C   UNL A   1      40.450  29.627  30.519  1.00  0.00     0.010 A 
ATOM     37  C   UNL A   1      40.729  29.535  29.143  1.00  0.00    -0.014 A 
BRANCH  37  38
ATOM     38  C   UNL A   1      42.085  29.145  28.669  1.00  0.00     0.031 A 
ATOM     39  C   UNL A   1      42.322  27.708  28.284  1.00  0.00     0.074 A 
ATOM     40  C   UNL A   1      43.084  30.038  28.540  1.00  0.00     0.049 A 
ATOM     41  N   UNL A   1      43.426  27.116  27.903  1.00  0.00    -0.248 NA
ATOM     42  C   UNL A   1      41.148  26.821  28.332  1.00  0.00     0.031 C 
ATOM     43  C   UNL A   1      42.983  31.471  28.803  1.00  0.00     0.029 A 
ATOM     44  N   UNL A   1      44.393  29.857  28.157  1.00  0.00    -0.354 N 
ATOM     45  C   UNL A   1      43.079  25.794  27.656  1.00  0.00     0.074 A 
ATOM     46  C   UNL A   1      41.672  25.661  27.967  1.00  0.00     0.031 C 
ATOM     47  C   UNL A   1      44.185  32.038  28.589  1.00  0.00     0.029 A 
ATOM     48  C   UNL A   1      45.149  31.004  28.211  1.00  0.00     0.049 A 
ATOM     49  H   UNL A   1      44.754  28.987  27.870  1.00  0.00     0.167 HD
ATOM     50  C   UNL A   1      43.854  24.780  27.203  1.00  0.00     0.037 A 
ATOM     51  C   UNL A   1      46.470  31.189  28.007  1.00  0.00     0.037 A 
ATOM     52  C   UNL A   1      45.260  24.895  26.914  1.00  0.00     0.049 A 
ATOM     53  C   UNL A   1      47.341  30.014  27.629  1.00  0.00     0.074 A 
ATOM     54  C   UNL A   1      46.134  23.912  26.481  1.00  0.00     0.029 A 
ATOM     55  N   UNL A   1      46.000  26.061  27.036  1.00  0.00    -0.354 N 
ATOM     56  N   UNL A   1      47.005  28.767  27.400  1.00  0.00    -0.248 NA
ATOM     57  C   UNL A   1      48.782  30.275  27.482  1.00  0.00     0.031 C 
ATOM     58  C   UNL A   1      47.412  24.472  26.390  1.00  0.00     0.029 A 
ATOM     59  C   UNL A   1      47.323  25.817  26.707  1.00  0.00     0.049 A 
ATOM     60  H   UNL A   1      45.638  26.933  27.317  1.00  0.00     0.167 HD
ATOM     61  C   UNL A   1      48.179  28.112  27.039  1.00  0.00     0.074 A 
ATOM     62  C   UNL A   1      49.235  29.100  27.069  1.00  0.00     0.031 C 
ATOM     63  C   UNL A   1      48.366  26.810  26.714  1.00  0.00     0.037 A 
BRANCH  50  64
ATOM     64  C   UNL A   1      43.198  23.444  27.015  1.00  0.00     0.057 A 
ATOM     65  C   UNL A   1      42.897  22.612  28.101  1.00  0.00     0.134 A 
ATOM     66  C   UNL A   1      42.838  22.996  25.738  1.00  0.00     0.134 A 
ATOM     67  F   UNL A   1      43.230  22.975  29.349  1.00  0.00    -0.206 F 
ATOM     68  C   UNL A   1      42.282  21.372  27.923  1.00  0.00     0.040 A 
ATOM     69  C   UNL A   1      42.196  21.771  25.549  1.00  0.00     0.040 A 
ATOM     70  F   UNL A   1      43.093  23.745  24.655  1.00  0.00    -0.206 F 
ATOM     71  C   UNL A   1      41.922  20.952  26.643  1.00  0.00     0.006 A 
ENDBRANCH  50  64
BRANCH  51  72
ATOM     72  C   UNL A   1      47.085  32.533  28.185  1.00  0.00     0.057 A 
ATOM     73  C   UNL A   1      47.631  32.927  29.413  1.00  0.00     0.134 A 
ATOM     74  C   UNL A   1      47.059  33.487  27.159  1.00  0.00     0.134 A 
ATOM     75  F   UNL A   1      47.656  32.073  30.447  1.00  0.00    -0.206 F 
ATOM     76  C   UNL A   1      48.096  34.228  29.626  1.00  0.00     0.040 A 
ATOM     77  C   UNL A   1      47.550  34.780  27.349  1.00  0.00     0.040 A 
ATOM     78  F   UNL A   1      46.542  33.180  25.961  1.00  0.00    -0.206 F 
ATOM     79  C   UNL A   1      48.058  35.158  28.590  1.00  0.00     0.006 A 
ENDBRANCH  51  72
BRANCH  63  80
ATOM     80  C   UNL A   1      49.748  26.384  26.300  1.00  0.00     0.057 A 
ATOM     81  C   UNL A   1      50.216  26.533  24.988  1.00  0.00     0.134 A 
ATOM     82  C   UNL A   1      50.638  25.849  27.242  1.00  0.00     0.134 A 
ATOM     83  F   UNL A   1      49.416  27.029  24.033  1.00  0.00    -0.206 F 
ATOM     84  C   UNL A   1      51.505  26.139  24.622  1.00  0.00     0.040 A 
ATOM     85  C   UNL A   1      51.939  25.482  26.896  1.00  0.00     0.040 A 
ATOM     86  F   UNL A   1      50.263  25.688  28.520  1.00  0.00    -0.206 F 
ATOM     87  C   UNL A   1      52.375  25.618  25.580  1.00  0.00     0.006 A 
ENDBRANCH  63  80
ENDBRANCH  37  38
ENDBRANCH  30  32
ENDBRANCH  29  30
ENDBRANCH  28  29
ENDBRANCH  27  28
ENDBRANCH  26  27
ENDBRANCH  25  26
ENDBRANCH   1  25
TORSDOF 23
ENDMDL
MODEL 3
REMARK VINA RESULT:      -9.3      4.525      9.763
REMARK SMILES CCOc1ccc([C@H](C)[C@](O)(C(=O)OCCOCCOCCOC(=O)c2ccc(-c3c4nc(c(-c5c(F)cccc5F)c5ccc([nH]5)c(-c5c(F)cccc5F)c5nc(c(-c6c(F)cccc6F)c6ccc3[nH]6)C=C5)C=C4)cc2)C(C)C)cc1
REMARK SMILES IDX 18 1 17 2 16 3 15 4 14 5 12 6 13 7 10 8 8 9 9 10 7 11 4 12
REMARK SMILES IDX 5 13 84 14 6 15 83 16 3 17 2 18 1 19 80 20 81 21 82 22 11 23
REMARK SMILES IDX 19 25 20 26 21 27 22 28 23 29 24 30 25 31 26 32 27 33 79 34
REMARK SMILES IDX 28 35 78 36 29 37 30 38 31 39 72 40 32 41 77 42 71 43 73 44
REMARK SMILES IDX 33 45 76 46 70 47 69 48 34 50 60 51 43 52 59 53 44 54 47 55
REMARK SMILES IDX 58 56 74 57 45 58 46 59 57 61 75 62 48 63 35 64 36 65 41 66
REMARK SMILES IDX 37 67 38 68 40 69 42 70 39 71 61 72 62 73 67 74 63 75 64 76
REMARK SMILES IDX 66 77 68 78 65 79 49 80 50 81 55 82 51 83 52 84 54 85 56 86
REMARK SMILES IDX 53 87
REMARK H PARENT 11 24 73 49 47 60
REMARK Flexibility Score: inf
ROOT
ATOM      1  C   UNL A   1      39.543  21.785  26.267  1.00  0.00     0.188 C 
ENDROOT
BRANCH   1   2
ATOM      2  O   UNL A   1      38.522  20.969  25.752  1.00  0.00    -0.376 OA
BRANCH   2   3
ATOM      3  C   UNL A   1      37.596  21.503  24.820  1.00  0.00     0.202 C 
BRANCH   3   4
ATOM      4  C   UNL A   1      36.798  22.814  24.980  1.00  0.00     0.261 C 
BRANCH   4   5
ATOM      5  O   UNL A   1      35.380  22.791  24.784  1.00  0.00    -0.461 OA
BRANCH   5   6
ATOM      6  C   UNL A   1      34.608  22.653  25.913  1.00  0.00     0.339 C 
ATOM      7  O   UNL A   1      34.984  22.921  27.046  1.00  0.00    -0.249 OA
BRANCH   6   8
ATOM      8  C   UNL A   1      33.221  22.045  25.554  1.00  0.00     0.170 C 
BRANCH   8   9
ATOM      9  C   UNL A   1      32.161  23.225  25.546  1.00  0.00     0.060 C 
ATOM     10  C   UNL A   1      31.284  23.328  26.808  1.00  0.00     0.016 C 
BRANCH   9  11
ATOM     11  C   UNL A   1      32.753  24.565  25.166  1.00  0.00    -0.041 A 
ATOM     12  C   UNL A   1      33.120  27.267  24.543  1.00  0.00     0.119 A 
ATOM     13  C   UNL A   1      33.095  26.306  23.530  1.00  0.00     0.047 A 
ATOM     14  C   UNL A   1      33.081  26.859  25.871  1.00  0.00     0.047 A 
ATOM     15  C   UNL A   1      32.932  24.953  23.834  1.00  0.00     0.008 A 
ATOM     16  C   UNL A   1      32.923  25.514  26.181  1.00  0.00     0.008 A 
BRANCH  12  17
ATOM     17  O   UNL A   1      33.088  28.566  24.124  1.00  0.00    -0.494 OA
BRANCH  17  18
ATOM     18  C   UNL A   1      31.951  29.351  24.485  1.00  0.00     0.226 C 
ATOM     19  C   UNL A   1      32.130  30.089  25.805  1.00  0.00     0.049 C 
ENDBRANCH  17  18
ENDBRANCH  12  17
ENDBRANCH   9  11
ENDBRANCH   8   9
BRANCH   8  20
ATOM     20  C   UNL A   1      33.342  21.178  24.224  1.00  0.00     0.027 C 
ATOM     21  C   UNL A   1      33.767  19.713  24.426  1.00  0.00     0.011 C 
ATOM     22  C   UNL A   1      32.049  21.109  23.393  1.00  0.00     0.011 C 
ENDBRANCH   8  20
BRANCH   8  23
ATOM     23  O   UNL A   1      32.747  21.141  26.573  1.00  0.00    -0.377 OA
ATOM     24  H   UNL A   1      33.424  20.468  26.749  1.00  0.00     0.212 HD
ENDBRANCH   8  23
ENDBRANCH   6   8
ENDBRANCH   5   6
ENDBRANCH   4   5
ENDBRANCH   3   4
ENDBRANCH   2   3
ENDBRANCH   1   2
BRANCH   1  25
ATOM     25  C   UNL A   1      40.816  21.071  26.751  1.00  0.00     0.188 C 
BRANCH  25  26
ATOM     26  O   UNL A   1      41.802  20.665  25.828  1.00  0.00    -0.376 OA
BRANCH  26  27
ATOM     27  C   UNL A   1      42.956  21.474  25.687  1.00  0.00     0.202 C 
BRANCH  27  28
ATOM     28  C   UNL A   1      42.930  22.851  24.985  1.00  0.00     0.261 C 
BRANCH  28  29
ATOM     29  O   UNL A   1      44.169  23.577  24.893  1.00  0.00    -0.460 OA
BRANCH  29  30
ATOM     30  C   UNL A   1      44.799  23.835  26.067  1.00  0.00     0.338 C 
ATOM     31  O   UNL A   1      45.941  23.517  26.373  1.00  0.00    -0.246 OA
BRANCH  30  32
ATOM     32  C   UNL A   1      43.983  24.761  26.886  1.00  0.00     0.060 A 
ATOM     33  C   UNL A   1      44.246  26.138  26.804  1.00  0.00     0.016 A 
ATOM     34  C   UNL A   1      42.998  24.294  27.756  1.00  0.00     0.016 A 
ATOM     35  C   UNL A   1      43.536  27.047  27.594  1.00  0.00     0.010 A 
ATOM     36  C   UNL A   1      42.312  25.204  28.577  1.00  0.00     0.010 A 
ATOM     37  C   UNL A   1      42.593  26.582  28.518  1.00  0.00    -0.014 A 
BRANCH  37  38
ATOM     38  C   UNL A   1      42.062  27.508  29.556  1.00  0.00     0.031 A 
ATOM     39  C   UNL A   1      42.743  27.542  30.899  1.00  0.00     0.074 A 
ATOM     40  C   UNL A   1      41.026  28.334  29.318  1.00  0.00     0.049 A 
ATOM     41  N   UNL A   1      42.431  28.215  31.978  1.00  0.00    -0.248 NA
ATOM     42  C   UNL A   1      43.944  26.703  31.039  1.00  0.00     0.031 C 
ATOM     43  C   UNL A   1      40.317  28.466  28.049  1.00  0.00     0.029 A 
ATOM     44  N   UNL A   1      40.387  29.220  30.155  1.00  0.00    -0.354 N 
ATOM     45  C   UNL A   1      43.400  27.890  32.919  1.00  0.00     0.074 A 
ATOM     46  C   UNL A   1      44.288  26.931  32.297  1.00  0.00     0.031 C 
ATOM     47  C   UNL A   1      39.328  29.368  28.195  1.00  0.00     0.029 A 
ATOM     48  C   UNL A   1      39.311  29.850  29.576  1.00  0.00     0.049 A 
ATOM     49  H   UNL A   1      40.675  29.388  31.082  1.00  0.00     0.167 HD
ATOM     50  C   UNL A   1      43.548  28.352  34.183  1.00  0.00     0.037 A 
ATOM     51  C   UNL A   1      38.403  30.693  30.109  1.00  0.00     0.037 A 
ATOM     52  C   UNL A   1      42.658  29.286  34.820  1.00  0.00     0.049 A 
ATOM     53  C   UNL A   1      38.513  31.092  31.562  1.00  0.00     0.074 A 
ATOM     54  C   UNL A   1      42.710  29.787  36.110  1.00  0.00     0.029 A 
ATOM     55  N   UNL A   1      41.547  29.857  34.217  1.00  0.00    -0.354 N 
ATOM     56  N   UNL A   1      39.432  30.779  32.445  1.00  0.00    -0.248 NA
ATOM     57  C   UNL A   1      37.454  31.965  32.094  1.00  0.00     0.031 C 
ATOM     58  C   UNL A   1      41.604  30.620  36.303  1.00  0.00     0.029 A 
ATOM     59  C   UNL A   1      40.896  30.687  35.115  1.00  0.00     0.049 A 
ATOM     60  H   UNL A   1      41.263  29.695  33.288  1.00  0.00     0.167 HD
ATOM     61  C   UNL A   1      39.086  31.450  33.614  1.00  0.00     0.074 A 
ATOM     62  C   UNL A   1      37.881  32.197  33.327  1.00  0.00     0.031 C 
ATOM     63  C   UNL A   1      39.711  31.448  34.817  1.00  0.00     0.037 A 
BRANCH  50  64
ATOM     64  C   UNL A   1      44.711  27.829  34.975  1.00  0.00     0.057 A 
ATOM     65  C   UNL A   1      45.995  28.377  34.848  1.00  0.00     0.134 A 
ATOM     66  C   UNL A   1      44.541  26.786  35.893  1.00  0.00     0.134 A 
ATOM     67  F   UNL A   1      46.228  29.368  33.974  1.00  0.00    -0.206 F 
ATOM     68  C   UNL A   1      47.072  27.891  35.590  1.00  0.00     0.040 A 
ATOM     69  C   UNL A   1      45.605  26.311  36.662  1.00  0.00     0.040 A 
ATOM     70  F   UNL A   1      43.338  26.219  36.067  1.00  0.00    -0.206 F 
ATOM     71  C   UNL A   1      46.876  26.860  36.506  1.00  0.00     0.006 A 
ENDBRANCH  50  64
BRANCH  51  72
ATOM     72  C   UNL A   1      37.270  31.207  29.290  1.00  0.00     0.057 A 
ATOM     73  C   UNL A   1      37.308  32.483  28.714  1.00  0.00     0.134 A 
ATOM     74  C   UNL A   1      36.087  30.471  29.141  1.00  0.00     0.134 A 
ATOM     75  F   UNL A   1      38.398  33.254  28.849  1.00  0.00    -0.206 F 
ATOM     76  C   UNL A   1      36.202  33.023  28.052  1.00  0.00     0.040 A 
ATOM     77  C   UNL A   1      34.986  30.986  28.454  1.00  0.00     0.040 A 
ATOM     78  F   UNL A   1      35.979  29.246  29.675  1.00  0.00    -0.206 F 
ATOM     79  C   UNL A   1      35.037  32.271  27.919  1.00  0.00     0.006 A 
ENDBRANCH  51  72
BRANCH  63  80
ATOM     80  C   UNL A   1      39.145  32.326  35.899  1.00  0.00     0.057 A 
ATOM     81  C   UNL A   1      38.245  31.845  36.859  1.00  0.00     0.134 A 
ATOM     82  C   UNL A   1      39.539  33.667  36.004  1.00  0.00     0.134 A 
ATOM     83  F   UNL A   1      37.817  30.575  36.814  1.00  0.00    -0.206 F 
ATOM     84  C   UNL A   1      37.734  32.672  37.862  1.00  0.00     0.040 A 
ATOM     85  C   UNL A   1      39.061  34.495  37.022  1.00  0.00     0.040 A 
ATOM     86  F   UNL A   1      40.408  34.193  35.128  1.00  0.00    -0.206 F 
ATOM     87  C   UNL A   1      38.149  34.000  37.950  1.00  0.00     0.006 A 
ENDBRANCH  63  80
ENDBRANCH  37  38
ENDBRANCH  30  32
ENDBRANCH  29  30
ENDBRANCH  28  29
ENDBRANCH  27  28
ENDBRANCH  26  27
ENDBRANCH  25  26
ENDBRANCH   1  25
TORSDOF 23
ENDMDL
