MODEL 1
REMARK VINA RESULT:     -10.7      0.000      0.000
REMARK SMILES Nc1c(CC(=O)OCCOCCOCCOC(=O)c2ccc(-c3c4nc(c(-c5c(F)cccc5F)c5ccc([nH]5)c(-c5c(F)cccc5F)c5nc(c(-c6c(F)cccc6F)c6ccc3[nH]6)C=C5)C=C4)cc2)cccc1C(=O)c1ccc(Br)cc1
REMARK SMILES IDX 11 1 10 2 9 3 8 4 7 5 5 6 6 7 4 8 3 9 2 10 76 11 73 12 75 13
REMARK SMILES IDX 74 14 1 15 77 18 78 19 79 20 80 21 85 22 81 23 84 24 82 25
REMARK SMILES IDX 83 26 12 27 13 28 14 29 15 30 16 31 17 32 18 33 19 34 20 35
REMARK SMILES IDX 72 36 21 37 71 38 22 39 23 40 24 41 65 42 25 43 70 44 64 45
REMARK SMILES IDX 66 46 26 47 69 48 63 49 62 50 27 52 53 53 36 54 52 55 37 56
REMARK SMILES IDX 40 57 51 58 67 59 38 60 39 61 50 63 68 64 41 65 28 66 29 67
REMARK SMILES IDX 34 68 30 69 31 70 33 71 35 72 32 73 54 74 55 75 60 76 56 77
REMARK SMILES IDX 57 78 59 79 61 80 58 81 42 82 43 83 48 84 44 85 45 86 47 87
REMARK SMILES IDX 49 88 46 89
REMARK H PARENT 1 16 1 17 66 51 40 62
REMARK Flexibility Score: inf
ROOT
ATOM      1  C   UNL A   1      33.842  33.178  28.043  1.00  0.00     0.188 C 
ENDROOT
BRANCH   1   2
ATOM      2  O   UNL A   1      34.430  31.925  27.688  1.00  0.00    -0.376 OA
BRANCH   2   3
ATOM      3  C   UNL A   1      33.587  30.794  27.510  1.00  0.00     0.202 C 
BRANCH   3   4
ATOM      4  C   UNL A   1      32.204  31.077  26.915  1.00  0.00     0.261 C 
BRANCH   4   5
ATOM      5  O   UNL A   1      31.613  29.924  26.280  1.00  0.00    -0.463 OA
BRANCH   5   6
ATOM      6  C   UNL A   1      32.002  29.650  25.013  1.00  0.00     0.310 C 
ATOM      7  O   UNL A   1      33.172  29.678  24.637  1.00  0.00    -0.252 OA
BRANCH   6   8
ATOM      8  C   UNL A   1      30.904  29.141  24.098  1.00  0.00     0.160 C 
BRANCH   8   9
ATOM      9  C   UNL A   1      30.830  27.677  23.690  1.00  0.00    -0.013 A 
ATOM     10  C   UNL A   1      31.787  27.064  22.855  1.00  0.00     0.047 A 
ATOM     11  C   UNL A   1      31.704  25.656  22.649  1.00  0.00     0.046 A 
ATOM     12  C   UNL A   1      29.816  26.884  24.269  1.00  0.00     0.006 A 
ATOM     13  C   UNL A   1      30.627  24.916  23.161  1.00  0.00     0.014 A 
ATOM     14  C   UNL A   1      29.683  25.529  23.970  1.00  0.00     0.001 A 
BRANCH  10  15
ATOM     15  N   UNL A   1      32.770  27.849  22.267  1.00  0.00    -0.398 N 
ATOM     16  H   UNL A   1      32.665  28.828  22.234  1.00  0.00     0.156 HD
ATOM     17  H   UNL A   1      33.573  27.427  21.883  1.00  0.00     0.156 HD
ENDBRANCH  10  15
BRANCH  11  18
ATOM     18  C   UNL A   1      32.757  24.842  21.967  1.00  0.00     0.195 C 
ATOM     19  O   UNL A   1      32.898  24.888  20.749  1.00  0.00    -0.289 OA
BRANCH  18  20
ATOM     20  C   UNL A   1      33.639  23.946  22.749  1.00  0.00     0.023 A 
ATOM     21  C   UNL A   1      34.649  24.530  23.519  1.00  0.00     0.013 A 
ATOM     22  C   UNL A   1      33.401  22.567  22.814  1.00  0.00     0.013 A 
ATOM     23  C   UNL A   1      35.358  23.748  24.431  1.00  0.00     0.016 A 
ATOM     24  C   UNL A   1      34.112  21.789  23.727  1.00  0.00     0.016 A 
ATOM     25  C   UNL A   1      35.070  22.387  24.547  1.00  0.00     0.018 A 
ATOM     26  Br  UNL A   1      35.956  21.353  25.856  1.00  0.00    -0.051 Br
ENDBRANCH  18  20
ENDBRANCH  11  18
ENDBRANCH   8   9
ENDBRANCH   6   8
ENDBRANCH   5   6
ENDBRANCH   4   5
ENDBRANCH   3   4
ENDBRANCH   2   3
ENDBRANCH   1   2
BRANCH   1  27
ATOM     27  C   UNL A   1      34.679  34.465  27.946  1.00  0.00     0.188 C 
BRANCH  27  28
ATOM     28  O   UNL A   1      34.232  35.434  28.875  1.00  0.00    -0.376 OA
BRANCH  28  29
ATOM     29  C   UNL A   1      33.572  34.934  30.015  1.00  0.00     0.202 C 
BRANCH  29  30
ATOM     30  C   UNL A   1      34.501  34.845  31.228  1.00  0.00     0.261 C 
BRANCH  30  31
ATOM     31  O   UNL A   1      35.597  33.916  31.114  1.00  0.00    -0.460 OA
BRANCH  31  32
ATOM     32  C   UNL A   1      35.383  32.644  31.506  1.00  0.00     0.338 C 
ATOM     33  O   UNL A   1      34.365  32.185  32.012  1.00  0.00    -0.246 OA
BRANCH  32  34
ATOM     34  C   UNL A   1      36.536  31.830  31.072  1.00  0.00     0.060 A 
ATOM     35  C   UNL A   1      37.239  31.062  32.011  1.00  0.00     0.016 A 
ATOM     36  C   UNL A   1      36.934  31.841  29.736  1.00  0.00     0.016 A 
ATOM     37  C   UNL A   1      38.354  30.312  31.621  1.00  0.00     0.010 A 
ATOM     38  C   UNL A   1      38.060  31.112  29.351  1.00  0.00     0.010 A 
ATOM     39  C   UNL A   1      38.790  30.361  30.292  1.00  0.00    -0.014 A 
BRANCH  39  40
ATOM     40  C   UNL A   1      40.095  29.791  29.877  1.00  0.00     0.031 A 
ATOM     41  C   UNL A   1      41.268  30.722  29.765  1.00  0.00     0.074 A 
ATOM     42  C   UNL A   1      40.225  28.497  29.534  1.00  0.00     0.049 A 
ATOM     43  N   UNL A   1      42.422  30.543  29.179  1.00  0.00    -0.248 NA
ATOM     44  C   UNL A   1      41.105  32.044  30.393  1.00  0.00     0.031 C 
ATOM     45  C   UNL A   1      39.191  27.474  29.668  1.00  0.00     0.029 A 
ATOM     46  N   UNL A   1      41.285  27.834  28.963  1.00  0.00    -0.354 N 
ATOM     47  C   UNL A   1      43.110  31.740  29.335  1.00  0.00     0.074 A 
ATOM     48  C   UNL A   1      42.241  32.640  30.061  1.00  0.00     0.031 C 
ATOM     49  C   UNL A   1      39.654  26.319  29.158  1.00  0.00     0.029 A 
ATOM     50  C   UNL A   1      40.991  26.539  28.609  1.00  0.00     0.049 A 
ATOM     51  H   UNL A   1      42.168  28.246  28.821  1.00  0.00     0.167 HD
ATOM     52  C   UNL A   1      44.352  32.060  28.902  1.00  0.00     0.037 A 
ATOM     53  C   UNL A   1      41.699  25.656  27.876  1.00  0.00     0.037 A 
ATOM     54  C   UNL A   1      45.208  31.157  28.180  1.00  0.00     0.049 A 
ATOM     55  C   UNL A   1      43.039  26.064  27.315  1.00  0.00     0.074 A 
ATOM     56  C   UNL A   1      46.483  31.382  27.693  1.00  0.00     0.029 A 
ATOM     57  N   UNL A   1      44.869  29.857  27.835  1.00  0.00    -0.354 N 
ATOM     58  N   UNL A   1      43.680  27.201  27.446  1.00  0.00    -0.248 NA
ATOM     59  C   UNL A   1      43.751  25.070  26.497  1.00  0.00     0.031 C 
ATOM     60  C   UNL A   1      46.896  30.235  27.008  1.00  0.00     0.029 A 
ATOM     61  C   UNL A   1      45.904  29.274  27.126  1.00  0.00     0.049 A 
ATOM     62  H   UNL A   1      44.019  29.416  28.062  1.00  0.00     0.167 HD
ATOM     63  C   UNL A   1      44.884  27.042  26.769  1.00  0.00     0.074 A 
ATOM     64  C   UNL A   1      44.884  25.702  26.222  1.00  0.00     0.031 C 
ATOM     65  C   UNL A   1      45.902  27.925  26.621  1.00  0.00     0.037 A 
BRANCH  52  66
ATOM     66  C   UNL A   1      44.841  33.455  29.162  1.00  0.00     0.057 A 
ATOM     67  C   UNL A   1      45.508  33.802  30.344  1.00  0.00     0.134 A 
ATOM     68  C   UNL A   1      44.665  34.460  28.201  1.00  0.00     0.134 A 
ATOM     69  F   UNL A   1      45.695  32.892  31.312  1.00  0.00    -0.206 F 
ATOM     70  C   UNL A   1      45.959  35.104  30.571  1.00  0.00     0.040 A 
ATOM     71  C   UNL A   1      45.139  35.756  28.404  1.00  0.00     0.040 A 
ATOM     72  F   UNL A   1      44.039  34.195  27.045  1.00  0.00    -0.206 F 
ATOM     73  C   UNL A   1      45.783  36.083  29.597  1.00  0.00     0.006 A 
ENDBRANCH  52  66
BRANCH  53  74
ATOM     74  C   UNL A   1      41.146  24.305  27.593  1.00  0.00     0.057 A 
ATOM     75  C   UNL A   1      40.130  24.124  26.646  1.00  0.00     0.134 A 
ATOM     76  C   UNL A   1      41.594  23.169  28.279  1.00  0.00     0.134 A 
ATOM     77  F   UNL A   1      39.639  25.175  25.975  1.00  0.00    -0.206 F 
ATOM     78  C   UNL A   1      39.568  22.868  26.406  1.00  0.00     0.040 A 
ATOM     79  C   UNL A   1      41.062  21.903  28.027  1.00  0.00     0.040 A 
ATOM     80  F   UNL A   1      42.562  23.272  29.201  1.00  0.00    -0.206 F 
ATOM     81  C   UNL A   1      40.038  21.752  27.094  1.00  0.00     0.006 A 
ENDBRANCH  53  74
BRANCH  65  82
ATOM     82  C   UNL A   1      47.142  27.459  25.915  1.00  0.00     0.057 A 
ATOM     83  C   UNL A   1      48.205  26.850  26.593  1.00  0.00     0.134 A 
ATOM     84  C   UNL A   1      47.224  27.535  24.518  1.00  0.00     0.134 A 
ATOM     85  F   UNL A   1      48.193  26.755  27.931  1.00  0.00    -0.206 F 
ATOM     86  C   UNL A   1      49.307  26.337  25.905  1.00  0.00     0.040 A 
ATOM     87  C   UNL A   1      48.307  27.003  23.818  1.00  0.00     0.040 A 
ATOM     88  F   UNL A   1      46.234  28.097  23.807  1.00  0.00    -0.206 F 
ATOM     89  C   UNL A   1      49.354  26.403  24.513  1.00  0.00     0.006 A 
ENDBRANCH  65  82
ENDBRANCH  39  40
ENDBRANCH  32  34
ENDBRANCH  31  32
ENDBRANCH  30  31
ENDBRANCH  29  30
ENDBRANCH  28  29
ENDBRANCH  27  28
ENDBRANCH   1  27
TORSDOF 21
ENDMDL
MODEL 2
REMARK VINA RESULT:     -10.6      5.186     10.536
REMARK SMILES Nc1c(CC(=O)OCCOCCOCCOC(=O)c2ccc(-c3c4nc(c(-c5c(F)cccc5F)c5ccc([nH]5)c(-c5c(F)cccc5F)c5nc(c(-c6c(F)cccc6F)c6ccc3[nH]6)C=C5)C=C4)cc2)cccc1C(=O)c1ccc(Br)cc1
REMARK SMILES IDX 11 1 10 2 9 3 8 4 7 5 5 6 6 7 4 8 3 9 2 10 76 11 73 12 75 13
REMARK SMILES IDX 74 14 1 15 77 18 78 19 79 20 80 21 85 22 81 23 84 24 82 25
REMARK SMILES IDX 83 26 12 27 13 28 14 29 15 30 16 31 17 32 18 33 19 34 20 35
REMARK SMILES IDX 72 36 21 37 71 38 22 39 23 40 24 41 65 42 25 43 70 44 64 45
REMARK SMILES IDX 66 46 26 47 69 48 63 49 62 50 27 52 53 53 36 54 52 55 37 56
REMARK SMILES IDX 40 57 51 58 67 59 38 60 39 61 50 63 68 64 41 65 28 66 29 67
REMARK SMILES IDX 34 68 30 69 31 70 33 71 35 72 32 73 54 74 55 75 60 76 56 77
REMARK SMILES IDX 57 78 59 79 61 80 58 81 42 82 43 83 48 84 44 85 45 86 47 87
REMARK SMILES IDX 49 88 46 89
REMARK H PARENT 1 16 1 17 66 51 40 62
REMARK Flexibility Score: inf
ROOT
ATOM      1  C   UNL A   1      44.642  19.197  24.963  1.00  0.00     0.188 C 
ENDROOT
BRANCH   1   2
ATOM      2  O   UNL A   1      44.006  18.348  25.920  1.00  0.00    -0.376 OA
BRANCH   2   3
ATOM      3  C   UNL A   1      42.609  18.484  26.143  1.00  0.00     0.202 C 
BRANCH   3   4
ATOM      4  C   UNL A   1      42.184  19.661  27.028  1.00  0.00     0.261 C 
BRANCH   4   5
ATOM      5  O   UNL A   1      40.753  19.828  27.102  1.00  0.00    -0.463 OA
BRANCH   5   6
ATOM      6  C   UNL A   1      40.269  21.082  26.946  1.00  0.00     0.310 C 
ATOM      7  O   UNL A   1      40.505  22.006  27.721  1.00  0.00    -0.252 OA
BRANCH   6   8
ATOM      8  C   UNL A   1      39.528  21.329  25.646  1.00  0.00     0.160 C 
BRANCH   8   9
ATOM      9  C   UNL A   1      38.026  21.113  25.537  1.00  0.00    -0.013 A 
ATOM     10  C   UNL A   1      37.081  22.081  25.937  1.00  0.00     0.047 A 
ATOM     11  C   UNL A   1      35.704  21.836  25.663  1.00  0.00     0.046 A 
ATOM     12  C   UNL A   1      37.575  19.934  24.907  1.00  0.00     0.006 A 
ATOM     13  C   UNL A   1      35.283  20.611  25.123  1.00  0.00     0.014 A 
ATOM     14  C   UNL A   1      36.218  19.659  24.745  1.00  0.00     0.001 A 
BRANCH  10  15
ATOM     15  N   UNL A   1      37.523  23.230  26.579  1.00  0.00    -0.398 N 
ATOM     16  H   UNL A   1      36.871  23.874  26.940  1.00  0.00     0.156 HD
ATOM     17  H   UNL A   1      38.488  23.401  26.674  1.00  0.00     0.156 HD
ENDBRANCH  10  15
BRANCH  11  18
ATOM     18  C   UNL A   1      34.619  22.851  25.836  1.00  0.00     0.195 C 
ATOM     19  O   UNL A   1      34.138  23.077  26.942  1.00  0.00    -0.289 OA
BRANCH  18  20
ATOM     20  C   UNL A   1      34.088  23.591  24.668  1.00  0.00     0.023 A 
ATOM     21  C   UNL A   1      33.045  23.007  23.943  1.00  0.00     0.013 A 
ATOM     22  C   UNL A   1      34.530  24.884  24.365  1.00  0.00     0.013 A 
ATOM     23  C   UNL A   1      32.375  23.757  22.977  1.00  0.00     0.016 A 
ATOM     24  C   UNL A   1      33.858  25.631  23.398  1.00  0.00     0.016 A 
ATOM     25  C   UNL A   1      32.770  25.073  22.726  1.00  0.00     0.018 A 
ATOM     26  Br  UNL A   1      31.794  26.122  21.494  1.00  0.00    -0.051 Br
ENDBRANCH  18  20
ENDBRANCH  11  18
ENDBRANCH   8   9
ENDBRANCH   6   8
ENDBRANCH   5   6
ENDBRANCH   4   5
ENDBRANCH   3   4
ENDBRANCH   2   3
ENDBRANCH   1   2
BRANCH   1  27
ATOM     27  C   UNL A   1      46.168  19.387  25.011  1.00  0.00     0.188 C 
BRANCH  27  28
ATOM     28  O   UNL A   1      46.513  20.757  24.938  1.00  0.00    -0.376 OA
BRANCH  28  29
ATOM     29  C   UNL A   1      45.517  21.664  25.353  1.00  0.00     0.202 C 
BRANCH  29  30
ATOM     30  C   UNL A   1      45.388  22.856  24.400  1.00  0.00     0.261 C 
BRANCH  30  31
ATOM     31  O   UNL A   1      44.542  23.932  24.851  1.00  0.00    -0.460 OA
BRANCH  31  32
ATOM     32  C   UNL A   1      43.266  23.636  25.165  1.00  0.00     0.338 C 
ATOM     33  O   UNL A   1      42.662  22.600  24.914  1.00  0.00    -0.246 OA
BRANCH  32  34
ATOM     34  C   UNL A   1      42.742  24.718  26.023  1.00  0.00     0.060 A 
ATOM     35  C   UNL A   1      43.103  26.048  25.766  1.00  0.00     0.016 A 
ATOM     36  C   UNL A   1      41.906  24.414  27.096  1.00  0.00     0.016 A 
ATOM     37  C   UNL A   1      42.641  27.080  26.589  1.00  0.00     0.010 A 
ATOM     38  C   UNL A   1      41.464  25.440  27.932  1.00  0.00     0.010 A 
ATOM     39  C   UNL A   1      41.845  26.775  27.699  1.00  0.00    -0.014 A 
BRANCH  39  40
ATOM     40  C   UNL A   1      41.533  27.787  28.737  1.00  0.00     0.031 A 
ATOM     41  C   UNL A   1      42.342  27.773  30.003  1.00  0.00     0.074 A 
ATOM     42  C   UNL A   1      40.511  28.651  28.600  1.00  0.00     0.049 A 
ATOM     43  N   UNL A   1      42.107  28.352  31.150  1.00  0.00    -0.248 NA
ATOM     44  C   UNL A   1      43.582  26.980  29.966  1.00  0.00     0.031 C 
ATOM     45  C   UNL A   1      39.698  28.821  27.399  1.00  0.00     0.029 A 
ATOM     46  N   UNL A   1      39.961  29.525  29.508  1.00  0.00    -0.354 N 
ATOM     47  C   UNL A   1      43.150  27.966  31.984  1.00  0.00     0.074 A 
ATOM     48  C   UNL A   1      44.011  27.096  31.214  1.00  0.00     0.031 C 
ATOM     49  C   UNL A   1      38.728  29.718  27.654  1.00  0.00     0.029 A 
ATOM     50  C   UNL A   1      38.817  30.135  29.052  1.00  0.00     0.049 A 
ATOM     51  H   UNL A   1      40.348  29.696  30.396  1.00  0.00     0.167 HD
ATOM     52  C   UNL A   1      43.361  28.301  33.278  1.00  0.00     0.037 A 
ATOM     53  C   UNL A   1      37.917  30.896  29.708  1.00  0.00     0.037 A 
ATOM     54  C   UNL A   1      42.495  29.167  34.034  1.00  0.00     0.049 A 
ATOM     55  C   UNL A   1      38.115  31.177  31.177  1.00  0.00     0.074 A 
ATOM     56  C   UNL A   1      42.617  29.569  35.352  1.00  0.00     0.029 A 
ATOM     57  N   UNL A   1      41.344  29.758  33.538  1.00  0.00    -0.354 N 
ATOM     58  N   UNL A   1      39.089  30.797  31.969  1.00  0.00    -0.248 NA
ATOM     59  C   UNL A   1      37.085  31.986  31.847  1.00  0.00     0.031 C 
ATOM     60  C   UNL A   1      41.510  30.362  35.669  1.00  0.00     0.029 A 
ATOM     61  C   UNL A   1      40.735  30.507  34.529  1.00  0.00     0.049 A 
ATOM     62  H   UNL A   1      41.010  29.660  32.617  1.00  0.00     0.167 HD
ATOM     63  C   UNL A   1      38.813  31.356  33.212  1.00  0.00     0.074 A 
ATOM     64  C   UNL A   1      37.578  32.097  33.073  1.00  0.00     0.031 C 
ATOM     65  C   UNL A   1      39.524  31.270  34.363  1.00  0.00     0.037 A 
BRANCH  52  66
ATOM     66  C   UNL A   1      44.549  27.698  33.967  1.00  0.00     0.057 A 
ATOM     67  C   UNL A   1      45.762  28.385  34.098  1.00  0.00     0.134 A 
ATOM     68  C   UNL A   1      44.468  26.419  34.534  1.00  0.00     0.134 A 
ATOM     69  F   UNL A   1      45.912  29.607  33.565  1.00  0.00    -0.206 F 
ATOM     70  C   UNL A   1      46.860  27.812  34.744  1.00  0.00     0.040 A 
ATOM     71  C   UNL A   1      45.547  25.848  35.209  1.00  0.00     0.040 A 
ATOM     72  F   UNL A   1      43.334  25.707  34.449  1.00  0.00    -0.206 F 
ATOM     73  C   UNL A   1      46.751  26.544  35.309  1.00  0.00     0.006 A 
ENDBRANCH  52  66
BRANCH  53  74
ATOM     74  C   UNL A   1      36.722  31.422  28.997  1.00  0.00     0.057 A 
ATOM     75  C   UNL A   1      35.636  30.590  28.697  1.00  0.00     0.134 A 
ATOM     76  C   UNL A   1      36.646  32.754  28.573  1.00  0.00     0.134 A 
ATOM     77  F   UNL A   1      35.659  29.297  29.052  1.00  0.00    -0.206 F 
ATOM     78  C   UNL A   1      34.528  31.058  27.987  1.00  0.00     0.040 A 
ATOM     79  C   UNL A   1      35.532  33.244  27.889  1.00  0.00     0.040 A 
ATOM     80  F   UNL A   1      37.653  33.604  28.824  1.00  0.00    -0.206 F 
ATOM     81  C   UNL A   1      34.472  32.391  27.585  1.00  0.00     0.006 A 
ENDBRANCH  53  74
BRANCH  65  82
ATOM     82  C   UNL A   1      39.045  32.057  35.548  1.00  0.00     0.057 A 
ATOM     83  C   UNL A   1      38.318  31.471  36.590  1.00  0.00     0.134 A 
ATOM     84  C   UNL A   1      39.408  33.404  35.688  1.00  0.00     0.134 A 
ATOM     85  F   UNL A   1      37.930  30.190  36.512  1.00  0.00    -0.206 F 
ATOM     86  C   UNL A   1      37.964  32.199  37.729  1.00  0.00     0.040 A 
ATOM     87  C   UNL A   1      39.084  34.134  36.832  1.00  0.00     0.040 A 
ATOM     88  F   UNL A   1      40.115  34.022  34.730  1.00  0.00    -0.206 F 
ATOM     89  C   UNL A   1      38.358  33.531  37.857  1.00  0.00     0.006 A 
ENDBRANCH  65  82
ENDBRANCH  39  40
ENDBRANCH  32  34
ENDBRANCH  31  32
ENDBRANCH  30  31
ENDBRANCH  29  30
ENDBRANCH  28  29
ENDBRANCH  27  28
ENDBRANCH   1  27
TORSDOF 21
ENDMDL
MODEL 3
REMARK VINA RESULT:     -10.6      1.291      2.221
REMARK SMILES Nc1c(CC(=O)OCCOCCOCCOC(=O)c2ccc(-c3c4nc(c(-c5c(F)cccc5F)c5ccc([nH]5)c(-c5c(F)cccc5F)c5nc(c(-c6c(F)cccc6F)c6ccc3[nH]6)C=C5)C=C4)cc2)cccc1C(=O)c1ccc(Br)cc1
REMARK SMILES IDX 11 1 10 2 9 3 8 4 7 5 5 6 6 7 4 8 3 9 2 10 76 11 73 12 75 13
REMARK SMILES IDX 74 14 1 15 77 18 78 19 79 20 80 21 85 22 81 23 84 24 82 25
REMARK SMILES IDX 83 26 12 27 13 28 14 29 15 30 16 31 17 32 18 33 19 34 20 35
REMARK SMILES IDX 72 36 21 37 71 38 22 39 23 40 24 41 65 42 25 43 70 44 64 45
REMARK SMILES IDX 66 46 26 47 69 48 63 49 62 50 27 52 53 53 36 54 52 55 37 56
REMARK SMILES IDX 40 57 51 58 67 59 38 60 39 61 50 63 68 64 41 65 28 66 29 67
REMARK SMILES IDX 34 68 30 69 31 70 33 71 35 72 32 73 54 74 55 75 60 76 56 77
REMARK SMILES IDX 57 78 59 79 61 80 58 81 42 82 43 83 48 84 44 85 45 86 47 87
REMARK SMILES IDX 49 88 46 89
REMARK H PARENT 1 16 1 17 66 51 40 62
REMARK Flexibility Score: inf
ROOT
ATOM      1  C   UNL A   1      33.939  32.727  28.045  1.00  0.00     0.188 C 
ENDROOT
BRANCH   1   2
ATOM      2  O   UNL A   1      34.411  31.492  27.504  1.00  0.00    -0.376 OA
BRANCH   2   3
ATOM      3  C   UNL A   1      33.600  30.330  27.626  1.00  0.00     0.202 C 
BRANCH   3   4
ATOM      4  C   UNL A   1      32.248  30.381  26.907  1.00  0.00     0.261 C 
BRANCH   4   5
ATOM      5  O   UNL A   1      31.799  29.087  26.452  1.00  0.00    -0.463 OA
BRANCH   5   6
ATOM      6  C   UNL A   1      31.422  28.984  25.157  1.00  0.00     0.310 C 
ATOM      7  O   UNL A   1      31.944  29.618  24.242  1.00  0.00    -0.252 OA
BRANCH   6   8
ATOM      8  C   UNL A   1      30.402  27.900  24.867  1.00  0.00     0.160 C 
BRANCH   8   9
ATOM      9  C   UNL A   1      30.820  26.450  24.675  1.00  0.00    -0.013 A 
ATOM     10  C   UNL A   1      31.426  25.686  25.694  1.00  0.00     0.047 A 
ATOM     11  C   UNL A   1      31.650  24.298  25.457  1.00  0.00     0.046 A 
ATOM     12  C   UNL A   1      30.483  25.824  23.457  1.00  0.00     0.006 A 
ATOM     13  C   UNL A   1      31.391  23.731  24.200  1.00  0.00     0.014 A 
ATOM     14  C   UNL A   1      30.807  24.493  23.199  1.00  0.00     0.001 A 
BRANCH  10  15
ATOM     15  N   UNL A   1      31.781  26.308  26.884  1.00  0.00    -0.398 N 
ATOM     16  H   UNL A   1      31.554  27.256  27.030  1.00  0.00     0.156 HD
ATOM     17  H   UNL A   1      32.258  25.803  27.581  1.00  0.00     0.156 HD
ENDBRANCH  10  15
BRANCH  11  18
ATOM     18  C   UNL A   1      32.085  23.325  26.506  1.00  0.00     0.195 C 
ATOM     19  O   UNL A   1      31.471  23.223  27.564  1.00  0.00    -0.289 OA
BRANCH  18  20
ATOM     20  C   UNL A   1      33.282  22.479  26.297  1.00  0.00     0.023 A 
ATOM     21  C   UNL A   1      33.136  21.316  25.536  1.00  0.00     0.013 A 
ATOM     22  C   UNL A   1      34.546  22.884  26.745  1.00  0.00     0.013 A 
ATOM     23  C   UNL A   1      34.270  20.609  25.136  1.00  0.00     0.016 A 
ATOM     24  C   UNL A   1      35.677  22.174  26.343  1.00  0.00     0.016 A 
ATOM     25  C   UNL A   1      35.535  21.055  25.521  1.00  0.00     0.018 A 
ATOM     26  Br  UNL A   1      37.075  20.159  24.891  1.00  0.00    -0.051 Br
ENDBRANCH  18  20
ENDBRANCH  11  18
ENDBRANCH   8   9
ENDBRANCH   6   8
ENDBRANCH   5   6
ENDBRANCH   4   5
ENDBRANCH   3   4
ENDBRANCH   2   3
ENDBRANCH   1   2
BRANCH   1  27
ATOM     27  C   UNL A   1      34.770  34.008  27.853  1.00  0.00     0.188 C 
BRANCH  27  28
ATOM     28  O   UNL A   1      34.294  35.052  28.680  1.00  0.00    -0.376 OA
BRANCH  28  29
ATOM     29  C   UNL A   1      33.617  34.649  29.849  1.00  0.00     0.202 C 
BRANCH  29  30
ATOM     30  C   UNL A   1      34.506  34.740  31.092  1.00  0.00     0.261 C 
BRANCH  30  31
ATOM     31  O   UNL A   1      35.644  33.855  31.118  1.00  0.00    -0.460 OA
BRANCH  31  32
ATOM     32  C   UNL A   1      35.448  32.597  31.560  1.00  0.00     0.338 C 
ATOM     33  O   UNL A   1      34.454  32.155  32.124  1.00  0.00    -0.246 OA
BRANCH  32  34
ATOM     34  C   UNL A   1      36.582  31.769  31.103  1.00  0.00     0.060 A 
ATOM     35  C   UNL A   1      37.289  30.985  32.026  1.00  0.00     0.016 A 
ATOM     36  C   UNL A   1      36.960  31.783  29.761  1.00  0.00     0.016 A 
ATOM     37  C   UNL A   1      38.386  30.222  31.614  1.00  0.00     0.010 A 
ATOM     38  C   UNL A   1      38.069  31.041  29.354  1.00  0.00     0.010 A 
ATOM     39  C   UNL A   1      38.802  30.273  30.278  1.00  0.00    -0.014 A 
BRANCH  39  40
ATOM     40  C   UNL A   1      40.092  29.686  29.840  1.00  0.00     0.031 A 
ATOM     41  C   UNL A   1      41.273  30.603  29.701  1.00  0.00     0.074 A 
ATOM     42  C   UNL A   1      40.201  28.390  29.500  1.00  0.00     0.049 A 
ATOM     43  N   UNL A   1      42.413  30.409  29.092  1.00  0.00    -0.248 NA
ATOM     44  C   UNL A   1      41.138  31.929  30.326  1.00  0.00     0.031 C 
ATOM     45  C   UNL A   1      39.158  27.379  29.658  1.00  0.00     0.029 A 
ATOM     46  N   UNL A   1      41.242  27.713  28.910  1.00  0.00    -0.354 N 
ATOM     47  C   UNL A   1      43.118  31.599  29.230  1.00  0.00     0.074 A 
ATOM     48  C   UNL A   1      42.273  32.511  29.969  1.00  0.00     0.031 C 
ATOM     49  C   UNL A   1      39.598  26.217  29.143  1.00  0.00     0.029 A 
ATOM     50  C   UNL A   1      40.926  26.420  28.567  1.00  0.00     0.049 A 
ATOM     51  H   UNL A   1      42.126  28.114  28.749  1.00  0.00     0.167 HD
ATOM     52  C   UNL A   1      44.354  31.903  28.771  1.00  0.00     0.037 A 
ATOM     53  C   UNL A   1      41.609  25.526  27.824  1.00  0.00     0.037 A 
ATOM     54  C   UNL A   1      45.185  30.988  28.035  1.00  0.00     0.049 A 
ATOM     55  C   UNL A   1      42.942  25.916  27.235  1.00  0.00     0.074 A 
ATOM     56  C   UNL A   1      46.453  31.197  27.522  1.00  0.00     0.029 A 
ATOM     57  N   UNL A   1      44.825  29.691  27.703  1.00  0.00    -0.354 N 
ATOM     58  N   UNL A   1      43.599  27.046  27.347  1.00  0.00    -0.248 NA
ATOM     59  C   UNL A   1      43.627  24.911  26.406  1.00  0.00     0.031 C 
ATOM     60  C   UNL A   1      46.839  30.043  26.833  1.00  0.00     0.029 A 
ATOM     61  C   UNL A   1      45.838  29.093  26.975  1.00  0.00     0.049 A 
ATOM     62  H   UNL A   1      43.975  29.260  27.948  1.00  0.00     0.167 HD
ATOM     63  C   UNL A   1      44.787  26.871  26.648  1.00  0.00     0.074 A 
ATOM     64  C   UNL A   1      44.761  25.530  26.106  1.00  0.00     0.031 C 
ATOM     65  C   UNL A   1      45.812  27.742  26.476  1.00  0.00     0.037 A 
BRANCH  52  66
ATOM     66  C   UNL A   1      44.863  33.294  29.015  1.00  0.00     0.057 A 
ATOM     67  C   UNL A   1      44.591  34.351  28.138  1.00  0.00     0.134 A 
ATOM     68  C   UNL A   1      45.615  33.583  30.162  1.00  0.00     0.134 A 
ATOM     69  F   UNL A   1      43.890  34.139  27.014  1.00  0.00    -0.206 F 
ATOM     70  C   UNL A   1      45.070  35.640  28.380  1.00  0.00     0.040 A 
ATOM     71  C   UNL A   1      46.072  34.874  30.430  1.00  0.00     0.040 A 
ATOM     72  F   UNL A   1      45.909  32.618  31.046  1.00  0.00    -0.206 F 
ATOM     73  C   UNL A   1      45.806  35.906  29.532  1.00  0.00     0.006 A 
ENDBRANCH  52  66
BRANCH  53  74
ATOM     74  C   UNL A   1      41.036  24.180  27.557  1.00  0.00     0.057 A 
ATOM     75  C   UNL A   1      41.525  23.044  28.213  1.00  0.00     0.134 A 
ATOM     76  C   UNL A   1      40.011  23.990  26.621  1.00  0.00     0.134 A 
ATOM     77  F   UNL A   1      42.524  23.155  29.100  1.00  0.00    -0.206 F 
ATOM     78  C   UNL A   1      41.030  21.767  27.936  1.00  0.00     0.040 A 
ATOM     79  C   UNL A   1      39.486  22.724  26.356  1.00  0.00     0.040 A 
ATOM     80  F   UNL A   1      39.500  25.035  25.954  1.00  0.00    -0.206 F 
ATOM     81  C   UNL A   1      40.002  21.606  27.008  1.00  0.00     0.006 A 
ENDBRANCH  53  74
BRANCH  65  82
ATOM     82  C   UNL A   1      47.032  27.260  25.747  1.00  0.00     0.057 A 
ATOM     83  C   UNL A   1      47.248  27.530  24.390  1.00  0.00     0.134 A 
ATOM     84  C   UNL A   1      48.051  26.598  26.446  1.00  0.00     0.134 A 
ATOM     85  F   UNL A   1      46.308  28.150  23.662  1.00  0.00    -0.206 F 
ATOM     86  C   UNL A   1      48.434  27.155  23.754  1.00  0.00     0.040 A 
ATOM     87  C   UNL A   1      49.250  26.242  25.828  1.00  0.00     0.040 A 
ATOM     88  F   UNL A   1      47.910  26.318  27.750  1.00  0.00    -0.206 F 
ATOM     89  C   UNL A   1      49.443  26.520  24.477  1.00  0.00     0.006 A 
ENDBRANCH  65  82
ENDBRANCH  39  40
ENDBRANCH  32  34
ENDBRANCH  31  32
ENDBRANCH  30  31
ENDBRANCH  29  30
ENDBRANCH  28  29
ENDBRANCH  27  28
ENDBRANCH   1  27
TORSDOF 21
ENDMDL
