MODEL 1
REMARK VINA RESULT:     -11.5      0.000      0.000
REMARK SMILES Cc1c(C(=O)OCCOCCOCCOC(=O)c2ccc(-c3c4nc(c(-c5c(F)cccc5F)c5ccc([nH]5)c(-c5c(F)cccc5F)c5nc(c(-c6c(F)cccc6F)c6ccc3[nH]6)C=C5)C=C4)cc2)ccc2c1N[C@@H](c1ccc(S(=O)(=O)N3CCOCC3)cc1)[C@@H]1CC=C[C@H]21
REMARK SMILES IDX 10 1 9 2 8 3 7 4 6 5 4 6 5 7 3 8 1 9 2 10 75 11 72 12 74 13
REMARK SMILES IDX 76 14 73 15 97 16 77 17 93 19 96 20 94 21 95 22 78 23 79 24
REMARK SMILES IDX 92 25 80 26 91 27 81 28 82 29 83 30 84 31 85 32 86 33 90 34
REMARK SMILES IDX 87 35 89 36 88 37 11 38 12 39 13 40 14 41 15 42 16 43 17 44
REMARK SMILES IDX 18 45 19 46 71 47 20 48 70 49 21 50 22 51 23 52 64 53 24 54
REMARK SMILES IDX 69 55 63 56 65 57 25 58 68 59 62 60 61 61 26 63 52 64 35 65
REMARK SMILES IDX 51 66 36 67 39 68 50 69 66 70 37 71 38 72 49 74 67 75 40 76
REMARK SMILES IDX 27 77 28 78 33 79 29 80 30 81 32 82 34 83 31 84 53 85 54 86
REMARK SMILES IDX 59 87 55 88 56 89 58 90 60 91 57 92 41 93 42 94 47 95 43 96
REMARK SMILES IDX 44 97 46 98 48 99 45 100
REMARK H PARENT 76 18 65 62 39 73
REMARK Flexibility Score: inf
ROOT
ATOM      1  C   UNL A   1      40.320  22.258  26.379  1.00  0.00     0.188 C 
ENDROOT
BRANCH   1   2
ATOM      2  O   UNL A   1      39.315  21.369  25.937  1.00  0.00    -0.376 OA
BRANCH   2   3
ATOM      3  C   UNL A   1      38.009  21.846  25.644  1.00  0.00     0.202 C 
BRANCH   3   4
ATOM      4  C   UNL A   1      37.199  21.360  24.438  1.00  0.00     0.261 C 
BRANCH   4   5
ATOM      5  O   UNL A   1      36.257  22.313  23.946  1.00  0.00    -0.460 OA
BRANCH   5   6
ATOM      6  C   UNL A   1      34.953  22.017  24.164  1.00  0.00     0.338 C 
ATOM      7  O   UNL A   1      34.506  20.967  24.596  1.00  0.00    -0.246 OA
BRANCH   6   8
ATOM      8  C   UNL A   1      34.124  23.235  24.012  1.00  0.00     0.065 A 
ATOM      9  C   UNL A   1      34.654  24.141  26.347  1.00  0.00     0.047 C 
ATOM     10  C   UNL A   1      34.004  24.242  24.989  1.00  0.00    -0.013 A 
ATOM     11  C   UNL A   1      33.234  25.391  24.684  1.00  0.00     0.042 A 
ATOM     12  C   UNL A   1      33.431  23.335  22.795  1.00  0.00     0.016 A 
ATOM     13  C   UNL A   1      32.633  25.521  23.421  1.00  0.00    -0.017 A 
ATOM     14  N   UNL A   1      33.197  26.439  25.583  1.00  0.00    -0.377 N 
ATOM     15  C   UNL A   1      32.677  24.462  22.507  1.00  0.00     0.007 A 
ATOM     16  C   UNL A   1      32.046  26.828  22.976  1.00  0.00     0.049 C 
ATOM     17  C   UNL A   1      32.528  27.694  25.311  1.00  0.00     0.114 C 
ATOM     18  H   UNL A   1      33.648  26.328  26.452  1.00  0.00     0.161 HD
ATOM     19  C   UNL A   1      32.516  28.041  23.798  1.00  0.00     0.031 C 
ATOM     20  C   UNL A   1      30.549  26.974  23.027  1.00  0.00    -0.023 C 
ATOM     21  C   UNL A   1      31.456  29.092  23.397  1.00  0.00     0.034 C 
ATOM     22  C   UNL A   1      30.222  28.256  23.240  1.00  0.00    -0.030 C 
BRANCH  17  23
ATOM     23  C   UNL A   1      33.199  28.775  26.149  1.00  0.00    -0.025 A 
ATOM     24  C   UNL A   1      34.564  28.784  26.520  1.00  0.00     0.007 A 
ATOM     25  C   UNL A   1      32.405  29.829  26.572  1.00  0.00     0.007 A 
ATOM     26  C   UNL A   1      35.105  29.832  27.285  1.00  0.00     0.022 A 
ATOM     27  C   UNL A   1      32.965  30.891  27.251  1.00  0.00     0.022 A 
ATOM     28  C   UNL A   1      34.292  30.906  27.636  1.00  0.00     0.082 A 
BRANCH  28  29
ATOM     29  S   UNL A   1      34.922  32.273  28.583  1.00  0.00     0.243 S 
ATOM     30  O   UNL A   1      35.361  33.260  27.624  1.00  0.00    -0.207 OA
ATOM     31  O   UNL A   1      33.913  32.573  29.580  1.00  0.00    -0.207 OA
BRANCH  29  32
ATOM     32  N   UNL A   1      36.285  31.696  29.391  1.00  0.00    -0.193 NA
ATOM     33  C   UNL A   1      36.203  30.978  30.683  1.00  0.00     0.131 C 
ATOM     34  C   UNL A   1      37.657  32.075  29.000  1.00  0.00     0.131 C 
ATOM     35  C   UNL A   1      37.018  31.673  31.787  1.00  0.00     0.177 C 
ATOM     36  C   UNL A   1      38.382  32.794  30.141  1.00  0.00     0.177 C 
ATOM     37  O   UNL A   1      38.335  32.061  31.375  1.00  0.00    -0.379 OA
ENDBRANCH  29  32
ENDBRANCH  28  29
ENDBRANCH  17  23
ENDBRANCH   6   8
ENDBRANCH   5   6
ENDBRANCH   4   5
ENDBRANCH   3   4
ENDBRANCH   2   3
ENDBRANCH   1   2
BRANCH   1  38
ATOM     38  C   UNL A   1      41.791  21.790  26.468  1.00  0.00     0.188 C 
BRANCH  38  39
ATOM     39  O   UNL A   1      42.171  20.798  27.394  1.00  0.00    -0.376 OA
BRANCH  39  40
ATOM     40  C   UNL A   1      42.197  19.439  26.990  1.00  0.00     0.202 C 
BRANCH  40  41
ATOM     41  C   UNL A   1      42.744  18.959  25.633  1.00  0.00     0.261 C 
BRANCH  41  42
ATOM     42  O   UNL A   1      44.164  19.019  25.450  1.00  0.00    -0.460 OA
BRANCH  42  43
ATOM     43  C   UNL A   1      44.584  19.640  24.321  1.00  0.00     0.338 C 
ATOM     44  O   UNL A   1      44.528  19.223  23.173  1.00  0.00    -0.246 OA
BRANCH  43  45
ATOM     45  C   UNL A   1      44.989  21.017  24.651  1.00  0.00     0.060 A 
ATOM     46  C   UNL A   1      45.430  21.308  25.951  1.00  0.00     0.016 A 
ATOM     47  C   UNL A   1      44.889  22.023  23.691  1.00  0.00     0.016 A 
ATOM     48  C   UNL A   1      45.779  22.612  26.296  1.00  0.00     0.010 A 
ATOM     49  C   UNL A   1      45.192  23.338  24.052  1.00  0.00     0.010 A 
ATOM     50  C   UNL A   1      45.613  23.640  25.360  1.00  0.00    -0.014 A 
BRANCH  50  51
ATOM     51  C   UNL A   1      45.620  25.049  25.817  1.00  0.00     0.031 A 
ATOM     52  C   UNL A   1      46.936  25.775  25.817  1.00  0.00     0.074 A 
ATOM     53  C   UNL A   1      44.502  25.669  26.225  1.00  0.00     0.049 A 
ATOM     54  N   UNL A   1      47.228  26.974  26.248  1.00  0.00    -0.248 NA
ATOM     55  C   UNL A   1      48.081  25.043  25.247  1.00  0.00     0.031 C 
ATOM     56  C   UNL A   1      43.157  25.098  26.213  1.00  0.00     0.029 A 
ATOM     57  N   UNL A   1      44.330  26.927  26.747  1.00  0.00    -0.354 N 
ATOM     58  C   UNL A   1      48.585  27.141  26.002  1.00  0.00     0.074 A 
ATOM     59  C   UNL A   1      49.065  25.912  25.410  1.00  0.00     0.031 C 
ATOM     60  C   UNL A   1      42.299  25.997  26.729  1.00  0.00     0.029 A 
ATOM     61  C   UNL A   1      43.042  27.189  27.141  1.00  0.00     0.049 A 
ATOM     62  H   UNL A   1      45.063  27.580  26.832  1.00  0.00     0.167 HD
ATOM     63  C   UNL A   1      49.363  28.220  26.245  1.00  0.00     0.037 A 
ATOM     64  C   UNL A   1      42.535  28.256  27.788  1.00  0.00     0.037 A 
ATOM     65  C   UNL A   1      48.895  29.426  26.875  1.00  0.00     0.049 A 
ATOM     66  C   UNL A   1      43.451  29.394  28.170  1.00  0.00     0.074 A 
ATOM     67  C   UNL A   1      49.607  30.571  27.185  1.00  0.00     0.029 A 
ATOM     68  N   UNL A   1      47.595  29.631  27.310  1.00  0.00    -0.354 N 
ATOM     69  N   UNL A   1      44.729  29.552  27.923  1.00  0.00    -0.248 NA
ATOM     70  C   UNL A   1      42.848  30.501  28.929  1.00  0.00     0.031 C 
ATOM     71  C   UNL A   1      48.750  31.446  27.860  1.00  0.00     0.029 A 
ATOM     72  C   UNL A   1      47.489  30.873  27.911  1.00  0.00     0.049 A 
ATOM     73  H   UNL A   1      46.856  28.988  27.206  1.00  0.00     0.167 HD
ATOM     74  C   UNL A   1      45.072  30.789  28.460  1.00  0.00     0.074 A 
ATOM     75  C   UNL A   1      43.865  31.343  29.036  1.00  0.00     0.031 C 
ATOM     76  C   UNL A   1      46.276  31.414  28.472  1.00  0.00     0.037 A 
BRANCH  63  77
ATOM     77  C   UNL A   1      50.811  28.113  25.869  1.00  0.00     0.057 A 
ATOM     78  C   UNL A   1      51.213  28.248  24.534  1.00  0.00     0.134 A 
ATOM     79  C   UNL A   1      51.811  27.889  26.826  1.00  0.00     0.134 A 
ATOM     80  F   UNL A   1      50.309  28.465  23.568  1.00  0.00    -0.206 F 
ATOM     81  C   UNL A   1      52.557  28.166  24.166  1.00  0.00     0.040 A 
ATOM     82  C   UNL A   1      53.160  27.835  26.473  1.00  0.00     0.040 A 
ATOM     83  F   UNL A   1      51.494  27.772  28.125  1.00  0.00    -0.206 F 
ATOM     84  C   UNL A   1      53.536  27.968  25.138  1.00  0.00     0.006 A 
ENDBRANCH  63  77
BRANCH  64  85
ATOM     85  C   UNL A   1      41.095  28.307  28.155  1.00  0.00     0.057 A 
ATOM     86  C   UNL A   1      40.647  27.899  29.417  1.00  0.00     0.134 A 
ATOM     87  C   UNL A   1      40.143  28.834  27.274  1.00  0.00     0.134 A 
ATOM     88  F   UNL A   1      41.508  27.391  30.311  1.00  0.00    -0.206 F 
ATOM     89  C   UNL A   1      39.306  28.013  29.790  1.00  0.00     0.040 A 
ATOM     90  C   UNL A   1      38.804  28.981  27.644  1.00  0.00     0.040 A 
ATOM     91  F   UNL A   1      40.515  29.270  26.061  1.00  0.00    -0.206 F 
ATOM     92  C   UNL A   1      38.383  28.567  28.906  1.00  0.00     0.006 A 
ENDBRANCH  64  85
BRANCH  76  93
ATOM     93  C   UNL A   1      46.335  32.788  29.080  1.00  0.00     0.057 A 
ATOM     94  C   UNL A   1      46.690  32.952  30.425  1.00  0.00     0.134 A 
ATOM     95  C   UNL A   1      46.015  33.941  28.353  1.00  0.00     0.134 A 
ATOM     96  F   UNL A   1      46.997  31.890  31.185  1.00  0.00    -0.206 F 
ATOM     97  C   UNL A   1      46.726  34.213  31.025  1.00  0.00     0.040 A 
ATOM     98  C   UNL A   1      46.079  35.211  28.932  1.00  0.00     0.040 A 
ATOM     99  F   UNL A   1      45.677  33.858  27.057  1.00  0.00    -0.206 F 
ATOM    100  C   UNL A   1      46.429  35.347  30.274  1.00  0.00     0.006 A 
ENDBRANCH  76  93
ENDBRANCH  50  51
ENDBRANCH  43  45
ENDBRANCH  42  43
ENDBRANCH  41  42
ENDBRANCH  40  41
ENDBRANCH  39  40
ENDBRANCH  38  39
ENDBRANCH   1  38
TORSDOF 20
ENDMDL
MODEL 2
REMARK VINA RESULT:     -10.8      2.351      6.369
REMARK SMILES Cc1c(C(=O)OCCOCCOCCOC(=O)c2ccc(-c3c4nc(c(-c5c(F)cccc5F)c5ccc([nH]5)c(-c5c(F)cccc5F)c5nc(c(-c6c(F)cccc6F)c6ccc3[nH]6)C=C5)C=C4)cc2)ccc2c1N[C@@H](c1ccc(S(=O)(=O)N3CCOCC3)cc1)[C@@H]1CC=C[C@H]21
REMARK SMILES IDX 10 1 9 2 8 3 7 4 6 5 4 6 5 7 3 8 1 9 2 10 75 11 72 12 74 13
REMARK SMILES IDX 76 14 73 15 97 16 77 17 93 19 96 20 94 21 95 22 78 23 79 24
REMARK SMILES IDX 92 25 80 26 91 27 81 28 82 29 83 30 84 31 85 32 86 33 90 34
REMARK SMILES IDX 87 35 89 36 88 37 11 38 12 39 13 40 14 41 15 42 16 43 17 44
REMARK SMILES IDX 18 45 19 46 71 47 20 48 70 49 21 50 22 51 23 52 64 53 24 54
REMARK SMILES IDX 69 55 63 56 65 57 25 58 68 59 62 60 61 61 26 63 52 64 35 65
REMARK SMILES IDX 51 66 36 67 39 68 50 69 66 70 37 71 38 72 49 74 67 75 40 76
REMARK SMILES IDX 27 77 28 78 33 79 29 80 30 81 32 82 34 83 31 84 53 85 54 86
REMARK SMILES IDX 59 87 55 88 56 89 58 90 60 91 57 92 41 93 42 94 47 95 43 96
REMARK SMILES IDX 44 97 46 98 48 99 45 100
REMARK H PARENT 76 18 65 62 39 73
REMARK Flexibility Score: inf
ROOT
ATOM      1  C   UNL A   1      40.590  20.213  26.736  1.00  0.00     0.188 C 
ENDROOT
BRANCH   1   2
ATOM      2  O   UNL A   1      39.472  19.996  25.900  1.00  0.00    -0.376 OA
BRANCH   2   3
ATOM      3  C   UNL A   1      38.687  21.090  25.447  1.00  0.00     0.202 C 
BRANCH   3   4
ATOM      4  C   UNL A   1      37.379  20.908  24.670  1.00  0.00     0.261 C 
BRANCH   4   5
ATOM      5  O   UNL A   1      36.476  22.007  24.783  1.00  0.00    -0.460 OA
BRANCH   5   6
ATOM      6  C   UNL A   1      35.176  21.730  24.518  1.00  0.00     0.338 C 
ATOM      7  O   UNL A   1      34.613  20.658  24.673  1.00  0.00    -0.246 OA
BRANCH   6   8
ATOM      8  C   UNL A   1      34.443  22.979  24.209  1.00  0.00     0.065 A 
ATOM      9  C   UNL A   1      34.686  23.951  26.566  1.00  0.00     0.047 C 
ATOM     10  C   UNL A   1      34.240  24.029  25.126  1.00  0.00    -0.013 A 
ATOM     11  C   UNL A   1      33.584  25.200  24.677  1.00  0.00     0.042 A 
ATOM     12  C   UNL A   1      33.934  23.063  22.904  1.00  0.00     0.016 A 
ATOM     13  C   UNL A   1      33.174  25.309  23.338  1.00  0.00    -0.017 A 
ATOM     14  N   UNL A   1      33.476  26.284  25.527  1.00  0.00    -0.377 N 
ATOM     15  C   UNL A   1      33.290  24.213  22.475  1.00  0.00     0.007 A 
ATOM     16  C   UNL A   1      32.726  26.623  22.770  1.00  0.00     0.049 C 
ATOM     17  C   UNL A   1      32.919  27.558  25.121  1.00  0.00     0.114 C 
ATOM     18  H   UNL A   1      33.793  26.186  26.454  1.00  0.00     0.161 HD
ATOM     19  C   UNL A   1      33.140  27.844  23.611  1.00  0.00     0.031 C 
ATOM     20  C   UNL A   1      31.247  26.843  22.602  1.00  0.00    -0.023 C 
ATOM     21  C   UNL A   1      32.204  28.928  23.029  1.00  0.00     0.034 C 
ATOM     22  C   UNL A   1      30.962  28.146  22.724  1.00  0.00    -0.030 C 
BRANCH  17  23
ATOM     23  C   UNL A   1      33.523  28.638  26.010  1.00  0.00    -0.025 A 
ATOM     24  C   UNL A   1      34.854  28.647  26.487  1.00  0.00     0.007 A 
ATOM     25  C   UNL A   1      32.697  29.691  26.371  1.00  0.00     0.007 A 
ATOM     26  C   UNL A   1      35.334  29.695  27.293  1.00  0.00     0.022 A 
ATOM     27  C   UNL A   1      33.201  30.752  27.094  1.00  0.00     0.022 A 
ATOM     28  C   UNL A   1      34.495  30.768  27.581  1.00  0.00     0.082 A 
BRANCH  28  29
ATOM     29  S   UNL A   1      35.047  32.133  28.576  1.00  0.00     0.243 S 
ATOM     30  O   UNL A   1      35.546  33.128  27.655  1.00  0.00    -0.207 OA
ATOM     31  O   UNL A   1      33.969  32.421  29.502  1.00  0.00    -0.207 OA
BRANCH  29  32
ATOM     32  N   UNL A   1      36.355  31.560  29.475  1.00  0.00    -0.193 NA
ATOM     33  C   UNL A   1      37.756  31.696  29.019  1.00  0.00     0.131 C 
ATOM     34  C   UNL A   1      36.185  30.677  30.645  1.00  0.00     0.131 C 
ATOM     35  C   UNL A   1      38.465  30.334  28.906  1.00  0.00     0.177 C 
ATOM     36  C   UNL A   1      36.886  29.332  30.433  1.00  0.00     0.177 C 
ATOM     37  O   UNL A   1      38.259  29.480  30.039  1.00  0.00    -0.379 OA
ENDBRANCH  29  32
ENDBRANCH  28  29
ENDBRANCH  17  23
ENDBRANCH   6   8
ENDBRANCH   5   6
ENDBRANCH   4   5
ENDBRANCH   3   4
ENDBRANCH   2   3
ENDBRANCH   1   2
BRANCH   1  38
ATOM     38  C   UNL A   1      41.921  19.476  26.465  1.00  0.00     0.188 C 
BRANCH  38  39
ATOM     39  O   UNL A   1      42.653  19.732  25.288  1.00  0.00    -0.376 OA
BRANCH  39  40
ATOM     40  C   UNL A   1      43.857  20.477  25.362  1.00  0.00     0.202 C 
BRANCH  40  41
ATOM     41  C   UNL A   1      43.910  22.000  25.585  1.00  0.00     0.261 C 
BRANCH  41  42
ATOM     42  O   UNL A   1      42.758  22.752  25.183  1.00  0.00    -0.460 OA
BRANCH  42  43
ATOM     43  C   UNL A   1      42.199  23.527  26.145  1.00  0.00     0.338 C 
ATOM     44  O   UNL A   1      41.270  23.244  26.886  1.00  0.00    -0.246 OA
BRANCH  43  45
ATOM     45  C   UNL A   1      43.000  24.754  26.299  1.00  0.00     0.060 A 
ATOM     46  C   UNL A   1      43.316  25.513  25.161  1.00  0.00     0.016 A 
ATOM     47  C   UNL A   1      43.472  25.125  27.557  1.00  0.00     0.016 A 
ATOM     48  C   UNL A   1      44.106  26.655  25.280  1.00  0.00     0.010 A 
ATOM     49  C   UNL A   1      44.305  26.242  27.667  1.00  0.00     0.010 A 
ATOM     50  C   UNL A   1      44.644  26.994  26.527  1.00  0.00    -0.014 A 
BRANCH  50  51
ATOM     51  C   UNL A   1      45.763  27.961  26.599  1.00  0.00     0.031 A 
ATOM     52  C   UNL A   1      45.417  29.420  26.705  1.00  0.00     0.074 A 
ATOM     53  C   UNL A   1      47.046  27.568  26.566  1.00  0.00     0.049 A 
ATOM     54  N   UNL A   1      46.200  30.467  26.693  1.00  0.00    -0.248 NA
ATOM     55  C   UNL A   1      43.985  29.739  26.845  1.00  0.00     0.031 C 
ATOM     56  C   UNL A   1      47.513  26.184  26.529  1.00  0.00     0.029 A 
ATOM     57  N   UNL A   1      48.198  28.314  26.543  1.00  0.00    -0.354 N 
ATOM     58  C   UNL A   1      45.360  31.565  26.826  1.00  0.00     0.074 A 
ATOM     59  C   UNL A   1      44.006  31.061  26.888  1.00  0.00     0.031 C 
ATOM     60  C   UNL A   1      48.857  26.181  26.464  1.00  0.00     0.029 A 
ATOM     61  C   UNL A   1      49.339  27.561  26.417  1.00  0.00     0.049 A 
ATOM     62  H   UNL A   1      48.205  29.296  26.611  1.00  0.00     0.167 HD
ATOM     63  C   UNL A   1      45.685  32.876  26.892  1.00  0.00     0.037 A 
ATOM     64  C   UNL A   1      50.618  27.951  26.249  1.00  0.00     0.037 A 
ATOM     65  C   UNL A   1      47.028  33.380  26.785  1.00  0.00     0.049 A 
ATOM     66  C   UNL A   1      50.941  29.424  26.191  1.00  0.00     0.074 A 
ATOM     67  C   UNL A   1      47.463  34.693  26.819  1.00  0.00     0.029 A 
ATOM     68  N   UNL A   1      48.151  32.589  26.601  1.00  0.00    -0.354 N 
ATOM     69  N   UNL A   1      50.145  30.458  26.331  1.00  0.00    -0.248 NA
ATOM     70  C   UNL A   1      52.347  29.783  25.945  1.00  0.00     0.031 C 
ATOM     71  C   UNL A   1      48.844  34.700  26.599  1.00  0.00     0.029 A 
ATOM     72  C   UNL A   1      49.278  33.387  26.493  1.00  0.00     0.049 A 
ATOM     73  H   UNL A   1      48.149  31.605  26.556  1.00  0.00     0.167 HD
ATOM     74  C   UNL A   1      50.957  31.583  26.229  1.00  0.00     0.074 A 
ATOM     75  C   UNL A   1      52.309  31.105  26.026  1.00  0.00     0.031 C 
ATOM     76  C   UNL A   1      50.618  32.894  26.301  1.00  0.00     0.037 A 
BRANCH  63  77
ATOM     77  C   UNL A   1      44.554  33.851  27.039  1.00  0.00     0.057 A 
ATOM     78  C   UNL A   1      44.123  34.258  28.307  1.00  0.00     0.134 A 
ATOM     79  C   UNL A   1      43.897  34.396  25.927  1.00  0.00     0.134 A 
ATOM     80  F   UNL A   1      44.708  33.775  29.414  1.00  0.00    -0.206 F 
ATOM     81  C   UNL A   1      43.081  35.174  28.465  1.00  0.00     0.040 A 
ATOM     82  C   UNL A   1      42.876  35.336  26.071  1.00  0.00     0.040 A 
ATOM     83  F   UNL A   1      44.276  34.064  24.683  1.00  0.00    -0.206 F 
ATOM     84  C   UNL A   1      42.461  35.723  27.344  1.00  0.00     0.006 A 
ENDBRANCH  63  77
BRANCH  64  85
ATOM     85  C   UNL A   1      51.702  26.946  26.091  1.00  0.00     0.057 A 
ATOM     86  C   UNL A   1      52.059  26.448  24.832  1.00  0.00     0.134 A 
ATOM     87  C   UNL A   1      52.455  26.515  27.190  1.00  0.00     0.134 A 
ATOM     88  F   UNL A   1      51.383  26.824  23.737  1.00  0.00    -0.206 F 
ATOM     89  C   UNL A   1      53.124  25.559  24.672  1.00  0.00     0.040 A 
ATOM     90  C   UNL A   1      53.540  25.649  27.041  1.00  0.00     0.040 A 
ATOM     91  F   UNL A   1      52.181  26.980  28.418  1.00  0.00    -0.206 F 
ATOM     92  C   UNL A   1      53.875  25.167  25.777  1.00  0.00     0.006 A 
ENDBRANCH  64  85
BRANCH  76  93
ATOM     93  C   UNL A   1      51.732  33.902  26.214  1.00  0.00     0.057 A 
ATOM     94  C   UNL A   1      52.362  34.362  27.377  1.00  0.00     0.134 A 
ATOM     95  C   UNL A   1      52.160  34.438  24.994  1.00  0.00     0.134 A 
ATOM     96  F   UNL A   1      51.994  33.900  28.582  1.00  0.00    -0.206 F 
ATOM     97  C   UNL A   1      53.379  35.318  27.330  1.00  0.00     0.040 A 
ATOM     98  C   UNL A   1      53.198  35.371  24.930  1.00  0.00     0.040 A 
ATOM     99  F   UNL A   1      51.606  34.034  23.840  1.00  0.00    -0.206 F 
ATOM    100  C   UNL A   1      53.805  35.818  26.102  1.00  0.00     0.006 A 
ENDBRANCH  76  93
ENDBRANCH  50  51
ENDBRANCH  43  45
ENDBRANCH  42  43
ENDBRANCH  41  42
ENDBRANCH  40  41
ENDBRANCH  39  40
ENDBRANCH  38  39
ENDBRANCH   1  38
TORSDOF 20
ENDMDL
MODEL 3
REMARK VINA RESULT:     -10.8      1.034      5.852
REMARK SMILES Cc1c(C(=O)OCCOCCOCCOC(=O)c2ccc(-c3c4nc(c(-c5c(F)cccc5F)c5ccc([nH]5)c(-c5c(F)cccc5F)c5nc(c(-c6c(F)cccc6F)c6ccc3[nH]6)C=C5)C=C4)cc2)ccc2c1N[C@@H](c1ccc(S(=O)(=O)N3CCOCC3)cc1)[C@@H]1CC=C[C@H]21
REMARK SMILES IDX 10 1 9 2 8 3 7 4 6 5 4 6 5 7 3 8 1 9 2 10 75 11 72 12 74 13
REMARK SMILES IDX 76 14 73 15 97 16 77 17 93 19 96 20 94 21 95 22 78 23 79 24
REMARK SMILES IDX 92 25 80 26 91 27 81 28 82 29 83 30 84 31 85 32 86 33 90 34
REMARK SMILES IDX 87 35 89 36 88 37 11 38 12 39 13 40 14 41 15 42 16 43 17 44
REMARK SMILES IDX 18 45 19 46 71 47 20 48 70 49 21 50 22 51 23 52 64 53 24 54
REMARK SMILES IDX 69 55 63 56 65 57 25 58 68 59 62 60 61 61 26 63 52 64 35 65
REMARK SMILES IDX 51 66 36 67 39 68 50 69 66 70 37 71 38 72 49 74 67 75 40 76
REMARK SMILES IDX 27 77 28 78 33 79 29 80 30 81 32 82 34 83 31 84 53 85 54 86
REMARK SMILES IDX 59 87 55 88 56 89 58 90 60 91 57 92 41 93 42 94 47 95 43 96
REMARK SMILES IDX 44 97 46 98 48 99 45 100
REMARK H PARENT 76 18 65 62 39 73
REMARK Flexibility Score: inf
ROOT
ATOM      1  C   UNL A   1      39.718  20.968  26.009  1.00  0.00     0.188 C 
ENDROOT
BRANCH   1   2
ATOM      2  O   UNL A   1      39.074  19.890  25.361  1.00  0.00    -0.376 OA
BRANCH   2   3
ATOM      3  C   UNL A   1      37.753  20.035  24.860  1.00  0.00     0.202 C 
BRANCH   3   4
ATOM      4  C   UNL A   1      36.804  21.141  25.330  1.00  0.00     0.261 C 
BRANCH   4   5
ATOM      5  O   UNL A   1      35.780  21.470  24.391  1.00  0.00    -0.460 OA
BRANCH   5   6
ATOM      6  C   UNL A   1      36.029  22.540  23.599  1.00  0.00     0.338 C 
ATOM      7  O   UNL A   1      36.919  22.643  22.770  1.00  0.00    -0.246 OA
BRANCH   6   8
ATOM      8  C   UNL A   1      34.926  23.523  23.711  1.00  0.00     0.065 A 
ATOM      9  C   UNL A   1      35.769  24.532  25.908  1.00  0.00     0.047 C 
ATOM     10  C   UNL A   1      34.810  24.472  24.745  1.00  0.00    -0.013 A 
ATOM     11  C   UNL A   1      33.743  25.402  24.692  1.00  0.00     0.042 A 
ATOM     12  C   UNL A   1      33.960  23.451  22.696  1.00  0.00     0.016 A 
ATOM     13  C   UNL A   1      32.846  25.382  23.611  1.00  0.00    -0.017 A 
ATOM     14  N   UNL A   1      33.677  26.411  25.632  1.00  0.00    -0.377 N 
ATOM     15  C   UNL A   1      32.918  24.364  22.654  1.00  0.00     0.007 A 
ATOM     16  C   UNL A   1      31.880  26.508  23.387  1.00  0.00     0.049 C 
ATOM     17  C   UNL A   1      32.687  27.468  25.593  1.00  0.00     0.114 C 
ATOM     18  H   UNL A   1      34.334  26.413  26.365  1.00  0.00     0.161 HD
ATOM     19  C   UNL A   1      32.235  27.801  24.145  1.00  0.00     0.031 C 
ATOM     20  C   UNL A   1      30.448  26.290  23.791  1.00  0.00    -0.023 C 
ATOM     21  C   UNL A   1      30.895  28.565  24.060  1.00  0.00     0.034 C 
ATOM     22  C   UNL A   1      29.889  27.456  24.146  1.00  0.00    -0.030 C 
BRANCH  17  23
ATOM     23  C   UNL A   1      33.267  28.679  26.313  1.00  0.00    -0.025 A 
ATOM     24  C   UNL A   1      34.619  28.822  26.702  1.00  0.00     0.007 A 
ATOM     25  C   UNL A   1      32.396  29.719  26.599  1.00  0.00     0.007 A 
ATOM     26  C   UNL A   1      35.073  29.985  27.351  1.00  0.00     0.022 A 
ATOM     27  C   UNL A   1      32.869  30.885  27.162  1.00  0.00     0.022 A 
ATOM     28  C   UNL A   1      34.183  31.034  27.563  1.00  0.00     0.082 A 
BRANCH  28  29
ATOM     29  S   UNL A   1      34.699  32.538  28.358  1.00  0.00     0.243 S 
ATOM     30  O   UNL A   1      35.823  33.032  27.596  1.00  0.00    -0.207 OA
ATOM     31  O   UNL A   1      33.498  33.329  28.547  1.00  0.00    -0.207 OA
BRANCH  29  32
ATOM     32  N   UNL A   1      35.265  32.093  29.884  1.00  0.00    -0.193 NA
ATOM     33  C   UNL A   1      34.652  32.586  31.137  1.00  0.00     0.131 C 
ATOM     34  C   UNL A   1      36.547  31.388  30.077  1.00  0.00     0.131 C 
ATOM     35  C   UNL A   1      35.665  33.326  32.028  1.00  0.00     0.177 C 
ATOM     36  C   UNL A   1      37.508  32.210  30.941  1.00  0.00     0.177 C 
ATOM     37  O   UNL A   1      36.914  32.639  32.175  1.00  0.00    -0.379 OA
ENDBRANCH  29  32
ENDBRANCH  28  29
ENDBRANCH  17  23
ENDBRANCH   6   8
ENDBRANCH   5   6
ENDBRANCH   4   5
ENDBRANCH   3   4
ENDBRANCH   2   3
ENDBRANCH   1   2
BRANCH   1  38
ATOM     38  C   UNL A   1      40.806  20.701  27.074  1.00  0.00     0.188 C 
BRANCH  38  39
ATOM     39  O   UNL A   1      42.128  20.404  26.685  1.00  0.00    -0.376 OA
BRANCH  39  40
ATOM     40  C   UNL A   1      42.463  19.081  26.299  1.00  0.00     0.202 C 
BRANCH  40  41
ATOM     41  C   UNL A   1      43.585  18.737  25.303  1.00  0.00     0.261 C 
BRANCH  41  42
ATOM     42  O   UNL A   1      44.766  19.547  25.354  1.00  0.00    -0.460 OA
BRANCH  42  43
ATOM     43  C   UNL A   1      44.914  20.433  24.339  1.00  0.00     0.338 C 
ATOM     44  O   UNL A   1      44.540  20.314  23.182  1.00  0.00    -0.246 OA
BRANCH  43  45
ATOM     45  C   UNL A   1      45.470  21.688  24.874  1.00  0.00     0.060 A 
ATOM     46  C   UNL A   1      45.429  21.921  26.257  1.00  0.00     0.016 A 
ATOM     47  C   UNL A   1      45.985  22.649  24.005  1.00  0.00     0.016 A 
ATOM     48  C   UNL A   1      45.912  23.119  26.779  1.00  0.00     0.010 A 
ATOM     49  C   UNL A   1      46.423  23.869  24.525  1.00  0.00     0.010 A 
ATOM     50  C   UNL A   1      46.365  24.117  25.908  1.00  0.00    -0.014 A 
BRANCH  50  51
ATOM     51  C   UNL A   1      46.522  25.503  26.408  1.00  0.00     0.031 A 
ATOM     52  C   UNL A   1      45.281  26.238  26.828  1.00  0.00     0.074 A 
ATOM     53  C   UNL A   1      47.723  26.098  26.485  1.00  0.00     0.049 A 
ATOM     54  N   UNL A   1      45.135  27.478  27.214  1.00  0.00    -0.248 NA
ATOM     55  C   UNL A   1      44.029  25.460  26.810  1.00  0.00     0.031 C 
ATOM     56  C   UNL A   1      49.006  25.475  26.170  1.00  0.00     0.029 A 
ATOM     57  N   UNL A   1      48.051  27.382  26.844  1.00  0.00    -0.354 N 
ATOM     58  C   UNL A   1      43.781  27.629  27.487  1.00  0.00     0.074 A 
ATOM     59  C   UNL A   1      43.144  26.364  27.195  1.00  0.00     0.031 C 
ATOM     60  C   UNL A   1      49.983  26.387  26.327  1.00  0.00     0.029 A 
ATOM     61  C   UNL A   1      49.388  27.666  26.715  1.00  0.00     0.049 A 
ATOM     62  H   UNL A   1      47.389  28.038  27.162  1.00  0.00     0.167 HD
ATOM     63  C   UNL A   1      43.126  28.723  27.940  1.00  0.00     0.037 A 
ATOM     64  C   UNL A   1      50.042  28.834  26.865  1.00  0.00     0.037 A 
ATOM     65  C   UNL A   1      43.753  29.993  28.187  1.00  0.00     0.049 A 
ATOM     66  C   UNL A   1      49.268  30.073  27.242  1.00  0.00     0.074 A 
ATOM     67  C   UNL A   1      43.175  31.170  28.629  1.00  0.00     0.029 A 
ATOM     68  N   UNL A   1      45.099  30.255  27.992  1.00  0.00    -0.354 N 
ATOM     69  N   UNL A   1      47.991  30.208  27.511  1.00  0.00    -0.248 NA
ATOM     70  C   UNL A   1      50.031  31.328  27.329  1.00  0.00     0.031 C 
ATOM     71  C   UNL A   1      44.162  32.160  28.646  1.00  0.00     0.029 A 
ATOM     72  C   UNL A   1      45.368  31.584  28.278  1.00  0.00     0.049 A 
ATOM     73  H   UNL A   1      45.767  29.595  27.695  1.00  0.00     0.167 HD
ATOM     74  C   UNL A   1      47.807  31.548  27.836  1.00  0.00     0.074 A 
ATOM     75  C   UNL A   1      49.105  32.182  27.740  1.00  0.00     0.031 C 
ATOM     76  C   UNL A   1      46.669  32.197  28.187  1.00  0.00     0.037 A 
BRANCH  63  77
ATOM     77  C   UNL A   1      41.646  28.591  28.146  1.00  0.00     0.057 A 
ATOM     78  C   UNL A   1      41.132  28.160  29.375  1.00  0.00     0.134 A 
ATOM     79  C   UNL A   1      40.726  28.901  27.134  1.00  0.00     0.134 A 
ATOM     80  F   UNL A   1      41.956  27.848  30.387  1.00  0.00    -0.206 F 
ATOM     81  C   UNL A   1      39.758  28.044  29.592  1.00  0.00     0.040 A 
ATOM     82  C   UNL A   1      39.350  28.819  27.348  1.00  0.00     0.040 A 
ATOM     83  F   UNL A   1      41.153  29.341  25.940  1.00  0.00    -0.206 F 
ATOM     84  C   UNL A   1      38.862  28.383  28.579  1.00  0.00     0.006 A 
ENDBRANCH  63  77
BRANCH  64  85
ATOM     85  C   UNL A   1      51.508  28.916  26.632  1.00  0.00     0.057 A 
ATOM     86  C   UNL A   1      52.035  29.114  25.350  1.00  0.00     0.134 A 
ATOM     87  C   UNL A   1      52.413  28.871  27.699  1.00  0.00     0.134 A 
ATOM     88  F   UNL A   1      51.223  29.174  24.285  1.00  0.00    -0.206 F 
ATOM     89  C   UNL A   1      53.407  29.265  25.138  1.00  0.00     0.040 A 
ATOM     90  C   UNL A   1      53.785  29.048  27.505  1.00  0.00     0.040 A 
ATOM     91  F   UNL A   1      51.968  28.713  28.955  1.00  0.00    -0.206 F 
ATOM     92  C   UNL A   1      54.285  29.244  26.219  1.00  0.00     0.006 A 
ENDBRANCH  64  85
BRANCH  76  93
ATOM     93  C   UNL A   1      46.786  33.653  28.545  1.00  0.00     0.057 A 
ATOM     94  C   UNL A   1      46.638  34.638  27.560  1.00  0.00     0.134 A 
ATOM     95  C   UNL A   1      47.071  34.082  29.847  1.00  0.00     0.134 A 
ATOM     96  F   UNL A   1      46.376  34.298  26.288  1.00  0.00    -0.206 F 
ATOM     97  C   UNL A   1      46.769  35.996  27.857  1.00  0.00     0.040 A 
ATOM     98  C   UNL A   1      47.173  35.438  30.164  1.00  0.00     0.040 A 
ATOM     99  F   UNL A   1      47.214  33.192  30.841  1.00  0.00    -0.206 F 
ATOM    100  C   UNL A   1      47.028  36.399  29.164  1.00  0.00     0.006 A 
ENDBRANCH  76  93
ENDBRANCH  50  51
ENDBRANCH  43  45
ENDBRANCH  42  43
ENDBRANCH  41  42
ENDBRANCH  40  41
ENDBRANCH  39  40
ENDBRANCH  38  39
ENDBRANCH   1  38
TORSDOF 20
ENDMDL
