MODEL 1
REMARK VINA RESULT:     -11.2      0.000      0.000
REMARK SMILES O=C(OCCOCCOCCOC(=O)[C@H]1CC2(CC[NH+](S(=O)(=O)N3CCOCC3)CC2)C[NH2+]1)c1ccc(-c2c3nc(c(-c4c(F)cccc4F)c4ccc([nH]4)c(-c4c(F)cccc4F)c4nc(c(-c5c(F)cccc5F)c5ccc2[nH]5)C=C4)C=C3)cc1
REMARK SMILES IDX 7 1 6 2 5 3 4 4 3 5 2 6 1 7 34 8 35 9 87 10 36 11 86 12
REMARK SMILES IDX 37 13 38 14 39 15 80 16 40 17 85 18 79 19 81 20 41 21 84 22
REMARK SMILES IDX 78 23 77 24 42 26 68 27 51 28 67 29 52 30 55 31 66 32 82 33
REMARK SMILES IDX 53 34 54 35 65 37 83 38 56 39 43 40 44 41 49 42 45 43 46 44
REMARK SMILES IDX 48 45 50 46 47 47 69 48 70 49 75 50 71 51 72 52 74 53 76 54
REMARK SMILES IDX 73 55 57 56 58 57 63 58 59 59 60 60 62 61 64 62 61 63 8 64
REMARK SMILES IDX 9 65 10 66 11 67 12 68 13 69 14 70 15 71 16 72 33 73 17 74
REMARK SMILES IDX 32 75 18 78 31 79 19 80 30 81 20 82 21 84 22 85 23 86 24 87
REMARK SMILES IDX 25 88 29 89 26 90 28 91 27 92
REMARK H PARENT 81 25 55 36 33 76 33 77 20 83
REMARK Flexibility Score: inf
ROOT
ATOM      1  C   UNL A   1      29.417  32.241  24.236  1.00  0.00     0.188 C 
ENDROOT
BRANCH   1   2
ATOM      2  O   UNL A   1      30.427  32.664  25.154  1.00  0.00    -0.376 OA
BRANCH   2   3
ATOM      3  C   UNL A   1      31.029  31.600  25.902  1.00  0.00     0.202 C 
BRANCH   3   4
ATOM      4  C   UNL A   1      31.714  31.999  27.223  1.00  0.00     0.261 C 
BRANCH   4   5
ATOM      5  O   UNL A   1      32.231  33.342  27.244  1.00  0.00    -0.460 OA
BRANCH   5   6
ATOM      6  C   UNL A   1      33.197  33.879  28.030  1.00  0.00     0.338 C 
ATOM      7  O   UNL A   1      33.090  35.052  28.379  1.00  0.00    -0.246 OA
BRANCH   6   8
ATOM      8  C   UNL A   1      34.407  33.130  28.483  1.00  0.00     0.060 A 
ATOM      9  C   UNL A   1      34.402  31.805  28.906  1.00  0.00     0.016 A 
ATOM     10  C   UNL A   1      35.647  33.788  28.412  1.00  0.00     0.016 A 
ATOM     11  C   UNL A   1      35.550  31.173  29.348  1.00  0.00     0.010 A 
ATOM     12  C   UNL A   1      36.826  33.142  28.804  1.00  0.00     0.010 A 
ATOM     13  C   UNL A   1      36.768  31.839  29.311  1.00  0.00    -0.014 A 
BRANCH  13  14
ATOM     14  C   UNL A   1      37.911  31.185  29.970  1.00  0.00     0.031 A 
ATOM     15  C   UNL A   1      38.146  31.479  31.418  1.00  0.00     0.074 A 
ATOM     16  C   UNL A   1      38.590  30.211  29.337  1.00  0.00     0.049 A 
ATOM     17  N   UNL A   1      39.090  31.042  32.206  1.00  0.00    -0.248 NA
ATOM     18  C   UNL A   1      37.168  32.363  32.076  1.00  0.00     0.031 C 
ATOM     19  C   UNL A   1      38.306  29.732  27.983  1.00  0.00     0.029 A 
ATOM     20  N   UNL A   1      39.631  29.427  29.749  1.00  0.00    -0.354 N 
ATOM     21  C   UNL A   1      38.830  31.611  33.445  1.00  0.00     0.074 A 
ATOM     22  C   UNL A   1      37.653  32.438  33.305  1.00  0.00     0.031 C 
ATOM     23  C   UNL A   1      39.158  28.742  27.675  1.00  0.00     0.029 A 
ATOM     24  C   UNL A   1      40.086  28.567  28.779  1.00  0.00     0.049 A 
ATOM     25  H   UNL A   1      40.018  29.474  30.654  1.00  0.00     0.167 HD
ATOM     26  C   UNL A   1      39.523  31.448  34.593  1.00  0.00     0.037 A 
ATOM     27  C   UNL A   1      41.169  27.772  28.771  1.00  0.00     0.037 A 
ATOM     28  C   UNL A   1      40.693  30.622  34.692  1.00  0.00     0.049 A 
ATOM     29  C   UNL A   1      42.021  27.744  30.001  1.00  0.00     0.074 A 
ATOM     30  C   UNL A   1      41.521  30.417  35.780  1.00  0.00     0.029 A 
ATOM     31  N   UNL A   1      41.206  29.863  33.647  1.00  0.00    -0.354 N 
ATOM     32  N   UNL A   1      41.827  28.350  31.147  1.00  0.00    -0.248 NA
ATOM     33  C   UNL A   1      43.237  26.930  29.937  1.00  0.00     0.031 C 
ATOM     34  C   UNL A   1      42.567  29.582  35.374  1.00  0.00     0.029 A 
ATOM     35  C   UNL A   1      42.355  29.211  34.054  1.00  0.00     0.049 A 
ATOM     36  H   UNL A   1      40.808  29.799  32.749  1.00  0.00     0.167 HD
ATOM     37  C   UNL A   1      42.886  27.974  31.955  1.00  0.00     0.074 A 
ATOM     38  C   UNL A   1      43.712  27.078  31.166  1.00  0.00     0.031 C 
ATOM     39  C   UNL A   1      43.149  28.328  33.236  1.00  0.00     0.037 A 
BRANCH  26  40
ATOM     40  C   UNL A   1      39.069  32.244  35.781  1.00  0.00     0.057 A 
ATOM     41  C   UNL A   1      38.218  31.716  36.760  1.00  0.00     0.134 A 
ATOM     42  C   UNL A   1      39.459  33.582  35.920  1.00  0.00     0.134 A 
ATOM     43  F   UNL A   1      37.776  30.452  36.669  1.00  0.00    -0.206 F 
ATOM     44  C   UNL A   1      37.750  32.499  37.819  1.00  0.00     0.040 A 
ATOM     45  C   UNL A   1      39.022  34.365  36.987  1.00  0.00     0.040 A 
ATOM     46  F   UNL A   1      40.263  34.154  35.011  1.00  0.00    -0.206 F 
ATOM     47  C   UNL A   1      38.156  33.827  37.937  1.00  0.00     0.006 A 
ENDBRANCH  26  40
BRANCH  27  48
ATOM     48  C   UNL A   1      41.568  27.041  27.546  1.00  0.00     0.057 A 
ATOM     49  C   UNL A   1      41.222  25.706  27.326  1.00  0.00     0.134 A 
ATOM     50  C   UNL A   1      42.357  27.671  26.578  1.00  0.00     0.134 A 
ATOM     51  F   UNL A   1      40.504  25.035  28.237  1.00  0.00    -0.206 F 
ATOM     52  C   UNL A   1      41.641  25.025  26.178  1.00  0.00     0.040 A 
ATOM     53  C   UNL A   1      42.760  27.016  25.415  1.00  0.00     0.040 A 
ATOM     54  F   UNL A   1      42.736  28.946  26.755  1.00  0.00    -0.206 F 
ATOM     55  C   UNL A   1      42.405  25.685  25.215  1.00  0.00     0.006 A 
ENDBRANCH  27  48
BRANCH  39  56
ATOM     56  C   UNL A   1      44.352  27.698  33.864  1.00  0.00     0.057 A 
ATOM     57  C   UNL A   1      45.609  28.312  33.841  1.00  0.00     0.134 A 
ATOM     58  C   UNL A   1      44.236  26.467  34.521  1.00  0.00     0.134 A 
ATOM     59  F   UNL A   1      45.785  29.482  33.207  1.00  0.00    -0.206 F 
ATOM     60  C   UNL A   1      46.719  27.709  34.429  1.00  0.00     0.040 A 
ATOM     61  C   UNL A   1      45.330  25.871  35.142  1.00  0.00     0.040 A 
ATOM     62  F   UNL A   1      43.054  25.834  34.578  1.00  0.00    -0.206 F 
ATOM     63  C   UNL A   1      46.578  26.489  35.090  1.00  0.00     0.006 A 
ENDBRANCH  39  56
ENDBRANCH  13  14
ENDBRANCH   6   8
ENDBRANCH   5   6
ENDBRANCH   4   5
ENDBRANCH   3   4
ENDBRANCH   2   3
ENDBRANCH   1   2
BRANCH   1  64
ATOM     64  C   UNL A   1      29.129  33.250  23.123  1.00  0.00     0.188 C 
BRANCH  64  65
ATOM     65  O   UNL A   1      28.267  32.832  22.071  1.00  0.00    -0.376 OA
BRANCH  65  66
ATOM     66  C   UNL A   1      27.711  31.524  22.144  1.00  0.00     0.202 C 
BRANCH  66  67
ATOM     67  C   UNL A   1      28.310  30.423  21.256  1.00  0.00     0.261 C 
BRANCH  67  68
ATOM     68  O   UNL A   1      29.622  29.987  21.643  1.00  0.00    -0.459 OA
BRANCH  68  69
ATOM     69  C   UNL A   1      29.659  28.990  22.575  1.00  0.00     0.364 C 
ATOM     70  O   UNL A   1      28.736  28.220  22.814  1.00  0.00    -0.245 OA
BRANCH  69  71
ATOM     71  C   UNL A   1      31.029  28.949  23.266  1.00  0.00     0.294 C 
ATOM     72  C   UNL A   1      31.288  27.552  23.812  1.00  0.00     0.090 C 
ATOM     73  N   UNL A   1      32.116  29.182  22.298  1.00  0.00    -0.334 N 
ATOM     74  C   UNL A   1      32.758  27.218  23.471  1.00  0.00     0.036 C 
ATOM     75  C   UNL A   1      33.294  28.492  22.812  1.00  0.00     0.268 C 
ATOM     76  H   UNL A   1      32.304  30.181  22.214  1.00  0.00     0.347 HD
ATOM     77  H   UNL A   1      31.865  28.833  21.373  1.00  0.00     0.347 HD
ATOM     78  C   UNL A   1      32.798  26.016  22.509  1.00  0.00     0.076 C 
ATOM     79  C   UNL A   1      33.596  26.880  24.717  1.00  0.00     0.076 C 
ATOM     80  C   UNL A   1      32.375  24.750  23.239  1.00  0.00     0.280 C 
ATOM     81  C   UNL A   1      33.206  25.558  25.368  1.00  0.00     0.280 C 
ATOM     82  N   UNL A   1      33.242  24.441  24.389  1.00  0.00    -0.215 N 
ATOM     83  H   UNL A   1      32.804  23.599  24.764  1.00  0.00     0.367 HD
BRANCH  82  84
ATOM     84  S   UNL A   1      34.782  23.777  24.166  1.00  0.00     0.371 S 
ATOM     85  O   UNL A   1      35.078  23.762  22.751  1.00  0.00    -0.157 OA
ATOM     86  O   UNL A   1      35.652  24.453  25.098  1.00  0.00    -0.157 OA
BRANCH  84  87
ATOM     87  N   UNL A   1      34.605  22.221  24.692  1.00  0.00    -0.151 NA
ATOM     88  C   UNL A   1      35.289  21.743  25.899  1.00  0.00     0.136 C 
ATOM     89  C   UNL A   1      33.543  21.320  24.214  1.00  0.00     0.136 C 
ATOM     90  C   UNL A   1      34.248  21.517  26.990  1.00  0.00     0.177 C 
ATOM     91  C   UNL A   1      32.606  20.876  25.349  1.00  0.00     0.177 C 
ATOM     92  O   UNL A   1      33.271  20.547  26.578  1.00  0.00    -0.379 OA
ENDBRANCH  84  87
ENDBRANCH  82  84
ENDBRANCH  69  71
ENDBRANCH  68  69
ENDBRANCH  67  68
ENDBRANCH  66  67
ENDBRANCH  65  66
ENDBRANCH  64  65
ENDBRANCH   1  64
TORSDOF 19
ENDMDL
MODEL 2
REMARK VINA RESULT:     -10.9      0.815      6.090
REMARK SMILES O=C(OCCOCCOCCOC(=O)[C@H]1CC2(CC[NH+](S(=O)(=O)N3CCOCC3)CC2)C[NH2+]1)c1ccc(-c2c3nc(c(-c4c(F)cccc4F)c4ccc([nH]4)c(-c4c(F)cccc4F)c4nc(c(-c5c(F)cccc5F)c5ccc2[nH]5)C=C4)C=C3)cc1
REMARK SMILES IDX 7 1 6 2 5 3 4 4 3 5 2 6 1 7 34 8 35 9 87 10 36 11 86 12
REMARK SMILES IDX 37 13 38 14 39 15 80 16 40 17 85 18 79 19 81 20 41 21 84 22
REMARK SMILES IDX 78 23 77 24 42 26 68 27 51 28 67 29 52 30 55 31 66 32 82 33
REMARK SMILES IDX 53 34 54 35 65 37 83 38 56 39 43 40 44 41 49 42 45 43 46 44
REMARK SMILES IDX 48 45 50 46 47 47 69 48 70 49 75 50 71 51 72 52 74 53 76 54
REMARK SMILES IDX 73 55 57 56 58 57 63 58 59 59 60 60 62 61 64 62 61 63 8 64
REMARK SMILES IDX 9 65 10 66 11 67 12 68 13 69 14 70 15 71 16 72 33 73 17 74
REMARK SMILES IDX 32 75 18 78 31 79 19 80 30 81 20 82 21 84 22 85 23 86 24 87
REMARK SMILES IDX 25 88 29 89 26 90 28 91 27 92
REMARK H PARENT 81 25 55 36 33 76 33 77 20 83
REMARK Flexibility Score: inf
ROOT
ATOM      1  C   UNL A   1      29.747  32.567  24.005  1.00  0.00     0.188 C 
ENDROOT
BRANCH   1   2
ATOM      2  O   UNL A   1      30.421  33.091  25.151  1.00  0.00    -0.376 OA
BRANCH   2   3
ATOM      3  C   UNL A   1      30.844  32.097  26.093  1.00  0.00     0.202 C 
BRANCH   3   4
ATOM      4  C   UNL A   1      32.133  32.407  26.878  1.00  0.00     0.261 C 
BRANCH   4   5
ATOM      5  O   UNL A   1      32.209  33.749  27.393  1.00  0.00    -0.460 OA
BRANCH   5   6
ATOM      6  C   UNL A   1      33.079  34.278  28.288  1.00  0.00     0.338 C 
ATOM      7  O   UNL A   1      32.909  35.436  28.664  1.00  0.00    -0.246 OA
BRANCH   6   8
ATOM      8  C   UNL A   1      34.258  33.540  28.833  1.00  0.00     0.060 A 
ATOM      9  C   UNL A   1      34.186  32.322  29.499  1.00  0.00     0.016 A 
ATOM     10  C   UNL A   1      35.534  34.079  28.594  1.00  0.00     0.016 A 
ATOM     11  C   UNL A   1      35.310  31.701  30.013  1.00  0.00     0.010 A 
ATOM     12  C   UNL A   1      36.686  33.433  29.060  1.00  0.00     0.010 A 
ATOM     13  C   UNL A   1      36.566  32.255  29.807  1.00  0.00    -0.014 A 
BRANCH  13  14
ATOM     14  C   UNL A   1      37.694  31.654  30.538  1.00  0.00     0.031 A 
ATOM     15  C   UNL A   1      38.540  30.652  29.818  1.00  0.00     0.074 A 
ATOM     16  C   UNL A   1      38.058  32.140  31.738  1.00  0.00     0.049 A 
ATOM     17  N   UNL A   1      39.569  29.977  30.251  1.00  0.00    -0.248 NA
ATOM     18  C   UNL A   1      38.199  30.396  28.407  1.00  0.00     0.031 C 
ATOM     19  C   UNL A   1      37.396  33.246  32.433  1.00  0.00     0.029 A 
ATOM     20  N   UNL A   1      39.086  31.798  32.572  1.00  0.00    -0.354 N 
ATOM     21  C   UNL A   1      39.986  29.206  29.176  1.00  0.00     0.074 A 
ATOM     22  C   UNL A   1      39.092  29.479  28.074  1.00  0.00     0.031 C 
ATOM     23  C   UNL A   1      38.031  33.485  33.592  1.00  0.00     0.029 A 
ATOM     24  C   UNL A   1      39.094  32.507  33.749  1.00  0.00     0.049 A 
ATOM     25  H   UNL A   1      39.754  31.110  32.352  1.00  0.00     0.167 HD
ATOM     26  C   UNL A   1      41.028  28.347  29.125  1.00  0.00     0.037 A 
ATOM     27  C   UNL A   1      39.846  32.341  34.851  1.00  0.00     0.037 A 
ATOM     28  C   UNL A   1      41.892  28.097  30.245  1.00  0.00     0.049 A 
ATOM     29  C   UNL A   1      40.881  31.261  34.830  1.00  0.00     0.074 A 
ATOM     30  C   UNL A   1      42.946  27.209  30.346  1.00  0.00     0.029 A 
ATOM     31  N   UNL A   1      41.789  28.742  31.472  1.00  0.00    -0.354 N 
ATOM     32  N   UNL A   1      41.220  30.468  33.842  1.00  0.00    -0.248 NA
ATOM     33  C   UNL A   1      41.631  31.049  36.070  1.00  0.00     0.031 C 
ATOM     34  C   UNL A   1      43.442  27.275  31.652  1.00  0.00     0.029 A 
ATOM     35  C   UNL A   1      42.741  28.251  32.346  1.00  0.00     0.049 A 
ATOM     36  H   UNL A   1      41.134  29.445  31.687  1.00  0.00     0.167 HD
ATOM     37  C   UNL A   1      42.243  29.674  34.332  1.00  0.00     0.074 A 
ATOM     38  C   UNL A   1      42.472  30.092  35.703  1.00  0.00     0.031 C 
ATOM     39  C   UNL A   1      42.936  28.694  33.705  1.00  0.00     0.037 A 
BRANCH  26  40
ATOM     40  C   UNL A   1      41.214  27.577  27.852  1.00  0.00     0.057 A 
ATOM     41  C   UNL A   1      40.665  26.303  27.656  1.00  0.00     0.134 A 
ATOM     42  C   UNL A   1      41.997  28.107  26.819  1.00  0.00     0.134 A 
ATOM     43  F   UNL A   1      39.934  25.721  28.619  1.00  0.00    -0.206 F 
ATOM     44  C   UNL A   1      40.912  25.574  26.490  1.00  0.00     0.040 A 
ATOM     45  C   UNL A   1      42.227  27.401  25.639  1.00  0.00     0.040 A 
ATOM     46  F   UNL A   1      42.563  29.317  26.946  1.00  0.00    -0.206 F 
ATOM     47  C   UNL A   1      41.692  26.126  25.475  1.00  0.00     0.006 A 
ENDBRANCH  26  40
BRANCH  27  48
ATOM     48  C   UNL A   1      39.578  33.122  36.081  1.00  0.00     0.057 A 
ATOM     49  C   UNL A   1      40.271  34.295  36.388  1.00  0.00     0.134 A 
ATOM     50  C   UNL A   1      38.633  32.669  37.007  1.00  0.00     0.134 A 
ATOM     51  F   UNL A   1      41.219  34.755  35.560  1.00  0.00    -0.206 F 
ATOM     52  C   UNL A   1      40.026  34.995  37.573  1.00  0.00     0.040 A 
ATOM     53  C   UNL A   1      38.356  33.371  38.181  1.00  0.00     0.040 A 
ATOM     54  F   UNL A   1      37.957  31.534  36.770  1.00  0.00    -0.206 F 
ATOM     55  C   UNL A   1      39.059  34.537  38.468  1.00  0.00     0.006 A 
ENDBRANCH  27  48
BRANCH  39  56
ATOM     56  C   UNL A   1      44.037  28.054  34.490  1.00  0.00     0.057 A 
ATOM     57  C   UNL A   1      43.837  26.887  35.234  1.00  0.00     0.134 A 
ATOM     58  C   UNL A   1      45.322  28.611  34.476  1.00  0.00     0.134 A 
ATOM     59  F   UNL A   1      42.622  26.322  35.302  1.00  0.00    -0.206 F 
ATOM     60  C   UNL A   1      44.875  26.307  35.962  1.00  0.00     0.040 A 
ATOM     61  C   UNL A   1      46.375  28.021  35.172  1.00  0.00     0.040 A 
ATOM     62  F   UNL A   1      45.574  29.728  33.777  1.00  0.00    -0.206 F 
ATOM     63  C   UNL A   1      46.150  26.870  35.923  1.00  0.00     0.006 A 
ENDBRANCH  39  56
ENDBRANCH  13  14
ENDBRANCH   6   8
ENDBRANCH   5   6
ENDBRANCH   4   5
ENDBRANCH   3   4
ENDBRANCH   2   3
ENDBRANCH   1   2
BRANCH   1  64
ATOM     64  C   UNL A   1      29.106  33.637  23.120  1.00  0.00     0.188 C 
BRANCH  64  65
ATOM     65  O   UNL A   1      28.173  33.199  22.139  1.00  0.00    -0.376 OA
BRANCH  65  66
ATOM     66  C   UNL A   1      27.719  31.852  22.204  1.00  0.00     0.202 C 
BRANCH  66  67
ATOM     67  C   UNL A   1      28.065  30.905  21.045  1.00  0.00     0.261 C 
BRANCH  67  68
ATOM     68  O   UNL A   1      29.146  29.999  21.311  1.00  0.00    -0.459 OA
BRANCH  68  69
ATOM     69  C   UNL A   1      29.005  29.226  22.427  1.00  0.00     0.364 C 
ATOM     70  O   UNL A   1      27.956  28.704  22.790  1.00  0.00    -0.245 OA
BRANCH  69  71
ATOM     71  C   UNL A   1      30.348  29.077  23.154  1.00  0.00     0.294 C 
ATOM     72  C   UNL A   1      30.584  27.615  23.505  1.00  0.00     0.090 C 
ATOM     73  N   UNL A   1      31.470  29.438  22.269  1.00  0.00    -0.334 N 
ATOM     74  C   UNL A   1      32.065  27.323  23.173  1.00  0.00     0.036 C 
ATOM     75  C   UNL A   1      32.627  28.674  22.722  1.00  0.00     0.268 C 
ATOM     76  H   UNL A   1      31.663  30.437  22.334  1.00  0.00     0.347 HD
ATOM     77  H   UNL A   1      31.252  29.225  21.295  1.00  0.00     0.347 HD
ATOM     78  C   UNL A   1      32.138  26.269  22.052  1.00  0.00     0.076 C 
ATOM     79  C   UNL A   1      32.856  26.806  24.388  1.00  0.00     0.076 C 
ATOM     80  C   UNL A   1      31.686  24.916  22.580  1.00  0.00     0.280 C 
ATOM     81  C   UNL A   1      32.440  25.407  24.830  1.00  0.00     0.280 C 
ATOM     82  N   UNL A   1      32.510  24.440  23.705  1.00  0.00    -0.215 N 
ATOM     83  H   UNL A   1      32.057  23.557  23.940  1.00  0.00     0.367 HD
BRANCH  82  84
ATOM     84  S   UNL A   1      34.056  23.804  23.446  1.00  0.00     0.371 S 
ATOM     85  O   UNL A   1      34.204  23.509  22.037  1.00  0.00    -0.157 OA
ATOM     86  O   UNL A   1      34.976  24.690  24.117  1.00  0.00    -0.157 OA
BRANCH  84  87
ATOM     87  N   UNL A   1      34.029  22.384  24.289  1.00  0.00    -0.151 NA
ATOM     88  C   UNL A   1      35.271  21.729  24.715  1.00  0.00     0.136 C 
ATOM     89  C   UNL A   1      32.822  21.852  24.943  1.00  0.00     0.136 C 
ATOM     90  C   UNL A   1      35.388  21.846  26.231  1.00  0.00     0.177 C 
ATOM     91  C   UNL A   1      32.994  21.730  26.465  1.00  0.00     0.177 C 
ATOM     92  O   UNL A   1      34.270  21.222  26.884  1.00  0.00    -0.379 OA
ENDBRANCH  84  87
ENDBRANCH  82  84
ENDBRANCH  69  71
ENDBRANCH  68  69
ENDBRANCH  67  68
ENDBRANCH  66  67
ENDBRANCH  65  66
ENDBRANCH  64  65
ENDBRANCH   1  64
TORSDOF 19
ENDMDL
MODEL 3
REMARK VINA RESULT:     -10.8      3.871      6.460
REMARK SMILES O=C(OCCOCCOCCOC(=O)[C@H]1CC2(CC[NH+](S(=O)(=O)N3CCOCC3)CC2)C[NH2+]1)c1ccc(-c2c3nc(c(-c4c(F)cccc4F)c4ccc([nH]4)c(-c4c(F)cccc4F)c4nc(c(-c5c(F)cccc5F)c5ccc2[nH]5)C=C4)C=C3)cc1
REMARK SMILES IDX 7 1 6 2 5 3 4 4 3 5 2 6 1 7 34 8 35 9 87 10 36 11 86 12
REMARK SMILES IDX 37 13 38 14 39 15 80 16 40 17 85 18 79 19 81 20 41 21 84 22
REMARK SMILES IDX 78 23 77 24 42 26 68 27 51 28 67 29 52 30 55 31 66 32 82 33
REMARK SMILES IDX 53 34 54 35 65 37 83 38 56 39 43 40 44 41 49 42 45 43 46 44
REMARK SMILES IDX 48 45 50 46 47 47 69 48 70 49 75 50 71 51 72 52 74 53 76 54
REMARK SMILES IDX 73 55 57 56 58 57 63 58 59 59 60 60 62 61 64 62 61 63 8 64
REMARK SMILES IDX 9 65 10 66 11 67 12 68 13 69 14 70 15 71 16 72 33 73 17 74
REMARK SMILES IDX 32 75 18 78 31 79 19 80 30 81 20 82 21 84 22 85 23 86 24 87
REMARK SMILES IDX 25 88 29 89 26 90 28 91 27 92
REMARK H PARENT 81 25 55 36 33 76 33 77 20 83
REMARK Flexibility Score: inf
ROOT
ATOM      1  C   UNL A   1      33.273  35.289  31.252  1.00  0.00     0.188 C 
ENDROOT
BRANCH   1   2
ATOM      2  O   UNL A   1      34.494  35.632  31.913  1.00  0.00    -0.376 OA
BRANCH   2   3
ATOM      3  C   UNL A   1      34.436  35.544  33.342  1.00  0.00     0.202 C 
BRANCH   3   4
ATOM      4  C   UNL A   1      35.157  34.341  33.980  1.00  0.00     0.261 C 
BRANCH   4   5
ATOM      5  O   UNL A   1      36.081  33.669  33.105  1.00  0.00    -0.460 OA
BRANCH   5   6
ATOM      6  C   UNL A   1      35.901  32.550  32.360  1.00  0.00     0.338 C 
ATOM      7  O   UNL A   1      34.766  32.094  32.244  1.00  0.00    -0.246 OA
BRANCH   6   8
ATOM      8  C   UNL A   1      37.012  31.819  31.681  1.00  0.00     0.060 A 
ATOM      9  C   UNL A   1      37.965  31.049  32.338  1.00  0.00     0.016 A 
ATOM     10  C   UNL A   1      37.057  31.854  30.277  1.00  0.00     0.016 A 
ATOM     11  C   UNL A   1      38.994  30.421  31.660  1.00  0.00     0.010 A 
ATOM     12  C   UNL A   1      38.060  31.178  29.572  1.00  0.00     0.010 A 
ATOM     13  C   UNL A   1      39.056  30.489  30.275  1.00  0.00    -0.014 A 
BRANCH  13  14
ATOM     14  C   UNL A   1      40.273  29.966  29.630  1.00  0.00     0.031 A 
ATOM     15  C   UNL A   1      41.462  30.870  29.541  1.00  0.00     0.074 A 
ATOM     16  C   UNL A   1      40.364  28.661  29.316  1.00  0.00     0.049 A 
ATOM     17  N   UNL A   1      42.631  30.646  29.008  1.00  0.00    -0.248 NA
ATOM     18  C   UNL A   1      41.325  32.198  30.165  1.00  0.00     0.031 C 
ATOM     19  C   UNL A   1      39.313  27.667  29.540  1.00  0.00     0.029 A 
ATOM     20  N   UNL A   1      41.389  27.937  28.775  1.00  0.00    -0.354 N 
ATOM     21  C   UNL A   1      43.361  31.808  29.215  1.00  0.00     0.074 A 
ATOM     22  C   UNL A   1      42.502  32.743  29.905  1.00  0.00     0.031 C 
ATOM     23  C   UNL A   1      39.746  26.464  29.133  1.00  0.00     0.029 A 
ATOM     24  C   UNL A   1      41.072  26.617  28.558  1.00  0.00     0.049 A 
ATOM     25  H   UNL A   1      42.269  28.322  28.561  1.00  0.00     0.167 HD
ATOM     26  C   UNL A   1      44.638  32.059  28.854  1.00  0.00     0.037 A 
ATOM     27  C   UNL A   1      41.760  25.660  27.914  1.00  0.00     0.037 A 
ATOM     28  C   UNL A   1      45.460  31.105  28.162  1.00  0.00     0.049 A 
ATOM     29  C   UNL A   1      43.106  26.018  27.369  1.00  0.00     0.074 A 
ATOM     30  C   UNL A   1      46.749  31.254  27.687  1.00  0.00     0.029 A 
ATOM     31  N   UNL A   1      45.057  29.815  27.839  1.00  0.00    -0.354 N 
ATOM     32  N   UNL A   1      43.765  27.145  27.485  1.00  0.00    -0.248 NA
ATOM     33  C   UNL A   1      43.800  24.979  26.603  1.00  0.00     0.031 C 
ATOM     34  C   UNL A   1      47.104  30.074  27.025  1.00  0.00     0.029 A 
ATOM     35  C   UNL A   1      46.062  29.165  27.146  1.00  0.00     0.049 A 
ATOM     36  H   UNL A   1      44.185  29.421  28.071  1.00  0.00     0.167 HD
ATOM     37  C   UNL A   1      44.967  26.948  26.827  1.00  0.00     0.074 A 
ATOM     38  C   UNL A   1      44.945  25.586  26.323  1.00  0.00     0.031 C 
ATOM     39  C   UNL A   1      45.999  27.809  26.660  1.00  0.00     0.037 A 
BRANCH  26  40
ATOM     40  C   UNL A   1      45.166  33.435  29.132  1.00  0.00     0.057 A 
ATOM     41  C   UNL A   1      45.789  33.772  30.341  1.00  0.00     0.134 A 
ATOM     42  C   UNL A   1      45.005  34.453  28.184  1.00  0.00     0.134 A 
ATOM     43  F   UNL A   1      45.943  32.853  31.307  1.00  0.00    -0.206 F 
ATOM     44  C   UNL A   1      46.208  35.078  30.607  1.00  0.00     0.040 A 
ATOM     45  C   UNL A   1      45.445  35.755  28.427  1.00  0.00     0.040 A 
ATOM     46  F   UNL A   1      44.406  34.203  27.011  1.00  0.00    -0.206 F 
ATOM     47  C   UNL A   1      46.040  36.073  29.645  1.00  0.00     0.006 A 
ENDBRANCH  26  40
BRANCH  27  48
ATOM     48  C   UNL A   1      41.155  24.333  27.651  1.00  0.00     0.057 A 
ATOM     49  C   UNL A   1      41.577  23.176  28.310  1.00  0.00     0.134 A 
ATOM     50  C   UNL A   1      40.154  24.197  26.684  1.00  0.00     0.134 A 
ATOM     51  F   UNL A   1      42.562  23.235  29.216  1.00  0.00    -0.206 F 
ATOM     52  C   UNL A   1      41.016  21.928  28.018  1.00  0.00     0.040 A 
ATOM     53  C   UNL A   1      39.564  22.965  26.401  1.00  0.00     0.040 A 
ATOM     54  F   UNL A   1      39.731  25.275  26.006  1.00  0.00    -0.206 F 
ATOM     55  C   UNL A   1      40.000  21.823  27.068  1.00  0.00     0.006 A 
ENDBRANCH  27  48
BRANCH  39  56
ATOM     56  C   UNL A   1      47.201  27.273  25.947  1.00  0.00     0.057 A 
ATOM     57  C   UNL A   1      47.377  27.431  24.568  1.00  0.00     0.134 A 
ATOM     58  C   UNL A   1      48.204  26.611  26.665  1.00  0.00     0.134 A 
ATOM     59  F   UNL A   1      46.438  28.037  23.826  1.00  0.00    -0.206 F 
ATOM     60  C   UNL A   1      48.502  26.922  23.921  1.00  0.00     0.040 A 
ATOM     61  C   UNL A   1      49.348  26.128  26.034  1.00  0.00     0.040 A 
ATOM     62  F   UNL A   1      48.090  26.433  27.990  1.00  0.00    -0.206 F 
ATOM     63  C   UNL A   1      49.495  26.277  24.657  1.00  0.00     0.006 A 
ENDBRANCH  39  56
ENDBRANCH  13  14
ENDBRANCH   6   8
ENDBRANCH   5   6
ENDBRANCH   4   5
ENDBRANCH   3   4
ENDBRANCH   2   3
ENDBRANCH   1   2
BRANCH   1  64
ATOM     64  C   UNL A   1      33.112  35.935  29.875  1.00  0.00     0.188 C 
BRANCH  64  65
ATOM     65  O   UNL A   1      33.775  35.311  28.781  1.00  0.00    -0.376 OA
BRANCH  65  66
ATOM     66  C   UNL A   1      33.323  34.025  28.373  1.00  0.00     0.202 C 
BRANCH  66  67
ATOM     67  C   UNL A   1      34.371  32.963  28.006  1.00  0.00     0.261 C 
BRANCH  67  68
ATOM     68  O   UNL A   1      34.062  31.634  28.455  1.00  0.00    -0.459 OA
BRANCH  68  69
ATOM     69  C   UNL A   1      34.378  30.631  27.586  1.00  0.00     0.364 C 
ATOM     70  O   UNL A   1      35.490  30.125  27.475  1.00  0.00    -0.245 OA
BRANCH  69  71
ATOM     71  C   UNL A   1      33.143  30.204  26.781  1.00  0.00     0.294 C 
ATOM     72  C   UNL A   1      33.553  29.225  25.690  1.00  0.00     0.090 C 
ATOM     73  N   UNL A   1      32.198  29.451  27.626  1.00  0.00    -0.334 N 
ATOM     74  C   UNL A   1      32.490  28.103  25.692  1.00  0.00     0.036 C 
ATOM     75  C   UNL A   1      31.469  28.548  26.742  1.00  0.00     0.268 C 
ATOM     76  H   UNL A   1      31.549  30.091  28.085  1.00  0.00     0.347 HD
ATOM     77  H   UNL A   1      32.689  28.931  28.353  1.00  0.00     0.347 HD
ATOM     78  C   UNL A   1      33.158  26.768  26.072  1.00  0.00     0.076 C 
ATOM     79  C   UNL A   1      31.799  27.936  24.327  1.00  0.00     0.076 C 
ATOM     80  C   UNL A   1      34.070  26.303  24.948  1.00  0.00     0.280 C 
ATOM     81  C   UNL A   1      32.719  27.378  23.247  1.00  0.00     0.280 C 
ATOM     82  N   UNL A   1      33.349  26.104  23.677  1.00  0.00    -0.215 N 
ATOM     83  H   UNL A   1      34.103  25.827  23.048  1.00  0.00     0.367 HD
BRANCH  82  84
ATOM     84  S   UNL A   1      32.377  24.742  23.430  1.00  0.00     0.371 S 
ATOM     85  O   UNL A   1      31.018  25.071  23.799  1.00  0.00    -0.157 OA
ATOM     86  O   UNL A   1      32.689  24.259  22.106  1.00  0.00    -0.157 OA
BRANCH  84  87
ATOM     87  N   UNL A   1      32.975  23.647  24.512  1.00  0.00    -0.151 NA
ATOM     88  C   UNL A   1      32.210  23.261  25.704  1.00  0.00     0.136 C 
ATOM     89  C   UNL A   1      34.113  22.759  24.223  1.00  0.00     0.136 C 
ATOM     90  C   UNL A   1      31.737  21.821  25.533  1.00  0.00     0.177 C 
ATOM     91  C   UNL A   1      33.719  21.275  24.280  1.00  0.00     0.177 C 
ATOM     92  O   UNL A   1      32.850  20.928  25.369  1.00  0.00    -0.379 OA
ENDBRANCH  84  87
ENDBRANCH  82  84
ENDBRANCH  69  71
ENDBRANCH  68  69
ENDBRANCH  67  68
ENDBRANCH  66  67
ENDBRANCH  65  66
ENDBRANCH  64  65
ENDBRANCH   1  64
TORSDOF 19
ENDMDL
