MODEL 1
REMARK VINA RESULT:     -12.7      0.000      0.000
REMARK SMILES Cc1ccc(Nc2c(F)cccc2Cl)c(CC(=O)OCCOCCOCCOC(=O)c2ccc(-c3c4nc(c(-c5c(F)cccc5F)c5ccc([nH]5)c(-c5c(F)cccc5F)c5nc(c(-c6c(F)cccc6F)c6ccc3[nH]6)C=C5)C=C4)cc2)c1
REMARK SMILES IDX 23 1 22 2 21 3 20 4 19 5 17 6 18 7 16 8 15 9 1 10 2 11 3 12
REMARK SMILES IDX 85 13 4 14 5 15 6 16 7 18 8 19 13 20 9 21 10 22 12 23 14 24
REMARK SMILES IDX 11 25 24 26 25 27 26 28 27 29 28 30 29 31 30 32 31 33 32 34
REMARK SMILES IDX 84 35 33 36 83 37 34 38 35 39 36 40 77 41 37 42 82 43 76 44
REMARK SMILES IDX 78 45 38 46 81 47 75 48 74 49 39 51 65 52 48 53 64 54 49 55
REMARK SMILES IDX 52 56 63 57 79 58 50 59 51 60 62 62 80 63 53 64 40 65 41 66
REMARK SMILES IDX 46 67 42 68 43 69 45 70 47 71 44 72 66 73 67 74 72 75 68 76
REMARK SMILES IDX 69 77 71 78 73 79 70 80 54 81 55 82 60 83 56 84 57 85 59 86
REMARK SMILES IDX 61 87 58 88
REMARK H PARENT 6 17 78 50 52 61
REMARK Flexibility Score: inf
ROOT
ATOM      1  C   UNL A   1      41.140  20.941  26.141  1.00  0.00     0.188 C 
ENDROOT
BRANCH   1   2
ATOM      2  O   UNL A   1      39.941  21.483  26.647  1.00  0.00    -0.376 OA
BRANCH   2   3
ATOM      3  C   UNL A   1      39.741  22.877  26.742  1.00  0.00     0.202 C 
BRANCH   3   4
ATOM      4  C   UNL A   1      38.445  23.812  26.433  1.00  0.00     0.261 C 
BRANCH   4   5
ATOM      5  O   UNL A   1      37.148  23.903  25.190  1.00  0.00    -0.463 OA
BRANCH   5   6
ATOM      6  C   UNL A   1      36.329  23.131  24.018  1.00  0.00     0.310 C 
ATOM      7  O   UNL A   1      36.407  23.072  22.784  1.00  0.00    -0.252 OA
BRANCH   6   8
ATOM      8  C   UNL A   1      35.482  22.098  24.519  1.00  0.00     0.160 C 
BRANCH   8   9
ATOM      9  C   UNL A   1      34.186  22.486  23.895  1.00  0.00    -0.013 A 
ATOM     10  C   UNL A   1      32.336  19.184  24.352  1.00  0.00     0.044 C 
ATOM     11  C   UNL A   1      32.648  20.645  24.421  1.00  0.00    -0.051 A 
ATOM     12  C   UNL A   1      32.085  21.504  25.336  1.00  0.00     0.005 A 
ATOM     13  C   UNL A   1      33.632  21.170  23.617  1.00  0.00     0.009 A 
ATOM     14  C   UNL A   1      32.513  22.864  25.405  1.00  0.00     0.026 A 
ATOM     15  C   UNL A   1      33.596  23.623  24.497  1.00  0.00     0.042 A 
BRANCH  15  16
ATOM     16  N   UNL A   1      33.613  25.600  24.116  1.00  0.00    -0.352 N 
ATOM     17  H   UNL A   1      34.246  25.837  23.401  1.00  0.00     0.167 HD
BRANCH  16  18
ATOM     18  C   UNL A   1      32.741  27.052  24.774  1.00  0.00     0.094 A 
ATOM     19  C   UNL A   1      33.147  28.500  24.545  1.00  0.00     0.148 A 
ATOM     20  C   UNL A   1      31.854  26.938  25.862  1.00  0.00     0.067 A 
ATOM     21  F   UNL A   1      34.063  28.952  23.665  1.00  0.00    -0.205 F 
ATOM     22  C   UNL A   1      32.768  29.585  25.340  1.00  0.00     0.041 A 
ATOM     23  C   UNL A   1      31.565  28.068  26.702  1.00  0.00     0.023 A 
ATOM     24  Cl  UNL A   1      30.830  25.627  26.197  1.00  0.00    -0.082 Cl
ATOM     25  C   UNL A   1      32.035  29.361  26.469  1.00  0.00     0.005 A 
ENDBRANCH  16  18
ENDBRANCH  15  16
ENDBRANCH   8   9
ENDBRANCH   6   8
ENDBRANCH   5   6
ENDBRANCH   4   5
ENDBRANCH   3   4
ENDBRANCH   2   3
ENDBRANCH   1   2
BRANCH   1  26
ATOM     26  C   UNL A   1      42.479  21.678  26.215  1.00  0.00     0.188 C 
BRANCH  26  27
ATOM     27  O   UNL A   1      42.972  22.143  24.977  1.00  0.00    -0.376 OA
BRANCH  27  28
ATOM     28  C   UNL A   1      43.525  23.461  25.001  1.00  0.00     0.202 C 
BRANCH  28  29
ATOM     29  C   UNL A   1      42.645  24.671  25.547  1.00  0.00     0.261 C 
BRANCH  29  30
ATOM     30  O   UNL A   1      43.044  26.039  25.109  1.00  0.00    -0.460 OA
BRANCH  30  31
ATOM     31  C   UNL A   1      42.327  27.219  25.409  1.00  0.00     0.338 C 
ATOM     32  O   UNL A   1      42.392  28.153  24.634  1.00  0.00    -0.246 OA
BRANCH  31  33
ATOM     33  C   UNL A   1      41.567  27.116  26.878  1.00  0.00     0.060 A 
ATOM     34  C   UNL A   1      39.783  27.100  27.681  1.00  0.00     0.016 A 
ATOM     35  C   UNL A   1      42.653  28.400  27.539  1.00  0.00     0.016 A 
ATOM     36  C   UNL A   1      39.318  28.508  28.865  1.00  0.00     0.010 A 
ATOM     37  C   UNL A   1      42.064  29.679  28.568  1.00  0.00     0.010 A 
ATOM     38  C   UNL A   1      40.452  29.878  29.317  1.00  0.00    -0.014 A 
BRANCH  38  39
ATOM     39  C   UNL A   1      40.430  31.288  30.563  1.00  0.00     0.031 A 
ATOM     40  C   UNL A   1      41.739  31.796  31.851  1.00  0.00     0.074 A 
ATOM     41  C   UNL A   1      39.600  32.352  30.441  1.00  0.00     0.049 A 
ATOM     42  N   UNL A   1      41.586  31.942  33.155  1.00  0.00    -0.248 NA
ATOM     43  C   UNL A   1      43.375  31.719  31.732  1.00  0.00     0.031 C 
ATOM     44  C   UNL A   1      39.797  33.687  31.043  1.00  0.00     0.029 A 
ATOM     45  N   UNL A   1      38.446  32.527  29.679  1.00  0.00    -0.354 N 
ATOM     46  C   UNL A   1      42.898  32.012  33.747  1.00  0.00     0.074 A 
ATOM     47  C   UNL A   1      43.814  31.358  32.911  1.00  0.00     0.031 C 
ATOM     48  C   UNL A   1      38.682  34.420  30.881  1.00  0.00     0.029 A 
ATOM     49  C   UNL A   1      37.685  33.526  30.328  1.00  0.00     0.049 A 
ATOM     50  H   UNL A   1      38.207  32.050  28.852  1.00  0.00     0.167 HD
ATOM     51  C   UNL A   1      43.330  33.031  34.553  1.00  0.00     0.037 A 
ATOM     52  C   UNL A   1      36.525  33.160  30.936  1.00  0.00     0.037 A 
ATOM     53  C   UNL A   1      42.222  33.938  34.672  1.00  0.00     0.049 A 
ATOM     54  C   UNL A   1      36.677  33.239  32.441  1.00  0.00     0.074 A 
ATOM     55  C   UNL A   1      41.868  35.095  34.002  1.00  0.00     0.029 A 
ATOM     56  N   UNL A   1      41.056  33.391  35.165  1.00  0.00    -0.354 N 
ATOM     57  N   UNL A   1      37.833  33.315  33.052  1.00  0.00    -0.248 NA
ATOM     58  C   UNL A   1      35.561  33.360  33.371  1.00  0.00     0.031 C 
ATOM     59  C   UNL A   1      40.445  35.201  34.068  1.00  0.00     0.029 A 
ATOM     60  C   UNL A   1      39.956  34.119  34.783  1.00  0.00     0.049 A 
ATOM     61  H   UNL A   1      41.018  32.580  35.721  1.00  0.00     0.167 HD
ATOM     62  C   UNL A   1      37.648  33.513  34.388  1.00  0.00     0.074 A 
ATOM     63  C   UNL A   1      36.207  33.523  34.540  1.00  0.00     0.031 C 
ATOM     64  C   UNL A   1      38.668  33.670  35.281  1.00  0.00     0.037 A 
BRANCH  51  65
ATOM     65  C   UNL A   1      44.813  33.348  34.845  1.00  0.00     0.057 A 
ATOM     66  C   UNL A   1      45.557  34.151  33.965  1.00  0.00     0.134 A 
ATOM     67  C   UNL A   1      45.569  32.901  35.963  1.00  0.00     0.134 A 
ATOM     68  F   UNL A   1      44.987  34.719  32.895  1.00  0.00    -0.206 F 
ATOM     69  C   UNL A   1      46.927  34.430  34.137  1.00  0.00     0.040 A 
ATOM     70  C   UNL A   1      46.957  33.103  36.104  1.00  0.00     0.040 A 
ATOM     71  F   UNL A   1      44.995  32.279  37.004  1.00  0.00    -0.206 F 
ATOM     72  C   UNL A   1      47.642  33.883  35.192  1.00  0.00     0.006 A 
ENDBRANCH  51  65
BRANCH  52  73
ATOM     73  C   UNL A   1      35.796  32.182  30.068  1.00  0.00     0.057 A 
ATOM     74  C   UNL A   1      35.137  32.717  28.933  1.00  0.00     0.134 A 
ATOM     75  C   UNL A   1      36.148  30.828  30.001  1.00  0.00     0.134 A 
ATOM     76  F   UNL A   1      34.839  34.026  28.883  1.00  0.00    -0.206 F 
ATOM     77  C   UNL A   1      34.913  31.970  27.772  1.00  0.00     0.040 A 
ATOM     78  C   UNL A   1      35.926  30.070  28.839  1.00  0.00     0.040 A 
ATOM     79  F   UNL A   1      36.833  30.253  30.999  1.00  0.00    -0.206 F 
ATOM     80  C   UNL A   1      35.309  30.639  27.725  1.00  0.00     0.006 A 
ENDBRANCH  52  73
BRANCH  64  81
ATOM     81  C   UNL A   1      38.553  33.374  36.761  1.00  0.00     0.057 A 
ATOM     82  C   UNL A   1      38.743  34.344  37.752  1.00  0.00     0.134 A 
ATOM     83  C   UNL A   1      38.027  32.142  37.226  1.00  0.00     0.134 A 
ATOM     84  F   UNL A   1      39.091  35.603  37.457  1.00  0.00    -0.206 F 
ATOM     85  C   UNL A   1      38.523  34.079  39.108  1.00  0.00     0.040 A 
ATOM     86  C   UNL A   1      37.693  31.910  38.559  1.00  0.00     0.040 A 
ATOM     87  F   UNL A   1      37.770  31.112  36.404  1.00  0.00    -0.206 F 
ATOM     88  C   UNL A   1      37.980  32.868  39.513  1.00  0.00     0.006 A 
ENDBRANCH  64  81
ENDBRANCH  38  39
ENDBRANCH  31  33
ENDBRANCH  30  31
ENDBRANCH  29  30
ENDBRANCH  28  29
ENDBRANCH  27  28
ENDBRANCH  26  27
ENDBRANCH   1  26
TORSDOF 20
ENDMDL
MODEL 2
REMARK VINA RESULT:     -12.2      4.090      8.505
REMARK SMILES Cc1ccc(Nc2c(F)cccc2Cl)c(CC(=O)OCCOCCOCCOC(=O)c2ccc(-c3c4nc(c(-c5c(F)cccc5F)c5ccc([nH]5)c(-c5c(F)cccc5F)c5nc(c(-c6c(F)cccc6F)c6ccc3[nH]6)C=C5)C=C4)cc2)c1
REMARK SMILES IDX 23 1 22 2 21 3 20 4 19 5 17 6 18 7 16 8 15 9 1 10 2 11 3 12
REMARK SMILES IDX 85 13 4 14 5 15 6 16 7 18 8 19 13 20 9 21 10 22 12 23 14 24
REMARK SMILES IDX 11 25 24 26 25 27 26 28 27 29 28 30 29 31 30 32 31 33 32 34
REMARK SMILES IDX 84 35 33 36 83 37 34 38 35 39 36 40 77 41 37 42 82 43 76 44
REMARK SMILES IDX 78 45 38 46 81 47 75 48 74 49 39 51 65 52 48 53 64 54 49 55
REMARK SMILES IDX 52 56 63 57 79 58 50 59 51 60 62 62 80 63 53 64 40 65 41 66
REMARK SMILES IDX 46 67 42 68 43 69 45 70 47 71 44 72 66 73 67 74 72 75 68 76
REMARK SMILES IDX 69 77 71 78 73 79 70 80 54 81 55 82 60 83 56 84 57 85 59 86
REMARK SMILES IDX 61 87 58 88
REMARK H PARENT 6 17 78 50 52 61
REMARK Flexibility Score: inf
ROOT
ATOM      1  C   UNL A   1      34.056  30.399  27.238  1.00  0.00     0.188 C 
ENDROOT
BRANCH   1   2
ATOM      2  O   UNL A   1      33.235  29.753  26.292  1.00  0.00    -0.376 OA
BRANCH   2   3
ATOM      3  C   UNL A   1      33.730  28.720  25.466  1.00  0.00     0.202 C 
BRANCH   3   4
ATOM      4  C   UNL A   1      34.049  28.663  23.871  1.00  0.00     0.261 C 
BRANCH   4   5
ATOM      5  O   UNL A   1      33.610  27.620  22.473  1.00  0.00    -0.463 OA
BRANCH   5   6
ATOM      6  C   UNL A   1      33.368  26.110  21.923  1.00  0.00     0.310 C 
ATOM      7  O   UNL A   1      33.237  25.592  20.808  1.00  0.00    -0.252 OA
BRANCH   6   8
ATOM      8  C   UNL A   1      33.596  25.113  22.918  1.00  0.00     0.160 C 
BRANCH   8   9
ATOM      9  C   UNL A   1      32.193  24.765  23.279  1.00  0.00    -0.013 A 
ATOM     10  C   UNL A   1      32.720  21.077  24.083  1.00  0.00     0.044 C 
ATOM     11  C   UNL A   1      32.320  22.509  24.239  1.00  0.00    -0.051 A 
ATOM     12  C   UNL A   1      32.130  23.121  25.457  1.00  0.00     0.005 A 
ATOM     13  C   UNL A   1      32.242  23.319  23.131  1.00  0.00     0.009 A 
ATOM     14  C   UNL A   1      31.851  24.519  25.524  1.00  0.00     0.026 A 
ATOM     15  C   UNL A   1      31.671  25.567  24.322  1.00  0.00     0.042 A 
BRANCH  15  16
ATOM     16  N   UNL A   1      30.574  27.253  24.404  1.00  0.00    -0.352 N 
ATOM     17  H   UNL A   1      30.601  27.673  25.295  1.00  0.00     0.167 HD
BRANCH  16  18
ATOM     18  C   UNL A   1      29.548  28.188  23.232  1.00  0.00     0.094 A 
ATOM     19  C   UNL A   1      30.049  29.285  22.305  1.00  0.00     0.148 A 
ATOM     20  C   UNL A   1      28.148  28.236  23.368  1.00  0.00     0.067 A 
ATOM     21  F   UNL A   1      31.335  29.595  22.043  1.00  0.00    -0.205 F 
ATOM     22  C   UNL A   1      29.258  30.274  21.714  1.00  0.00     0.041 A 
ATOM     23  C   UNL A   1      27.389  29.324  22.813  1.00  0.00     0.023 A 
ATOM     24  Cl  UNL A   1      27.142  26.987  23.926  1.00  0.00    -0.082 Cl
ATOM     25  C   UNL A   1      27.931  30.342  22.029  1.00  0.00     0.005 A 
ENDBRANCH  16  18
ENDBRANCH  15  16
ENDBRANCH   8   9
ENDBRANCH   6   8
ENDBRANCH   5   6
ENDBRANCH   4   5
ENDBRANCH   3   4
ENDBRANCH   2   3
ENDBRANCH   1   2
BRANCH   1  26
ATOM     26  C   UNL A   1      33.653  31.704  27.931  1.00  0.00     0.188 C 
BRANCH  26  27
ATOM     27  O   UNL A   1      34.682  32.663  28.038  1.00  0.00    -0.376 OA
BRANCH  27  28
ATOM     28  C   UNL A   1      34.284  34.012  27.779  1.00  0.00     0.202 C 
BRANCH  28  29
ATOM     29  C   UNL A   1      33.334  34.762  28.814  1.00  0.00     0.261 C 
BRANCH  29  30
ATOM     30  O   UNL A   1      33.370  34.279  30.225  1.00  0.00    -0.460 OA
BRANCH  30  31
ATOM     31  C   UNL A   1      33.518  35.114  31.355  1.00  0.00     0.338 C 
ATOM     32  O   UNL A   1      33.147  36.268  31.279  1.00  0.00    -0.246 OA
BRANCH  31  33
ATOM     33  C   UNL A   1      34.286  34.330  32.597  1.00  0.00     0.060 A 
ATOM     34  C   UNL A   1      35.396  34.676  34.171  1.00  0.00     0.016 A 
ATOM     35  C   UNL A   1      35.027  33.175  31.422  1.00  0.00     0.016 A 
ATOM     36  C   UNL A   1      37.155  33.966  34.203  1.00  0.00     0.010 A 
ATOM     37  C   UNL A   1      36.690  32.663  31.542  1.00  0.00     0.010 A 
ATOM     38  C   UNL A   1      37.873  32.956  32.849  1.00  0.00    -0.014 A 
BRANCH  38  39
ATOM     39  C   UNL A   1      39.443  31.944  32.611  1.00  0.00     0.031 A 
ATOM     40  C   UNL A   1      39.804  30.526  31.392  1.00  0.00     0.074 A 
ATOM     41  C   UNL A   1      40.651  32.363  33.059  1.00  0.00     0.049 A 
ATOM     42  N   UNL A   1      40.227  29.304  31.665  1.00  0.00    -0.248 NA
ATOM     43  C   UNL A   1      39.261  30.336  29.854  1.00  0.00     0.031 C 
ATOM     44  C   UNL A   1      41.969  31.928  32.552  1.00  0.00     0.029 A 
ATOM     45  N   UNL A   1      40.990  33.338  33.996  1.00  0.00    -0.354 N 
ATOM     46  C   UNL A   1      40.044  28.501  30.483  1.00  0.00     0.074 A 
ATOM     47  C   UNL A   1      39.020  29.057  29.703  1.00  0.00     0.031 C 
ATOM     48  C   UNL A   1      42.936  32.391  33.363  1.00  0.00     0.029 A 
ATOM     49  C   UNL A   1      42.262  32.984  34.501  1.00  0.00     0.049 A 
ATOM     50  H   UNL A   1      40.450  34.119  34.257  1.00  0.00     0.167 HD
ATOM     51  C   UNL A   1      41.038  27.782  29.874  1.00  0.00     0.037 A 
ATOM     52  C   UNL A   1      42.348  32.550  35.786  1.00  0.00     0.037 A 
ATOM     53  C   UNL A   1      42.220  27.993  30.664  1.00  0.00     0.049 A 
ATOM     54  C   UNL A   1      42.662  31.068  35.818  1.00  0.00     0.074 A 
ATOM     55  C   UNL A   1      43.282  28.871  30.563  1.00  0.00     0.029 A 
ATOM     56  N   UNL A   1      42.115  27.647  31.995  1.00  0.00    -0.354 N 
ATOM     57  N   UNL A   1      42.531  30.275  34.784  1.00  0.00    -0.248 NA
ATOM     58  C   UNL A   1      43.255  30.381  36.959  1.00  0.00     0.031 C 
ATOM     59  C   UNL A   1      43.785  29.079  31.884  1.00  0.00     0.029 A 
ATOM     60  C   UNL A   1      43.032  28.320  32.765  1.00  0.00     0.049 A 
ATOM     61  H   UNL A   1      41.464  26.999  32.349  1.00  0.00     0.167 HD
ATOM     62  C   UNL A   1      43.018  29.036  35.075  1.00  0.00     0.074 A 
ATOM     63  C   UNL A   1      43.451  29.149  36.454  1.00  0.00     0.031 C 
ATOM     64  C   UNL A   1      43.054  28.005  34.183  1.00  0.00     0.037 A 
BRANCH  51  65
ATOM     65  C   UNL A   1      40.985  27.274  28.417  1.00  0.00     0.057 A 
ATOM     66  C   UNL A   1      40.236  26.131  28.087  1.00  0.00     0.134 A 
ATOM     67  C   UNL A   1      41.639  27.852  27.295  1.00  0.00     0.134 A 
ATOM     68  F   UNL A   1      39.495  25.499  29.006  1.00  0.00    -0.206 F 
ATOM     69  C   UNL A   1      40.191  25.578  26.793  1.00  0.00     0.040 A 
ATOM     70  C   UNL A   1      41.671  27.263  26.014  1.00  0.00     0.040 A 
ATOM     71  F   UNL A   1      42.250  29.045  27.368  1.00  0.00    -0.206 F 
ATOM     72  C   UNL A   1      40.933  26.124  25.755  1.00  0.00     0.006 A 
ENDBRANCH  51  65
BRANCH  52  73
ATOM     73  C   UNL A   1      41.463  33.389  36.655  1.00  0.00     0.057 A 
ATOM     74  C   UNL A   1      41.886  34.722  36.883  1.00  0.00     0.134 A 
ATOM     75  C   UNL A   1      40.092  33.141  36.793  1.00  0.00     0.134 A 
ATOM     76  F   UNL A   1      43.172  35.062  36.691  1.00  0.00    -0.206 F 
ATOM     77  C   UNL A   1      40.989  35.760  37.156  1.00  0.00     0.040 A 
ATOM     78  C   UNL A   1      39.183  34.178  37.067  1.00  0.00     0.040 A 
ATOM     79  F   UNL A   1      39.590  31.926  36.531  1.00  0.00    -0.206 F 
ATOM     80  C   UNL A   1      39.630  35.486  37.248  1.00  0.00     0.006 A 
ENDBRANCH  52  73
BRANCH  64  81
ATOM     81  C   UNL A   1      43.083  26.542  34.576  1.00  0.00     0.057 A 
ATOM     82  C   UNL A   1      42.013  25.898  35.208  1.00  0.00     0.134 A 
ATOM     83  C   UNL A   1      44.116  25.681  34.126  1.00  0.00     0.134 A 
ATOM     84  F   UNL A   1      40.897  26.550  35.557  1.00  0.00    -0.206 F 
ATOM     85  C   UNL A   1      42.015  24.523  35.462  1.00  0.00     0.040 A 
ATOM     86  C   UNL A   1      44.070  24.296  34.269  1.00  0.00     0.040 A 
ATOM     87  F   UNL A   1      45.205  26.136  33.486  1.00  0.00    -0.206 F 
ATOM     88  C   UNL A   1      43.034  23.715  34.977  1.00  0.00     0.006 A 
ENDBRANCH  64  81
ENDBRANCH  38  39
ENDBRANCH  31  33
ENDBRANCH  30  31
ENDBRANCH  29  30
ENDBRANCH  28  29
ENDBRANCH  27  28
ENDBRANCH  26  27
ENDBRANCH   1  26
TORSDOF 20
ENDMDL
MODEL 3
REMARK VINA RESULT:     -12.1      5.103     10.320
REMARK SMILES Cc1ccc(Nc2c(F)cccc2Cl)c(CC(=O)OCCOCCOCCOC(=O)c2ccc(-c3c4nc(c(-c5c(F)cccc5F)c5ccc([nH]5)c(-c5c(F)cccc5F)c5nc(c(-c6c(F)cccc6F)c6ccc3[nH]6)C=C5)C=C4)cc2)c1
REMARK SMILES IDX 23 1 22 2 21 3 20 4 19 5 17 6 18 7 16 8 15 9 1 10 2 11 3 12
REMARK SMILES IDX 85 13 4 14 5 15 6 16 7 18 8 19 13 20 9 21 10 22 12 23 14 24
REMARK SMILES IDX 11 25 24 26 25 27 26 28 27 29 28 30 29 31 30 32 31 33 32 34
REMARK SMILES IDX 84 35 33 36 83 37 34 38 35 39 36 40 77 41 37 42 82 43 76 44
REMARK SMILES IDX 78 45 38 46 81 47 75 48 74 49 39 51 65 52 48 53 64 54 49 55
REMARK SMILES IDX 52 56 63 57 79 58 50 59 51 60 62 62 80 63 53 64 40 65 41 66
REMARK SMILES IDX 46 67 42 68 43 69 45 70 47 71 44 72 66 73 67 74 72 75 68 76
REMARK SMILES IDX 69 77 71 78 73 79 70 80 54 81 55 82 60 83 56 84 57 85 59 86
REMARK SMILES IDX 61 87 58 88
REMARK H PARENT 6 17 78 50 52 61
REMARK Flexibility Score: inf
ROOT
ATOM      1  C   UNL A   1      33.474  31.196  27.243  1.00  0.00     0.188 C 
ENDROOT
BRANCH   1   2
ATOM      2  O   UNL A   1      32.846  29.985  27.599  1.00  0.00    -0.376 OA
BRANCH   2   3
ATOM      3  C   UNL A   1      32.792  28.889  26.710  1.00  0.00     0.202 C 
BRANCH   3   4
ATOM      4  C   UNL A   1      33.910  28.231  25.727  1.00  0.00     0.261 C 
BRANCH   4   5
ATOM      5  O   UNL A   1      34.023  27.733  24.003  1.00  0.00    -0.463 OA
BRANCH   5   6
ATOM      6  C   UNL A   1      33.440  26.787  22.817  1.00  0.00     0.310 C 
ATOM      7  O   UNL A   1      33.782  25.717  22.298  1.00  0.00    -0.252 OA
BRANCH   6   8
ATOM      8  C   UNL A   1      32.105  27.124  22.442  1.00  0.00     0.160 C 
BRANCH   8   9
ATOM      9  C   UNL A   1      31.454  27.176  23.781  1.00  0.00    -0.013 A 
ATOM     10  C   UNL A   1      28.539  29.467  22.897  1.00  0.00     0.044 C 
ATOM     11  C   UNL A   1      29.293  28.278  23.399  1.00  0.00    -0.051 A 
ATOM     12  C   UNL A   1      28.738  27.027  23.544  1.00  0.00     0.005 A 
ATOM     13  C   UNL A   1      30.646  28.375  23.626  1.00  0.00     0.009 A 
ATOM     14  C   UNL A   1      29.551  25.919  23.929  1.00  0.00     0.026 A 
ATOM     15  C   UNL A   1      31.116  25.897  24.285  1.00  0.00     0.042 A 
BRANCH  15  16
ATOM     16  N   UNL A   1      32.012  24.570  25.506  1.00  0.00    -0.352 N 
ATOM     17  H   UNL A   1      31.532  24.464  26.359  1.00  0.00     0.167 HD
BRANCH  16  18
ATOM     18  C   UNL A   1      33.491  23.520  25.412  1.00  0.00     0.094 A 
ATOM     19  C   UNL A   1      34.926  24.025  25.355  1.00  0.00     0.148 A 
ATOM     20  C   UNL A   1      33.407  22.178  24.994  1.00  0.00     0.067 A 
ATOM     21  F   UNL A   1      35.347  25.286  25.578  1.00  0.00    -0.205 F 
ATOM     22  C   UNL A   1      36.023  23.301  24.882  1.00  0.00     0.041 A 
ATOM     23  C   UNL A   1      34.547  21.506  24.433  1.00  0.00     0.023 A 
ATOM     24  Cl  UNL A   1      32.130  21.102  25.301  1.00  0.00    -0.082 Cl
ATOM     25  C   UNL A   1      35.824  22.061  24.347  1.00  0.00     0.005 A 
ENDBRANCH  16  18
ENDBRANCH  15  16
ENDBRANCH   8   9
ENDBRANCH   6   8
ENDBRANCH   5   6
ENDBRANCH   4   5
ENDBRANCH   3   4
ENDBRANCH   2   3
ENDBRANCH   1   2
BRANCH   1  26
ATOM     26  C   UNL A   1      34.568  31.843  28.095  1.00  0.00     0.188 C 
BRANCH  26  27
ATOM     27  O   UNL A   1      34.193  33.044  28.734  1.00  0.00    -0.376 OA
BRANCH  27  28
ATOM     28  C   UNL A   1      34.717  33.219  30.053  1.00  0.00     0.202 C 
BRANCH  28  29
ATOM     29  C   UNL A   1      36.225  32.805  30.360  1.00  0.00     0.261 C 
BRANCH  29  30
ATOM     30  O   UNL A   1      36.426  31.598  31.212  1.00  0.00    -0.460 OA
BRANCH  30  31
ATOM     31  C   UNL A   1      36.879  30.347  30.737  1.00  0.00     0.338 C 
ATOM     32  O   UNL A   1      36.601  29.348  31.371  1.00  0.00    -0.246 OA
BRANCH  31  33
ATOM     33  C   UNL A   1      37.819  30.511  29.382  1.00  0.00     0.060 A 
ATOM     34  C   UNL A   1      38.101  29.728  27.611  1.00  0.00     0.016 A 
ATOM     35  C   UNL A   1      39.306  30.549  30.407  1.00  0.00     0.016 A 
ATOM     36  C   UNL A   1      39.779  28.925  27.240  1.00  0.00     0.010 A 
ATOM     37  C   UNL A   1      40.763  29.699  29.966  1.00  0.00     0.010 A 
ATOM     38  C   UNL A   1      41.164  28.854  28.442  1.00  0.00    -0.014 A 
BRANCH  38  39
ATOM     39  C   UNL A   1      42.976  28.346  28.381  1.00  0.00     0.031 A 
ATOM     40  C   UNL A   1      44.546  29.415  28.526  1.00  0.00     0.074 A 
ATOM     41  C   UNL A   1      43.378  27.069  28.584  1.00  0.00     0.049 A 
ATOM     42  N   UNL A   1      45.554  29.502  27.677  1.00  0.00    -0.248 NA
ATOM     43  C   UNL A   1      44.790  30.754  29.445  1.00  0.00     0.031 C 
ATOM     44  C   UNL A   1      44.723  26.635  29.017  1.00  0.00     0.029 A 
ATOM     45  N   UNL A   1      42.667  25.870  28.549  1.00  0.00    -0.354 N 
ATOM     46  C   UNL A   1      46.336  30.657  28.039  1.00  0.00     0.074 A 
ATOM     47  C   UNL A   1      45.520  31.568  28.723  1.00  0.00     0.031 C 
ATOM     48  C   UNL A   1      44.817  25.298  28.915  1.00  0.00     0.029 A 
ATOM     49  C   UNL A   1      43.606  24.855  28.255  1.00  0.00     0.049 A 
ATOM     50  H   UNL A   1      41.701  25.752  28.699  1.00  0.00     0.167 HD
ATOM     51  C   UNL A   1      47.681  30.631  28.298  1.00  0.00     0.037 A 
ATOM     52  C   UNL A   1      43.543  24.251  27.038  1.00  0.00     0.037 A 
ATOM     53  C   UNL A   1      48.094  29.268  28.110  1.00  0.00     0.049 A 
ATOM     54  C   UNL A   1      44.726  24.666  26.186  1.00  0.00     0.074 A 
ATOM     55  C   UNL A   1      48.268  28.203  28.975  1.00  0.00     0.029 A 
ATOM     56  N   UNL A   1      47.828  28.732  26.867  1.00  0.00    -0.354 N 
ATOM     57  N   UNL A   1      45.489  25.696  26.456  1.00  0.00    -0.248 NA
ATOM     58  C   UNL A   1      45.221  23.905  25.046  1.00  0.00     0.031 C 
ATOM     59  C   UNL A   1      48.053  27.008  28.221  1.00  0.00     0.029 A 
ATOM     60  C   UNL A   1      47.763  27.360  26.912  1.00  0.00     0.049 A 
ATOM     61  H   UNL A   1      47.702  29.266  26.050  1.00  0.00     0.167 HD
ATOM     62  C   UNL A   1      46.547  25.736  25.596  1.00  0.00     0.074 A 
ATOM     63  C   UNL A   1      46.328  24.598  24.726  1.00  0.00     0.031 C 
ATOM     64  C   UNL A   1      47.536  26.674  25.653  1.00  0.00     0.037 A 
BRANCH  51  65
ATOM     65  C   UNL A   1      48.443  31.723  29.079  1.00  0.00     0.057 A 
ATOM     66  C   UNL A   1      48.925  32.866  28.419  1.00  0.00     0.134 A 
ATOM     67  C   UNL A   1      48.738  31.720  30.469  1.00  0.00     0.134 A 
ATOM     68  F   UNL A   1      48.676  33.073  27.120  1.00  0.00    -0.206 F 
ATOM     69  C   UNL A   1      49.679  33.871  29.055  1.00  0.00     0.040 A 
ATOM     70  C   UNL A   1      49.561  32.674  31.101  1.00  0.00     0.040 A 
ATOM     71  F   UNL A   1      48.208  30.811  31.304  1.00  0.00    -0.206 F 
ATOM     72  C   UNL A   1      50.027  33.766  30.394  1.00  0.00     0.006 A 
ENDBRANCH  51  65
BRANCH  52  73
ATOM     73  C   UNL A   1      42.110  24.001  26.681  1.00  0.00     0.057 A 
ATOM     74  C   UNL A   1      41.482  22.910  27.330  1.00  0.00     0.134 A 
ATOM     75  C   UNL A   1      41.266  25.013  26.208  1.00  0.00     0.134 A 
ATOM     76  F   UNL A   1      42.225  21.938  27.885  1.00  0.00    -0.206 F 
ATOM     77  C   UNL A   1      40.103  22.866  27.564  1.00  0.00     0.040 A 
ATOM     78  C   UNL A   1      39.880  24.976  26.438  1.00  0.00     0.040 A 
ATOM     79  F   UNL A   1      41.774  26.115  25.640  1.00  0.00    -0.206 F 
ATOM     80  C   UNL A   1      39.298  23.905  27.115  1.00  0.00     0.006 A 
ENDBRANCH  52  73
BRANCH  64  81
ATOM     81  C   UNL A   1      48.397  27.071  24.472  1.00  0.00     0.057 A 
ATOM     82  C   UNL A   1      49.730  26.671  24.329  1.00  0.00     0.134 A 
ATOM     83  C   UNL A   1      47.835  27.693  23.328  1.00  0.00     0.134 A 
ATOM     84  F   UNL A   1      50.358  25.941  25.260  1.00  0.00    -0.206 F 
ATOM     85  C   UNL A   1      50.475  26.954  23.180  1.00  0.00     0.040 A 
ATOM     86  C   UNL A   1      48.535  27.872  22.137  1.00  0.00     0.040 A 
ATOM     87  F   UNL A   1      46.563  28.121  23.293  1.00  0.00    -0.206 F 
ATOM     88  C   UNL A   1      49.874  27.538  22.073  1.00  0.00     0.006 A 
ENDBRANCH  64  81
ENDBRANCH  38  39
ENDBRANCH  31  33
ENDBRANCH  30  31
ENDBRANCH  29  30
ENDBRANCH  28  29
ENDBRANCH  27  28
ENDBRANCH  26  27
ENDBRANCH   1  26
TORSDOF 20
ENDMDL
