MODEL 1
REMARK VINA RESULT:     -11.0      0.000      0.000
REMARK SMILES O=C(OCCOCCOCCOC(=O)c1cccc(S(=O)(=O)Nc2cccc(I)c2)c1)c1ccc(-c2c3nc(c(-c4c(F)cccc4F)c4ccc([nH]4)c(-c4c(F)cccc4F)c4nc(c(-c5c(F)cccc5F)c5ccc2[nH]5)C=C4)C=C3)cc1
REMARK SMILES IDX 8 1 7 2 6 3 5 4 4 5 3 6 2 7 1 8 32 9 33 10 85 11 34 12 84 13
REMARK SMILES IDX 35 14 36 15 37 16 78 17 38 18 83 19 77 20 79 21 39 22 82 23
REMARK SMILES IDX 76 24 75 25 40 27 66 28 49 29 65 30 50 31 53 32 64 33 80 34
REMARK SMILES IDX 51 35 52 36 63 38 81 39 54 40 41 41 42 42 47 43 43 44 44 45
REMARK SMILES IDX 46 46 48 47 45 48 67 49 68 50 73 51 69 52 70 53 72 54 74 55
REMARK SMILES IDX 71 56 55 57 56 58 61 59 57 60 58 61 60 62 62 63 59 64 9 65
REMARK SMILES IDX 10 66 11 67 12 68 13 69 14 70 15 71 16 72 31 73 17 74 19 75
REMARK SMILES IDX 18 76 20 77 21 78 22 79 23 80 24 82 25 83 30 84 26 85 28 86
REMARK SMILES IDX 27 87 29 88
REMARK H PARENT 79 26 53 37 23 81
REMARK Flexibility Score: inf
ROOT
ATOM      1  C   UNL A   1      39.721  21.216  26.090  1.00  0.00     0.188 C 
ENDROOT
BRANCH   1   2
ATOM      2  C   UNL A   1      40.268  19.794  26.133  1.00  0.00     0.188 C 
BRANCH   2   3
ATOM      3  O   UNL A   1      41.659  19.743  25.800  1.00  0.00    -0.376 OA
BRANCH   3   4
ATOM      4  C   UNL A   1      42.428  20.790  26.396  1.00  0.00     0.202 C 
BRANCH   4   5
ATOM      5  C   UNL A   1      43.777  21.059  25.716  1.00  0.00     0.261 C 
BRANCH   5   6
ATOM      6  O   UNL A   1      44.267  22.395  25.920  1.00  0.00    -0.460 OA
BRANCH   6   7
ATOM      7  C   UNL A   1      43.669  23.570  25.602  1.00  0.00     0.338 C 
ATOM      8  O   UNL A   1      43.409  23.802  24.423  1.00  0.00    -0.246 OA
BRANCH   7   9
ATOM      9  C   UNL A   1      43.268  24.594  26.612  1.00  0.00     0.060 A 
ATOM     10  C   UNL A   1      43.814  25.872  26.714  1.00  0.00     0.016 A 
ATOM     11  C   UNL A   1      42.187  24.271  27.449  1.00  0.00     0.016 A 
ATOM     12  C   UNL A   1      43.370  26.779  27.672  1.00  0.00     0.010 A 
ATOM     13  C   UNL A   1      41.698  25.196  28.379  1.00  0.00     0.010 A 
ATOM     14  C   UNL A   1      42.307  26.450  28.509  1.00  0.00    -0.014 A 
BRANCH  14  15
ATOM     15  C   UNL A   1      41.898  27.405  29.560  1.00  0.00     0.031 A 
ATOM     16  C   UNL A   1      42.612  27.383  30.876  1.00  0.00     0.074 A 
ATOM     17  C   UNL A   1      40.950  28.328  29.313  1.00  0.00     0.049 A 
ATOM     18  N   UNL A   1      42.375  28.082  31.952  1.00  0.00    -0.248 NA
ATOM     19  C   UNL A   1      43.760  26.468  30.988  1.00  0.00     0.031 C 
ATOM     20  C   UNL A   1      40.262  28.510  28.036  1.00  0.00     0.029 A 
ATOM     21  N   UNL A   1      40.395  29.285  30.125  1.00  0.00    -0.354 N 
ATOM     22  C   UNL A   1      43.325  27.677  32.877  1.00  0.00     0.074 A 
ATOM     23  C   UNL A   1      44.146  26.672  32.239  1.00  0.00     0.031 C 
ATOM     24  C   UNL A   1      39.355  29.491  28.164  1.00  0.00     0.029 A 
ATOM     25  C   UNL A   1      39.363  29.970  29.532  1.00  0.00     0.049 A 
ATOM     26  H   UNL A   1      40.706  29.463  31.043  1.00  0.00     0.167 HD
ATOM     27  C   UNL A   1      43.486  28.109  34.148  1.00  0.00     0.037 A 
ATOM     28  C   UNL A   1      38.486  30.852  30.044  1.00  0.00     0.037 A 
ATOM     29  C   UNL A   1      42.664  29.113  34.765  1.00  0.00     0.049 A 
ATOM     30  C   UNL A   1      38.636  31.243  31.478  1.00  0.00     0.074 A 
ATOM     31  C   UNL A   1      42.745  29.626  36.047  1.00  0.00     0.029 A 
ATOM     32  N   UNL A   1      41.600  29.749  34.144  1.00  0.00    -0.354 N 
ATOM     33  N   UNL A   1      39.539  30.857  32.344  1.00  0.00    -0.248 NA
ATOM     34  C   UNL A   1      37.652  32.197  32.006  1.00  0.00     0.031 C 
ATOM     35  C   UNL A   1      41.692  30.532  36.219  1.00  0.00     0.029 A 
ATOM     36  C   UNL A   1      40.985  30.616  35.030  1.00  0.00     0.049 A 
ATOM     37  H   UNL A   1      41.323  29.605  33.211  1.00  0.00     0.167 HD
ATOM     38  C   UNL A   1      39.231  31.515  33.522  1.00  0.00     0.074 A 
ATOM     39  C   UNL A   1      38.086  32.360  33.245  1.00  0.00     0.031 C 
ATOM     40  C   UNL A   1      39.832  31.420  34.731  1.00  0.00     0.037 A 
BRANCH  27  41
ATOM     41  C   UNL A   1      44.545  27.439  34.967  1.00  0.00     0.057 A 
ATOM     42  C   UNL A   1      45.851  27.933  35.053  1.00  0.00     0.134 A 
ATOM     43  C   UNL A   1      44.238  26.279  35.688  1.00  0.00     0.134 A 
ATOM     44  F   UNL A   1      46.214  29.023  34.362  1.00  0.00    -0.206 F 
ATOM     45  C   UNL A   1      46.822  27.287  35.822  1.00  0.00     0.040 A 
ATOM     46  C   UNL A   1      45.194  25.636  36.475  1.00  0.00     0.040 A 
ATOM     47  F   UNL A   1      43.006  25.751  35.636  1.00  0.00    -0.206 F 
ATOM     48  C   UNL A   1      46.492  26.140  36.542  1.00  0.00     0.006 A 
ENDBRANCH  27  41
BRANCH  28  49
ATOM     49  C   UNL A   1      37.336  31.363  29.255  1.00  0.00     0.057 A 
ATOM     50  C   UNL A   1      37.323  32.662  28.736  1.00  0.00     0.134 A 
ATOM     51  C   UNL A   1      36.176  30.592  29.104  1.00  0.00     0.134 A 
ATOM     52  F   UNL A   1      38.401  33.449  28.861  1.00  0.00    -0.206 F 
ATOM     53  C   UNL A   1      36.183  33.194  28.126  1.00  0.00     0.040 A 
ATOM     54  C   UNL A   1      35.033  31.105  28.487  1.00  0.00     0.040 A 
ATOM     55  F   UNL A   1      36.138  29.330  29.559  1.00  0.00    -0.206 F 
ATOM     56  C   UNL A   1      35.033  32.415  28.005  1.00  0.00     0.006 A 
ENDBRANCH  28  49
BRANCH  40  57
ATOM     57  C   UNL A   1      39.231  32.241  35.825  1.00  0.00     0.057 A 
ATOM     58  C   UNL A   1      38.233  31.722  36.659  1.00  0.00     0.134 A 
ATOM     59  C   UNL A   1      39.635  33.565  36.030  1.00  0.00     0.134 A 
ATOM     60  F   UNL A   1      37.788  30.468  36.488  1.00  0.00    -0.206 F 
ATOM     61  C   UNL A   1      37.637  32.504  37.647  1.00  0.00     0.040 A 
ATOM     62  C   UNL A   1      39.064  34.347  37.033  1.00  0.00     0.040 A 
ATOM     63  F   UNL A   1      40.583  34.116  35.257  1.00  0.00    -0.206 F 
ATOM     64  C   UNL A   1      38.057  33.819  37.839  1.00  0.00     0.006 A 
ENDBRANCH  40  57
ENDBRANCH  14  15
ENDBRANCH   7   9
ENDBRANCH   6   7
ENDBRANCH   5   6
ENDBRANCH   4   5
ENDBRANCH   3   4
ENDBRANCH   2   3
ENDBRANCH   1   2
BRANCH   1  65
ATOM     65  O   UNL A   1      38.380  21.370  25.635  1.00  0.00    -0.376 OA
BRANCH  65  66
ATOM     66  C   UNL A   1      37.775  22.653  25.737  1.00  0.00     0.202 C 
BRANCH  66  67
ATOM     67  C   UNL A   1      36.428  22.877  25.042  1.00  0.00     0.261 C 
BRANCH  67  68
ATOM     68  O   UNL A   1      35.251  22.450  25.749  1.00  0.00    -0.460 OA
BRANCH  68  69
ATOM     69  C   UNL A   1      34.716  21.309  25.258  1.00  0.00     0.338 C 
ATOM     70  O   UNL A   1      35.293  20.259  25.021  1.00  0.00    -0.246 OA
BRANCH  69  71
ATOM     71  C   UNL A   1      33.360  21.517  24.746  1.00  0.00     0.061 A 
ATOM     72  C   UNL A   1      33.112  21.782  23.400  1.00  0.00     0.016 A 
ATOM     73  C   UNL A   1      32.479  21.942  25.732  1.00  0.00     0.038 A 
ATOM     74  C   UNL A   1      31.974  22.517  23.056  1.00  0.00     0.002 A 
ATOM     75  C   UNL A   1      31.468  22.827  25.409  1.00  0.00     0.088 A 
ATOM     76  C   UNL A   1      31.177  23.081  24.062  1.00  0.00     0.022 A 
BRANCH  75  77
ATOM     77  S   UNL A   1      30.674  23.808  26.663  1.00  0.00     0.261 S 
ATOM     78  O   UNL A   1      29.894  22.909  27.478  1.00  0.00    -0.201 OA
ATOM     79  O   UNL A   1      31.722  24.617  27.243  1.00  0.00    -0.201 OA
BRANCH  77  80
ATOM     80  N   UNL A   1      29.663  24.923  25.922  1.00  0.00    -0.280 N 
ATOM     81  H   UNL A   1      28.692  24.770  25.989  1.00  0.00     0.180 HD
BRANCH  80  82
ATOM     82  C   UNL A   1      30.096  26.071  25.206  1.00  0.00     0.050 A 
ATOM     83  C   UNL A   1      29.415  26.364  24.016  1.00  0.00     0.027 A 
ATOM     84  C   UNL A   1      31.065  26.957  25.685  1.00  0.00     0.041 A 
ATOM     85  C   UNL A   1      29.635  27.574  23.359  1.00  0.00     0.003 A 
ATOM     86  C   UNL A   1      31.281  28.166  25.019  1.00  0.00     0.015 A 
ATOM     87  C   UNL A   1      30.560  28.484  23.868  1.00  0.00     0.015 A 
ATOM     88  I   UNL A   1      32.648  29.534  25.786  1.00  0.00    -0.044 I 
ENDBRANCH  80  82
ENDBRANCH  77  80
ENDBRANCH  75  77
ENDBRANCH  69  71
ENDBRANCH  68  69
ENDBRANCH  67  68
ENDBRANCH  66  67
ENDBRANCH  65  66
ENDBRANCH   1  65
TORSDOF 20
ENDMDL
MODEL 2
REMARK VINA RESULT:     -10.9      1.868      3.614
REMARK SMILES O=C(OCCOCCOCCOC(=O)c1cccc(S(=O)(=O)Nc2cccc(I)c2)c1)c1ccc(-c2c3nc(c(-c4c(F)cccc4F)c4ccc([nH]4)c(-c4c(F)cccc4F)c4nc(c(-c5c(F)cccc5F)c5ccc2[nH]5)C=C4)C=C3)cc1
REMARK SMILES IDX 8 1 7 2 6 3 5 4 4 5 3 6 2 7 1 8 32 9 33 10 85 11 34 12 84 13
REMARK SMILES IDX 35 14 36 15 37 16 78 17 38 18 83 19 77 20 79 21 39 22 82 23
REMARK SMILES IDX 76 24 75 25 40 27 66 28 49 29 65 30 50 31 53 32 64 33 80 34
REMARK SMILES IDX 51 35 52 36 63 38 81 39 54 40 41 41 42 42 47 43 43 44 44 45
REMARK SMILES IDX 46 46 48 47 45 48 67 49 68 50 73 51 69 52 70 53 72 54 74 55
REMARK SMILES IDX 71 56 55 57 56 58 61 59 57 60 58 61 60 62 62 63 59 64 9 65
REMARK SMILES IDX 10 66 11 67 12 68 13 69 14 70 15 71 16 72 31 73 17 74 19 75
REMARK SMILES IDX 18 76 20 77 21 78 22 79 23 80 24 82 25 83 30 84 26 85 28 86
REMARK SMILES IDX 27 87 29 88
REMARK H PARENT 79 26 53 37 23 81
REMARK Flexibility Score: inf
ROOT
ATOM      1  C   UNL A   1      44.812  18.458  25.484  1.00  0.00     0.188 C 
ENDROOT
BRANCH   1   2
ATOM      2  C   UNL A   1      45.616  19.494  24.706  1.00  0.00     0.188 C 
BRANCH   2   3
ATOM      3  O   UNL A   1      44.817  20.171  23.731  1.00  0.00    -0.376 OA
BRANCH   3   4
ATOM      4  C   UNL A   1      44.844  21.595  23.859  1.00  0.00     0.202 C 
BRANCH   4   5
ATOM      5  C   UNL A   1      44.031  22.145  25.039  1.00  0.00     0.261 C 
BRANCH   5   6
ATOM      6  O   UNL A   1      43.612  23.508  24.861  1.00  0.00    -0.460 OA
BRANCH   6   7
ATOM      7  C   UNL A   1      44.213  24.639  25.305  1.00  0.00     0.338 C 
ATOM      8  O   UNL A   1      45.224  25.037  24.730  1.00  0.00    -0.246 OA
BRANCH   7   9
ATOM      9  C   UNL A   1      43.695  25.461  26.439  1.00  0.00     0.060 A 
ATOM     10  C   UNL A   1      42.874  24.987  27.461  1.00  0.00     0.016 A 
ATOM     11  C   UNL A   1      44.160  26.784  26.529  1.00  0.00     0.016 A 
ATOM     12  C   UNL A   1      42.449  25.814  28.497  1.00  0.00     0.010 A 
ATOM     13  C   UNL A   1      43.783  27.607  27.596  1.00  0.00     0.010 A 
ATOM     14  C   UNL A   1      42.903  27.128  28.575  1.00  0.00    -0.014 A 
BRANCH  14  15
ATOM     15  C   UNL A   1      42.385  28.004  29.648  1.00  0.00     0.031 A 
ATOM     16  C   UNL A   1      43.087  28.020  30.970  1.00  0.00     0.074 A 
ATOM     17  C   UNL A   1      41.345  28.826  29.416  1.00  0.00     0.049 A 
ATOM     18  N   UNL A   1      42.767  28.657  32.063  1.00  0.00    -0.248 NA
ATOM     19  C   UNL A   1      44.326  27.230  31.069  1.00  0.00     0.031 C 
ATOM     20  C   UNL A   1      40.652  28.970  28.137  1.00  0.00     0.029 A 
ATOM     21  N   UNL A   1      40.684  29.694  30.248  1.00  0.00    -0.354 N 
ATOM     22  C   UNL A   1      43.748  28.330  32.986  1.00  0.00     0.074 A 
ATOM     23  C   UNL A   1      44.677  27.438  32.330  1.00  0.00     0.031 C 
ATOM     24  C   UNL A   1      39.644  29.845  28.283  1.00  0.00     0.029 A 
ATOM     25  C   UNL A   1      39.589  30.282  29.663  1.00  0.00     0.049 A 
ATOM     26  H   UNL A   1      40.967  29.877  31.174  1.00  0.00     0.167 HD
ATOM     27  C   UNL A   1      43.852  28.740  34.271  1.00  0.00     0.037 A 
ATOM     28  C   UNL A   1      38.619  31.049  30.189  1.00  0.00     0.037 A 
ATOM     29  C   UNL A   1      42.922  29.632  34.907  1.00  0.00     0.049 A 
ATOM     30  C   UNL A   1      38.714  31.412  31.636  1.00  0.00     0.074 A 
ATOM     31  C   UNL A   1      42.936  30.113  36.203  1.00  0.00     0.029 A 
ATOM     32  N   UNL A   1      41.800  30.168  34.291  1.00  0.00    -0.354 N 
ATOM     33  N   UNL A   1      39.647  31.100  32.501  1.00  0.00    -0.248 NA
ATOM     34  C   UNL A   1      37.629  32.239  32.180  1.00  0.00     0.031 C 
ATOM     35  C   UNL A   1      41.791  30.896  36.389  1.00  0.00     0.029 A 
ATOM     36  C   UNL A   1      41.089  30.938  35.195  1.00  0.00     0.049 A 
ATOM     37  H   UNL A   1      41.548  30.022  33.352  1.00  0.00     0.167 HD
ATOM     38  C   UNL A   1      39.260  31.687  33.693  1.00  0.00     0.074 A 
ATOM     39  C   UNL A   1      38.034  32.412  33.428  1.00  0.00     0.031 C 
ATOM     40  C   UNL A   1      39.858  31.622  34.905  1.00  0.00     0.037 A 
BRANCH  27  41
ATOM     41  C   UNL A   1      44.970  28.164  35.082  1.00  0.00     0.057 A 
ATOM     42  C   UNL A   1      44.836  26.975  35.808  1.00  0.00     0.134 A 
ATOM     43  C   UNL A   1      46.208  28.817  35.125  1.00  0.00     0.134 A 
ATOM     44  F   UNL A   1      43.666  26.320  35.830  1.00  0.00    -0.206 F 
ATOM     45  C   UNL A   1      45.894  26.461  36.560  1.00  0.00     0.040 A 
ATOM     46  C   UNL A   1      47.278  28.302  35.857  1.00  0.00     0.040 A 
ATOM     47  F   UNL A   1      46.394  29.966  34.459  1.00  0.00    -0.206 F 
ATOM     48  C   UNL A   1      47.122  27.121  36.578  1.00  0.00     0.006 A 
ENDBRANCH  27  41
BRANCH  28  49
ATOM     49  C   UNL A   1      37.427  31.457  29.403  1.00  0.00     0.057 A 
ATOM     50  C   UNL A   1      37.317  32.737  28.850  1.00  0.00     0.134 A 
ATOM     51  C   UNL A   1      36.322  30.603  29.287  1.00  0.00     0.134 A 
ATOM     52  F   UNL A   1      38.338  33.601  28.940  1.00  0.00    -0.206 F 
ATOM     53  C   UNL A   1      36.136  33.171  28.241  1.00  0.00     0.040 A 
ATOM     54  C   UNL A   1      35.140  31.017  28.672  1.00  0.00     0.040 A 
ATOM     55  F   UNL A   1      36.378  29.354  29.776  1.00  0.00    -0.206 F 
ATOM     56  C   UNL A   1      35.042  32.310  28.156  1.00  0.00     0.006 A 
ENDBRANCH  28  49
BRANCH  40  57
ATOM     57  C   UNL A   1      39.164  32.342  36.016  1.00  0.00     0.057 A 
ATOM     58  C   UNL A   1      39.453  33.681  36.306  1.00  0.00     0.134 A 
ATOM     59  C   UNL A   1      38.219  31.687  36.813  1.00  0.00     0.134 A 
ATOM     60  F   UNL A   1      40.372  34.349  35.592  1.00  0.00    -0.206 F 
ATOM     61  C   UNL A   1      38.844  34.338  37.373  1.00  0.00     0.040 A 
ATOM     62  C   UNL A   1      37.583  32.342  37.865  1.00  0.00     0.040 A 
ATOM     63  F   UNL A   1      37.907  30.402  36.583  1.00  0.00    -0.206 F 
ATOM     64  C   UNL A   1      37.901  33.669  38.153  1.00  0.00     0.006 A 
ENDBRANCH  40  57
ENDBRANCH  14  15
ENDBRANCH   7   9
ENDBRANCH   6   7
ENDBRANCH   5   6
ENDBRANCH   4   5
ENDBRANCH   3   4
ENDBRANCH   2   3
ENDBRANCH   1   2
BRANCH   1  65
ATOM     65  O   UNL A   1      43.465  18.253  25.071  1.00  0.00    -0.376 OA
BRANCH  65  66
ATOM     66  C   UNL A   1      42.446  18.248  26.064  1.00  0.00     0.202 C 
BRANCH  66  67
ATOM     67  C   UNL A   1      42.139  19.559  26.794  1.00  0.00     0.261 C 
BRANCH  67  68
ATOM     68  O   UNL A   1      41.041  20.342  26.295  1.00  0.00    -0.460 OA
BRANCH  68  69
ATOM     69  C   UNL A   1      40.597  21.265  27.178  1.00  0.00     0.338 C 
ATOM     70  O   UNL A   1      40.591  21.186  28.397  1.00  0.00    -0.246 OA
BRANCH  69  71
ATOM     71  C   UNL A   1      39.826  22.324  26.522  1.00  0.00     0.061 A 
ATOM     72  C   UNL A   1      39.750  23.613  27.044  1.00  0.00     0.016 A 
ATOM     73  C   UNL A   1      38.819  21.820  25.710  1.00  0.00     0.038 A 
ATOM     74  C   UNL A   1      38.619  24.387  26.766  1.00  0.00     0.002 A 
ATOM     75  C   UNL A   1      37.625  22.508  25.598  1.00  0.00     0.088 A 
ATOM     76  C   UNL A   1      37.535  23.820  26.083  1.00  0.00     0.022 A 
BRANCH  75  77
ATOM     77  S   UNL A   1      36.144  21.690  25.044  1.00  0.00     0.261 S 
ATOM     78  O   UNL A   1      35.862  22.174  23.715  1.00  0.00    -0.201 OA
ATOM     79  O   UNL A   1      36.364  20.283  25.292  1.00  0.00    -0.201 OA
BRANCH  77  80
ATOM     80  N   UNL A   1      34.883  22.092  26.074  1.00  0.00    -0.280 N 
ATOM     81  H   UNL A   1      34.862  21.658  26.957  1.00  0.00     0.180 HD
BRANCH  80  82
ATOM     82  C   UNL A   1      33.841  23.010  25.772  1.00  0.00     0.050 A 
ATOM     83  C   UNL A   1      32.595  22.461  25.443  1.00  0.00     0.027 A 
ATOM     84  C   UNL A   1      33.975  24.395  25.900  1.00  0.00     0.041 A 
ATOM     85  C   UNL A   1      31.471  23.280  25.331  1.00  0.00     0.003 A 
ATOM     86  C   UNL A   1      32.845  25.209  25.784  1.00  0.00     0.015 A 
ATOM     87  C   UNL A   1      31.593  24.656  25.516  1.00  0.00     0.015 A 
ATOM     88  I   UNL A   1      33.020  27.262  26.077  1.00  0.00    -0.044 I 
ENDBRANCH  80  82
ENDBRANCH  77  80
ENDBRANCH  75  77
ENDBRANCH  69  71
ENDBRANCH  68  69
ENDBRANCH  67  68
ENDBRANCH  66  67
ENDBRANCH  65  66
ENDBRANCH   1  65
TORSDOF 20
ENDMDL
MODEL 3
REMARK VINA RESULT:     -10.8      3.560      8.946
REMARK SMILES O=C(OCCOCCOCCOC(=O)c1cccc(S(=O)(=O)Nc2cccc(I)c2)c1)c1ccc(-c2c3nc(c(-c4c(F)cccc4F)c4ccc([nH]4)c(-c4c(F)cccc4F)c4nc(c(-c5c(F)cccc5F)c5ccc2[nH]5)C=C4)C=C3)cc1
REMARK SMILES IDX 8 1 7 2 6 3 5 4 4 5 3 6 2 7 1 8 32 9 33 10 85 11 34 12 84 13
REMARK SMILES IDX 35 14 36 15 37 16 78 17 38 18 83 19 77 20 79 21 39 22 82 23
REMARK SMILES IDX 76 24 75 25 40 27 66 28 49 29 65 30 50 31 53 32 64 33 80 34
REMARK SMILES IDX 51 35 52 36 63 38 81 39 54 40 41 41 42 42 47 43 43 44 44 45
REMARK SMILES IDX 46 46 48 47 45 48 67 49 68 50 73 51 69 52 70 53 72 54 74 55
REMARK SMILES IDX 71 56 55 57 56 58 61 59 57 60 58 61 60 62 62 63 59 64 9 65
REMARK SMILES IDX 10 66 11 67 12 68 13 69 14 70 15 71 16 72 31 73 17 74 19 75
REMARK SMILES IDX 18 76 20 77 21 78 22 79 23 80 24 82 25 83 30 84 26 85 28 86
REMARK SMILES IDX 27 87 29 88
REMARK H PARENT 79 26 53 37 23 81
REMARK Flexibility Score: inf
ROOT
ATOM      1  C   UNL A   1      34.217  32.495  28.664  1.00  0.00     0.188 C 
ENDROOT
BRANCH   1   2
ATOM      2  C   UNL A   1      35.091  33.743  28.619  1.00  0.00     0.188 C 
BRANCH   2   3
ATOM      3  O   UNL A   1      34.348  34.905  28.235  1.00  0.00    -0.376 OA
BRANCH   3   4
ATOM      4  C   UNL A   1      33.199  35.144  29.052  1.00  0.00     0.202 C 
BRANCH   4   5
ATOM      5  C   UNL A   1      33.062  36.588  29.554  1.00  0.00     0.261 C 
BRANCH   5   6
ATOM      6  O   UNL A   1      32.499  36.686  30.872  1.00  0.00    -0.460 OA
BRANCH   6   7
ATOM      7  C   UNL A   1      32.568  35.790  31.887  1.00  0.00     0.338 C 
ATOM      8  O   UNL A   1      31.543  35.519  32.509  1.00  0.00    -0.246 OA
BRANCH   7   9
ATOM      9  C   UNL A   1      33.820  35.076  32.276  1.00  0.00     0.060 A 
ATOM     10  C   UNL A   1      35.100  35.625  32.235  1.00  0.00     0.016 A 
ATOM     11  C   UNL A   1      33.674  33.789  32.821  1.00  0.00     0.016 A 
ATOM     12  C   UNL A   1      36.218  34.899  32.635  1.00  0.00     0.010 A 
ATOM     13  C   UNL A   1      34.786  33.072  33.278  1.00  0.00     0.010 A 
ATOM     14  C   UNL A   1      36.070  33.619  33.163  1.00  0.00    -0.014 A 
BRANCH  14  15
ATOM     15  C   UNL A   1      37.277  32.845  33.520  1.00  0.00     0.031 A 
ATOM     16  C   UNL A   1      37.959  33.127  34.822  1.00  0.00     0.074 A 
ATOM     17  C   UNL A   1      37.715  31.854  32.720  1.00  0.00     0.049 A 
ATOM     18  N   UNL A   1      39.061  32.617  35.301  1.00  0.00    -0.248 NA
ATOM     19  C   UNL A   1      37.301  34.095  35.716  1.00  0.00     0.031 C 
ATOM     20  C   UNL A   1      37.070  31.423  31.481  1.00  0.00     0.029 A 
ATOM     21  N   UNL A   1      38.807  31.031  32.826  1.00  0.00    -0.354 N 
ATOM     22  C   UNL A   1      39.243  33.217  36.537  1.00  0.00     0.074 A 
ATOM     23  C   UNL A   1      38.140  34.129  36.741  1.00  0.00     0.031 C 
ATOM     24  C   UNL A   1      37.799  30.442  30.928  1.00  0.00     0.029 A 
ATOM     25  C   UNL A   1      38.977  30.209  31.738  1.00  0.00     0.049 A 
ATOM     26  H   UNL A   1      39.410  31.029  33.605  1.00  0.00     0.167 HD
ATOM     27  C   UNL A   1      40.251  33.021  37.418  1.00  0.00     0.037 A 
ATOM     28  C   UNL A   1      39.993  29.394  31.405  1.00  0.00     0.037 A 
ATOM     29  C   UNL A   1      41.338  32.106  37.203  1.00  0.00     0.049 A 
ATOM     30  C   UNL A   1      41.137  29.266  32.358  1.00  0.00     0.074 A 
ATOM     31  C   UNL A   1      42.410  31.828  38.032  1.00  0.00     0.029 A 
ATOM     32  N   UNL A   1      41.497  31.326  36.066  1.00  0.00    -0.354 N 
ATOM     33  N   UNL A   1      41.299  29.836  33.526  1.00  0.00    -0.248 NA
ATOM     34  C   UNL A   1      42.234  28.378  31.954  1.00  0.00     0.031 C 
ATOM     35  C   UNL A   1      43.247  30.922  37.371  1.00  0.00     0.029 A 
ATOM     36  C   UNL A   1      42.673  30.602  36.151  1.00  0.00     0.049 A 
ATOM     37  H   UNL A   1      40.866  31.293  35.312  1.00  0.00     0.167 HD
ATOM     38  C   UNL A   1      42.519  29.381  33.996  1.00  0.00     0.074 A 
ATOM     39  C   UNL A   1      43.031  28.453  33.007  1.00  0.00     0.031 C 
ATOM     40  C   UNL A   1      43.166  29.710  35.138  1.00  0.00     0.037 A 
BRANCH  27  41
ATOM     41  C   UNL A   1      40.253  33.867  38.652  1.00  0.00     0.057 A 
ATOM     42  C   UNL A   1      40.971  35.065  38.740  1.00  0.00     0.134 A 
ATOM     43  C   UNL A   1      39.510  33.470  39.771  1.00  0.00     0.134 A 
ATOM     44  F   UNL A   1      41.725  35.483  37.712  1.00  0.00    -0.206 F 
ATOM     45  C   UNL A   1      40.959  35.835  39.904  1.00  0.00     0.040 A 
ATOM     46  C   UNL A   1      39.475  34.241  40.933  1.00  0.00     0.040 A 
ATOM     47  F   UNL A   1      38.811  32.326  39.751  1.00  0.00    -0.206 F 
ATOM     48  C   UNL A   1      40.202  35.427  41.002  1.00  0.00     0.006 A 
ENDBRANCH  27  41
BRANCH  28  49
ATOM     49  C   UNL A   1      40.048  28.705  30.090  1.00  0.00     0.057 A 
ATOM     50  C   UNL A   1      40.690  29.280  28.988  1.00  0.00     0.134 A 
ATOM     51  C   UNL A   1      39.356  27.505  29.884  1.00  0.00     0.134 A 
ATOM     52  F   UNL A   1      41.358  30.435  29.124  1.00  0.00    -0.206 F 
ATOM     53  C   UNL A   1      40.613  28.706  27.716  1.00  0.00     0.040 A 
ATOM     54  C   UNL A   1      39.279  26.913  28.622  1.00  0.00     0.040 A 
ATOM     55  F   UNL A   1      38.742  26.893  30.909  1.00  0.00    -0.206 F 
ATOM     56  C   UNL A   1      39.901  27.521  27.531  1.00  0.00     0.006 A 
ENDBRANCH  28  49
BRANCH  40  57
ATOM     57  C   UNL A   1      44.500  29.068  35.340  1.00  0.00     0.057 A 
ATOM     58  C   UNL A   1      45.677  29.677  34.886  1.00  0.00     0.134 A 
ATOM     59  C   UNL A   1      44.606  27.824  35.971  1.00  0.00     0.134 A 
ATOM     60  F   UNL A   1      45.630  30.856  34.248  1.00  0.00    -0.206 F 
ATOM     61  C   UNL A   1      46.915  29.055  35.030  1.00  0.00     0.040 A 
ATOM     62  C   UNL A   1      45.843  27.205  36.145  1.00  0.00     0.040 A 
ATOM     63  F   UNL A   1      43.512  27.192  36.422  1.00  0.00    -0.206 F 
ATOM     64  C   UNL A   1      47.000  27.817  35.666  1.00  0.00     0.006 A 
ENDBRANCH  40  57
ENDBRANCH  14  15
ENDBRANCH   7   9
ENDBRANCH   6   7
ENDBRANCH   5   6
ENDBRANCH   4   5
ENDBRANCH   3   4
ENDBRANCH   2   3
ENDBRANCH   1   2
BRANCH   1  65
ATOM     65  O   UNL A   1      34.248  31.652  27.515  1.00  0.00    -0.376 OA
BRANCH  65  66
ATOM     66  C   UNL A   1      33.714  30.339  27.625  1.00  0.00     0.202 C 
BRANCH  66  67
ATOM     67  C   UNL A   1      33.257  29.632  26.345  1.00  0.00     0.261 C 
BRANCH  67  68
ATOM     68  O   UNL A   1      31.851  29.361  26.216  1.00  0.00    -0.460 OA
BRANCH  68  69
ATOM     69  C   UNL A   1      31.478  28.188  26.775  1.00  0.00     0.338 C 
ATOM     70  O   UNL A   1      31.403  27.921  27.965  1.00  0.00    -0.246 OA
BRANCH  69  71
ATOM     71  C   UNL A   1      31.424  27.105  25.789  1.00  0.00     0.061 A 
ATOM     72  C   UNL A   1      30.655  27.200  24.631  1.00  0.00     0.016 A 
ATOM     73  C   UNL A   1      31.739  25.871  26.341  1.00  0.00     0.038 A 
ATOM     74  C   UNL A   1      30.171  26.026  24.046  1.00  0.00     0.002 A 
ATOM     75  C   UNL A   1      31.103  24.734  25.876  1.00  0.00     0.088 A 
ATOM     76  C   UNL A   1      30.354  24.796  24.694  1.00  0.00     0.022 A 
BRANCH  75  77
ATOM     77  S   UNL A   1      31.042  23.252  26.859  1.00  0.00     0.261 S 
ATOM     78  O   UNL A   1      32.115  23.333  27.820  1.00  0.00    -0.201 OA
ATOM     79  O   UNL A   1      29.668  23.130  27.289  1.00  0.00    -0.201 OA
BRANCH  77  80
ATOM     80  N   UNL A   1      31.275  21.926  25.859  1.00  0.00    -0.280 N 
ATOM     81  H   UNL A   1      30.478  21.529  25.439  1.00  0.00     0.180 HD
BRANCH  80  82
ATOM     82  C   UNL A   1      32.532  21.330  25.570  1.00  0.00     0.050 A 
ATOM     83  C   UNL A   1      32.540  19.942  25.377  1.00  0.00     0.027 A 
ATOM     84  C   UNL A   1      33.702  22.064  25.363  1.00  0.00     0.041 A 
ATOM     85  C   UNL A   1      33.683  19.304  24.894  1.00  0.00     0.003 A 
ATOM     86  C   UNL A   1      34.844  21.418  24.882  1.00  0.00     0.015 A 
ATOM     87  C   UNL A   1      34.833  20.046  24.632  1.00  0.00     0.015 A 
ATOM     88  I   UNL A   1      36.559  22.524  24.472  1.00  0.00    -0.044 I 
ENDBRANCH  80  82
ENDBRANCH  77  80
ENDBRANCH  75  77
ENDBRANCH  69  71
ENDBRANCH  68  69
ENDBRANCH  67  68
ENDBRANCH  66  67
ENDBRANCH  65  66
ENDBRANCH   1  65
TORSDOF 20
ENDMDL
