MODEL 1
REMARK VINA RESULT:     -11.1      0.000      0.000
REMARK SMILES Cc1c(CC(=O)OCCOCCOCCOC(=O)c2ccc(-c3c4nc(c(-c5c(F)cccc5F)c5ccc([nH]5)c(-c5c(F)cccc5F)c5nc(c(-c6c(F)cccc6F)c6ccc3[nH]6)C=C5)C=C4)cc2)cc(-c2ccccc2)cc1-c1ccccc1
REMARK SMILES IDX 11 1 10 2 9 3 8 4 7 5 5 6 6 7 4 8 3 9 1 10 2 11 82 12 73 13
REMARK SMILES IDX 81 14 74 15 83 16 84 17 88 18 85 19 87 20 86 21 75 22 76 23
REMARK SMILES IDX 80 24 77 25 79 26 78 27 12 28 13 29 14 30 15 31 16 32 17 33
REMARK SMILES IDX 18 34 19 35 20 36 72 37 21 38 71 39 22 40 23 41 24 42 65 43
REMARK SMILES IDX 25 44 70 45 64 46 66 47 26 48 69 49 63 50 62 51 27 53 53 54
REMARK SMILES IDX 36 55 52 56 37 57 40 58 51 59 67 60 38 61 39 62 50 64 68 65
REMARK SMILES IDX 41 66 28 67 29 68 34 69 30 70 31 71 33 72 35 73 32 74 54 75
REMARK SMILES IDX 55 76 60 77 56 78 57 79 59 80 61 81 58 82 42 83 43 84 48 85
REMARK SMILES IDX 44 86 45 87 47 88 49 89 46 90
REMARK H PARENT 66 52 40 63
REMARK Flexibility Score: inf
ROOT
ATOM      1  C   UNL A   1      32.459  28.224  26.993  1.00  0.00     0.188 C 
ENDROOT
BRANCH   1   2
ATOM      2  O   UNL A   1      32.701  27.246  25.979  1.00  0.00    -0.376 OA
BRANCH   2   3
ATOM      3  C   UNL A   1      32.490  27.482  24.587  1.00  0.00     0.202 C 
BRANCH   3   4
ATOM      4  C   UNL A   1      33.607  27.019  23.461  1.00  0.00     0.261 C 
BRANCH   4   5
ATOM      5  O   UNL A   1      33.719  25.641  22.566  1.00  0.00    -0.463 OA
BRANCH   5   6
ATOM      6  C   UNL A   1      33.447  24.265  22.470  1.00  0.00     0.310 C 
ATOM      7  O   UNL A   1      33.546  23.487  21.524  1.00  0.00    -0.252 OA
BRANCH   6   8
ATOM      8  C   UNL A   1      32.985  23.567  23.699  1.00  0.00     0.158 C 
BRANCH   8   9
ATOM      9  C   UNL A   1      33.866  22.436  24.023  1.00  0.00    -0.033 A 
ATOM     10  C   UNL A   1      31.958  20.793  23.720  1.00  0.00     0.045 C 
ATOM     11  C   UNL A   1      33.386  21.123  24.125  1.00  0.00    -0.039 A 
ATOM     12  C   UNL A   1      34.279  20.145  24.596  1.00  0.00    -0.015 A 
ATOM     13  C   UNL A   1      35.159  22.783  24.376  1.00  0.00     0.013 A 
ATOM     14  C   UNL A   1      35.573  20.532  25.037  1.00  0.00     0.017 A 
ATOM     15  C   UNL A   1      36.016  21.855  24.930  1.00  0.00    -0.017 A 
BRANCH  12  16
ATOM     16  C   UNL A   1      33.871  18.738  24.609  1.00  0.00    -0.018 A 
ATOM     17  C   UNL A   1      34.458  17.800  23.753  1.00  0.00     0.009 A 
ATOM     18  C   UNL A   1      32.950  18.294  25.575  1.00  0.00     0.009 A 
ATOM     19  C   UNL A   1      34.127  16.449  23.862  1.00  0.00     0.001 A 
ATOM     20  C   UNL A   1      32.633  16.944  25.694  1.00  0.00     0.001 A 
ATOM     21  C   UNL A   1      33.219  16.023  24.831  1.00  0.00     0.000 A 
ENDBRANCH  12  16
BRANCH  15  22
ATOM     22  C   UNL A   1      37.293  22.387  25.391  1.00  0.00    -0.018 A 
ATOM     23  C   UNL A   1      38.356  21.518  25.680  1.00  0.00     0.009 A 
ATOM     24  C   UNL A   1      37.372  23.719  25.828  1.00  0.00     0.009 A 
ATOM     25  C   UNL A   1      39.468  21.973  26.390  1.00  0.00     0.001 A 
ATOM     26  C   UNL A   1      38.483  24.174  26.535  1.00  0.00     0.001 A 
ATOM     27  C   UNL A   1      39.529  23.298  26.818  1.00  0.00     0.000 A 
ENDBRANCH  15  22
ENDBRANCH   8   9
ENDBRANCH   6   8
ENDBRANCH   5   6
ENDBRANCH   4   5
ENDBRANCH   3   4
ENDBRANCH   2   3
ENDBRANCH   1   2
BRANCH   1  28
ATOM     28  C   UNL A   1      33.374  29.419  26.784  1.00  0.00     0.188 C 
BRANCH  28  29
ATOM     29  O   UNL A   1      33.038  30.601  27.502  1.00  0.00    -0.376 OA
BRANCH  29  30
ATOM     30  C   UNL A   1      34.226  31.370  27.802  1.00  0.00     0.202 C 
BRANCH  30  31
ATOM     31  C   UNL A   1      33.962  32.895  27.943  1.00  0.00     0.261 C 
BRANCH  31  32
ATOM     32  O   UNL A   1      35.000  33.509  28.745  1.00  0.00    -0.460 OA
BRANCH  32  33
ATOM     33  C   UNL A   1      35.048  33.301  30.100  1.00  0.00     0.338 C 
ATOM     34  O   UNL A   1      34.085  33.251  30.849  1.00  0.00    -0.246 OA
BRANCH  33  35
ATOM     35  C   UNL A   1      36.487  33.422  30.544  1.00  0.00     0.060 A 
ATOM     36  C   UNL A   1      37.543  33.849  29.734  1.00  0.00     0.016 A 
ATOM     37  C   UNL A   1      36.847  32.719  31.647  1.00  0.00     0.016 A 
ATOM     38  C   UNL A   1      38.896  33.345  29.912  1.00  0.00     0.010 A 
ATOM     39  C   UNL A   1      38.069  32.045  31.567  1.00  0.00     0.010 A 
ATOM     40  C   UNL A   1      39.195  32.271  30.764  1.00  0.00    -0.014 A 
BRANCH  40  41
ATOM     41  C   UNL A   1      40.426  31.232  30.572  1.00  0.00     0.031 A 
ATOM     42  C   UNL A   1      40.685  29.743  29.892  1.00  0.00     0.074 A 
ATOM     43  C   UNL A   1      41.592  31.780  30.998  1.00  0.00     0.049 A 
ATOM     44  N   UNL A   1      41.660  28.925  30.272  1.00  0.00    -0.248 NA
ATOM     45  C   UNL A   1      39.940  28.994  28.825  1.00  0.00     0.031 C 
ATOM     46  C   UNL A   1      42.958  31.314  30.800  1.00  0.00     0.029 A 
ATOM     47  N   UNL A   1      41.739  32.878  31.850  1.00  0.00    -0.354 N 
ATOM     48  C   UNL A   1      41.671  27.811  29.425  1.00  0.00     0.074 A 
ATOM     49  C   UNL A   1      40.408  27.760  28.835  1.00  0.00     0.031 C 
ATOM     50  C   UNL A   1      43.740  31.884  31.728  1.00  0.00     0.029 A 
ATOM     51  C   UNL A   1      42.887  32.647  32.620  1.00  0.00     0.049 A 
ATOM     52  H   UNL A   1      41.149  33.664  31.899  1.00  0.00     0.167 HD
ATOM     53  C   UNL A   1      42.747  27.046  29.100  1.00  0.00     0.037 A 
ATOM     54  C   UNL A   1      42.730  32.449  33.961  1.00  0.00     0.037 A 
ATOM     55  C   UNL A   1      43.790  27.259  30.065  1.00  0.00     0.049 A 
ATOM     56  C   UNL A   1      43.014  31.013  34.384  1.00  0.00     0.074 A 
ATOM     57  C   UNL A   1      44.947  28.005  30.116  1.00  0.00     0.029 A 
ATOM     58  N   UNL A   1      43.482  26.920  31.369  1.00  0.00    -0.354 N 
ATOM     59  N   UNL A   1      43.588  30.106  33.636  1.00  0.00    -0.248 NA
ATOM     60  C   UNL A   1      42.581  30.460  35.673  1.00  0.00     0.031 C 
ATOM     61  C   UNL A   1      45.180  28.306  31.499  1.00  0.00     0.029 A 
ATOM     62  C   UNL A   1      44.207  27.678  32.263  1.00  0.00     0.049 A 
ATOM     63  H   UNL A   1      42.829  26.229  31.625  1.00  0.00     0.167 HD
ATOM     64  C   UNL A   1      43.456  28.881  34.234  1.00  0.00     0.074 A 
ATOM     65  C   UNL A   1      42.854  29.157  35.524  1.00  0.00     0.031 C 
ATOM     66  C   UNL A   1      43.763  27.691  33.647  1.00  0.00     0.037 A 
BRANCH  53  67
ATOM     67  C   UNL A   1      42.807  26.122  27.877  1.00  0.00     0.057 A 
ATOM     68  C   UNL A   1      42.868  26.655  26.580  1.00  0.00     0.134 A 
ATOM     69  C   UNL A   1      42.725  24.701  27.893  1.00  0.00     0.134 A 
ATOM     70  F   UNL A   1      42.880  27.980  26.381  1.00  0.00    -0.206 F 
ATOM     71  C   UNL A   1      42.895  25.854  25.419  1.00  0.00     0.040 A 
ATOM     72  C   UNL A   1      42.838  23.890  26.752  1.00  0.00     0.040 A 
ATOM     73  F   UNL A   1      42.454  24.003  29.005  1.00  0.00    -0.206 F 
ATOM     74  C   UNL A   1      42.911  24.467  25.501  1.00  0.00     0.006 A 
ENDBRANCH  53  67
BRANCH  54  75
ATOM     75  C   UNL A   1      41.747  33.404  34.574  1.00  0.00     0.057 A 
ATOM     76  C   UNL A   1      42.194  34.714  34.866  1.00  0.00     0.134 A 
ATOM     77  C   UNL A   1      40.364  33.205  34.638  1.00  0.00     0.134 A 
ATOM     78  F   UNL A   1      43.503  35.008  34.820  1.00  0.00    -0.206 F 
ATOM     79  C   UNL A   1      41.317  35.777  35.107  1.00  0.00     0.040 A 
ATOM     80  C   UNL A   1      39.475  34.257  34.917  1.00  0.00     0.040 A 
ATOM     81  F   UNL A   1      39.816  32.029  34.300  1.00  0.00    -0.206 F 
ATOM     82  C   UNL A   1      39.948  35.550  35.126  1.00  0.00     0.006 A 
ENDBRANCH  54  75
BRANCH  66  83
ATOM     83  C   UNL A   1      43.624  26.412  34.410  1.00  0.00     0.057 A 
ATOM     84  C   UNL A   1      44.756  25.638  34.685  1.00  0.00     0.134 A 
ATOM     85  C   UNL A   1      42.382  25.858  34.761  1.00  0.00     0.134 A 
ATOM     86  F   UNL A   1      45.982  26.096  34.392  1.00  0.00    -0.206 F 
ATOM     87  C   UNL A   1      44.659  24.368  35.256  1.00  0.00     0.040 A 
ATOM     88  C   UNL A   1      42.267  24.573  35.295  1.00  0.00     0.040 A 
ATOM     89  F   UNL A   1      41.240  26.543  34.588  1.00  0.00    -0.206 F 
ATOM     90  C   UNL A   1      43.411  23.822  35.540  1.00  0.00     0.006 A 
ENDBRANCH  66  83
ENDBRANCH  40  41
ENDBRANCH  33  35
ENDBRANCH  32  33
ENDBRANCH  31  32
ENDBRANCH  30  31
ENDBRANCH  29  30
ENDBRANCH  28  29
ENDBRANCH   1  28
TORSDOF 20
ENDMDL
MODEL 2
REMARK VINA RESULT:     -11.1      2.099      4.379
REMARK SMILES Cc1c(CC(=O)OCCOCCOCCOC(=O)c2ccc(-c3c4nc(c(-c5c(F)cccc5F)c5ccc([nH]5)c(-c5c(F)cccc5F)c5nc(c(-c6c(F)cccc6F)c6ccc3[nH]6)C=C5)C=C4)cc2)cc(-c2ccccc2)cc1-c1ccccc1
REMARK SMILES IDX 11 1 10 2 9 3 8 4 7 5 5 6 6 7 4 8 3 9 1 10 2 11 82 12 73 13
REMARK SMILES IDX 81 14 74 15 83 16 84 17 88 18 85 19 87 20 86 21 75 22 76 23
REMARK SMILES IDX 80 24 77 25 79 26 78 27 12 28 13 29 14 30 15 31 16 32 17 33
REMARK SMILES IDX 18 34 19 35 20 36 72 37 21 38 71 39 22 40 23 41 24 42 65 43
REMARK SMILES IDX 25 44 70 45 64 46 66 47 26 48 69 49 63 50 62 51 27 53 53 54
REMARK SMILES IDX 36 55 52 56 37 57 40 58 51 59 67 60 38 61 39 62 50 64 68 65
REMARK SMILES IDX 41 66 28 67 29 68 34 69 30 70 31 71 33 72 35 73 32 74 54 75
REMARK SMILES IDX 55 76 60 77 56 78 57 79 59 80 61 81 58 82 42 83 43 84 48 85
REMARK SMILES IDX 44 86 45 87 47 88 49 89 46 90
REMARK H PARENT 66 52 40 63
REMARK Flexibility Score: inf
ROOT
ATOM      1  C   UNL A   1      31.716  29.386  24.934  1.00  0.00     0.188 C 
ENDROOT
BRANCH   1   2
ATOM      2  O   UNL A   1      30.719  28.394  24.674  1.00  0.00    -0.376 OA
BRANCH   2   3
ATOM      3  C   UNL A   1      30.500  27.811  23.389  1.00  0.00     0.202 C 
BRANCH   3   4
ATOM      4  C   UNL A   1      31.390  26.518  22.873  1.00  0.00     0.261 C 
BRANCH   4   5
ATOM      5  O   UNL A   1      31.087  24.902  22.965  1.00  0.00    -0.463 OA
BRANCH   5   6
ATOM      6  C   UNL A   1      31.430  23.663  23.534  1.00  0.00     0.310 C 
ATOM      7  O   UNL A   1      31.078  23.133  24.585  1.00  0.00    -0.252 OA
BRANCH   6   8
ATOM      8  C   UNL A   1      32.350  22.784  22.766  1.00  0.00     0.158 C 
BRANCH   8   9
ATOM      9  C   UNL A   1      33.247  22.047  23.667  1.00  0.00    -0.033 A 
ATOM     10  C   UNL A   1      34.793  24.049  23.855  1.00  0.00     0.045 C 
ATOM     11  C   UNL A   1      34.454  22.591  24.128  1.00  0.00    -0.039 A 
ATOM     12  C   UNL A   1      35.309  21.743  24.853  1.00  0.00    -0.015 A 
ATOM     13  C   UNL A   1      32.894  20.728  23.895  1.00  0.00     0.013 A 
ATOM     14  C   UNL A   1      34.973  20.371  25.002  1.00  0.00     0.017 A 
ATOM     15  C   UNL A   1      33.764  19.858  24.520  1.00  0.00    -0.017 A 
BRANCH  12  16
ATOM     16  C   UNL A   1      36.525  22.290  25.461  1.00  0.00    -0.018 A 
ATOM     17  C   UNL A   1      37.745  21.607  25.392  1.00  0.00     0.009 A 
ATOM     18  C   UNL A   1      36.496  23.576  26.029  1.00  0.00     0.009 A 
ATOM     19  C   UNL A   1      38.908  22.200  25.884  1.00  0.00     0.001 A 
ATOM     20  C   UNL A   1      37.660  24.174  26.504  1.00  0.00     0.001 A 
ATOM     21  C   UNL A   1      38.865  23.480  26.437  1.00  0.00     0.000 A 
ENDBRANCH  12  16
BRANCH  15  22
ATOM     22  C   UNL A   1      33.328  18.468  24.563  1.00  0.00    -0.018 A 
ATOM     23  C   UNL A   1      32.704  17.959  25.712  1.00  0.00     0.009 A 
ATOM     24  C   UNL A   1      33.790  17.566  23.590  1.00  0.00     0.009 A 
ATOM     25  C   UNL A   1      32.549  16.582  25.882  1.00  0.00     0.001 A 
ATOM     26  C   UNL A   1      33.633  16.192  23.758  1.00  0.00     0.001 A 
ATOM     27  C   UNL A   1      33.014  15.702  24.907  1.00  0.00     0.000 A 
ENDBRANCH  15  22
ENDBRANCH   8   9
ENDBRANCH   6   8
ENDBRANCH   5   6
ENDBRANCH   4   5
ENDBRANCH   3   4
ENDBRANCH   2   3
ENDBRANCH   1   2
BRANCH   1  28
ATOM     28  C   UNL A   1      31.876  29.575  26.433  1.00  0.00     0.188 C 
BRANCH  28  29
ATOM     29  O   UNL A   1      32.461  30.801  26.853  1.00  0.00    -0.376 OA
BRANCH  29  30
ATOM     30  C   UNL A   1      33.824  30.592  27.292  1.00  0.00     0.202 C 
BRANCH  30  31
ATOM     31  C   UNL A   1      34.447  31.827  28.001  1.00  0.00     0.261 C 
BRANCH  31  32
ATOM     32  O   UNL A   1      35.150  31.412  29.198  1.00  0.00    -0.460 OA
BRANCH  32  33
ATOM     33  C   UNL A   1      36.518  31.481  29.262  1.00  0.00     0.338 C 
ATOM     34  O   UNL A   1      37.179  32.505  29.330  1.00  0.00    -0.246 OA
BRANCH  33  35
ATOM     35  C   UNL A   1      37.073  30.109  28.958  1.00  0.00     0.060 A 
ATOM     36  C   UNL A   1      37.402  29.146  29.917  1.00  0.00     0.016 A 
ATOM     37  C   UNL A   1      37.649  29.939  27.741  1.00  0.00     0.016 A 
ATOM     38  C   UNL A   1      38.486  28.199  29.710  1.00  0.00     0.010 A 
ATOM     39  C   UNL A   1      38.855  29.233  27.732  1.00  0.00     0.010 A 
ATOM     40  C   UNL A   1      39.387  28.306  28.639  1.00  0.00    -0.014 A 
BRANCH  40  41
ATOM     41  C   UNL A   1      40.925  27.788  28.649  1.00  0.00     0.031 A 
ATOM     42  C   UNL A   1      41.793  26.500  28.070  1.00  0.00     0.074 A 
ATOM     43  C   UNL A   1      41.745  28.720  29.195  1.00  0.00     0.049 A 
ATOM     44  N   UNL A   1      42.938  26.091  28.605  1.00  0.00    -0.248 NA
ATOM     45  C   UNL A   1      41.519  25.539  26.950  1.00  0.00     0.031 C 
ATOM     46  C   UNL A   1      43.201  28.786  29.192  1.00  0.00     0.029 A 
ATOM     47  N   UNL A   1      41.370  29.790  30.012  1.00  0.00    -0.354 N 
ATOM     48  C   UNL A   1      43.464  25.064  27.814  1.00  0.00     0.074 A 
ATOM     49  C   UNL A   1      42.396  24.560  27.072  1.00  0.00     0.031 C 
ATOM     50  C   UNL A   1      43.591  29.595  30.186  1.00  0.00     0.029 A 
ATOM     51  C   UNL A   1      42.410  29.988  30.930  1.00  0.00     0.049 A 
ATOM     52  H   UNL A   1      40.534  30.307  29.952  1.00  0.00     0.167 HD
ATOM     53  C   UNL A   1      44.778  24.746  27.661  1.00  0.00     0.037 A 
ATOM     54  C   UNL A   1      42.159  29.738  32.248  1.00  0.00     0.037 A 
ATOM     55  C   UNL A   1      45.534  25.318  28.740  1.00  0.00     0.049 A 
ATOM     56  C   UNL A   1      42.883  28.501  32.763  1.00  0.00     0.074 A 
ATOM     57  C   UNL A   1      46.325  26.433  28.905  1.00  0.00     0.029 A 
ATOM     58  N   UNL A   1      45.198  24.881  30.008  1.00  0.00    -0.354 N 
ATOM     59  N   UNL A   1      43.841  27.871  32.132  1.00  0.00    -0.248 NA
ATOM     60  C   UNL A   1      42.513  27.820  34.009  1.00  0.00     0.031 C 
ATOM     61  C   UNL A   1      46.246  26.789  30.292  1.00  0.00     0.029 A 
ATOM     62  C   UNL A   1      45.474  25.845  30.953  1.00  0.00     0.049 A 
ATOM     63  H   UNL A   1      44.812  23.998  30.208  1.00  0.00     0.167 HD
ATOM     64  C   UNL A   1      44.083  26.678  32.761  1.00  0.00     0.074 A 
ATOM     65  C   UNL A   1      43.256  26.706  33.951  1.00  0.00     0.031 C 
ATOM     66  C   UNL A   1      44.876  25.686  32.268  1.00  0.00     0.037 A 
BRANCH  53  67
ATOM     67  C   UNL A   1      45.330  23.915  26.495  1.00  0.00     0.057 A 
ATOM     68  C   UNL A   1      46.156  24.504  25.524  1.00  0.00     0.134 A 
ATOM     69  C   UNL A   1      45.027  22.553  26.217  1.00  0.00     0.134 A 
ATOM     70  F   UNL A   1      46.483  25.802  25.597  1.00  0.00    -0.206 F 
ATOM     71  C   UNL A   1      46.668  23.797  24.417  1.00  0.00     0.040 A 
ATOM     72  C   UNL A   1      45.598  21.814  25.167  1.00  0.00     0.040 A 
ATOM     73  F   UNL A   1      44.099  21.863  26.895  1.00  0.00    -0.206 F 
ATOM     74  C   UNL A   1      46.417  22.440  24.250  1.00  0.00     0.006 A 
ENDBRANCH  53  67
BRANCH  54  75
ATOM     75  C   UNL A   1      40.823  30.265  32.690  1.00  0.00     0.057 A 
ATOM     76  C   UNL A   1      39.762  29.340  32.827  1.00  0.00     0.134 A 
ATOM     77  C   UNL A   1      40.599  31.533  33.234  1.00  0.00     0.134 A 
ATOM     78  F   UNL A   1      39.886  28.092  32.346  1.00  0.00    -0.206 F 
ATOM     79  C   UNL A   1      38.596  29.627  33.544  1.00  0.00     0.040 A 
ATOM     80  C   UNL A   1      39.415  31.846  33.925  1.00  0.00     0.040 A 
ATOM     81  F   UNL A   1      41.562  32.465  33.241  1.00  0.00    -0.206 F 
ATOM     82  C   UNL A   1      38.422  30.885  34.103  1.00  0.00     0.006 A 
ENDBRANCH  54  75
BRANCH  66  83
ATOM     83  C   UNL A   1      45.108  24.439  33.061  1.00  0.00     0.057 A 
ATOM     84  C   UNL A   1      44.247  23.347  32.910  1.00  0.00     0.134 A 
ATOM     85  C   UNL A   1      46.080  24.339  34.069  1.00  0.00     0.134 A 
ATOM     86  F   UNL A   1      43.296  23.355  31.964  1.00  0.00    -0.206 F 
ATOM     87  C   UNL A   1      44.329  22.225  33.735  1.00  0.00     0.040 A 
ATOM     88  C   UNL A   1      46.148  23.240  34.928  1.00  0.00     0.040 A 
ATOM     89  F   UNL A   1      46.989  25.309  34.260  1.00  0.00    -0.206 F 
ATOM     90  C   UNL A   1      45.266  22.179  34.764  1.00  0.00     0.006 A 
ENDBRANCH  66  83
ENDBRANCH  40  41
ENDBRANCH  33  35
ENDBRANCH  32  33
ENDBRANCH  31  32
ENDBRANCH  30  31
ENDBRANCH  29  30
ENDBRANCH  28  29
ENDBRANCH   1  28
TORSDOF 20
ENDMDL
MODEL 3
REMARK VINA RESULT:     -11.0      3.336      9.504
REMARK SMILES Cc1c(CC(=O)OCCOCCOCCOC(=O)c2ccc(-c3c4nc(c(-c5c(F)cccc5F)c5ccc([nH]5)c(-c5c(F)cccc5F)c5nc(c(-c6c(F)cccc6F)c6ccc3[nH]6)C=C5)C=C4)cc2)cc(-c2ccccc2)cc1-c1ccccc1
REMARK SMILES IDX 11 1 10 2 9 3 8 4 7 5 5 6 6 7 4 8 3 9 1 10 2 11 82 12 73 13
REMARK SMILES IDX 81 14 74 15 83 16 84 17 88 18 85 19 87 20 86 21 75 22 76 23
REMARK SMILES IDX 80 24 77 25 79 26 78 27 12 28 13 29 14 30 15 31 16 32 17 33
REMARK SMILES IDX 18 34 19 35 20 36 72 37 21 38 71 39 22 40 23 41 24 42 65 43
REMARK SMILES IDX 25 44 70 45 64 46 66 47 26 48 69 49 63 50 62 51 27 53 53 54
REMARK SMILES IDX 36 55 52 56 37 57 40 58 51 59 67 60 38 61 39 62 50 64 68 65
REMARK SMILES IDX 41 66 28 67 29 68 34 69 30 70 31 71 33 72 35 73 32 74 54 75
REMARK SMILES IDX 55 76 60 77 56 78 57 79 59 80 61 81 58 82 42 83 43 84 48 85
REMARK SMILES IDX 44 86 45 87 47 88 49 89 46 90
REMARK H PARENT 66 52 40 63
REMARK Flexibility Score: inf
ROOT
ATOM      1  C   UNL A   1      34.359  21.763  25.211  1.00  0.00     0.188 C 
ENDROOT
BRANCH   1   2
ATOM      2  O   UNL A   1      34.568  22.457  26.444  1.00  0.00    -0.376 OA
BRANCH   2   3
ATOM      3  C   UNL A   1      33.682  22.368  27.560  1.00  0.00     0.202 C 
BRANCH   3   4
ATOM      4  C   UNL A   1      32.102  22.831  27.438  1.00  0.00     0.261 C 
BRANCH   4   5
ATOM      5  O   UNL A   1      31.336  23.744  26.301  1.00  0.00    -0.463 OA
BRANCH   5   6
ATOM      6  C   UNL A   1      30.823  25.002  25.942  1.00  0.00     0.310 C 
ATOM      7  O   UNL A   1      29.915  25.673  26.429  1.00  0.00    -0.252 OA
BRANCH   6   8
ATOM      8  C   UNL A   1      31.465  25.708  24.802  1.00  0.00     0.158 C 
BRANCH   8   9
ATOM      9  C   UNL A   1      31.308  27.164  24.930  1.00  0.00    -0.033 A 
ATOM     10  C   UNL A   1      29.585  27.197  23.069  1.00  0.00     0.045 C 
ATOM     11  C   UNL A   1      30.491  27.905  24.065  1.00  0.00    -0.039 A 
ATOM     12  C   UNL A   1      30.538  29.305  24.175  1.00  0.00    -0.015 A 
ATOM     13  C   UNL A   1      32.145  27.764  25.855  1.00  0.00     0.013 A 
ATOM     14  C   UNL A   1      31.466  29.907  25.067  1.00  0.00     0.017 A 
ATOM     15  C   UNL A   1      32.275  29.137  25.909  1.00  0.00    -0.017 A 
BRANCH  12  16
ATOM     16  C   UNL A   1      29.619  30.125  23.381  1.00  0.00    -0.018 A 
ATOM     17  C   UNL A   1      28.719  31.008  23.989  1.00  0.00     0.009 A 
ATOM     18  C   UNL A   1      29.715  30.111  21.978  1.00  0.00     0.009 A 
ATOM     19  C   UNL A   1      27.932  31.854  23.208  1.00  0.00     0.001 A 
ATOM     20  C   UNL A   1      28.942  30.966  21.200  1.00  0.00     0.001 A 
ATOM     21  C   UNL A   1      28.045  31.833  21.817  1.00  0.00     0.000 A 
ENDBRANCH  12  16
BRANCH  15  22
ATOM     22  C   UNL A   1      33.296  29.628  26.826  1.00  0.00    -0.018 A 
ATOM     23  C   UNL A   1      33.287  30.969  27.240  1.00  0.00     0.009 A 
ATOM     24  C   UNL A   1      34.447  28.857  27.060  1.00  0.00     0.009 A 
ATOM     25  C   UNL A   1      34.403  31.522  27.869  1.00  0.00     0.001 A 
ATOM     26  C   UNL A   1      35.560  29.408  27.690  1.00  0.00     0.001 A 
ATOM     27  C   UNL A   1      35.537  30.743  28.092  1.00  0.00     0.000 A 
ENDBRANCH  15  22
ENDBRANCH   8   9
ENDBRANCH   6   8
ENDBRANCH   5   6
ENDBRANCH   4   5
ENDBRANCH   3   4
ENDBRANCH   2   3
ENDBRANCH   1   2
BRANCH   1  28
ATOM     28  C   UNL A   1      35.177  22.416  24.108  1.00  0.00     0.188 C 
BRANCH  28  29
ATOM     29  O   UNL A   1      36.509  21.944  23.950  1.00  0.00    -0.376 OA
BRANCH  29  30
ATOM     30  C   UNL A   1      37.397  22.600  24.886  1.00  0.00     0.202 C 
BRANCH  30  31
ATOM     31  C   UNL A   1      38.284  21.615  25.697  1.00  0.00     0.261 C 
BRANCH  31  32
ATOM     32  O   UNL A   1      39.288  22.348  26.441  1.00  0.00    -0.460 OA
BRANCH  32  33
ATOM     33  C   UNL A   1      40.401  21.709  26.926  1.00  0.00     0.338 C 
ATOM     34  O   UNL A   1      40.464  20.535  27.255  1.00  0.00    -0.246 OA
BRANCH  33  35
ATOM     35  C   UNL A   1      41.443  22.756  27.244  1.00  0.00     0.060 A 
ATOM     36  C   UNL A   1      42.081  22.904  28.479  1.00  0.00     0.016 A 
ATOM     37  C   UNL A   1      41.484  23.844  26.434  1.00  0.00     0.016 A 
ATOM     38  C   UNL A   1      42.510  24.205  28.967  1.00  0.00     0.010 A 
ATOM     39  C   UNL A   1      41.624  25.076  27.078  1.00  0.00     0.010 A 
ATOM     40  C   UNL A   1      42.151  25.404  28.335  1.00  0.00    -0.014 A 
BRANCH  40  41
ATOM     41  C   UNL A   1      41.982  26.842  29.070  1.00  0.00     0.031 A 
ATOM     42  C   UNL A   1      40.881  28.080  29.112  1.00  0.00     0.074 A 
ATOM     43  C   UNL A   1      42.969  27.038  29.979  1.00  0.00     0.049 A 
ATOM     44  N   UNL A   1      41.198  29.329  29.433  1.00  0.00    -0.248 NA
ATOM     45  C   UNL A   1      39.416  28.119  28.788  1.00  0.00     0.031 C 
ATOM     46  C   UNL A   1      43.079  28.055  31.018  1.00  0.00     0.029 A 
ATOM     47  N   UNL A   1      44.192  26.366  30.047  1.00  0.00    -0.354 N 
ATOM     48  C   UNL A   1      40.028  30.093  29.485  1.00  0.00     0.074 A 
ATOM     49  C   UNL A   1      39.074  29.394  28.744  1.00  0.00     0.031 C 
ATOM     50  C   UNL A   1      44.366  28.154  31.379  1.00  0.00     0.029 A 
ATOM     51  C   UNL A   1      45.140  27.286  30.511  1.00  0.00     0.049 A 
ATOM     52  H   UNL A   1      44.356  25.424  29.813  1.00  0.00     0.167 HD
ATOM     53  C   UNL A   1      39.807  31.194  30.252  1.00  0.00     0.037 A 
ATOM     54  C   UNL A   1      46.135  27.669  29.659  1.00  0.00     0.037 A 
ATOM     55  C   UNL A   1      41.067  31.731  30.686  1.00  0.00     0.049 A 
ATOM     56  C   UNL A   1      45.994  29.113  29.196  1.00  0.00     0.074 A 
ATOM     57  C   UNL A   1      41.816  31.674  31.840  1.00  0.00     0.029 A 
ATOM     58  N   UNL A   1      41.920  32.150  29.682  1.00  0.00    -0.354 N 
ATOM     59  N   UNL A   1      45.185  29.998  29.721  1.00  0.00    -0.248 NA
ATOM     60  C   UNL A   1      46.703  29.650  28.028  1.00  0.00     0.031 C 
ATOM     61  C   UNL A   1      43.187  31.833  31.447  1.00  0.00     0.029 A 
ATOM     62  C   UNL A   1      43.236  32.056  30.079  1.00  0.00     0.049 A 
ATOM     63  H   UNL A   1      41.625  32.473  28.800  1.00  0.00     0.167 HD
ATOM     64  C   UNL A   1      45.138  31.100  28.909  1.00  0.00     0.074 A 
ATOM     65  C   UNL A   1      46.131  30.854  27.883  1.00  0.00     0.031 C 
ATOM     66  C   UNL A   1      44.255  32.129  29.045  1.00  0.00     0.037 A 
BRANCH  53  67
ATOM     67  C   UNL A   1      38.413  31.740  30.592  1.00  0.00     0.057 A 
ATOM     68  C   UNL A   1      37.577  31.057  31.488  1.00  0.00     0.134 A 
ATOM     69  C   UNL A   1      37.797  32.885  30.015  1.00  0.00     0.134 A 
ATOM     70  F   UNL A   1      37.977  29.918  32.070  1.00  0.00    -0.206 F 
ATOM     71  C   UNL A   1      36.277  31.496  31.815  1.00  0.00     0.040 A 
ATOM     72  C   UNL A   1      36.538  33.381  30.395  1.00  0.00     0.040 A 
ATOM     73  F   UNL A   1      38.335  33.559  28.990  1.00  0.00    -0.206 F 
ATOM     74  C   UNL A   1      35.763  32.677  31.293  1.00  0.00     0.006 A 
ENDBRANCH  53  67
BRANCH  54  75
ATOM     75  C   UNL A   1      46.708  26.515  28.888  1.00  0.00     0.057 A 
ATOM     76  C   UNL A   1      46.171  26.245  27.607  1.00  0.00     0.134 A 
ATOM     77  C   UNL A   1      47.898  25.850  29.201  1.00  0.00     0.134 A 
ATOM     78  F   UNL A   1      45.036  26.844  27.210  1.00  0.00    -0.206 F 
ATOM     79  C   UNL A   1      46.825  25.444  26.665  1.00  0.00     0.040 A 
ATOM     80  C   UNL A   1      48.546  25.013  28.275  1.00  0.00     0.040 A 
ATOM     81  F   UNL A   1      48.546  26.091  30.349  1.00  0.00    -0.206 F 
ATOM     82  C   UNL A   1      48.024  24.830  26.997  1.00  0.00     0.006 A 
ENDBRANCH  54  75
BRANCH  66  83
ATOM     83  C   UNL A   1      44.321  33.309  28.128  1.00  0.00     0.057 A 
ATOM     84  C   UNL A   1      44.607  34.577  28.643  1.00  0.00     0.134 A 
ATOM     85  C   UNL A   1      43.975  33.246  26.768  1.00  0.00     0.134 A 
ATOM     86  F   UNL A   1      44.958  34.727  29.929  1.00  0.00    -0.206 F 
ATOM     87  C   UNL A   1      44.528  35.727  27.857  1.00  0.00     0.040 A 
ATOM     88  C   UNL A   1      43.852  34.392  25.980  1.00  0.00     0.040 A 
ATOM     89  F   UNL A   1      43.734  32.071  26.165  1.00  0.00    -0.206 F 
ATOM     90  C   UNL A   1      44.126  35.640  26.527  1.00  0.00     0.006 A 
ENDBRANCH  66  83
ENDBRANCH  40  41
ENDBRANCH  33  35
ENDBRANCH  32  33
ENDBRANCH  31  32
ENDBRANCH  30  31
ENDBRANCH  29  30
ENDBRANCH  28  29
ENDBRANCH   1  28
TORSDOF 20
ENDMDL
