MODEL 1
REMARK VINA RESULT:     -10.2      0.000      0.000
REMARK SMILES O=C(Cc1ccc(=O)n(C(F)F)c1)OCCOCCOCCOC(=O)c1ccc(-c2c3nc(c(-c4c(F)cccc4F)c4ccc([nH]4)c(-c4c(F)cccc4F)c4nc(c(-c5c(F)cccc5F)c5ccc2[nH]5)C=C4)C=C3)cc1
REMARK SMILES IDX 18 1 17 2 16 3 15 4 14 5 2 6 1 7 3 8 4 9 5 10 13 11 6 12
REMARK SMILES IDX 9 13 7 14 8 15 10 16 11 17 12 18 19 19 20 20 21 21 22 22
REMARK SMILES IDX 23 23 24 24 25 25 26 26 27 27 79 28 28 29 78 30 29 31 30 32
REMARK SMILES IDX 31 33 72 34 32 35 77 36 71 37 73 38 33 39 76 40 70 41 69 42
REMARK SMILES IDX 34 44 60 45 43 46 59 47 44 48 47 49 58 50 74 51 45 52 46 53
REMARK SMILES IDX 57 55 75 56 48 57 35 58 36 59 41 60 37 61 38 62 40 63 42 64
REMARK SMILES IDX 39 65 61 66 62 67 67 68 63 69 64 70 66 71 68 72 65 73 49 74
REMARK SMILES IDX 50 75 55 76 51 77 52 78 54 79 56 80 53 81
REMARK H PARENT 73 43 47 54
REMARK Flexibility Score: inf
ROOT
ATOM      1  C   UNL A   1      40.656  21.696  26.206  1.00  0.00     0.188 C 
ENDROOT
BRANCH   1   2
ATOM      2  O   UNL A   1      39.256  21.813  26.304  1.00  0.00    -0.376 OA
BRANCH   2   3
ATOM      3  C   UNL A   1      38.611  23.069  26.239  1.00  0.00     0.202 C 
BRANCH   3   4
ATOM      4  C   UNL A   1      37.133  23.268  25.871  1.00  0.00     0.261 C 
BRANCH   4   5
ATOM      5  O   UNL A   1      36.101  22.319  26.211  1.00  0.00    -0.463 OA
BRANCH   5   6
ATOM      6  C   UNL A   1      35.427  21.389  25.508  1.00  0.00     0.310 C 
ATOM      7  O   UNL A   1      36.043  20.664  24.726  1.00  0.00    -0.252 OA
BRANCH   6   8
ATOM      8  C   UNL A   1      33.923  21.289  25.616  1.00  0.00     0.159 C 
BRANCH   8   9
ATOM      9  C   UNL A   1      33.379  20.312  24.629  1.00  0.00    -0.020 A 
ATOM     10  C   UNL A   1      32.523  20.772  23.559  1.00  0.00     0.011 A 
ATOM     11  C   UNL A   1      33.657  19.007  24.716  1.00  0.00     0.099 A 
ATOM     12  C   UNL A   1      32.064  19.907  22.645  1.00  0.00     0.072 A 
ATOM     13  N   UNL A   1      33.272  18.109  23.751  1.00  0.00    -0.258 N 
ATOM     14  C   UNL A   1      32.466  18.468  22.686  1.00  0.00     0.254 A 
ATOM     15  O   UNL A   1      32.073  17.716  21.803  1.00  0.00    -0.269 OA
BRANCH  13  16
ATOM     16  C   UNL A   1      33.781  16.761  23.796  1.00  0.00     0.451 C 
ATOM     17  F   UNL A   1      34.987  16.707  24.402  1.00  0.00    -0.185 F 
ATOM     18  F   UNL A   1      32.928  15.941  24.453  1.00  0.00    -0.185 F 
ENDBRANCH  13  16
ENDBRANCH   8   9
ENDBRANCH   6   8
ENDBRANCH   5   6
ENDBRANCH   4   5
ENDBRANCH   3   4
ENDBRANCH   2   3
ENDBRANCH   1   2
BRANCH   1  19
ATOM     19  C   UNL A   1      41.311  20.322  26.095  1.00  0.00     0.188 C 
BRANCH  19  20
ATOM     20  O   UNL A   1      42.634  20.232  25.616  1.00  0.00    -0.376 OA
BRANCH  20  21
ATOM     21  C   UNL A   1      43.521  21.316  25.860  1.00  0.00     0.202 C 
BRANCH  21  22
ATOM     22  C   UNL A   1      44.000  22.230  24.720  1.00  0.00     0.261 C 
BRANCH  22  23
ATOM     23  O   UNL A   1      43.445  23.560  24.721  1.00  0.00    -0.460 OA
BRANCH  23  24
ATOM     24  C   UNL A   1      44.278  24.553  25.115  1.00  0.00     0.338 C 
ATOM     25  O   UNL A   1      45.380  24.823  24.653  1.00  0.00    -0.246 OA
BRANCH  24  26
ATOM     26  C   UNL A   1      43.620  25.386  26.136  1.00  0.00     0.060 A 
ATOM     27  C   UNL A   1      42.585  24.857  26.906  1.00  0.00     0.016 A 
ATOM     28  C   UNL A   1      44.099  26.680  26.387  1.00  0.00     0.016 A 
ATOM     29  C   UNL A   1      42.027  25.628  27.931  1.00  0.00     0.010 A 
ATOM     30  C   UNL A   1      43.524  27.458  27.396  1.00  0.00     0.010 A 
ATOM     31  C   UNL A   1      42.493  26.931  28.188  1.00  0.00    -0.014 A 
BRANCH  31  32
ATOM     32  C   UNL A   1      41.996  27.670  29.376  1.00  0.00     0.031 A 
ATOM     33  C   UNL A   1      42.655  27.556  30.717  1.00  0.00     0.074 A 
ATOM     34  C   UNL A   1      40.916  28.461  29.234  1.00  0.00     0.049 A 
ATOM     35  N   UNL A   1      42.396  28.212  31.822  1.00  0.00    -0.248 NA
ATOM     36  C   UNL A   1      43.738  26.572  30.836  1.00  0.00     0.031 C 
ATOM     37  C   UNL A   1      40.158  28.623  27.993  1.00  0.00     0.029 A 
ATOM     38  N   UNL A   1      40.273  29.272  30.132  1.00  0.00    -0.354 N 
ATOM     39  C   UNL A   1      43.299  27.742  32.766  1.00  0.00     0.074 A 
ATOM     40  C   UNL A   1      44.075  26.704  32.113  1.00  0.00     0.031 C 
ATOM     41  C   UNL A   1      39.158  29.493  28.206  1.00  0.00     0.029 A 
ATOM     42  C   UNL A   1      39.191  29.928  29.599  1.00  0.00     0.049 A 
ATOM     43  H   UNL A   1      40.560  29.374  31.068  1.00  0.00     0.167 HD
ATOM     44  C   UNL A   1      43.474  28.148  34.048  1.00  0.00     0.037 A 
ATOM     45  C   UNL A   1      38.317  30.780  30.168  1.00  0.00     0.037 A 
ATOM     46  C   UNL A   1      42.669  29.151  34.706  1.00  0.00     0.049 A 
ATOM     47  C   UNL A   1      38.490  31.170  31.608  1.00  0.00     0.074 A 
ATOM     48  C   UNL A   1      42.804  29.670  35.984  1.00  0.00     0.029 A 
ATOM     49  N   UNL A   1      41.551  29.761  34.152  1.00  0.00    -0.354 N 
ATOM     50  N   UNL A   1      39.419  30.805  32.458  1.00  0.00    -0.248 NA
ATOM     51  C   UNL A   1      37.492  32.093  32.166  1.00  0.00     0.031 C 
ATOM     52  C   UNL A   1      41.730  30.537  36.227  1.00  0.00     0.029 A 
ATOM     53  C   UNL A   1      40.958  30.608  35.080  1.00  0.00     0.049 A 
ATOM     54  H   UNL A   1      41.227  29.616  33.234  1.00  0.00     0.167 HD
ATOM     55  C   UNL A   1      39.121  31.455  33.649  1.00  0.00     0.074 A 
ATOM     56  C   UNL A   1      37.943  32.262  33.401  1.00  0.00     0.031 C 
ATOM     57  C   UNL A   1      39.763  31.381  34.842  1.00  0.00     0.037 A 
BRANCH  44  58
ATOM     58  C   UNL A   1      44.570  27.479  34.834  1.00  0.00     0.057 A 
ATOM     59  C   UNL A   1      44.333  26.282  35.523  1.00  0.00     0.134 A 
ATOM     60  C   UNL A   1      45.862  28.019  34.911  1.00  0.00     0.134 A 
ATOM     61  F   UNL A   1      43.118  25.716  35.509  1.00  0.00    -0.206 F 
ATOM     62  C   UNL A   1      45.344  25.639  36.240  1.00  0.00     0.040 A 
ATOM     63  C   UNL A   1      46.888  27.368  35.599  1.00  0.00     0.040 A 
ATOM     64  F   UNL A   1      46.159  29.163  34.275  1.00  0.00    -0.206 F 
ATOM     65  C   UNL A   1      46.630  26.174  36.267  1.00  0.00     0.006 A 
ENDBRANCH  44  58
BRANCH  45  66
ATOM     66  C   UNL A   1      37.191  31.313  29.361  1.00  0.00     0.057 A 
ATOM     67  C   UNL A   1      36.051  30.537  29.113  1.00  0.00     0.134 A 
ATOM     68  C   UNL A   1      37.233  32.597  28.809  1.00  0.00     0.134 A 
ATOM     69  F   UNL A   1      35.956  29.295  29.610  1.00  0.00    -0.206 F 
ATOM     70  C   UNL A   1      35.000  31.013  28.330  1.00  0.00     0.040 A 
ATOM     71  C   UNL A   1      36.176  33.096  28.047  1.00  0.00     0.040 A 
ATOM     72  F   UNL A   1      38.289  33.392  29.029  1.00  0.00    -0.206 F 
ATOM     73  C   UNL A   1      35.059  32.300  27.800  1.00  0.00     0.006 A 
ENDBRANCH  45  66
BRANCH  57  74
ATOM     74  C   UNL A   1      39.185  32.183  35.976  1.00  0.00     0.057 A 
ATOM     75  C   UNL A   1      39.578  33.509  36.199  1.00  0.00     0.134 A 
ATOM     76  C   UNL A   1      38.239  31.637  36.857  1.00  0.00     0.134 A 
ATOM     77  F   UNL A   1      40.481  34.095  35.399  1.00  0.00    -0.206 F 
ATOM     78  C   UNL A   1      39.056  34.260  37.254  1.00  0.00     0.040 A 
ATOM     79  C   UNL A   1      37.688  32.388  37.898  1.00  0.00     0.040 A 
ATOM     80  F   UNL A   1      37.804  30.379  36.693  1.00  0.00    -0.206 F 
ATOM     81  C   UNL A   1      38.101  33.703  38.102  1.00  0.00     0.006 A 
ENDBRANCH  57  74
ENDBRANCH  31  32
ENDBRANCH  24  26
ENDBRANCH  23  24
ENDBRANCH  22  23
ENDBRANCH  21  22
ENDBRANCH  20  21
ENDBRANCH  19  20
ENDBRANCH   1  19
TORSDOF 19
ENDMDL
MODEL 2
REMARK VINA RESULT:     -10.1      2.735      3.504
REMARK SMILES O=C(Cc1ccc(=O)n(C(F)F)c1)OCCOCCOCCOC(=O)c1ccc(-c2c3nc(c(-c4c(F)cccc4F)c4ccc([nH]4)c(-c4c(F)cccc4F)c4nc(c(-c5c(F)cccc5F)c5ccc2[nH]5)C=C4)C=C3)cc1
REMARK SMILES IDX 18 1 17 2 16 3 15 4 14 5 2 6 1 7 3 8 4 9 5 10 13 11 6 12
REMARK SMILES IDX 9 13 7 14 8 15 10 16 11 17 12 18 19 19 20 20 21 21 22 22
REMARK SMILES IDX 23 23 24 24 25 25 26 26 27 27 79 28 28 29 78 30 29 31 30 32
REMARK SMILES IDX 31 33 72 34 32 35 77 36 71 37 73 38 33 39 76 40 70 41 69 42
REMARK SMILES IDX 34 44 60 45 43 46 59 47 44 48 47 49 58 50 74 51 45 52 46 53
REMARK SMILES IDX 57 55 75 56 48 57 35 58 36 59 41 60 37 61 38 62 40 63 42 64
REMARK SMILES IDX 39 65 61 66 62 67 67 68 63 69 64 70 66 71 68 72 65 73 49 74
REMARK SMILES IDX 50 75 55 76 51 77 52 78 54 79 56 80 53 81
REMARK H PARENT 73 43 47 54
REMARK Flexibility Score: inf
ROOT
ATOM      1  C   UNL A   1      40.545  21.471  26.178  1.00  0.00     0.188 C 
ENDROOT
BRANCH   1   2
ATOM      2  O   UNL A   1      39.162  21.500  26.440  1.00  0.00    -0.376 OA
BRANCH   2   3
ATOM      3  C   UNL A   1      38.217  21.719  25.411  1.00  0.00     0.202 C 
BRANCH   3   4
ATOM      4  C   UNL A   1      36.800  21.129  25.394  1.00  0.00     0.261 C 
BRANCH   4   5
ATOM      5  O   UNL A   1      35.609  21.939  25.310  1.00  0.00    -0.463 OA
BRANCH   5   6
ATOM      6  C   UNL A   1      35.288  23.046  24.614  1.00  0.00     0.310 C 
ATOM      7  O   UNL A   1      34.902  22.933  23.450  1.00  0.00    -0.252 OA
BRANCH   6   8
ATOM      8  C   UNL A   1      35.475  24.415  25.225  1.00  0.00     0.159 C 
BRANCH   8   9
ATOM      9  C   UNL A   1      34.165  25.006  25.627  1.00  0.00    -0.020 A 
ATOM     10  C   UNL A   1      33.074  24.141  26.012  1.00  0.00     0.011 A 
ATOM     11  C   UNL A   1      33.971  26.329  25.632  1.00  0.00     0.099 A 
ATOM     12  C   UNL A   1      31.908  24.664  26.414  1.00  0.00     0.072 A 
ATOM     13  N   UNL A   1      32.819  26.900  26.116  1.00  0.00    -0.258 N 
ATOM     14  C   UNL A   1      31.732  26.144  26.518  1.00  0.00     0.254 A 
ATOM     15  O   UNL A   1      30.672  26.589  26.942  1.00  0.00    -0.269 OA
BRANCH  13  16
ATOM     16  C   UNL A   1      32.756  28.329  26.288  1.00  0.00     0.451 C 
ATOM     17  F   UNL A   1      32.668  28.669  27.593  1.00  0.00    -0.185 F 
ATOM     18  F   UNL A   1      33.846  28.931  25.756  1.00  0.00    -0.185 F 
ENDBRANCH  13  16
ENDBRANCH   8   9
ENDBRANCH   6   8
ENDBRANCH   5   6
ENDBRANCH   4   5
ENDBRANCH   3   4
ENDBRANCH   2   3
ENDBRANCH   1   2
BRANCH   1  19
ATOM     19  C   UNL A   1      41.276  20.139  26.032  1.00  0.00     0.188 C 
BRANCH  19  20
ATOM     20  O   UNL A   1      42.627  20.142  25.630  1.00  0.00    -0.376 OA
BRANCH  20  21
ATOM     21  C   UNL A   1      43.416  21.293  25.902  1.00  0.00     0.202 C 
BRANCH  21  22
ATOM     22  C   UNL A   1      43.920  22.204  24.771  1.00  0.00     0.261 C 
BRANCH  22  23
ATOM     23  O   UNL A   1      43.345  23.525  24.741  1.00  0.00    -0.460 OA
BRANCH  23  24
ATOM     24  C   UNL A   1      44.169  24.542  25.093  1.00  0.00     0.338 C 
ATOM     25  O   UNL A   1      45.254  24.821  24.599  1.00  0.00    -0.246 OA
BRANCH  24  26
ATOM     26  C   UNL A   1      43.521  25.384  26.113  1.00  0.00     0.060 A 
ATOM     27  C   UNL A   1      42.504  24.857  26.909  1.00  0.00     0.016 A 
ATOM     28  C   UNL A   1      43.992  26.685  26.337  1.00  0.00     0.016 A 
ATOM     29  C   UNL A   1      41.957  25.639  27.931  1.00  0.00     0.010 A 
ATOM     30  C   UNL A   1      43.426  27.473  27.344  1.00  0.00     0.010 A 
ATOM     31  C   UNL A   1      42.414  26.949  28.161  1.00  0.00    -0.014 A 
BRANCH  31  32
ATOM     32  C   UNL A   1      41.931  27.702  29.346  1.00  0.00     0.031 A 
ATOM     33  C   UNL A   1      42.602  27.599  30.681  1.00  0.00     0.074 A 
ATOM     34  C   UNL A   1      40.852  28.494  29.205  1.00  0.00     0.049 A 
ATOM     35  N   UNL A   1      42.355  28.267  31.782  1.00  0.00    -0.248 NA
ATOM     36  C   UNL A   1      43.682  26.612  30.801  1.00  0.00     0.031 C 
ATOM     37  C   UNL A   1      40.082  28.647  27.970  1.00  0.00     0.029 A 
ATOM     38  N   UNL A   1      40.220  29.317  30.101  1.00  0.00    -0.354 N 
ATOM     39  C   UNL A   1      43.265  27.803  32.722  1.00  0.00     0.074 A 
ATOM     40  C   UNL A   1      44.032  26.756  32.073  1.00  0.00     0.031 C 
ATOM     41  C   UNL A   1      39.088  29.522  28.183  1.00  0.00     0.029 A 
ATOM     42  C   UNL A   1      39.135  29.971  29.572  1.00  0.00     0.049 A 
ATOM     43  H   UNL A   1      40.515  29.428  31.034  1.00  0.00     0.167 HD
ATOM     44  C   UNL A   1      43.453  28.221  33.999  1.00  0.00     0.037 A 
ATOM     45  C   UNL A   1      38.269  30.832  30.140  1.00  0.00     0.037 A 
ATOM     46  C   UNL A   1      42.657  29.234  34.655  1.00  0.00     0.049 A 
ATOM     47  C   UNL A   1      38.456  31.235  31.574  1.00  0.00     0.074 A 
ATOM     48  C   UNL A   1      42.806  29.765  35.926  1.00  0.00     0.029 A 
ATOM     49  N   UNL A   1      41.536  29.842  34.104  1.00  0.00    -0.354 N 
ATOM     50  N   UNL A   1      39.392  30.876  32.419  1.00  0.00    -0.248 NA
ATOM     51  C   UNL A   1      37.466  32.167  32.132  1.00  0.00     0.031 C 
ATOM     52  C   UNL A   1      41.737  30.637  36.169  1.00  0.00     0.029 A 
ATOM     53  C   UNL A   1      40.954  30.700  35.029  1.00  0.00     0.049 A 
ATOM     54  H   UNL A   1      41.203  29.688  33.191  1.00  0.00     0.167 HD
ATOM     55  C   UNL A   1      39.107  31.538  33.606  1.00  0.00     0.074 A 
ATOM     56  C   UNL A   1      37.930  32.347  33.361  1.00  0.00     0.031 C 
ATOM     57  C   UNL A   1      39.759  31.474  34.795  1.00  0.00     0.037 A 
BRANCH  44  58
ATOM     58  C   UNL A   1      44.554  27.557  34.781  1.00  0.00     0.057 A 
ATOM     59  C   UNL A   1      44.302  26.410  35.545  1.00  0.00     0.134 A 
ATOM     60  C   UNL A   1      45.866  28.052  34.780  1.00  0.00     0.134 A 
ATOM     61  F   UNL A   1      43.067  25.889  35.608  1.00  0.00    -0.206 F 
ATOM     62  C   UNL A   1      45.316  25.770  36.261  1.00  0.00     0.040 A 
ATOM     63  C   UNL A   1      46.895  27.402  35.467  1.00  0.00     0.040 A 
ATOM     64  F   UNL A   1      46.179  29.146  34.070  1.00  0.00    -0.206 F 
ATOM     65  C   UNL A   1      46.620  26.257  36.211  1.00  0.00     0.006 A 
ENDBRANCH  44  58
BRANCH  45  66
ATOM     66  C   UNL A   1      37.137  31.360  29.339  1.00  0.00     0.057 A 
ATOM     67  C   UNL A   1      36.004  30.576  29.087  1.00  0.00     0.134 A 
ATOM     68  C   UNL A   1      37.167  32.648  28.795  1.00  0.00     0.134 A 
ATOM     69  F   UNL A   1      35.920  29.330  29.577  1.00  0.00    -0.206 F 
ATOM     70  C   UNL A   1      34.948  31.048  28.309  1.00  0.00     0.040 A 
ATOM     71  C   UNL A   1      36.105  33.143  28.038  1.00  0.00     0.040 A 
ATOM     72  F   UNL A   1      38.218  33.451  29.018  1.00  0.00    -0.206 F 
ATOM     73  C   UNL A   1      34.995  32.339  27.787  1.00  0.00     0.006 A 
ENDBRANCH  45  66
BRANCH  57  74
ATOM     74  C   UNL A   1      39.195  32.289  35.926  1.00  0.00     0.057 A 
ATOM     75  C   UNL A   1      38.236  31.753  36.796  1.00  0.00     0.134 A 
ATOM     76  C   UNL A   1      39.597  33.613  36.153  1.00  0.00     0.134 A 
ATOM     77  F   UNL A   1      37.801  30.493  36.638  1.00  0.00    -0.206 F 
ATOM     78  C   UNL A   1      37.698  32.502  37.844  1.00  0.00     0.040 A 
ATOM     79  C   UNL A   1      39.088  34.363  37.216  1.00  0.00     0.040 A 
ATOM     80  F   UNL A   1      40.524  34.185  35.369  1.00  0.00    -0.206 F 
ATOM     81  C   UNL A   1      38.130  33.808  38.062  1.00  0.00     0.006 A 
ENDBRANCH  57  74
ENDBRANCH  31  32
ENDBRANCH  24  26
ENDBRANCH  23  24
ENDBRANCH  22  23
ENDBRANCH  21  22
ENDBRANCH  20  21
ENDBRANCH  19  20
ENDBRANCH   1  19
TORSDOF 19
ENDMDL
MODEL 3
REMARK VINA RESULT:      -9.9      1.546      2.135
REMARK SMILES O=C(Cc1ccc(=O)n(C(F)F)c1)OCCOCCOCCOC(=O)c1ccc(-c2c3nc(c(-c4c(F)cccc4F)c4ccc([nH]4)c(-c4c(F)cccc4F)c4nc(c(-c5c(F)cccc5F)c5ccc2[nH]5)C=C4)C=C3)cc1
REMARK SMILES IDX 18 1 17 2 16 3 15 4 14 5 2 6 1 7 3 8 4 9 5 10 13 11 6 12
REMARK SMILES IDX 9 13 7 14 8 15 10 16 11 17 12 18 19 19 20 20 21 21 22 22
REMARK SMILES IDX 23 23 24 24 25 25 26 26 27 27 79 28 28 29 78 30 29 31 30 32
REMARK SMILES IDX 31 33 72 34 32 35 77 36 71 37 73 38 33 39 76 40 70 41 69 42
REMARK SMILES IDX 34 44 60 45 43 46 59 47 44 48 47 49 58 50 74 51 45 52 46 53
REMARK SMILES IDX 57 55 75 56 48 57 35 58 36 59 41 60 37 61 38 62 40 63 42 64
REMARK SMILES IDX 39 65 61 66 62 67 67 68 63 69 64 70 66 71 68 72 65 73 49 74
REMARK SMILES IDX 50 75 55 76 51 77 52 78 54 79 56 80 53 81
REMARK H PARENT 73 43 47 54
REMARK Flexibility Score: inf
ROOT
ATOM      1  C   UNL A   1      41.415  20.315  27.335  1.00  0.00     0.188 C 
ENDROOT
BRANCH   1   2
ATOM      2  O   UNL A   1      40.157  20.945  27.272  1.00  0.00    -0.376 OA
BRANCH   2   3
ATOM      3  C   UNL A   1      39.849  21.887  26.264  1.00  0.00     0.202 C 
BRANCH   3   4
ATOM      4  C   UNL A   1      39.293  23.293  26.530  1.00  0.00     0.261 C 
BRANCH   4   5
ATOM      5  O   UNL A   1      37.886  23.607  26.478  1.00  0.00    -0.463 OA
BRANCH   5   6
ATOM      6  C   UNL A   1      36.986  23.673  25.478  1.00  0.00     0.310 C 
ATOM      7  O   UNL A   1      37.356  23.463  24.323  1.00  0.00    -0.252 OA
BRANCH   6   8
ATOM      8  C   UNL A   1      35.558  24.079  25.759  1.00  0.00     0.159 C 
BRANCH   8   9
ATOM      9  C   UNL A   1      34.619  22.950  25.500  1.00  0.00    -0.020 A 
ATOM     10  C   UNL A   1      34.534  21.855  26.439  1.00  0.00     0.011 A 
ATOM     11  C   UNL A   1      33.851  22.920  24.405  1.00  0.00     0.099 A 
ATOM     12  C   UNL A   1      33.664  20.857  26.235  1.00  0.00     0.072 A 
ATOM     13  N   UNL A   1      32.892  21.957  24.207  1.00  0.00    -0.258 N 
ATOM     14  C   UNL A   1      32.735  20.883  25.064  1.00  0.00     0.254 A 
ATOM     15  O   UNL A   1      31.913  19.983  24.937  1.00  0.00    -0.269 OA
BRANCH  13  16
ATOM     16  C   UNL A   1      31.962  22.100  23.115  1.00  0.00     0.451 C 
ATOM     17  F   UNL A   1      31.432  23.342  23.075  1.00  0.00    -0.185 F 
ATOM     18  F   UNL A   1      32.563  21.846  21.929  1.00  0.00    -0.185 F 
ENDBRANCH  13  16
ENDBRANCH   8   9
ENDBRANCH   6   8
ENDBRANCH   5   6
ENDBRANCH   4   5
ENDBRANCH   3   4
ENDBRANCH   2   3
ENDBRANCH   1   2
BRANCH   1  19
ATOM     19  C   UNL A   1      41.945  19.527  26.140  1.00  0.00     0.188 C 
BRANCH  19  20
ATOM     20  O   UNL A   1      42.992  20.073  25.371  1.00  0.00    -0.376 OA
BRANCH  20  21
ATOM     21  C   UNL A   1      43.347  21.435  25.574  1.00  0.00     0.202 C 
BRANCH  21  22
ATOM     22  C   UNL A   1      44.817  21.883  25.610  1.00  0.00     0.261 C 
BRANCH  22  23
ATOM     23  O   UNL A   1      45.062  23.143  26.265  1.00  0.00    -0.460 OA
BRANCH  23  24
ATOM     24  C   UNL A   1      44.577  24.243  25.640  1.00  0.00     0.338 C 
ATOM     25  O   UNL A   1      44.587  24.478  24.438  1.00  0.00    -0.246 OA
BRANCH  24  26
ATOM     26  C   UNL A   1      43.894  25.113  26.613  1.00  0.00     0.060 A 
ATOM     27  C   UNL A   1      42.849  24.608  27.386  1.00  0.00     0.016 A 
ATOM     28  C   UNL A   1      44.358  26.420  26.817  1.00  0.00     0.016 A 
ATOM     29  C   UNL A   1      42.267  25.418  28.367  1.00  0.00     0.010 A 
ATOM     30  C   UNL A   1      43.758  27.235  27.781  1.00  0.00     0.010 A 
ATOM     31  C   UNL A   1      42.718  26.734  28.577  1.00  0.00    -0.014 A 
BRANCH  31  32
ATOM     32  C   UNL A   1      42.193  27.520  29.723  1.00  0.00     0.031 A 
ATOM     33  C   UNL A   1      42.817  27.453  31.083  1.00  0.00     0.074 A 
ATOM     34  C   UNL A   1      41.121  28.308  29.522  1.00  0.00     0.049 A 
ATOM     35  N   UNL A   1      42.532  28.151  32.156  1.00  0.00    -0.248 NA
ATOM     36  C   UNL A   1      43.891  26.470  31.268  1.00  0.00     0.031 C 
ATOM     37  C   UNL A   1      40.396  28.426  28.257  1.00  0.00     0.029 A 
ATOM     38  N   UNL A   1      40.459  29.155  30.372  1.00  0.00    -0.354 N 
ATOM     39  C   UNL A   1      43.408  27.714  33.140  1.00  0.00     0.074 A 
ATOM     40  C   UNL A   1      44.196  26.649  32.547  1.00  0.00     0.031 C 
ATOM     41  C   UNL A   1      39.395  29.307  28.411  1.00  0.00     0.029 A 
ATOM     42  C   UNL A   1      39.394  29.794  29.788  1.00  0.00     0.049 A 
ATOM     43  H   UNL A   1      40.721  29.291  31.312  1.00  0.00     0.167 HD
ATOM     44  C   UNL A   1      43.551  28.167  34.411  1.00  0.00     0.037 A 
ATOM     45  C   UNL A   1      38.509  30.670  30.301  1.00  0.00     0.037 A 
ATOM     46  C   UNL A   1      42.734  29.197  35.010  1.00  0.00     0.049 A 
ATOM     47  C   UNL A   1      38.646  31.113  31.729  1.00  0.00     0.074 A 
ATOM     48  C   UNL A   1      42.838  29.763  36.270  1.00  0.00     0.029 A 
ATOM     49  N   UNL A   1      41.633  29.790  34.404  1.00  0.00    -0.354 N 
ATOM     50  N   UNL A   1      39.552  30.777  32.616  1.00  0.00    -0.248 NA
ATOM     51  C   UNL A   1      37.638  32.060  32.226  1.00  0.00     0.031 C 
ATOM     52  C   UNL A   1      41.762  30.642  36.452  1.00  0.00     0.029 A 
ATOM     53  C   UNL A   1      41.020  30.673  35.283  1.00  0.00     0.049 A 
ATOM     54  H   UNL A   1      41.332  29.611  33.484  1.00  0.00     0.167 HD
ATOM     55  C   UNL A   1      39.225  31.472  33.774  1.00  0.00     0.074 A 
ATOM     56  C   UNL A   1      38.058  32.274  33.465  1.00  0.00     0.031 C 
ATOM     57  C   UNL A   1      39.835  31.441  34.985  1.00  0.00     0.037 A 
BRANCH  44  58
ATOM     58  C   UNL A   1      44.623  27.524  35.249  1.00  0.00     0.057 A 
ATOM     59  C   UNL A   1      45.908  28.078  35.320  1.00  0.00     0.134 A 
ATOM     60  C   UNL A   1      44.387  26.355  35.987  1.00  0.00     0.134 A 
ATOM     61  F   UNL A   1      46.214  29.185  34.628  1.00  0.00    -0.206 F 
ATOM     62  C   UNL A   1      46.909  27.505  36.108  1.00  0.00     0.040 A 
ATOM     63  C   UNL A   1      45.370  25.792  36.803  1.00  0.00     0.040 A 
ATOM     64  F   UNL A   1      43.179  25.771  35.965  1.00  0.00    -0.206 F 
ATOM     65  C   UNL A   1      46.637  26.368  36.864  1.00  0.00     0.006 A 
ENDBRANCH  44  58
BRANCH  45  66
ATOM     66  C   UNL A   1      37.407  31.176  29.445  1.00  0.00     0.057 A 
ATOM     67  C   UNL A   1      36.284  30.384  29.173  1.00  0.00     0.134 A 
ATOM     68  C   UNL A   1      37.456  32.450  28.871  1.00  0.00     0.134 A 
ATOM     69  F   UNL A   1      36.183  29.151  29.691  1.00  0.00    -0.206 F 
ATOM     70  C   UNL A   1      35.256  30.835  28.345  1.00  0.00     0.040 A 
ATOM     71  C   UNL A   1      36.422  32.924  28.063  1.00  0.00     0.040 A 
ATOM     72  F   UNL A   1      38.497  33.260  29.111  1.00  0.00    -0.206 F 
ATOM     73  C   UNL A   1      35.322  32.112  27.792  1.00  0.00     0.006 A 
ENDBRANCH  45  66
BRANCH  57  74
ATOM     74  C   UNL A   1      39.232  32.286  36.074  1.00  0.00     0.057 A 
ATOM     75  C   UNL A   1      39.637  33.614  36.268  1.00  0.00     0.134 A 
ATOM     76  C   UNL A   1      38.249  31.783  36.938  1.00  0.00     0.134 A 
ATOM     77  F   UNL A   1      40.576  34.161  35.481  1.00  0.00    -0.206 F 
ATOM     78  C   UNL A   1      39.092  34.405  37.280  1.00  0.00     0.040 A 
ATOM     79  C   UNL A   1      37.674  32.575  37.935  1.00  0.00     0.040 A 
ATOM     80  F   UNL A   1      37.801  30.526  36.799  1.00  0.00    -0.206 F 
ATOM     81  C   UNL A   1      38.100  33.889  38.112  1.00  0.00     0.006 A 
ENDBRANCH  57  74
ENDBRANCH  31  32
ENDBRANCH  24  26
ENDBRANCH  23  24
ENDBRANCH  22  23
ENDBRANCH  21  22
ENDBRANCH  20  21
ENDBRANCH  19  20
ENDBRANCH   1  19
TORSDOF 19
ENDMDL
