MODEL 1
REMARK VINA RESULT:     -12.0      0.000      0.000
REMARK SMILES O=C(OCCOCCOCCOC(=O)[C@H]1[C@H]2CC[C@H](CC2)[C@H]1C(=O)Nc1ccc(C(=O)N2CCCC2)cc1)c1ccc(-c2c3nc(c(-c4c(F)cccc4F)c4ccc([nH]4)c(-c4c(F)cccc4F)c4nc(c(-c5c(F)cccc5F)c5ccc2[nH]5)C=C4)C=C3)cc1
REMARK SMILES IDX 8 1 7 2 6 3 5 4 4 5 3 6 2 7 1 8 39 9 40 10 92 11 41 12 91 13
REMARK SMILES IDX 42 14 43 15 44 16 85 17 45 18 90 19 84 20 86 21 46 22 89 23
REMARK SMILES IDX 83 24 82 25 47 27 73 28 56 29 72 30 57 31 60 32 71 33 87 34
REMARK SMILES IDX 58 35 59 36 70 38 88 39 61 40 48 41 49 42 54 43 50 44 51 45
REMARK SMILES IDX 53 46 55 47 52 48 74 49 75 50 80 51 76 52 77 53 79 54 81 55
REMARK SMILES IDX 78 56 62 57 63 58 68 59 64 60 65 61 67 62 69 63 66 64 9 65
REMARK SMILES IDX 10 66 11 67 12 68 13 69 14 70 15 71 16 72 22 73 21 74 17 75
REMARK SMILES IDX 19 76 20 77 18 78 23 79 24 80 25 81 26 83 27 84 38 85 28 86
REMARK SMILES IDX 37 87 29 88 30 89 31 90 32 91 33 92 36 93 34 94 35 95
REMARK H PARENT 86 26 60 37 25 82
REMARK Flexibility Score: inf
ROOT
ATOM      1  C   UNL A   1      36.810  23.292  23.837  1.00  0.00     0.188 C 
ENDROOT
BRANCH   1   2
ATOM      2  C   UNL A   1      36.696  23.700  25.302  1.00  0.00     0.188 C 
BRANCH   2   3
ATOM      3  O   UNL A   1      37.625  22.994  26.122  1.00  0.00    -0.376 OA
BRANCH   3   4
ATOM      4  C   UNL A   1      38.372  21.978  25.451  1.00  0.00     0.202 C 
BRANCH   4   5
ATOM      5  C   UNL A   1      39.467  21.310  26.289  1.00  0.00     0.261 C 
BRANCH   5   6
ATOM      6  O   UNL A   1      39.983  20.090  25.731  1.00  0.00    -0.460 OA
BRANCH   6   7
ATOM      7  C   UNL A   1      41.180  19.600  26.127  1.00  0.00     0.338 C 
ATOM      8  O   UNL A   1      41.583  18.452  26.054  1.00  0.00    -0.246 OA
BRANCH   7   9
ATOM      9  C   UNL A   1      42.001  20.788  26.417  1.00  0.00     0.060 A 
ATOM     10  C   UNL A   1      42.237  21.150  27.748  1.00  0.00     0.016 A 
ATOM     11  C   UNL A   1      42.405  21.618  25.376  1.00  0.00     0.016 A 
ATOM     12  C   UNL A   1      42.740  22.389  28.061  1.00  0.00     0.010 A 
ATOM     13  C   UNL A   1      42.961  22.860  25.687  1.00  0.00     0.010 A 
ATOM     14  C   UNL A   1      43.075  23.260  27.030  1.00  0.00    -0.014 A 
BRANCH  14  15
ATOM     15  C   UNL A   1      43.400  24.645  27.404  1.00  0.00     0.031 A 
ATOM     16  C   UNL A   1      44.815  25.097  27.254  1.00  0.00     0.074 A 
ATOM     17  C   UNL A   1      42.406  25.488  27.733  1.00  0.00     0.049 A 
ATOM     18  N   UNL A   1      45.331  26.265  27.513  1.00  0.00    -0.248 NA
ATOM     19  C   UNL A   1      45.777  24.112  26.726  1.00  0.00     0.031 C 
ATOM     20  C   UNL A   1      40.993  25.120  27.749  1.00  0.00     0.029 A 
ATOM     21  N   UNL A   1      42.405  26.810  28.083  1.00  0.00    -0.354 N 
ATOM     22  C   UNL A   1      46.684  26.141  27.233  1.00  0.00     0.074 A 
ATOM     23  C   UNL A   1      46.912  24.794  26.767  1.00  0.00     0.031 C 
ATOM     24  C   UNL A   1      40.261  26.196  28.067  1.00  0.00     0.029 A 
ATOM     25  C   UNL A   1      41.152  27.306  28.360  1.00  0.00     0.049 A 
ATOM     26  H   UNL A   1      43.223  27.356  28.129  1.00  0.00     0.167 HD
ATOM     27  C   UNL A   1      47.641  27.082  27.378  1.00  0.00     0.037 A 
ATOM     28  C   UNL A   1      40.777  28.517  28.820  1.00  0.00     0.037 A 
ATOM     29  C   UNL A   1      47.361  28.417  27.830  1.00  0.00     0.049 A 
ATOM     30  C   UNL A   1      41.883  29.525  28.998  1.00  0.00     0.074 A 
ATOM     31  C   UNL A   1      48.241  29.453  28.068  1.00  0.00     0.029 A 
ATOM     32  N   UNL A   1      46.085  28.893  28.109  1.00  0.00    -0.354 N 
ATOM     33  N   UNL A   1      43.158  29.407  28.701  1.00  0.00    -0.248 NA
ATOM     34  C   UNL A   1      41.512  30.831  29.546  1.00  0.00     0.031 C 
ATOM     35  C   UNL A   1      47.501  30.544  28.535  1.00  0.00     0.029 A 
ATOM     36  C   UNL A   1      46.155  30.203  28.545  1.00  0.00     0.049 A 
ATOM     37  H   UNL A   1      45.254  28.374  28.012  1.00  0.00     0.167 HD
ATOM     38  C   UNL A   1      43.733  30.634  28.994  1.00  0.00     0.074 A 
ATOM     39  C   UNL A   1      42.654  31.494  29.439  1.00  0.00     0.031 C 
ATOM     40  C   UNL A   1      45.033  31.020  28.932  1.00  0.00     0.037 A 
BRANCH  27  41
ATOM     41  C   UNL A   1      49.058  26.659  27.136  1.00  0.00     0.057 A 
ATOM     42  C   UNL A   1      49.889  26.186  28.159  1.00  0.00     0.134 A 
ATOM     43  C   UNL A   1      49.606  26.756  25.851  1.00  0.00     0.134 A 
ATOM     44  F   UNL A   1      49.437  26.104  29.420  1.00  0.00    -0.206 F 
ATOM     45  C   UNL A   1      51.220  25.837  27.914  1.00  0.00     0.040 A 
ATOM     46  C   UNL A   1      50.926  26.391  25.589  1.00  0.00     0.040 A 
ATOM     47  F   UNL A   1      48.867  27.219  24.831  1.00  0.00    -0.206 F 
ATOM     48  C   UNL A   1      51.739  25.933  26.624  1.00  0.00     0.006 A 
ENDBRANCH  27  41
BRANCH  28  49
ATOM     49  C   UNL A   1      39.339  28.843  29.089  1.00  0.00     0.057 A 
ATOM     50  C   UNL A   1      38.751  28.608  30.340  1.00  0.00     0.134 A 
ATOM     51  C   UNL A   1      38.510  29.426  28.117  1.00  0.00     0.134 A 
ATOM     52  F   UNL A   1      39.462  28.045  31.328  1.00  0.00    -0.206 F 
ATOM     53  C   UNL A   1      37.426  28.953  30.623  1.00  0.00     0.040 A 
ATOM     54  C   UNL A   1      37.193  29.810  28.395  1.00  0.00     0.040 A 
ATOM     55  F   UNL A   1      38.975  29.670  26.883  1.00  0.00    -0.206 F 
ATOM     56  C   UNL A   1      36.648  29.572  29.651  1.00  0.00     0.006 A 
ENDBRANCH  28  49
BRANCH  40  57
ATOM     57  C   UNL A   1      45.323  32.435  29.326  1.00  0.00     0.057 A 
ATOM     58  C   UNL A   1      45.269  33.479  28.393  1.00  0.00     0.134 A 
ATOM     59  C   UNL A   1      45.627  32.759  30.653  1.00  0.00     0.134 A 
ATOM     60  F   UNL A   1      44.992  33.226  27.105  1.00  0.00    -0.206 F 
ATOM     61  C   UNL A   1      45.545  34.794  28.760  1.00  0.00     0.040 A 
ATOM     62  C   UNL A   1      45.872  34.076  31.039  1.00  0.00     0.040 A 
ATOM     63  F   UNL A   1      45.678  31.804  31.594  1.00  0.00    -0.206 F 
ATOM     64  C   UNL A   1      45.842  35.096  30.089  1.00  0.00     0.006 A 
ENDBRANCH  40  57
ENDBRANCH  14  15
ENDBRANCH   7   9
ENDBRANCH   6   7
ENDBRANCH   5   6
ENDBRANCH   4   5
ENDBRANCH   3   4
ENDBRANCH   2   3
ENDBRANCH   1   2
BRANCH   1  65
ATOM     65  O   UNL A   1      35.617  23.365  23.067  1.00  0.00    -0.376 OA
BRANCH  65  66
ATOM     66  C   UNL A   1      34.411  23.677  23.742  1.00  0.00     0.202 C 
BRANCH  66  67
ATOM     67  C   UNL A   1      33.288  24.460  23.034  1.00  0.00     0.261 C 
BRANCH  67  68
ATOM     68  O   UNL A   1      31.900  24.297  23.412  1.00  0.00    -0.463 OA
BRANCH  68  69
ATOM     69  C   UNL A   1      31.297  25.497  23.616  1.00  0.00     0.310 C 
ATOM     70  O   UNL A   1      30.105  25.668  23.379  1.00  0.00    -0.252 OA
BRANCH  69  71
ATOM     71  C   UNL A   1      32.170  26.629  24.189  1.00  0.00     0.115 C 
ATOM     72  C   UNL A   1      32.029  28.198  24.093  1.00  0.00     0.004 C 
ATOM     73  C   UNL A   1      32.458  26.301  25.655  1.00  0.00     0.096 C 
ATOM     74  C   UNL A   1      31.445  28.991  25.321  1.00  0.00     0.005 C 
ATOM     75  C   UNL A   1      33.499  28.709  24.121  1.00  0.00     0.005 C 
ATOM     76  C   UNL A   1      33.123  27.514  26.356  1.00  0.00     0.002 C 
ATOM     77  C   UNL A   1      32.054  28.554  26.651  1.00  0.00     0.005 C 
ATOM     78  C   UNL A   1      34.169  28.186  25.415  1.00  0.00     0.005 C 
BRANCH  73  79
ATOM     79  C   UNL A   1      31.360  25.597  26.502  1.00  0.00     0.228 C 
ATOM     80  O   UNL A   1      30.386  26.303  26.826  1.00  0.00    -0.274 OA
ATOM     81  N   UNL A   1      31.213  24.280  26.841  1.00  0.00    -0.326 N 
ATOM     82  H   UNL A   1      30.379  24.159  27.351  1.00  0.00     0.169 HD
BRANCH  81  83
ATOM     83  C   UNL A   1      31.870  23.041  26.694  1.00  0.00     0.041 A 
ATOM     84  C   UNL A   1      31.317  22.137  25.783  1.00  0.00     0.027 A 
ATOM     85  C   UNL A   1      33.044  22.640  27.302  1.00  0.00     0.027 A 
ATOM     86  C   UNL A   1      32.064  21.039  25.313  1.00  0.00     0.016 A 
ATOM     87  C   UNL A   1      33.800  21.548  26.858  1.00  0.00     0.016 A 
ATOM     88  C   UNL A   1      33.360  20.789  25.788  1.00  0.00     0.040 A 
BRANCH  88  89
ATOM     89  C   UNL A   1      34.319  20.032  24.921  1.00  0.00     0.253 C 
ATOM     90  O   UNL A   1      35.512  20.329  25.001  1.00  0.00    -0.269 OA
ATOM     91  N   UNL A   1      33.911  18.880  24.269  1.00  0.00    -0.339 N 
ATOM     92  C   UNL A   1      32.718  18.609  23.479  1.00  0.00     0.120 C 
ATOM     93  C   UNL A   1      34.776  17.713  24.290  1.00  0.00     0.120 C 
ATOM     94  C   UNL A   1      32.576  17.097  23.584  1.00  0.00     0.023 C 
ATOM     95  C   UNL A   1      34.028  16.643  23.502  1.00  0.00     0.023 C 
ENDBRANCH  88  89
ENDBRANCH  81  83
ENDBRANCH  73  79
ENDBRANCH  69  71
ENDBRANCH  68  69
ENDBRANCH  67  68
ENDBRANCH  66  67
ENDBRANCH  65  66
ENDBRANCH   1  65
TORSDOF 20
ENDMDL
MODEL 2
REMARK VINA RESULT:     -11.8      2.756      7.502
REMARK SMILES O=C(OCCOCCOCCOC(=O)[C@H]1[C@H]2CC[C@H](CC2)[C@H]1C(=O)Nc1ccc(C(=O)N2CCCC2)cc1)c1ccc(-c2c3nc(c(-c4c(F)cccc4F)c4ccc([nH]4)c(-c4c(F)cccc4F)c4nc(c(-c5c(F)cccc5F)c5ccc2[nH]5)C=C4)C=C3)cc1
REMARK SMILES IDX 8 1 7 2 6 3 5 4 4 5 3 6 2 7 1 8 39 9 40 10 92 11 41 12 91 13
REMARK SMILES IDX 42 14 43 15 44 16 85 17 45 18 90 19 84 20 86 21 46 22 89 23
REMARK SMILES IDX 83 24 82 25 47 27 73 28 56 29 72 30 57 31 60 32 71 33 87 34
REMARK SMILES IDX 58 35 59 36 70 38 88 39 61 40 48 41 49 42 54 43 50 44 51 45
REMARK SMILES IDX 53 46 55 47 52 48 74 49 75 50 80 51 76 52 77 53 79 54 81 55
REMARK SMILES IDX 78 56 62 57 63 58 68 59 64 60 65 61 67 62 69 63 66 64 9 65
REMARK SMILES IDX 10 66 11 67 12 68 13 69 14 70 15 71 16 72 22 73 21 74 17 75
REMARK SMILES IDX 19 76 20 77 18 78 23 79 24 80 25 81 26 83 27 84 38 85 28 86
REMARK SMILES IDX 37 87 29 88 30 89 31 90 32 91 33 92 36 93 34 94 35 95
REMARK H PARENT 86 26 60 37 25 82
REMARK Flexibility Score: inf
ROOT
ATOM      1  C   UNL A   1      34.341  31.980  28.344  1.00  0.00     0.188 C 
ENDROOT
BRANCH   1   2
ATOM      2  C   UNL A   1      35.331  33.100  28.042  1.00  0.00     0.188 C 
BRANCH   2   3
ATOM      3  O   UNL A   1      35.364  34.073  29.084  1.00  0.00    -0.376 OA
BRANCH   3   4
ATOM      4  C   UNL A   1      34.345  33.931  30.075  1.00  0.00     0.202 C 
BRANCH   4   5
ATOM      5  C   UNL A   1      34.848  33.759  31.512  1.00  0.00     0.261 C 
BRANCH   5   6
ATOM      6  O   UNL A   1      35.071  32.394  31.905  1.00  0.00    -0.460 OA
BRANCH   6   7
ATOM      7  C   UNL A   1      36.066  32.076  32.765  1.00  0.00     0.338 C 
ATOM      8  O   UNL A   1      36.110  32.270  33.967  1.00  0.00    -0.246 OA
BRANCH   7   9
ATOM      9  C   UNL A   1      36.971  31.204  31.996  1.00  0.00     0.060 A 
ATOM     10  C   UNL A   1      38.042  30.583  32.647  1.00  0.00     0.016 A 
ATOM     11  C   UNL A   1      36.843  31.127  30.613  1.00  0.00     0.016 A 
ATOM     12  C   UNL A   1      39.063  30.009  31.929  1.00  0.00     0.010 A 
ATOM     13  C   UNL A   1      37.853  30.502  29.881  1.00  0.00     0.010 A 
ATOM     14  C   UNL A   1      38.985  29.993  30.541  1.00  0.00    -0.014 A 
BRANCH  14  15
ATOM     15  C   UNL A   1      40.188  29.571  29.809  1.00  0.00     0.031 A 
ATOM     16  C   UNL A   1      41.316  30.543  29.696  1.00  0.00     0.074 A 
ATOM     17  C   UNL A   1      40.291  28.298  29.390  1.00  0.00     0.049 A 
ATOM     18  N   UNL A   1      42.469  30.391  29.109  1.00  0.00    -0.248 NA
ATOM     19  C   UNL A   1      41.133  31.854  30.344  1.00  0.00     0.031 C 
ATOM     20  C   UNL A   1      39.268  27.279  29.612  1.00  0.00     0.029 A 
ATOM     21  N   UNL A   1      41.285  27.628  28.732  1.00  0.00    -0.354 N 
ATOM     22  C   UNL A   1      43.126  31.602  29.268  1.00  0.00     0.074 A 
ATOM     23  C   UNL A   1      42.258  32.475  30.021  1.00  0.00     0.031 C 
ATOM     24  C   UNL A   1      39.698  26.109  29.120  1.00  0.00     0.029 A 
ATOM     25  C   UNL A   1      40.984  26.309  28.474  1.00  0.00     0.049 A 
ATOM     26  H   UNL A   1      42.135  28.048  28.469  1.00  0.00     0.167 HD
ATOM     27  C   UNL A   1      44.346  31.942  28.799  1.00  0.00     0.037 A 
ATOM     28  C   UNL A   1      41.668  25.382  27.775  1.00  0.00     0.037 A 
ATOM     29  C   UNL A   1      45.182  31.030  28.068  1.00  0.00     0.049 A 
ATOM     30  C   UNL A   1      43.011  25.814  27.243  1.00  0.00     0.074 A 
ATOM     31  C   UNL A   1      46.416  31.257  27.494  1.00  0.00     0.029 A 
ATOM     32  N   UNL A   1      44.853  29.702  27.815  1.00  0.00    -0.354 N 
ATOM     33  N   UNL A   1      43.637  26.955  27.425  1.00  0.00    -0.248 NA
ATOM     34  C   UNL A   1      43.752  24.843  26.435  1.00  0.00     0.031 C 
ATOM     35  C   UNL A   1      46.815  30.079  26.855  1.00  0.00     0.029 A 
ATOM     36  C   UNL A   1      45.850  29.103  27.069  1.00  0.00     0.049 A 
ATOM     37  H   UNL A   1      44.032  29.256  28.122  1.00  0.00     0.167 HD
ATOM     38  C   UNL A   1      44.860  26.825  26.785  1.00  0.00     0.074 A 
ATOM     39  C   UNL A   1      44.903  25.474  26.258  1.00  0.00     0.031 C 
ATOM     40  C   UNL A   1      45.851  27.736  26.614  1.00  0.00     0.037 A 
BRANCH  27  41
ATOM     41  C   UNL A   1      44.780  33.364  28.987  1.00  0.00     0.057 A 
ATOM     42  C   UNL A   1      44.460  34.377  28.075  1.00  0.00     0.134 A 
ATOM     43  C   UNL A   1      45.560  33.714  30.096  1.00  0.00     0.134 A 
ATOM     44  F   UNL A   1      43.747  34.100  26.972  1.00  0.00    -0.206 F 
ATOM     45  C   UNL A   1      44.912  35.687  28.254  1.00  0.00     0.040 A 
ATOM     46  C   UNL A   1      46.000  35.022  30.297  1.00  0.00     0.040 A 
ATOM     47  F   UNL A   1      45.916  32.786  30.997  1.00  0.00    -0.206 F 
ATOM     48  C   UNL A   1      45.680  36.013  29.371  1.00  0.00     0.006 A 
ENDBRANCH  27  41
BRANCH  28  49
ATOM     49  C   UNL A   1      41.137  23.993  27.587  1.00  0.00     0.057 A 
ATOM     50  C   UNL A   1      40.074  23.722  26.714  1.00  0.00     0.134 A 
ATOM     51  C   UNL A   1      41.690  22.884  28.248  1.00  0.00     0.134 A 
ATOM     52  F   UNL A   1      39.474  24.719  26.045  1.00  0.00    -0.206 F 
ATOM     53  C   UNL A   1      39.599  22.426  26.488  1.00  0.00     0.040 A 
ATOM     54  C   UNL A   1      41.251  21.578  28.006  1.00  0.00     0.040 A 
ATOM     55  F   UNL A   1      42.697  23.044  29.120  1.00  0.00    -0.206 F 
ATOM     56  C   UNL A   1      40.201  21.347  27.125  1.00  0.00     0.006 A 
ENDBRANCH  28  49
BRANCH  40  57
ATOM     57  C   UNL A   1      47.057  27.269  25.860  1.00  0.00     0.057 A 
ATOM     58  C   UNL A   1      47.190  27.493  24.483  1.00  0.00     0.134 A 
ATOM     59  C   UNL A   1      48.106  26.620  26.521  1.00  0.00     0.134 A 
ATOM     60  F   UNL A   1      46.211  28.101  23.796  1.00  0.00    -0.206 F 
ATOM     61  C   UNL A   1      48.310  27.052  23.782  1.00  0.00     0.040 A 
ATOM     62  C   UNL A   1      49.247  26.204  25.836  1.00  0.00     0.040 A 
ATOM     63  F   UNL A   1      48.043  26.391  27.841  1.00  0.00    -0.206 F 
ATOM     64  C   UNL A   1      49.346  26.411  24.461  1.00  0.00     0.006 A 
ENDBRANCH  40  57
ENDBRANCH  14  15
ENDBRANCH   7   9
ENDBRANCH   6   7
ENDBRANCH   5   6
ENDBRANCH   4   5
ENDBRANCH   3   4
ENDBRANCH   2   3
ENDBRANCH   1   2
BRANCH   1  65
ATOM     65  O   UNL A   1      34.276  30.923  27.396  1.00  0.00    -0.376 OA
BRANCH  65  66
ATOM     66  C   UNL A   1      33.008  30.346  27.133  1.00  0.00     0.202 C 
BRANCH  66  67
ATOM     67  C   UNL A   1      32.775  28.833  27.319  1.00  0.00     0.261 C 
BRANCH  67  68
ATOM     68  O   UNL A   1      33.112  27.884  26.279  1.00  0.00    -0.463 OA
BRANCH  68  69
ATOM     69  C   UNL A   1      32.096  27.743  25.388  1.00  0.00     0.310 C 
ATOM     70  O   UNL A   1      30.961  28.136  25.637  1.00  0.00    -0.252 OA
BRANCH  69  71
ATOM     71  C   UNL A   1      32.440  27.094  24.035  1.00  0.00     0.115 C 
ATOM     72  C   UNL A   1      33.491  25.979  23.656  1.00  0.00     0.004 C 
ATOM     73  C   UNL A   1      31.126  26.710  23.352  1.00  0.00     0.096 C 
ATOM     74  C   UNL A   1      32.994  24.503  23.431  1.00  0.00     0.005 C 
ATOM     75  C   UNL A   1      33.914  26.341  22.202  1.00  0.00     0.005 C 
ATOM     76  C   UNL A   1      31.405  25.834  22.102  1.00  0.00     0.002 C 
ATOM     77  C   UNL A   1      31.743  24.425  22.560  1.00  0.00     0.005 C 
ATOM     78  C   UNL A   1      32.641  26.372  21.321  1.00  0.00     0.005 C 
BRANCH  73  79
ATOM     79  C   UNL A   1      29.937  26.217  24.225  1.00  0.00     0.228 C 
ATOM     80  O   UNL A   1      28.820  26.692  23.941  1.00  0.00    -0.274 OA
ATOM     81  N   UNL A   1      29.883  25.236  25.175  1.00  0.00    -0.326 N 
ATOM     82  H   UNL A   1      28.961  25.144  25.508  1.00  0.00     0.169 HD
BRANCH  81  83
ATOM     83  C   UNL A   1      30.723  24.310  25.829  1.00  0.00     0.041 A 
ATOM     84  C   UNL A   1      30.540  22.961  25.517  1.00  0.00     0.027 A 
ATOM     85  C   UNL A   1      31.759  24.592  26.699  1.00  0.00     0.027 A 
ATOM     86  C   UNL A   1      31.526  22.007  25.838  1.00  0.00     0.016 A 
ATOM     87  C   UNL A   1      32.745  23.659  27.040  1.00  0.00     0.016 A 
ATOM     88  C   UNL A   1      32.689  22.373  26.531  1.00  0.00     0.040 A 
BRANCH  88  89
ATOM     89  C   UNL A   1      33.926  21.545  26.364  1.00  0.00     0.253 C 
ATOM     90  O   UNL A   1      33.841  20.342  26.619  1.00  0.00    -0.269 OA
ATOM     91  N   UNL A   1      35.028  22.058  25.700  1.00  0.00    -0.339 N 
ATOM     92  C   UNL A   1      35.702  23.342  25.833  1.00  0.00     0.120 C 
ATOM     93  C   UNL A   1      35.711  21.231  24.722  1.00  0.00     0.120 C 
ATOM     94  C   UNL A   1      36.377  23.515  24.481  1.00  0.00     0.023 C 
ATOM     95  C   UNL A   1      36.847  22.096  24.186  1.00  0.00     0.023 C 
ENDBRANCH  88  89
ENDBRANCH  81  83
ENDBRANCH  73  79
ENDBRANCH  69  71
ENDBRANCH  68  69
ENDBRANCH  67  68
ENDBRANCH  66  67
ENDBRANCH  65  66
ENDBRANCH   1  65
TORSDOF 20
ENDMDL
MODEL 3
REMARK VINA RESULT:     -11.7      4.042      5.827
REMARK SMILES O=C(OCCOCCOCCOC(=O)[C@H]1[C@H]2CC[C@H](CC2)[C@H]1C(=O)Nc1ccc(C(=O)N2CCCC2)cc1)c1ccc(-c2c3nc(c(-c4c(F)cccc4F)c4ccc([nH]4)c(-c4c(F)cccc4F)c4nc(c(-c5c(F)cccc5F)c5ccc2[nH]5)C=C4)C=C3)cc1
REMARK SMILES IDX 8 1 7 2 6 3 5 4 4 5 3 6 2 7 1 8 39 9 40 10 92 11 41 12 91 13
REMARK SMILES IDX 42 14 43 15 44 16 85 17 45 18 90 19 84 20 86 21 46 22 89 23
REMARK SMILES IDX 83 24 82 25 47 27 73 28 56 29 72 30 57 31 60 32 71 33 87 34
REMARK SMILES IDX 58 35 59 36 70 38 88 39 61 40 48 41 49 42 54 43 50 44 51 45
REMARK SMILES IDX 53 46 55 47 52 48 74 49 75 50 80 51 76 52 77 53 79 54 81 55
REMARK SMILES IDX 78 56 62 57 63 58 68 59 64 60 65 61 67 62 69 63 66 64 9 65
REMARK SMILES IDX 10 66 11 67 12 68 13 69 14 70 15 71 16 72 22 73 21 74 17 75
REMARK SMILES IDX 19 76 20 77 18 78 23 79 24 80 25 81 26 83 27 84 38 85 28 86
REMARK SMILES IDX 37 87 29 88 30 89 31 90 32 91 33 92 36 93 34 94 35 95
REMARK H PARENT 86 26 60 37 25 82
REMARK Flexibility Score: inf
ROOT
ATOM      1  C   UNL A   1      38.421  21.915  25.712  1.00  0.00     0.188 C 
ENDROOT
BRANCH   1   2
ATOM      2  C   UNL A   1      39.695  21.635  26.503  1.00  0.00     0.188 C 
BRANCH   2   3
ATOM      3  O   UNL A   1      40.860  21.755  25.690  1.00  0.00    -0.376 OA
BRANCH   3   4
ATOM      4  C   UNL A   1      42.004  21.043  26.165  1.00  0.00     0.202 C 
BRANCH   4   5
ATOM      5  C   UNL A   1      43.357  21.664  25.806  1.00  0.00     0.261 C 
BRANCH   5   6
ATOM      6  O   UNL A   1      43.634  22.911  26.466  1.00  0.00    -0.460 OA
BRANCH   6   7
ATOM      7  C   UNL A   1      43.742  24.059  25.758  1.00  0.00     0.338 C 
ATOM      8  O   UNL A   1      44.190  24.210  24.635  1.00  0.00    -0.246 OA
BRANCH   7   9
ATOM      9  C   UNL A   1      42.961  25.050  26.519  1.00  0.00     0.060 A 
ATOM     10  C   UNL A   1      43.460  26.349  26.666  1.00  0.00     0.016 A 
ATOM     11  C   UNL A   1      41.819  24.649  27.204  1.00  0.00     0.016 A 
ATOM     12  C   UNL A   1      42.922  27.208  27.594  1.00  0.00     0.010 A 
ATOM     13  C   UNL A   1      41.239  25.533  28.114  1.00  0.00     0.010 A 
ATOM     14  C   UNL A   1      41.826  26.790  28.342  1.00  0.00    -0.014 A 
BRANCH  14  15
ATOM     15  C   UNL A   1      41.421  27.646  29.468  1.00  0.00     0.031 A 
ATOM     16  C   UNL A   1      42.243  27.600  30.713  1.00  0.00     0.074 A 
ATOM     17  C   UNL A   1      40.423  28.529  29.296  1.00  0.00     0.049 A 
ATOM     18  N   UNL A   1      42.084  28.266  31.822  1.00  0.00    -0.248 NA
ATOM     19  C   UNL A   1      43.412  26.702  30.708  1.00  0.00     0.031 C 
ATOM     20  C   UNL A   1      39.691  28.704  28.044  1.00  0.00     0.029 A 
ATOM     21  N   UNL A   1      39.867  29.457  30.134  1.00  0.00    -0.354 N 
ATOM     22  C   UNL A   1      43.095  27.827  32.664  1.00  0.00     0.074 A 
ATOM     23  C   UNL A   1      43.877  26.854  31.939  1.00  0.00     0.031 C 
ATOM     24  C   UNL A   1      38.801  29.695  28.189  1.00  0.00     0.029 A 
ATOM     25  C   UNL A   1      38.836  30.168  29.562  1.00  0.00     0.049 A 
ATOM     26  H   UNL A   1      40.177  29.604  31.056  1.00  0.00     0.167 HD
ATOM     27  C   UNL A   1      43.322  28.205  33.940  1.00  0.00     0.037 A 
ATOM     28  C   UNL A   1      38.006  31.082  30.103  1.00  0.00     0.037 A 
ATOM     29  C   UNL A   1      42.524  29.193  34.614  1.00  0.00     0.049 A 
ATOM     30  C   UNL A   1      38.276  31.450  31.539  1.00  0.00     0.074 A 
ATOM     31  C   UNL A   1      42.613  29.634  35.918  1.00  0.00     0.029 A 
ATOM     32  N   UNL A   1      41.483  29.895  34.016  1.00  0.00    -0.354 N 
ATOM     33  N   UNL A   1      39.255  31.051  32.320  1.00  0.00    -0.248 NA
ATOM     34  C   UNL A   1      37.356  32.401  32.168  1.00  0.00     0.031 C 
ATOM     35  C   UNL A   1      41.596  30.572  36.124  1.00  0.00     0.029 A 
ATOM     36  C   UNL A   1      40.901  30.748  34.935  1.00  0.00     0.049 A 
ATOM     37  H   UNL A   1      41.202  29.798  33.078  1.00  0.00     0.167 HD
ATOM     38  C   UNL A   1      39.090  31.729  33.517  1.00  0.00     0.074 A 
ATOM     39  C   UNL A   1      37.946  32.603  33.336  1.00  0.00     0.031 C 
ATOM     40  C   UNL A   1      39.790  31.628  34.675  1.00  0.00     0.037 A 
BRANCH  27  41
ATOM     41  C   UNL A   1      44.400  27.482  34.687  1.00  0.00     0.057 A 
ATOM     42  C   UNL A   1      44.172  26.278  35.363  1.00  0.00     0.134 A 
ATOM     43  C   UNL A   1      45.690  28.024  34.748  1.00  0.00     0.134 A 
ATOM     44  F   UNL A   1      42.949  25.725  35.375  1.00  0.00    -0.206 F 
ATOM     45  C   UNL A   1      45.187  25.645  36.087  1.00  0.00     0.040 A 
ATOM     46  C   UNL A   1      46.717  27.392  35.449  1.00  0.00     0.040 A 
ATOM     47  F   UNL A   1      45.969  29.185  34.136  1.00  0.00    -0.206 F 
ATOM     48  C   UNL A   1      46.465  26.200  36.125  1.00  0.00     0.006 A 
ENDBRANCH  27  41
BRANCH  28  49
ATOM     49  C   UNL A   1      36.914  31.720  29.300  1.00  0.00     0.057 A 
ATOM     50  C   UNL A   1      35.710  31.054  29.030  1.00  0.00     0.134 A 
ATOM     51  C   UNL A   1      37.020  33.028  28.799  1.00  0.00     0.134 A 
ATOM     52  F   UNL A   1      35.520  29.797  29.459  1.00  0.00    -0.206 F 
ATOM     53  C   UNL A   1      34.661  31.653  28.326  1.00  0.00     0.040 A 
ATOM     54  C   UNL A   1      35.967  33.654  28.123  1.00  0.00     0.040 A 
ATOM     55  F   UNL A   1      38.141  33.740  28.986  1.00  0.00    -0.206 F 
ATOM     56  C   UNL A   1      34.783  32.965  27.884  1.00  0.00     0.006 A 
ENDBRANCH  28  49
BRANCH  40  57
ATOM     57  C   UNL A   1      39.343  32.512  35.798  1.00  0.00     0.057 A 
ATOM     58  C   UNL A   1      38.415  32.071  36.751  1.00  0.00     0.134 A 
ATOM     59  C   UNL A   1      39.869  33.800  35.946  1.00  0.00     0.134 A 
ATOM     60  F   UNL A   1      37.870  30.849  36.653  1.00  0.00    -0.206 F 
ATOM     61  C   UNL A   1      37.996  32.897  37.791  1.00  0.00     0.040 A 
ATOM     62  C   UNL A   1      39.483  34.624  37.002  1.00  0.00     0.040 A 
ATOM     63  F   UNL A   1      40.773  34.272  35.074  1.00  0.00    -0.206 F 
ATOM     64  C   UNL A   1      38.536  34.176  37.922  1.00  0.00     0.006 A 
ENDBRANCH  40  57
ENDBRANCH  14  15
ENDBRANCH   7   9
ENDBRANCH   6   7
ENDBRANCH   5   6
ENDBRANCH   4   5
ENDBRANCH   3   4
ENDBRANCH   2   3
ENDBRANCH   1   2
BRANCH   1  65
ATOM     65  O   UNL A   1      37.625  23.004  26.163  1.00  0.00    -0.376 OA
BRANCH  65  66
ATOM     66  C   UNL A   1      36.844  23.695  25.204  1.00  0.00     0.202 C 
BRANCH  66  67
ATOM     67  C   UNL A   1      35.328  23.442  25.088  1.00  0.00     0.261 C 
BRANCH  67  68
ATOM     68  O   UNL A   1      34.367  24.301  25.746  1.00  0.00    -0.463 OA
BRANCH  68  69
ATOM     69  C   UNL A   1      34.142  25.434  25.030  1.00  0.00     0.310 C 
ATOM     70  O   UNL A   1      34.404  25.502  23.833  1.00  0.00    -0.252 OA
BRANCH  69  71
ATOM     71  C   UNL A   1      33.511  26.620  25.781  1.00  0.00     0.115 C 
ATOM     72  C   UNL A   1      33.951  28.133  25.889  1.00  0.00     0.004 C 
ATOM     73  C   UNL A   1      32.011  26.619  25.484  1.00  0.00     0.096 C 
ATOM     74  C   UNL A   1      33.208  29.210  25.015  1.00  0.00     0.005 C 
ATOM     75  C   UNL A   1      33.472  28.563  27.306  1.00  0.00     0.005 C 
ATOM     76  C   UNL A   1      31.357  27.924  26.008  1.00  0.00     0.002 C 
ATOM     77  C   UNL A   1      31.690  29.055  25.048  1.00  0.00     0.005 C 
ATOM     78  C   UNL A   1      31.946  28.314  27.398  1.00  0.00     0.005 C 
BRANCH  73  79
ATOM     79  C   UNL A   1      31.520  26.179  24.076  1.00  0.00     0.228 C 
ATOM     80  O   UNL A   1      31.388  27.091  23.236  1.00  0.00    -0.274 OA
ATOM     81  N   UNL A   1      31.335  24.930  23.553  1.00  0.00    -0.326 N 
ATOM     82  H   UNL A   1      31.058  25.000  22.610  1.00  0.00     0.169 HD
BRANCH  81  83
ATOM     83  C   UNL A   1      31.417  23.572  23.927  1.00  0.00     0.041 A 
ATOM     84  C   UNL A   1      32.092  22.716  23.054  1.00  0.00     0.027 A 
ATOM     85  C   UNL A   1      30.961  23.001  25.100  1.00  0.00     0.027 A 
ATOM     86  C   UNL A   1      32.524  21.445  23.482  1.00  0.00     0.016 A 
ATOM     87  C   UNL A   1      31.370  21.736  25.542  1.00  0.00     0.016 A 
ATOM     88  C   UNL A   1      32.239  20.981  24.775  1.00  0.00     0.040 A 
BRANCH  88  89
ATOM     89  C   UNL A   1      33.140  19.957  25.395  1.00  0.00     0.253 C 
ATOM     90  O   UNL A   1      33.588  20.201  26.516  1.00  0.00    -0.269 OA
ATOM     91  N   UNL A   1      33.240  18.689  24.845  1.00  0.00    -0.339 N 
ATOM     92  C   UNL A   1      33.428  18.266  23.465  1.00  0.00     0.120 C 
ATOM     93  C   UNL A   1      33.203  17.534  25.724  1.00  0.00     0.120 C 
ATOM     94  C   UNL A   1      32.851  16.859  23.457  1.00  0.00     0.023 C 
ATOM     95  C   UNL A   1      33.323  16.324  24.804  1.00  0.00     0.023 C 
ENDBRANCH  88  89
ENDBRANCH  81  83
ENDBRANCH  73  79
ENDBRANCH  69  71
ENDBRANCH  68  69
ENDBRANCH  67  68
ENDBRANCH  66  67
ENDBRANCH  65  66
ENDBRANCH   1  65
TORSDOF 20
ENDMDL
