MODEL 1
REMARK VINA RESULT:      -7.6      0.000      0.000
REMARK SMILES O=C(N[C@@H](Cc1ccc(O)cc1)C(=O)N[C@@H](Cc1c[nH]c2ccccc12)C(=O)N[C@@H](CO)C(=O)OCCOCCOCCOC(=O)c1ccc(-c2c3nc(c(-c4c(F)cccc4F)c4ccc([nH]4)c(-c4c(F)cccc4F)c4nc(c(-c5c(F)cccc5F)c5ccc2[nH]5)C=C4)C=C3)cc1)c1ccc(F)cc1
REMARK SMILES IDX 37 1 36 2 35 3 33 4 34 5 30 6 29 7 27 8 28 9 16 11 15 12
REMARK SMILES IDX 13 13 14 14 4 16 3 17 1 18 2 19 101 21 102 22 107 23 103 24
REMARK SMILES IDX 106 25 104 26 105 27 5 28 6 29 7 30 12 31 8 32 11 33 9 34
REMARK SMILES IDX 10 35 17 37 18 38 19 39 26 40 20 41 21 42 25 43 22 45 24 46
REMARK SMILES IDX 23 47 31 48 32 49 38 51 39 52 40 53 41 54 42 55 43 56 44 57
REMARK SMILES IDX 45 58 46 59 47 60 48 61 100 62 49 63 99 64 50 65 51 66 52 67
REMARK SMILES IDX 93 68 53 69 98 70 92 71 94 72 54 73 97 74 91 75 90 76 55 78
REMARK SMILES IDX 81 79 64 80 80 81 65 82 68 83 79 84 95 85 66 86 67 87 78 89
REMARK SMILES IDX 96 90 69 91 56 92 57 93 62 94 58 95 59 96 61 97 63 98 60 99
REMARK SMILES IDX 82 100 83 101 88 102 84 103 85 104 87 105 89 106 86 107
REMARK SMILES IDX 70 108 71 109 76 110 72 111 73 112 75 113 77 114 74 115
REMARK H PARENT 29 10 15 15 3 20 10 36 20 44 32 50 94 77 68 88
REMARK Flexibility Score: inf
ROOT
ATOM      1  C   UNL A   1      42.638  23.196  29.382  1.00  0.00     0.202 C 
ENDROOT
BRANCH   1   2
ATOM      2  C   UNL A   1      44.140  22.881  29.028  1.00  0.00     0.261 C 
BRANCH   2   3
ATOM      3  O   UNL A   1      45.177  23.531  29.860  1.00  0.00    -0.462 OA
BRANCH   3   4
ATOM      4  C   UNL A   1      45.142  24.903  29.911  1.00  0.00     0.331 C 
ATOM      5  O   UNL A   1      44.082  25.531  29.826  1.00  0.00    -0.250 OA
BRANCH   4   6
ATOM      6  C   UNL A   1      46.509  25.698  30.060  1.00  0.00     0.218 C 
BRANCH   6   7
ATOM      7  N   UNL A   1      47.315  25.819  31.308  1.00  0.00    -0.339 N 
ATOM      8  C   UNL A   1      46.793  26.338  32.481  1.00  0.00     0.243 C 
ATOM      9  O   UNL A   1      46.810  27.578  32.562  1.00  0.00    -0.273 OA
ATOM     10  H   UNL A   1      48.253  25.519  31.298  1.00  0.00     0.164 HD
BRANCH   8  11
ATOM     11  C   UNL A   1      46.456  25.464  33.798  1.00  0.00     0.175 C 
BRANCH  11  12
ATOM     12  N   UNL A   1      46.893  26.264  34.957  1.00  0.00    -0.342 N 
ATOM     13  C   UNL A   1      47.270  25.916  36.210  1.00  0.00     0.243 C 
ATOM     14  O   UNL A   1      47.207  26.822  37.055  1.00  0.00    -0.273 OA
ATOM     15  H   UNL A   1      46.917  27.234  34.787  1.00  0.00     0.164 HD
BRANCH  13  16
ATOM     16  C   UNL A   1      47.766  24.507  36.644  1.00  0.00     0.176 C 
BRANCH  16  17
ATOM     17  N   UNL A   1      49.031  24.429  37.371  1.00  0.00    -0.340 N 
ATOM     18  O   UNL A   1      50.921  23.479  38.117  1.00  0.00    -0.269 OA
ATOM     19  C   UNL A   1      50.040  23.493  37.282  1.00  0.00     0.251 C 
ATOM     20  H   UNL A   1      49.185  25.151  38.023  1.00  0.00     0.164 HD
BRANCH  19  21
ATOM     21  C   UNL A   1      50.008  22.469  36.211  1.00  0.00     0.040 A 
ATOM     22  C   UNL A   1      49.894  21.108  36.518  1.00  0.00     0.017 A 
ATOM     23  C   UNL A   1      50.099  22.891  34.880  1.00  0.00     0.017 A 
ATOM     24  C   UNL A   1      49.947  20.163  35.493  1.00  0.00     0.040 A 
ATOM     25  C   UNL A   1      50.148  21.940  33.857  1.00  0.00     0.040 A 
ATOM     26  C   UNL A   1      50.086  20.586  34.174  1.00  0.00     0.123 A 
ATOM     27  F   UNL A   1      50.163  19.676  33.194  1.00  0.00    -0.207 F 
ENDBRANCH  19  21
ENDBRANCH  16  17
BRANCH  16  28
ATOM     28  C   UNL A   1      46.672  23.543  37.152  1.00  0.00     0.070 C 
BRANCH  28  29
ATOM     29  C   UNL A   1      46.524  22.133  36.623  1.00  0.00    -0.045 A 
ATOM     30  C   UNL A   1      46.480  21.838  35.252  1.00  0.00     0.007 A 
ATOM     31  C   UNL A   1      46.259  21.090  37.529  1.00  0.00     0.007 A 
ATOM     32  C   UNL A   1      46.242  20.530  34.808  1.00  0.00     0.046 A 
ATOM     33  C   UNL A   1      46.024  19.785  37.083  1.00  0.00     0.046 A 
ATOM     34  C   UNL A   1      46.050  19.506  35.725  1.00  0.00     0.115 A 
BRANCH  34  35
ATOM     35  O   UNL A   1      45.886  18.213  35.324  1.00  0.00    -0.508 OA
ATOM     36  H   UNL A   1      45.147  17.720  35.622  1.00  0.00     0.293 HD
ENDBRANCH  34  35
ENDBRANCH  28  29
ENDBRANCH  16  28
ENDBRANCH  13  16
ENDBRANCH  11  12
BRANCH  11  37
ATOM     37  C   UNL A   1      45.033  24.965  34.151  1.00  0.00     0.072 C 
BRANCH  37  38
ATOM     38  C   UNL A   1      44.005  25.987  34.369  1.00  0.00    -0.020 A 
ATOM     39  C   UNL A   1      43.389  26.779  33.421  1.00  0.00     0.087 A 
ATOM     40  C   UNL A   1      43.385  26.216  35.612  1.00  0.00     0.003 A 
ATOM     41  N   UNL A   1      42.277  27.312  34.012  1.00  0.00    -0.361 N 
ATOM     42  C   UNL A   1      42.195  26.833  35.293  1.00  0.00     0.046 A 
ATOM     43  C   UNL A   1      43.599  25.705  36.908  1.00  0.00     0.010 A 
ATOM     44  H   UNL A   1      41.642  27.934  33.589  1.00  0.00     0.166 HD
ATOM     45  C   UNL A   1      41.138  26.789  36.165  1.00  0.00     0.026 A 
ATOM     46  C   UNL A   1      42.549  25.637  37.798  1.00  0.00     0.001 A 
ATOM     47  C   UNL A   1      41.329  26.118  37.387  1.00  0.00     0.002 A 
ENDBRANCH  37  38
ENDBRANCH  11  37
ENDBRANCH   8  11
ENDBRANCH   6   7
BRANCH   6  48
ATOM     48  C   UNL A   1      47.411  25.205  28.904  1.00  0.00     0.193 C 
BRANCH  48  49
ATOM     49  O   UNL A   1      48.633  25.946  28.864  1.00  0.00    -0.394 OA
ATOM     50  H   UNL A   1      49.380  25.344  29.006  1.00  0.00     0.210 HD
ENDBRANCH  48  49
ENDBRANCH   6  48
ENDBRANCH   4   6
ENDBRANCH   3   4
ENDBRANCH   2   3
ENDBRANCH   1   2
BRANCH   1  51
ATOM     51  O   UNL A   1      41.724  22.453  28.556  1.00  0.00    -0.376 OA
BRANCH  51  52
ATOM     52  C   UNL A   1      42.275  21.601  27.535  1.00  0.00     0.188 C 
BRANCH  52  53
ATOM     53  C   UNL A   1      41.275  20.638  26.845  1.00  0.00     0.188 C 
BRANCH  53  54
ATOM     54  O   UNL A   1      41.847  19.999  25.697  1.00  0.00    -0.376 OA
BRANCH  54  55
ATOM     55  C   UNL A   1      42.570  18.815  26.004  1.00  0.00     0.202 C 
BRANCH  55  56
ATOM     56  C   UNL A   1      44.077  18.883  25.698  1.00  0.00     0.261 C 
BRANCH  56  57
ATOM     57  O   UNL A   1      44.434  18.515  24.353  1.00  0.00    -0.460 OA
BRANCH  57  58
ATOM     58  C   UNL A   1      44.762  19.563  23.556  1.00  0.00     0.338 C 
ATOM     59  O   UNL A   1      44.945  19.542  22.344  1.00  0.00    -0.246 OA
BRANCH  58  60
ATOM     60  C   UNL A   1      44.834  20.830  24.325  1.00  0.00     0.060 A 
ATOM     61  C   UNL A   1      44.126  21.901  23.788  1.00  0.00     0.016 A 
ATOM     62  C   UNL A   1      45.628  21.041  25.451  1.00  0.00     0.016 A 
ATOM     63  C   UNL A   1      44.200  23.179  24.327  1.00  0.00     0.010 A 
ATOM     64  C   UNL A   1      45.710  22.335  26.006  1.00  0.00     0.010 A 
ATOM     65  C   UNL A   1      45.013  23.419  25.434  1.00  0.00    -0.014 A 
BRANCH  65  66
ATOM     66  C   UNL A   1      45.208  24.825  25.881  1.00  0.00     0.031 A 
ATOM     67  C   UNL A   1      46.543  25.490  25.685  1.00  0.00     0.074 A 
ATOM     68  C   UNL A   1      44.180  25.551  26.363  1.00  0.00     0.049 A 
ATOM     69  N   UNL A   1      46.952  26.673  26.068  1.00  0.00    -0.248 NA
ATOM     70  C   UNL A   1      47.558  24.708  24.962  1.00  0.00     0.031 C 
ATOM     71  C   UNL A   1      42.806  25.075  26.524  1.00  0.00     0.029 A 
ATOM     72  N   UNL A   1      44.136  26.855  26.793  1.00  0.00    -0.354 N 
ATOM     73  C   UNL A   1      48.278  26.765  25.667  1.00  0.00     0.074 A 
ATOM     74  C   UNL A   1      48.610  25.511  25.024  1.00  0.00     0.031 C 
ATOM     75  C   UNL A   1      42.052  26.078  27.003  1.00  0.00     0.029 A 
ATOM     76  C   UNL A   1      42.897  27.250  27.228  1.00  0.00     0.049 A 
ATOM     77  H   UNL A   1      44.920  27.450  26.787  1.00  0.00     0.167 HD
ATOM     78  C   UNL A   1      49.143  27.797  25.819  1.00  0.00     0.037 A 
ATOM     79  C   UNL A   1      42.490  28.415  27.771  1.00  0.00     0.037 A 
ATOM     80  C   UNL A   1      48.808  29.066  26.411  1.00  0.00     0.049 A 
ATOM     81  C   UNL A   1      43.473  29.537  27.961  1.00  0.00     0.074 A 
ATOM     82  C   UNL A   1      49.624  30.167  26.613  1.00  0.00     0.029 A 
ATOM     83  N   UNL A   1      47.550  29.411  26.879  1.00  0.00    -0.354 N 
ATOM     84  N   UNL A   1      44.745  29.587  27.649  1.00  0.00    -0.248 NA
ATOM     85  C   UNL A   1      42.963  30.764  28.592  1.00  0.00     0.031 C 
ATOM     86  C   UNL A   1      48.867  31.165  27.239  1.00  0.00     0.029 A 
ATOM     87  C   UNL A   1      47.571  30.700  27.390  1.00  0.00     0.049 A 
ATOM     88  H   UNL A   1      46.757  28.827  26.853  1.00  0.00     0.167 HD
ATOM     89  C   UNL A   1      45.185  30.846  28.037  1.00  0.00     0.074 A 
ATOM     90  C   UNL A   1      44.039  31.539  28.588  1.00  0.00     0.031 C 
ATOM     91  C   UNL A   1      46.430  31.377  27.951  1.00  0.00     0.037 A 
BRANCH  78  92
ATOM     92  C   UNL A   1      50.559  27.562  25.383  1.00  0.00     0.057 A 
ATOM     93  C   UNL A   1      50.967  27.707  24.051  1.00  0.00     0.134 A 
ATOM     94  C   UNL A   1      51.524  27.164  26.317  1.00  0.00     0.134 A 
ATOM     95  F   UNL A   1      50.087  28.066  23.105  1.00  0.00    -0.206 F 
ATOM     96  C   UNL A   1      52.277  27.429  23.658  1.00  0.00     0.040 A 
ATOM     97  C   UNL A   1      52.843  26.908  25.940  1.00  0.00     0.040 A 
ATOM     98  F   UNL A   1      51.199  27.010  27.609  1.00  0.00    -0.206 F 
ATOM     99  C   UNL A   1      53.221  27.031  24.605  1.00  0.00     0.006 A 
ENDBRANCH  78  92
BRANCH  79 100
ATOM    100  C   UNL A   1      41.083  28.560  28.224  1.00  0.00     0.057 A 
ATOM    101  C   UNL A   1      40.072  28.971  27.349  1.00  0.00     0.134 A 
ATOM    102  C   UNL A   1      40.724  28.298  29.552  1.00  0.00     0.134 A 
ATOM    103  F   UNL A   1      40.360  29.267  26.073  1.00  0.00    -0.206 F 
ATOM    104  C   UNL A   1      38.754  29.123  27.781  1.00  0.00     0.040 A 
ATOM    105  C   UNL A   1      39.405  28.422  29.989  1.00  0.00     0.040 A 
ATOM    106  F   UNL A   1      41.649  27.905  30.439  1.00  0.00    -0.206 F 
ATOM    107  C   UNL A   1      38.415  28.841  29.104  1.00  0.00     0.006 A 
ENDBRANCH  79 100
BRANCH  91 108
ATOM    108  C   UNL A   1      46.614  32.776  28.464  1.00  0.00     0.057 A 
ATOM    109  C   UNL A   1      46.468  33.891  27.628  1.00  0.00     0.134 A 
ATOM    110  C   UNL A   1      46.923  33.013  29.809  1.00  0.00     0.134 A 
ATOM    111  F   UNL A   1      46.184  33.733  26.326  1.00  0.00    -0.206 F 
ATOM    112  C   UNL A   1      46.648  35.191  28.106  1.00  0.00     0.040 A 
ATOM    113  C   UNL A   1      47.084  34.308  30.303  1.00  0.00     0.040 A 
ATOM    114  F   UNL A   1      47.069  31.990  30.665  1.00  0.00    -0.206 F 
ATOM    115  C   UNL A   1      46.953  35.402  29.449  1.00  0.00     0.006 A 
ENDBRANCH  91 108
ENDBRANCH  65  66
ENDBRANCH  58  60
ENDBRANCH  57  58
ENDBRANCH  56  57
ENDBRANCH  55  56
ENDBRANCH  54  55
ENDBRANCH  53  54
ENDBRANCH  52  53
ENDBRANCH  51  52
ENDBRANCH   1  51
TORSDOF 30
ENDMDL
MODEL 2
REMARK VINA RESULT:      -7.6      1.973      3.303
REMARK SMILES O=C(N[C@@H](Cc1ccc(O)cc1)C(=O)N[C@@H](Cc1c[nH]c2ccccc12)C(=O)N[C@@H](CO)C(=O)OCCOCCOCCOC(=O)c1ccc(-c2c3nc(c(-c4c(F)cccc4F)c4ccc([nH]4)c(-c4c(F)cccc4F)c4nc(c(-c5c(F)cccc5F)c5ccc2[nH]5)C=C4)C=C3)cc1)c1ccc(F)cc1
REMARK SMILES IDX 37 1 36 2 35 3 33 4 34 5 30 6 29 7 27 8 28 9 16 11 15 12
REMARK SMILES IDX 13 13 14 14 4 16 3 17 1 18 2 19 101 21 102 22 107 23 103 24
REMARK SMILES IDX 106 25 104 26 105 27 5 28 6 29 7 30 12 31 8 32 11 33 9 34
REMARK SMILES IDX 10 35 17 37 18 38 19 39 26 40 20 41 21 42 25 43 22 45 24 46
REMARK SMILES IDX 23 47 31 48 32 49 38 51 39 52 40 53 41 54 42 55 43 56 44 57
REMARK SMILES IDX 45 58 46 59 47 60 48 61 100 62 49 63 99 64 50 65 51 66 52 67
REMARK SMILES IDX 93 68 53 69 98 70 92 71 94 72 54 73 97 74 91 75 90 76 55 78
REMARK SMILES IDX 81 79 64 80 80 81 65 82 68 83 79 84 95 85 66 86 67 87 78 89
REMARK SMILES IDX 96 90 69 91 56 92 57 93 62 94 58 95 59 96 61 97 63 98 60 99
REMARK SMILES IDX 82 100 83 101 88 102 84 103 85 104 87 105 89 106 86 107
REMARK SMILES IDX 70 108 71 109 76 110 72 111 73 112 75 113 77 114 74 115
REMARK H PARENT 29 10 15 15 3 20 10 36 20 44 32 50 94 77 68 88
REMARK Flexibility Score: inf
ROOT
ATOM      1  C   UNL A   1      42.449  22.817  29.338  1.00  0.00     0.202 C 
ENDROOT
BRANCH   1   2
ATOM      2  C   UNL A   1      43.942  22.713  28.846  1.00  0.00     0.261 C 
BRANCH   2   3
ATOM      3  O   UNL A   1      44.958  23.466  29.614  1.00  0.00    -0.462 OA
BRANCH   3   4
ATOM      4  C   UNL A   1      44.488  24.492  30.398  1.00  0.00     0.331 C 
ATOM      5  O   UNL A   1      43.570  25.229  30.024  1.00  0.00    -0.250 OA
BRANCH   4   6
ATOM      6  C   UNL A   1      45.165  24.746  31.812  1.00  0.00     0.218 C 
BRANCH   6   7
ATOM      7  N   UNL A   1      45.992  25.930  32.182  1.00  0.00    -0.339 N 
ATOM      8  C   UNL A   1      45.430  27.137  32.560  1.00  0.00     0.243 C 
ATOM      9  O   UNL A   1      45.104  27.884  31.622  1.00  0.00    -0.273 OA
ATOM     10  H   UNL A   1      46.973  25.849  32.157  1.00  0.00     0.164 HD
BRANCH   8  11
ATOM     11  C   UNL A   1      45.449  27.724  34.066  1.00  0.00     0.175 C 
BRANCH  11  12
ATOM     12  N   UNL A   1      46.061  29.063  33.989  1.00  0.00    -0.342 N 
ATOM     13  C   UNL A   1      47.351  29.472  33.977  1.00  0.00     0.243 C 
ATOM     14  O   UNL A   1      47.536  30.657  34.292  1.00  0.00    -0.273 OA
ATOM     15  H   UNL A   1      45.407  29.798  33.934  1.00  0.00     0.164 HD
BRANCH  13  16
ATOM     16  C   UNL A   1      48.574  28.587  33.601  1.00  0.00     0.176 C 
BRANCH  16  17
ATOM     17  N   UNL A   1      49.626  29.194  32.789  1.00  0.00    -0.340 N 
ATOM     18  O   UNL A   1      51.162  29.306  31.159  1.00  0.00    -0.269 OA
ATOM     19  C   UNL A   1      50.148  28.788  31.579  1.00  0.00     0.251 C 
ATOM     20  H   UNL A   1      50.021  30.016  33.162  1.00  0.00     0.164 HD
BRANCH  19  21
ATOM     21  C   UNL A   1      49.510  27.678  30.832  1.00  0.00     0.040 A 
ATOM     22  C   UNL A   1      50.067  26.394  30.834  1.00  0.00     0.017 A 
ATOM     23  C   UNL A   1      48.335  27.941  30.118  1.00  0.00     0.017 A 
ATOM     24  C   UNL A   1      49.488  25.390  30.057  1.00  0.00     0.040 A 
ATOM     25  C   UNL A   1      47.757  26.930  29.345  1.00  0.00     0.040 A 
ATOM     26  C   UNL A   1      48.347  25.670  29.311  1.00  0.00     0.123 A 
ATOM     27  F   UNL A   1      47.808  24.711  28.546  1.00  0.00    -0.207 F 
ENDBRANCH  19  21
ENDBRANCH  16  17
BRANCH  16  28
ATOM     28  C   UNL A   1      49.085  27.649  34.716  1.00  0.00     0.070 C 
BRANCH  28  29
ATOM     29  C   UNL A   1      48.950  26.144  34.634  1.00  0.00    -0.045 A 
ATOM     30  C   UNL A   1      47.835  25.454  35.132  1.00  0.00     0.007 A 
ATOM     31  C   UNL A   1      50.048  25.385  34.190  1.00  0.00     0.007 A 
ATOM     32  C   UNL A   1      47.796  24.052  35.125  1.00  0.00     0.046 A 
ATOM     33  C   UNL A   1      50.007  23.986  34.182  1.00  0.00     0.046 A 
ATOM     34  C   UNL A   1      48.867  23.328  34.619  1.00  0.00     0.115 A 
BRANCH  34  35
ATOM     35  O   UNL A   1      48.829  21.968  34.534  1.00  0.00    -0.508 OA
ATOM     36  H   UNL A   1      48.885  21.548  33.698  1.00  0.00     0.293 HD
ENDBRANCH  34  35
ENDBRANCH  28  29
ENDBRANCH  16  28
ENDBRANCH  13  16
ENDBRANCH  11  12
BRANCH  11  37
ATOM     37  C   UNL A   1      44.175  27.899  34.930  1.00  0.00     0.072 C 
BRANCH  37  38
ATOM     38  C   UNL A   1      42.897  27.994  34.219  1.00  0.00    -0.020 A 
ATOM     39  C   UNL A   1      41.840  27.107  34.263  1.00  0.00     0.087 A 
ATOM     40  C   UNL A   1      42.505  29.118  33.468  1.00  0.00     0.003 A 
ATOM     41  N   UNL A   1      40.754  27.759  33.747  1.00  0.00    -0.361 N 
ATOM     42  C   UNL A   1      41.131  29.035  33.418  1.00  0.00     0.046 A 
ATOM     43  C   UNL A   1      43.162  30.307  33.092  1.00  0.00     0.010 A 
ATOM     44  H   UNL A   1      39.854  27.376  33.631  1.00  0.00     0.166 HD
ATOM     45  C   UNL A   1      40.378  30.158  33.191  1.00  0.00     0.026 A 
ATOM     46  C   UNL A   1      42.428  31.452  32.871  1.00  0.00     0.001 A 
ATOM     47  C   UNL A   1      41.062  31.371  32.988  1.00  0.00     0.002 A 
ENDBRANCH  37  38
ENDBRANCH  11  37
ENDBRANCH   8  11
ENDBRANCH   6   7
BRANCH   6  48
ATOM     48  C   UNL A   1      44.044  24.546  32.858  1.00  0.00     0.193 C 
BRANCH  48  49
ATOM     49  O   UNL A   1      44.488  23.701  33.922  1.00  0.00    -0.394 OA
ATOM     50  H   UNL A   1      45.457  23.645  33.908  1.00  0.00     0.210 HD
ENDBRANCH  48  49
ENDBRANCH   6  48
ENDBRANCH   4   6
ENDBRANCH   3   4
ENDBRANCH   2   3
ENDBRANCH   1   2
BRANCH   1  51
ATOM     51  O   UNL A   1      41.557  22.045  28.515  1.00  0.00    -0.376 OA
BRANCH  51  52
ATOM     52  C   UNL A   1      42.113  21.345  27.387  1.00  0.00     0.188 C 
BRANCH  52  53
ATOM     53  C   UNL A   1      41.142  20.405  26.628  1.00  0.00     0.188 C 
BRANCH  53  54
ATOM     54  O   UNL A   1      41.808  19.651  25.607  1.00  0.00    -0.376 OA
BRANCH  54  55
ATOM     55  C   UNL A   1      42.667  18.640  26.114  1.00  0.00     0.202 C 
BRANCH  55  56
ATOM     56  C   UNL A   1      44.160  18.847  25.802  1.00  0.00     0.261 C 
BRANCH  56  57
ATOM     57  O   UNL A   1      44.545  18.512  24.456  1.00  0.00    -0.460 OA
BRANCH  57  58
ATOM     58  C   UNL A   1      44.711  19.584  23.640  1.00  0.00     0.338 C 
ATOM     59  O   UNL A   1      44.745  19.582  22.415  1.00  0.00    -0.246 OA
BRANCH  58  60
ATOM     60  C   UNL A   1      44.806  20.846  24.414  1.00  0.00     0.060 A 
ATOM     61  C   UNL A   1      44.018  21.896  23.950  1.00  0.00     0.016 A 
ATOM     62  C   UNL A   1      45.687  21.078  25.469  1.00  0.00     0.016 A 
ATOM     63  C   UNL A   1      44.094  23.172  24.494  1.00  0.00     0.010 A 
ATOM     64  C   UNL A   1      45.772  22.369  26.028  1.00  0.00     0.010 A 
ATOM     65  C   UNL A   1      44.992  23.432  25.530  1.00  0.00    -0.014 A 
BRANCH  65  66
ATOM     66  C   UNL A   1      45.176  24.841  25.972  1.00  0.00     0.031 A 
ATOM     67  C   UNL A   1      46.504  25.518  25.768  1.00  0.00     0.074 A 
ATOM     68  C   UNL A   1      44.144  25.558  26.458  1.00  0.00     0.049 A 
ATOM     69  N   UNL A   1      46.904  26.705  26.147  1.00  0.00    -0.248 NA
ATOM     70  C   UNL A   1      47.523  24.744  25.043  1.00  0.00     0.031 C 
ATOM     71  C   UNL A   1      42.775  25.071  26.626  1.00  0.00     0.029 A 
ATOM     72  N   UNL A   1      44.090  26.863  26.885  1.00  0.00    -0.354 N 
ATOM     73  C   UNL A   1      48.227  26.808  25.739  1.00  0.00     0.074 A 
ATOM     74  C   UNL A   1      48.567  25.556  25.097  1.00  0.00     0.031 C 
ATOM     75  C   UNL A   1      42.014  26.068  27.107  1.00  0.00     0.029 A 
ATOM     76  C   UNL A   1      42.849  27.248  27.325  1.00  0.00     0.049 A 
ATOM     77  H   UNL A   1      44.869  27.466  26.874  1.00  0.00     0.167 HD
ATOM     78  C   UNL A   1      49.083  27.848  25.884  1.00  0.00     0.037 A 
ATOM     79  C   UNL A   1      42.434  28.410  27.868  1.00  0.00     0.037 A 
ATOM     80  C   UNL A   1      48.740  29.116  26.476  1.00  0.00     0.049 A 
ATOM     81  C   UNL A   1      43.408  29.542  28.050  1.00  0.00     0.074 A 
ATOM     82  C   UNL A   1      49.546  30.224  26.671  1.00  0.00     0.029 A 
ATOM     83  N   UNL A   1      47.480  29.450  26.948  1.00  0.00    -0.354 N 
ATOM     84  N   UNL A   1      44.677  29.602  27.732  1.00  0.00    -0.248 NA
ATOM     85  C   UNL A   1      42.890  30.765  28.681  1.00  0.00     0.031 C 
ATOM     86  C   UNL A   1      48.783  31.217  27.299  1.00  0.00     0.029 A 
ATOM     87  C   UNL A   1      47.492  30.740  27.456  1.00  0.00     0.049 A 
ATOM     88  H   UNL A   1      46.693  28.859  26.928  1.00  0.00     0.167 HD
ATOM     89  C   UNL A   1      45.108  30.866  28.115  1.00  0.00     0.074 A 
ATOM     90  C   UNL A   1      43.959  31.549  28.670  1.00  0.00     0.031 C 
ATOM     91  C   UNL A   1      46.348  31.408  28.022  1.00  0.00     0.037 A 
BRANCH  78  92
ATOM     92  C   UNL A   1      50.499  27.626  25.442  1.00  0.00     0.057 A 
ATOM     93  C   UNL A   1      50.900  27.778  24.109  1.00  0.00     0.134 A 
ATOM     94  C   UNL A   1      51.471  27.232  26.371  1.00  0.00     0.134 A 
ATOM     95  F   UNL A   1      50.014  28.132  23.167  1.00  0.00    -0.206 F 
ATOM     96  C   UNL A   1      52.211  27.511  23.710  1.00  0.00     0.040 A 
ATOM     97  C   UNL A   1      52.790  26.988  25.988  1.00  0.00     0.040 A 
ATOM     98  F   UNL A   1      51.153  27.072  27.664  1.00  0.00    -0.206 F 
ATOM     99  C   UNL A   1      53.162  27.117  24.652  1.00  0.00     0.006 A 
ENDBRANCH  78  92
BRANCH  79 100
ATOM    100  C   UNL A   1      41.029  28.543  28.327  1.00  0.00     0.057 A 
ATOM    101  C   UNL A   1      40.020  29.001  27.473  1.00  0.00     0.134 A 
ATOM    102  C   UNL A   1      40.667  28.221  29.641  1.00  0.00     0.134 A 
ATOM    103  F   UNL A   1      40.310  29.354  26.212  1.00  0.00    -0.206 F 
ATOM    104  C   UNL A   1      38.703  29.142  27.911  1.00  0.00     0.040 A 
ATOM    105  C   UNL A   1      39.349  28.334  30.084  1.00  0.00     0.040 A 
ATOM    106  F   UNL A   1      41.589  27.781  30.509  1.00  0.00    -0.206 F 
ATOM    107  C   UNL A   1      38.362  28.800  29.219  1.00  0.00     0.006 A 
ENDBRANCH  79 100
BRANCH  91 108
ATOM    108  C   UNL A   1      46.521  32.810  28.530  1.00  0.00     0.057 A 
ATOM    109  C   UNL A   1      46.266  33.923  27.719  1.00  0.00     0.134 A 
ATOM    110  C   UNL A   1      46.930  33.050  29.848  1.00  0.00     0.134 A 
ATOM    111  F   UNL A   1      45.883  33.763  26.444  1.00  0.00    -0.206 F 
ATOM    112  C   UNL A   1      46.437  35.227  28.193  1.00  0.00     0.040 A 
ATOM    113  C   UNL A   1      47.084  34.348  30.339  1.00  0.00     0.040 A 
ATOM    114  F   UNL A   1      47.184  32.029  30.680  1.00  0.00    -0.206 F 
ATOM    115  C   UNL A   1      46.843  35.441  29.509  1.00  0.00     0.006 A 
ENDBRANCH  91 108
ENDBRANCH  65  66
ENDBRANCH  58  60
ENDBRANCH  57  58
ENDBRANCH  56  57
ENDBRANCH  55  56
ENDBRANCH  54  55
ENDBRANCH  53  54
ENDBRANCH  52  53
ENDBRANCH  51  52
ENDBRANCH   1  51
TORSDOF 30
ENDMDL
MODEL 3
REMARK VINA RESULT:      -7.5      7.123     14.910
REMARK SMILES O=C(N[C@@H](Cc1ccc(O)cc1)C(=O)N[C@@H](Cc1c[nH]c2ccccc12)C(=O)N[C@@H](CO)C(=O)OCCOCCOCCOC(=O)c1ccc(-c2c3nc(c(-c4c(F)cccc4F)c4ccc([nH]4)c(-c4c(F)cccc4F)c4nc(c(-c5c(F)cccc5F)c5ccc2[nH]5)C=C4)C=C3)cc1)c1ccc(F)cc1
REMARK SMILES IDX 37 1 36 2 35 3 33 4 34 5 30 6 29 7 27 8 28 9 16 11 15 12
REMARK SMILES IDX 13 13 14 14 4 16 3 17 1 18 2 19 101 21 102 22 107 23 103 24
REMARK SMILES IDX 106 25 104 26 105 27 5 28 6 29 7 30 12 31 8 32 11 33 9 34
REMARK SMILES IDX 10 35 17 37 18 38 19 39 26 40 20 41 21 42 25 43 22 45 24 46
REMARK SMILES IDX 23 47 31 48 32 49 38 51 39 52 40 53 41 54 42 55 43 56 44 57
REMARK SMILES IDX 45 58 46 59 47 60 48 61 100 62 49 63 99 64 50 65 51 66 52 67
REMARK SMILES IDX 93 68 53 69 98 70 92 71 94 72 54 73 97 74 91 75 90 76 55 78
REMARK SMILES IDX 81 79 64 80 80 81 65 82 68 83 79 84 95 85 66 86 67 87 78 89
REMARK SMILES IDX 96 90 69 91 56 92 57 93 62 94 58 95 59 96 61 97 63 98 60 99
REMARK SMILES IDX 82 100 83 101 88 102 84 103 85 104 87 105 89 106 86 107
REMARK SMILES IDX 70 108 71 109 76 110 72 111 73 112 75 113 77 114 74 115
REMARK H PARENT 29 10 15 15 3 20 10 36 20 44 32 50 94 77 68 88
REMARK Flexibility Score: inf
ROOT
ATOM      1  C   UNL A   1      46.012  43.267  34.893  1.00  0.00     0.202 C 
ENDROOT
BRANCH   1   2
ATOM      2  C   UNL A   1      45.298  44.292  33.932  1.00  0.00     0.261 C 
BRANCH   2   3
ATOM      3  O   UNL A   1      44.832  43.776  32.627  1.00  0.00    -0.462 OA
BRANCH   3   4
ATOM      4  C   UNL A   1      43.621  44.251  32.184  1.00  0.00     0.331 C 
ATOM      5  O   UNL A   1      43.259  45.412  32.399  1.00  0.00    -0.250 OA
BRANCH   4   6
ATOM      6  C   UNL A   1      42.656  43.266  31.395  1.00  0.00     0.218 C 
BRANCH   6   7
ATOM      7  N   UNL A   1      43.015  42.482  30.179  1.00  0.00    -0.339 N 
ATOM      8  C   UNL A   1      43.689  41.274  30.249  1.00  0.00     0.243 C 
ATOM      9  O   UNL A   1      44.925  41.365  30.337  1.00  0.00    -0.273 OA
ATOM     10  H   UNL A   1      42.762  42.836  29.296  1.00  0.00     0.164 HD
BRANCH   8  11
ATOM     11  C   UNL A   1      43.021  39.835  29.938  1.00  0.00     0.175 C 
BRANCH  11  12
ATOM     12  N   UNL A   1      42.866  39.751  28.474  1.00  0.00    -0.342 N 
ATOM     13  C   UNL A   1      43.743  39.462  27.484  1.00  0.00     0.243 C 
ATOM     14  O   UNL A   1      43.411  39.845  26.352  1.00  0.00    -0.273 OA
ATOM     15  H   UNL A   1      41.952  39.939  28.158  1.00  0.00     0.164 HD
BRANCH  13  16
ATOM     16  C   UNL A   1      45.088  38.700  27.663  1.00  0.00     0.176 C 
BRANCH  16  17
ATOM     17  N   UNL A   1      46.149  39.367  28.414  1.00  0.00    -0.340 N 
ATOM     18  O   UNL A   1      48.205  39.648  29.263  1.00  0.00    -0.269 OA
ATOM     19  C   UNL A   1      47.507  39.129  28.417  1.00  0.00     0.251 C 
ATOM     20  H   UNL A   1      45.849  40.095  29.007  1.00  0.00     0.164 HD
BRANCH  19  21
ATOM     21  C   UNL A   1      48.097  38.192  27.432  1.00  0.00     0.040 A 
ATOM     22  C   UNL A   1      48.124  38.502  26.067  1.00  0.00     0.017 A 
ATOM     23  C   UNL A   1      48.627  36.982  27.895  1.00  0.00     0.017 A 
ATOM     24  C   UNL A   1      48.613  37.565  25.156  1.00  0.00     0.040 A 
ATOM     25  C   UNL A   1      49.119  36.049  26.979  1.00  0.00     0.040 A 
ATOM     26  C   UNL A   1      49.094  36.343  25.619  1.00  0.00     0.123 A 
ATOM     27  F   UNL A   1      49.540  35.435  24.740  1.00  0.00    -0.207 F 
ENDBRANCH  19  21
ENDBRANCH  16  17
BRANCH  16  28
ATOM     28  C   UNL A   1      44.964  37.185  27.935  1.00  0.00     0.070 C 
BRANCH  28  29
ATOM     29  C   UNL A   1      44.632  36.190  26.844  1.00  0.00    -0.045 A 
ATOM     30  C   UNL A   1      43.318  35.796  26.551  1.00  0.00     0.007 A 
ATOM     31  C   UNL A   1      45.681  35.508  26.202  1.00  0.00     0.007 A 
ATOM     32  C   UNL A   1      43.064  34.798  25.600  1.00  0.00     0.046 A 
ATOM     33  C   UNL A   1      45.425  34.514  25.251  1.00  0.00     0.046 A 
ATOM     34  C   UNL A   1      44.116  34.188  24.931  1.00  0.00     0.115 A 
BRANCH  34  35
ATOM     35  O   UNL A   1      43.897  33.264  23.953  1.00  0.00    -0.508 OA
ATOM     36  H   UNL A   1      44.067  33.482  23.057  1.00  0.00     0.293 HD
ENDBRANCH  34  35
ENDBRANCH  28  29
ENDBRANCH  16  28
ENDBRANCH  13  16
ENDBRANCH  11  12
BRANCH  11  37
ATOM     37  C   UNL A   1      43.657  38.489  30.367  1.00  0.00     0.072 C 
BRANCH  37  38
ATOM     38  C   UNL A   1      44.168  38.400  31.737  1.00  0.00    -0.020 A 
ATOM     39  C   UNL A   1      43.685  39.043  32.860  1.00  0.00     0.087 A 
ATOM     40  C   UNL A   1      45.180  37.507  32.135  1.00  0.00     0.003 A 
ATOM     41  N   UNL A   1      44.224  38.405  33.943  1.00  0.00    -0.361 N 
ATOM     42  C   UNL A   1      45.001  37.370  33.495  1.00  0.00     0.046 A 
ATOM     43  C   UNL A   1      46.014  36.615  31.432  1.00  0.00     0.010 A 
ATOM     44  H   UNL A   1      44.077  38.649  34.886  1.00  0.00     0.166 HD
ATOM     45  C   UNL A   1      45.472  36.259  34.146  1.00  0.00     0.026 A 
ATOM     46  C   UNL A   1      46.488  35.484  32.060  1.00  0.00     0.001 A 
ATOM     47  C   UNL A   1      46.156  35.297  33.380  1.00  0.00     0.002 A 
ENDBRANCH  37  38
ENDBRANCH  11  37
ENDBRANCH   8  11
ENDBRANCH   6   7
BRANCH   6  48
ATOM     48  C   UNL A   1      42.051  42.324  32.463  1.00  0.00     0.193 C 
BRANCH  48  49
ATOM     49  O   UNL A   1      42.090  42.933  33.756  1.00  0.00    -0.394 OA
ATOM     50  H   UNL A   1      42.344  43.865  33.667  1.00  0.00     0.210 HD
ENDBRANCH  48  49
ENDBRANCH   6  48
ENDBRANCH   4   6
ENDBRANCH   3   4
ENDBRANCH   2   3
ENDBRANCH   1   2
BRANCH   1  51
ATOM     51  O   UNL A   1      45.438  41.952  34.799  1.00  0.00    -0.376 OA
BRANCH  51  52
ATOM     52  C   UNL A   1      44.395  41.601  35.726  1.00  0.00     0.188 C 
BRANCH  52  53
ATOM     53  C   UNL A   1      44.861  40.967  37.062  1.00  0.00     0.188 C 
BRANCH  53  54
ATOM     54  O   UNL A   1      43.818  40.952  38.045  1.00  0.00    -0.376 OA
BRANCH  54  55
ATOM     55  C   UNL A   1      44.162  40.248  39.230  1.00  0.00     0.202 C 
BRANCH  55  56
ATOM     56  C   UNL A   1      43.253  39.048  39.553  1.00  0.00     0.261 C 
BRANCH  56  57
ATOM     57  O   UNL A   1      42.960  38.197  38.430  1.00  0.00    -0.460 OA
BRANCH  57  58
ATOM     58  C   UNL A   1      42.053  37.222  38.690  1.00  0.00     0.338 C 
ATOM     59  O   UNL A   1      41.497  36.996  39.759  1.00  0.00    -0.246 OA
BRANCH  58  60
ATOM     60  C   UNL A   1      41.737  36.435  37.473  1.00  0.00     0.060 A 
ATOM     61  C   UNL A   1      40.937  35.313  37.674  1.00  0.00     0.016 A 
ATOM     62  C   UNL A   1      42.263  36.671  36.204  1.00  0.00     0.016 A 
ATOM     63  C   UNL A   1      40.661  34.412  36.654  1.00  0.00     0.010 A 
ATOM     64  C   UNL A   1      41.989  35.762  35.162  1.00  0.00     0.010 A 
ATOM     65  C   UNL A   1      41.203  34.613  35.385  1.00  0.00    -0.014 A 
BRANCH  65  66
ATOM     66  C   UNL A   1      41.035  33.544  34.363  1.00  0.00     0.031 A 
ATOM     67  C   UNL A   1      42.000  32.390  34.327  1.00  0.00     0.074 A 
ATOM     68  C   UNL A   1      39.973  33.535  33.534  1.00  0.00     0.049 A 
ATOM     69  N   UNL A   1      42.085  31.398  33.477  1.00  0.00    -0.248 NA
ATOM     70  C   UNL A   1      43.013  32.357  35.393  1.00  0.00     0.031 C 
ATOM     71  C   UNL A   1      38.903  34.532  33.513  1.00  0.00     0.029 A 
ATOM     72  N   UNL A   1      39.614  32.637  32.558  1.00  0.00    -0.354 N 
ATOM     73  C   UNL A   1      43.177  30.643  33.883  1.00  0.00     0.074 A 
ATOM     74  C   UNL A   1      43.734  31.302  35.047  1.00  0.00     0.031 C 
ATOM     75  C   UNL A   1      38.002  34.184  32.580  1.00  0.00     0.029 A 
ATOM     76  C   UNL A   1      38.453  32.967  31.906  1.00  0.00     0.049 A 
ATOM     77  H   UNL A   1      40.141  31.833  32.346  1.00  0.00     0.167 HD
ATOM     78  C   UNL A   1      43.675  29.506  33.339  1.00  0.00     0.037 A 
ATOM     79  C   UNL A   1      37.832  32.373  30.867  1.00  0.00     0.037 A 
ATOM     80  C   UNL A   1      43.099  28.816  32.214  1.00  0.00     0.049 A 
ATOM     81  C   UNL A   1      38.418  31.129  30.257  1.00  0.00     0.074 A 
ATOM     82  C   UNL A   1      43.541  27.662  31.590  1.00  0.00     0.029 A 
ATOM     83  N   UNL A   1      41.944  29.208  31.555  1.00  0.00    -0.354 N 
ATOM     84  N   UNL A   1      39.495  30.466  30.599  1.00  0.00    -0.248 NA
ATOM     85  C   UNL A   1      37.705  30.559  29.104  1.00  0.00     0.031 C 
ATOM     86  C   UNL A   1      42.673  27.376  30.529  1.00  0.00     0.029 A 
ATOM     87  C   UNL A   1      41.669  28.330  30.518  1.00  0.00     0.049 A 
ATOM     88  H   UNL A   1      41.399  29.994  31.789  1.00  0.00     0.167 HD
ATOM     89  C   UNL A   1      39.586  29.400  29.712  1.00  0.00     0.074 A 
ATOM     90  C   UNL A   1      38.442  29.491  28.830  1.00  0.00     0.031 C 
ATOM     91  C   UNL A   1      40.537  28.436  29.633  1.00  0.00     0.037 A 
BRANCH  78  92
ATOM     92  C   UNL A   1      44.946  28.974  33.930  1.00  0.00     0.057 A 
ATOM     93  C   UNL A   1      44.954  28.036  34.970  1.00  0.00     0.134 A 
ATOM     94  C   UNL A   1      46.184  29.428  33.457  1.00  0.00     0.134 A 
ATOM     95  F   UNL A   1      43.803  27.577  35.482  1.00  0.00    -0.206 F 
ATOM     96  C   UNL A   1      46.149  27.597  35.543  1.00  0.00     0.040 A 
ATOM     97  C   UNL A   1      47.386  28.976  34.005  1.00  0.00     0.040 A 
ATOM     98  F   UNL A   1      46.246  30.324  32.461  1.00  0.00    -0.206 F 
ATOM     99  C   UNL A   1      47.370  28.065  35.058  1.00  0.00     0.006 A 
ENDBRANCH  78  92
BRANCH  79 100
ATOM    100  C   UNL A   1      36.602  32.983  30.303  1.00  0.00     0.057 A 
ATOM    101  C   UNL A   1      36.652  33.847  29.205  1.00  0.00     0.134 A 
ATOM    102  C   UNL A   1      35.346  32.718  30.862  1.00  0.00     0.134 A 
ATOM    103  F   UNL A   1      37.829  34.164  28.645  1.00  0.00    -0.206 F 
ATOM    104  C   UNL A   1      35.496  34.432  28.686  1.00  0.00     0.040 A 
ATOM    105  C   UNL A   1      34.181  33.277  30.338  1.00  0.00     0.040 A 
ATOM    106  F   UNL A   1      35.233  31.901  31.919  1.00  0.00    -0.206 F 
ATOM    107  C   UNL A   1      34.254  34.142  29.248  1.00  0.00     0.006 A 
ENDBRANCH  79 100
BRANCH  91 108
ATOM    108  C   UNL A   1      40.376  27.404  28.556  1.00  0.00     0.057 A 
ATOM    109  C   UNL A   1      39.554  26.282  28.728  1.00  0.00     0.134 A 
ATOM    110  C   UNL A   1      41.035  27.540  27.328  1.00  0.00     0.134 A 
ATOM    111  F   UNL A   1      38.904  26.086  29.885  1.00  0.00    -0.206 F 
ATOM    112  C   UNL A   1      39.414  25.319  27.726  1.00  0.00     0.040 A 
ATOM    113  C   UNL A   1      40.886  26.595  26.311  1.00  0.00     0.040 A 
ATOM    114  F   UNL A   1      41.831  28.594  27.094  1.00  0.00    -0.206 F 
ATOM    115  C   UNL A   1      40.079  25.477  26.511  1.00  0.00     0.006 A 
ENDBRANCH  91 108
ENDBRANCH  65  66
ENDBRANCH  58  60
ENDBRANCH  57  58
ENDBRANCH  56  57
ENDBRANCH  55  56
ENDBRANCH  54  55
ENDBRANCH  53  54
ENDBRANCH  52  53
ENDBRANCH  51  52
ENDBRANCH   1  51
TORSDOF 30
ENDMDL
