MODEL 1
REMARK VINA RESULT:     -10.4      0.000      0.000
REMARK SMILES CC(=O)Nc1c(C)nn([C@H](C)C(=O)OCCOCCOCCOC(=O)c2ccc(-c3c4nc(c(-c5c(F)cccc5F)c5ccc([nH]5)c(-c5c(F)cccc5F)c5nc(c(-c6c(F)cccc6F)c6ccc3[nH]6)C=C5)C=C4)cc2)c1C
REMARK SMILES IDX 18 1 17 2 16 3 15 4 14 5 12 6 13 7 10 8 11 9 9 10 5 11 6 12
REMARK SMILES IDX 80 13 7 14 8 15 81 16 4 17 1 18 2 19 3 20 19 22 20 23 21 24
REMARK SMILES IDX 22 25 23 26 24 27 25 28 26 29 27 30 79 31 28 32 78 33 29 34
REMARK SMILES IDX 30 35 31 36 72 37 32 38 77 39 71 40 73 41 33 42 76 43 70 44
REMARK SMILES IDX 69 45 34 47 60 48 43 49 59 50 44 51 47 52 58 53 74 54 45 55
REMARK SMILES IDX 46 56 57 58 75 59 48 60 35 61 36 62 41 63 37 64 38 65 40 66
REMARK SMILES IDX 42 67 39 68 61 69 62 70 67 71 63 72 64 73 66 74 68 75 65 76
REMARK SMILES IDX 49 77 50 78 55 79 51 80 52 81 54 82 56 83 53 84
REMARK H PARENT 4 21 73 46 47 57
REMARK Flexibility Score: inf
ROOT
ATOM      1  C   UNL A   1      38.745  22.803  26.474  1.00  0.00     0.188 C 
ENDROOT
BRANCH   1   2
ATOM      2  O   UNL A   1      37.453  22.659  25.912  1.00  0.00    -0.376 OA
BRANCH   2   3
ATOM      3  C   UNL A   1      37.321  22.636  24.497  1.00  0.00     0.202 C 
BRANCH   3   4
ATOM      4  C   UNL A   1      35.938  22.461  23.826  1.00  0.00     0.261 C 
BRANCH   4   5
ATOM      5  O   UNL A   1      34.932  23.473  24.071  1.00  0.00    -0.462 OA
BRANCH   5   6
ATOM      6  C   UNL A   1      33.801  23.401  23.317  1.00  0.00     0.330 C 
ATOM      7  O   UNL A   1      33.746  23.787  22.153  1.00  0.00    -0.250 OA
BRANCH   6   8
ATOM      8  C   UNL A   1      32.587  22.838  24.051  1.00  0.00     0.214 C 
ATOM      9  C   UNL A   1      31.184  23.295  23.684  1.00  0.00     0.046 C 
BRANCH   8  10
ATOM     10  N   UNL A   1      32.710  21.392  24.111  1.00  0.00    -0.253 N 
ATOM     11  C   UNL A   1      32.633  19.302  24.730  1.00  0.00     0.085 A 
ATOM     12  C   UNL A   1      32.457  19.448  23.329  1.00  0.00     0.083 A 
ATOM     13  C   UNL A   1      32.967  20.567  25.181  1.00  0.00     0.060 A 
ATOM     14  C   UNL A   1      32.137  18.448  22.288  1.00  0.00     0.071 C 
ATOM     15  N   UNL A   1      32.542  20.725  22.960  1.00  0.00    -0.175 NA
ATOM     16  C   UNL A   1      33.571  21.032  26.459  1.00  0.00     0.069 C 
BRANCH  11  17
ATOM     17  N   UNL A   1      32.607  18.129  25.453  1.00  0.00    -0.323 N 
ATOM     18  C   UNL A   1      34.721  17.143  24.588  1.00  0.00     0.114 C 
ATOM     19  C   UNL A   1      33.398  17.023  25.309  1.00  0.00     0.221 C 
ATOM     20  O   UNL A   1      33.068  15.964  25.846  1.00  0.00    -0.275 OA
ATOM     21  H   UNL A   1      31.930  18.080  26.167  1.00  0.00     0.170 HD
ENDBRANCH  11  17
ENDBRANCH   8  10
ENDBRANCH   6   8
ENDBRANCH   5   6
ENDBRANCH   4   5
ENDBRANCH   3   4
ENDBRANCH   2   3
ENDBRANCH   1   2
BRANCH   1  22
ATOM     22  C   UNL A   1      39.786  21.688  26.280  1.00  0.00     0.188 C 
BRANCH  22  23
ATOM     23  O   UNL A   1      40.400  21.201  27.450  1.00  0.00    -0.376 OA
BRANCH  23  24
ATOM     24  C   UNL A   1      41.707  20.649  27.473  1.00  0.00     0.202 C 
BRANCH  24  25
ATOM     25  C   UNL A   1      42.159  19.554  26.508  1.00  0.00     0.261 C 
BRANCH  25  26
ATOM     26  O   UNL A   1      42.686  20.022  25.287  1.00  0.00    -0.460 OA
BRANCH  26  27
ATOM     27  C   UNL A   1      44.024  20.057  25.224  1.00  0.00     0.338 C 
ATOM     28  O   UNL A   1      44.796  19.093  25.199  1.00  0.00    -0.246 OA
BRANCH  27  29
ATOM     29  C   UNL A   1      44.430  21.454  25.129  1.00  0.00     0.060 A 
ATOM     30  C   UNL A   1      45.511  21.856  25.913  1.00  0.00     0.016 A 
ATOM     31  C   UNL A   1      43.553  22.365  24.520  1.00  0.00     0.016 A 
ATOM     32  C   UNL A   1      45.507  23.148  26.367  1.00  0.00     0.010 A 
ATOM     33  C   UNL A   1      43.534  23.646  24.993  1.00  0.00     0.010 A 
ATOM     34  C   UNL A   1      44.432  23.965  26.004  1.00  0.00    -0.014 A 
BRANCH  34  35
ATOM     35  C   UNL A   1      44.219  25.159  26.775  1.00  0.00     0.031 A 
ATOM     36  C   UNL A   1      45.290  26.149  26.618  1.00  0.00     0.074 A 
ATOM     37  C   UNL A   1      43.113  25.323  27.521  1.00  0.00     0.049 A 
ATOM     38  N   UNL A   1      46.191  26.460  27.487  1.00  0.00    -0.248 NA
ATOM     39  C   UNL A   1      45.499  26.722  25.282  1.00  0.00     0.031 C 
ATOM     40  C   UNL A   1      41.884  24.526  27.537  1.00  0.00     0.029 A 
ATOM     41  N   UNL A   1      42.835  26.331  28.383  1.00  0.00    -0.354 N 
ATOM     42  C   UNL A   1      46.967  27.430  26.873  1.00  0.00     0.074 A 
ATOM     43  C   UNL A   1      46.627  27.406  25.474  1.00  0.00     0.031 C 
ATOM     44  C   UNL A   1      40.919  25.217  28.189  1.00  0.00     0.029 A 
ATOM     45  C   UNL A   1      41.500  26.431  28.738  1.00  0.00     0.049 A 
ATOM     46  H   UNL A   1      43.525  26.942  28.729  1.00  0.00     0.167 HD
ATOM     47  C   UNL A   1      47.638  28.352  27.611  1.00  0.00     0.037 A 
ATOM     48  C   UNL A   1      40.935  27.497  29.357  1.00  0.00     0.037 A 
ATOM     49  C   UNL A   1      47.751  27.943  28.989  1.00  0.00     0.049 A 
ATOM     50  C   UNL A   1      42.036  28.274  29.994  1.00  0.00     0.074 A 
ATOM     51  C   UNL A   1      48.314  26.854  29.630  1.00  0.00     0.029 A 
ATOM     52  N   UNL A   1      46.895  28.514  29.899  1.00  0.00    -0.354 N 
ATOM     53  N   UNL A   1      42.714  27.855  31.027  1.00  0.00    -0.248 NA
ATOM     54  C   UNL A   1      42.699  29.297  29.193  1.00  0.00     0.031 C 
ATOM     55  C   UNL A   1      47.426  26.555  30.703  1.00  0.00     0.029 A 
ATOM     56  C   UNL A   1      46.405  27.506  30.690  1.00  0.00     0.049 A 
ATOM     57  H   UNL A   1      46.674  29.470  29.971  1.00  0.00     0.167 HD
ATOM     58  C   UNL A   1      44.026  28.225  30.766  1.00  0.00     0.074 A 
ATOM     59  C   UNL A   1      43.943  29.184  29.669  1.00  0.00     0.031 C 
ATOM     60  C   UNL A   1      45.076  27.502  31.257  1.00  0.00     0.037 A 
BRANCH  47  61
ATOM     61  C   UNL A   1      47.850  29.770  27.167  1.00  0.00     0.057 A 
ATOM     62  C   UNL A   1      49.138  30.322  27.246  1.00  0.00     0.134 A 
ATOM     63  C   UNL A   1      46.809  30.694  26.938  1.00  0.00     0.134 A 
ATOM     64  F   UNL A   1      50.206  29.545  27.481  1.00  0.00    -0.206 F 
ATOM     65  C   UNL A   1      49.364  31.700  27.170  1.00  0.00     0.040 A 
ATOM     66  C   UNL A   1      47.031  32.064  26.803  1.00  0.00     0.040 A 
ATOM     67  F   UNL A   1      45.518  30.341  26.938  1.00  0.00    -0.206 F 
ATOM     68  C   UNL A   1      48.308  32.576  26.952  1.00  0.00     0.006 A 
ENDBRANCH  47  61
BRANCH  48  69
ATOM     69  C   UNL A   1      39.577  28.054  29.170  1.00  0.00     0.057 A 
ATOM     70  C   UNL A   1      38.669  28.113  30.237  1.00  0.00     0.134 A 
ATOM     71  C   UNL A   1      39.225  28.788  28.022  1.00  0.00     0.134 A 
ATOM     72  F   UNL A   1      38.930  27.481  31.389  1.00  0.00    -0.206 F 
ATOM     73  C   UNL A   1      37.495  28.879  30.176  1.00  0.00     0.040 A 
ATOM     74  C   UNL A   1      38.053  29.547  27.945  1.00  0.00     0.040 A 
ATOM     75  F   UNL A   1      40.049  28.867  26.967  1.00  0.00    -0.206 F 
ATOM     76  C   UNL A   1      37.191  29.608  29.031  1.00  0.00     0.006 A 
ENDBRANCH  48  69
BRANCH  60  77
ATOM     77  C   UNL A   1      44.784  26.443  32.285  1.00  0.00     0.057 A 
ATOM     78  C   UNL A   1      44.512  25.102  31.973  1.00  0.00     0.134 A 
ATOM     79  C   UNL A   1      44.937  26.758  33.639  1.00  0.00     0.134 A 
ATOM     80  F   UNL A   1      44.454  24.682  30.703  1.00  0.00    -0.206 F 
ATOM     81  C   UNL A   1      44.355  24.131  32.967  1.00  0.00     0.040 A 
ATOM     82  C   UNL A   1      44.819  25.791  34.639  1.00  0.00     0.040 A 
ATOM     83  F   UNL A   1      45.259  28.008  34.010  1.00  0.00    -0.206 F 
ATOM     84  C   UNL A   1      44.515  24.474  34.305  1.00  0.00     0.006 A 
ENDBRANCH  60  77
ENDBRANCH  34  35
ENDBRANCH  27  29
ENDBRANCH  26  27
ENDBRANCH  25  26
ENDBRANCH  24  25
ENDBRANCH  23  24
ENDBRANCH  22  23
ENDBRANCH   1  22
TORSDOF 19
ENDMDL
MODEL 2
REMARK VINA RESULT:     -10.4      1.733      3.192
REMARK SMILES CC(=O)Nc1c(C)nn([C@H](C)C(=O)OCCOCCOCCOC(=O)c2ccc(-c3c4nc(c(-c5c(F)cccc5F)c5ccc([nH]5)c(-c5c(F)cccc5F)c5nc(c(-c6c(F)cccc6F)c6ccc3[nH]6)C=C5)C=C4)cc2)c1C
REMARK SMILES IDX 18 1 17 2 16 3 15 4 14 5 12 6 13 7 10 8 11 9 9 10 5 11 6 12
REMARK SMILES IDX 80 13 7 14 8 15 81 16 4 17 1 18 2 19 3 20 19 22 20 23 21 24
REMARK SMILES IDX 22 25 23 26 24 27 25 28 26 29 27 30 79 31 28 32 78 33 29 34
REMARK SMILES IDX 30 35 31 36 72 37 32 38 77 39 71 40 73 41 33 42 76 43 70 44
REMARK SMILES IDX 69 45 34 47 60 48 43 49 59 50 44 51 47 52 58 53 74 54 45 55
REMARK SMILES IDX 46 56 57 58 75 59 48 60 35 61 36 62 41 63 37 64 38 65 40 66
REMARK SMILES IDX 42 67 39 68 61 69 62 70 67 71 63 72 64 73 66 74 68 75 65 76
REMARK SMILES IDX 49 77 50 78 55 79 51 80 52 81 54 82 56 83 53 84
REMARK H PARENT 4 21 73 46 47 57
REMARK Flexibility Score: inf
ROOT
ATOM      1  C   UNL A   1      38.780  22.302  26.179  1.00  0.00     0.188 C 
ENDROOT
BRANCH   1   2
ATOM      2  O   UNL A   1      37.394  22.033  26.079  1.00  0.00    -0.376 OA
BRANCH   2   3
ATOM      3  C   UNL A   1      36.943  21.123  25.085  1.00  0.00     0.202 C 
BRANCH   3   4
ATOM      4  C   UNL A   1      35.476  21.138  24.593  1.00  0.00     0.261 C 
BRANCH   4   5
ATOM      5  O   UNL A   1      34.436  20.824  25.551  1.00  0.00    -0.462 OA
BRANCH   5   6
ATOM      6  C   UNL A   1      33.298  21.567  25.479  1.00  0.00     0.330 C 
ATOM      7  O   UNL A   1      32.572  21.586  24.489  1.00  0.00    -0.250 OA
BRANCH   6   8
ATOM      8  C   UNL A   1      33.016  22.413  26.717  1.00  0.00     0.214 C 
ATOM      9  C   UNL A   1      33.922  22.323  27.935  1.00  0.00     0.046 C 
BRANCH   8  10
ATOM     10  N   UNL A   1      32.771  23.783  26.298  1.00  0.00    -0.253 N 
ATOM     11  C   UNL A   1      32.748  25.675  25.214  1.00  0.00     0.085 A 
ATOM     12  C   UNL A   1      31.513  25.420  25.865  1.00  0.00     0.083 A 
ATOM     13  C   UNL A   1      33.597  24.677  25.659  1.00  0.00     0.060 A 
ATOM     14  C   UNL A   1      30.233  26.162  25.830  1.00  0.00     0.071 C 
ATOM     15  N   UNL A   1      31.552  24.280  26.552  1.00  0.00    -0.175 NA
ATOM     16  C   UNL A   1      35.079  24.548  25.611  1.00  0.00     0.069 C 
BRANCH  11  17
ATOM     17  N   UNL A   1      33.062  26.758  24.421  1.00  0.00    -0.323 N 
ATOM     18  C   UNL A   1      33.955  28.245  26.204  1.00  0.00     0.114 C 
ATOM     19  C   UNL A   1      33.425  28.017  24.806  1.00  0.00     0.221 C 
ATOM     20  O   UNL A   1      33.405  28.936  23.984  1.00  0.00    -0.275 OA
ATOM     21  H   UNL A   1      33.018  26.604  23.448  1.00  0.00     0.170 HD
ENDBRANCH  11  17
ENDBRANCH   8  10
ENDBRANCH   6   8
ENDBRANCH   5   6
ENDBRANCH   4   5
ENDBRANCH   3   4
ENDBRANCH   2   3
ENDBRANCH   1   2
BRANCH   1  22
ATOM     22  C   UNL A   1      39.787  21.144  26.077  1.00  0.00     0.188 C 
BRANCH  22  23
ATOM     23  O   UNL A   1      40.504  20.839  27.250  1.00  0.00    -0.376 OA
BRANCH  23  24
ATOM     24  C   UNL A   1      41.819  20.307  27.243  1.00  0.00     0.202 C 
BRANCH  24  25
ATOM     25  C   UNL A   1      42.246  19.169  26.316  1.00  0.00     0.261 C 
BRANCH  25  26
ATOM     26  O   UNL A   1      42.748  19.582  25.066  1.00  0.00    -0.460 OA
BRANCH  26  27
ATOM     27  C   UNL A   1      44.082  19.549  24.951  1.00  0.00     0.338 C 
ATOM     28  O   UNL A   1      44.800  18.547  24.861  1.00  0.00    -0.246 OA
BRANCH  27  29
ATOM     29  C   UNL A   1      44.560  20.926  24.892  1.00  0.00     0.060 A 
ATOM     30  C   UNL A   1      45.633  21.261  25.716  1.00  0.00     0.016 A 
ATOM     31  C   UNL A   1      43.750  21.888  24.270  1.00  0.00     0.016 A 
ATOM     32  C   UNL A   1      45.679  22.545  26.191  1.00  0.00     0.010 A 
ATOM     33  C   UNL A   1      43.779  23.161  24.763  1.00  0.00     0.010 A 
ATOM     34  C   UNL A   1      44.658  23.420  25.807  1.00  0.00    -0.014 A 
BRANCH  34  35
ATOM     35  C   UNL A   1      44.479  24.612  26.591  1.00  0.00     0.031 A 
ATOM     36  C   UNL A   1      45.614  25.537  26.505  1.00  0.00     0.074 A 
ATOM     37  C   UNL A   1      43.350  24.830  27.286  1.00  0.00     0.049 A 
ATOM     38  N   UNL A   1      46.488  25.778  27.422  1.00  0.00    -0.248 NA
ATOM     39  C   UNL A   1      45.923  26.119  25.192  1.00  0.00     0.031 C 
ATOM     40  C   UNL A   1      42.076  24.109  27.227  1.00  0.00     0.029 A 
ATOM     41  N   UNL A   1      43.090  25.838  28.153  1.00  0.00    -0.354 N 
ATOM     42  C   UNL A   1      47.351  26.709  26.865  1.00  0.00     0.074 A 
ATOM     43  C   UNL A   1      47.079  26.729  25.451  1.00  0.00     0.031 C 
ATOM     44  C   UNL A   1      41.123  24.847  27.845  1.00  0.00     0.029 A 
ATOM     45  C   UNL A   1      41.747  26.013  28.445  1.00  0.00     0.049 A 
ATOM     46  H   UNL A   1      43.798  26.400  28.543  1.00  0.00     0.167 HD
ATOM     47  C   UNL A   1      48.038  27.576  27.653  1.00  0.00     0.037 A 
ATOM     48  C   UNL A   1      41.218  27.102  29.057  1.00  0.00     0.037 A 
ATOM     49  C   UNL A   1      48.058  27.138  29.026  1.00  0.00     0.049 A 
ATOM     50  C   UNL A   1      42.331  27.800  29.761  1.00  0.00     0.074 A 
ATOM     51  C   UNL A   1      48.523  26.007  29.672  1.00  0.00     0.029 A 
ATOM     52  N   UNL A   1      47.194  27.745  29.905  1.00  0.00    -0.354 N 
ATOM     53  N   UNL A   1      42.931  27.323  30.817  1.00  0.00    -0.248 NA
ATOM     54  C   UNL A   1      43.092  28.793  29.013  1.00  0.00     0.031 C 
ATOM     55  C   UNL A   1      47.567  25.744  30.695  1.00  0.00     0.029 A 
ATOM     56  C   UNL A   1      46.606  26.756  30.652  1.00  0.00     0.049 A 
ATOM     57  H   UNL A   1      47.028  28.711  29.985  1.00  0.00     0.167 HD
ATOM     58  C   UNL A   1      44.274  27.617  30.627  1.00  0.00     0.074 A 
ATOM     59  C   UNL A   1      44.302  28.598  29.546  1.00  0.00     0.031 C 
ATOM     60  C   UNL A   1      45.253  26.823  31.154  1.00  0.00     0.037 A 
BRANCH  47  61
ATOM     61  C   UNL A   1      48.356  28.986  27.247  1.00  0.00     0.057 A 
ATOM     62  C   UNL A   1      49.682  29.437  27.338  1.00  0.00     0.134 A 
ATOM     63  C   UNL A   1      47.388  29.992  27.046  1.00  0.00     0.134 A 
ATOM     64  F   UNL A   1      50.689  28.576  27.549  1.00  0.00    -0.206 F 
ATOM     65  C   UNL A   1      50.011  30.796  27.300  1.00  0.00     0.040 A 
ATOM     66  C   UNL A   1      47.712  31.345  26.948  1.00  0.00     0.040 A 
ATOM     67  F   UNL A   1      46.074  29.738  27.040  1.00  0.00    -0.206 F 
ATOM     68  C   UNL A   1      49.024  31.755  27.108  1.00  0.00     0.006 A 
ENDBRANCH  47  61
BRANCH  48  69
ATOM     69  C   UNL A   1      39.907  27.744  28.816  1.00  0.00     0.057 A 
ATOM     70  C   UNL A   1      38.937  27.805  29.827  1.00  0.00     0.134 A 
ATOM     71  C   UNL A   1      39.669  28.548  27.686  1.00  0.00     0.134 A 
ATOM     72  F   UNL A   1      39.090  27.105  30.960  1.00  0.00    -0.206 F 
ATOM     73  C   UNL A   1      37.813  28.637  29.733  1.00  0.00     0.040 A 
ATOM     74  C   UNL A   1      38.547  29.376  27.576  1.00  0.00     0.040 A 
ATOM     75  F   UNL A   1      40.561  28.630  26.688  1.00  0.00    -0.206 F 
ATOM     76  C   UNL A   1      37.621  29.435  28.609  1.00  0.00     0.006 A 
ENDBRANCH  48  69
BRANCH  60  77
ATOM     77  C   UNL A   1      44.848  25.767  32.145  1.00  0.00     0.057 A 
ATOM     78  C   UNL A   1      44.471  24.463  31.791  1.00  0.00     0.134 A 
ATOM     79  C   UNL A   1      44.995  26.033  33.510  1.00  0.00     0.134 A 
ATOM     80  F   UNL A   1      44.408  24.082  30.508  1.00  0.00    -0.206 F 
ATOM     81  C   UNL A   1      44.209  23.483  32.754  1.00  0.00     0.040 A 
ATOM     82  C   UNL A   1      44.771  25.054  34.481  1.00  0.00     0.040 A 
ATOM     83  F   UNL A   1      45.412  27.241  33.922  1.00  0.00    -0.206 F 
ATOM     84  C   UNL A   1      44.365  23.777  34.104  1.00  0.00     0.006 A 
ENDBRANCH  60  77
ENDBRANCH  34  35
ENDBRANCH  27  29
ENDBRANCH  26  27
ENDBRANCH  25  26
ENDBRANCH  24  25
ENDBRANCH  23  24
ENDBRANCH  22  23
ENDBRANCH   1  22
TORSDOF 19
ENDMDL
MODEL 3
REMARK VINA RESULT:     -10.2      1.905      3.511
REMARK SMILES CC(=O)Nc1c(C)nn([C@H](C)C(=O)OCCOCCOCCOC(=O)c2ccc(-c3c4nc(c(-c5c(F)cccc5F)c5ccc([nH]5)c(-c5c(F)cccc5F)c5nc(c(-c6c(F)cccc6F)c6ccc3[nH]6)C=C5)C=C4)cc2)c1C
REMARK SMILES IDX 18 1 17 2 16 3 15 4 14 5 12 6 13 7 10 8 11 9 9 10 5 11 6 12
REMARK SMILES IDX 80 13 7 14 8 15 81 16 4 17 1 18 2 19 3 20 19 22 20 23 21 24
REMARK SMILES IDX 22 25 23 26 24 27 25 28 26 29 27 30 79 31 28 32 78 33 29 34
REMARK SMILES IDX 30 35 31 36 72 37 32 38 77 39 71 40 73 41 33 42 76 43 70 44
REMARK SMILES IDX 69 45 34 47 60 48 43 49 59 50 44 51 47 52 58 53 74 54 45 55
REMARK SMILES IDX 46 56 57 58 75 59 48 60 35 61 36 62 41 63 37 64 38 65 40 66
REMARK SMILES IDX 42 67 39 68 61 69 62 70 67 71 63 72 64 73 66 74 68 75 65 76
REMARK SMILES IDX 49 77 50 78 55 79 51 80 52 81 54 82 56 83 53 84
REMARK H PARENT 4 21 73 46 47 57
REMARK Flexibility Score: inf
ROOT
ATOM      1  C   UNL A   1      39.867  22.002  26.266  1.00  0.00     0.188 C 
ENDROOT
BRANCH   1   2
ATOM      2  O   UNL A   1      38.553  22.058  25.741  1.00  0.00    -0.376 OA
BRANCH   2   3
ATOM      3  C   UNL A   1      37.717  23.149  26.103  1.00  0.00     0.202 C 
BRANCH   3   4
ATOM      4  C   UNL A   1      36.227  23.187  25.689  1.00  0.00     0.261 C 
BRANCH   4   5
ATOM      5  O   UNL A   1      35.796  22.299  24.629  1.00  0.00    -0.462 OA
BRANCH   5   6
ATOM      6  C   UNL A   1      35.446  22.884  23.451  1.00  0.00     0.330 C 
ATOM      7  O   UNL A   1      36.268  23.261  22.620  1.00  0.00    -0.250 OA
BRANCH   6   8
ATOM      8  C   UNL A   1      33.945  23.075  23.260  1.00  0.00     0.214 C 
ATOM      9  C   UNL A   1      32.954  22.297  24.112  1.00  0.00     0.046 C 
BRANCH   8  10
ATOM     10  N   UNL A   1      33.657  24.499  23.222  1.00  0.00    -0.253 N 
ATOM     11  C   UNL A   1      32.735  26.447  22.886  1.00  0.00     0.085 A 
ATOM     12  C   UNL A   1      33.447  26.400  24.114  1.00  0.00     0.083 A 
ATOM     13  C   UNL A   1      33.038  25.254  22.254  1.00  0.00     0.060 A 
ATOM     14  C   UNL A   1      33.561  27.396  25.201  1.00  0.00     0.071 C 
ATOM     15  N   UNL A   1      34.034  25.217  24.290  1.00  0.00    -0.175 NA
ATOM     16  C   UNL A   1      32.878  24.817  20.840  1.00  0.00     0.069 C 
BRANCH  11  17
ATOM     17  N   UNL A   1      32.014  27.508  22.385  1.00  0.00    -0.323 N 
ATOM     18  C   UNL A   1      29.949  27.193  23.737  1.00  0.00     0.114 C 
ATOM     19  C   UNL A   1      30.691  27.800  22.568  1.00  0.00     0.221 C 
ATOM     20  O   UNL A   1      30.142  28.624  21.834  1.00  0.00    -0.275 OA
ATOM     21  H   UNL A   1      32.517  28.140  21.820  1.00  0.00     0.170 HD
ENDBRANCH  11  17
ENDBRANCH   8  10
ENDBRANCH   6   8
ENDBRANCH   5   6
ENDBRANCH   4   5
ENDBRANCH   3   4
ENDBRANCH   2   3
ENDBRANCH   1   2
BRANCH   1  22
ATOM     22  C   UNL A   1      40.500  20.638  26.583  1.00  0.00     0.188 C 
BRANCH  22  23
ATOM     23  O   UNL A   1      41.578  20.247  25.764  1.00  0.00    -0.376 OA
BRANCH  23  24
ATOM     24  C   UNL A   1      42.400  19.124  26.040  1.00  0.00     0.202 C 
BRANCH  24  25
ATOM     25  C   UNL A   1      43.729  18.877  25.327  1.00  0.00     0.261 C 
BRANCH  25  26
ATOM     26  O   UNL A   1      44.049  19.821  24.330  1.00  0.00    -0.460 OA
BRANCH  26  27
ATOM     27  C   UNL A   1      45.314  20.261  24.352  1.00  0.00     0.338 C 
ATOM     28  O   UNL A   1      46.343  19.579  24.411  1.00  0.00    -0.246 OA
BRANCH  27  29
ATOM     29  C   UNL A   1      45.283  21.715  24.235  1.00  0.00     0.060 A 
ATOM     30  C   UNL A   1      46.424  22.409  24.633  1.00  0.00     0.016 A 
ATOM     31  C   UNL A   1      44.043  22.342  24.033  1.00  0.00     0.016 A 
ATOM     32  C   UNL A   1      46.243  23.659  25.161  1.00  0.00     0.010 A 
ATOM     33  C   UNL A   1      43.858  23.578  24.583  1.00  0.00     0.010 A 
ATOM     34  C   UNL A   1      44.935  24.147  25.250  1.00  0.00    -0.014 A 
BRANCH  34  35
ATOM     35  C   UNL A   1      44.701  25.252  26.139  1.00  0.00     0.031 A 
ATOM     36  C   UNL A   1      45.780  26.247  26.124  1.00  0.00     0.074 A 
ATOM     37  C   UNL A   1      43.572  25.341  26.863  1.00  0.00     0.049 A 
ATOM     38  N   UNL A   1      46.653  26.456  27.048  1.00  0.00    -0.248 NA
ATOM     39  C   UNL A   1      46.033  26.959  24.864  1.00  0.00     0.031 C 
ATOM     40  C   UNL A   1      42.341  24.556  26.754  1.00  0.00     0.029 A 
ATOM     41  N   UNL A   1      43.270  26.252  27.819  1.00  0.00    -0.354 N 
ATOM     42  C   UNL A   1      47.452  27.482  26.567  1.00  0.00     0.074 A 
ATOM     43  C   UNL A   1      47.156  27.611  25.164  1.00  0.00     0.031 C 
ATOM     44  C   UNL A   1      41.358  25.179  27.446  1.00  0.00     0.029 A 
ATOM     45  C   UNL A   1      41.924  26.322  28.141  1.00  0.00     0.049 A 
ATOM     46  H   UNL A   1      43.950  26.818  28.250  1.00  0.00     0.167 HD
ATOM     47  C   UNL A   1      48.101  28.314  27.422  1.00  0.00     0.037 A 
ATOM     48  C   UNL A   1      41.343  27.319  28.853  1.00  0.00     0.037 A 
ATOM     49  C   UNL A   1      48.169  27.758  28.750  1.00  0.00     0.049 A 
ATOM     50  C   UNL A   1      42.425  28.016  29.604  1.00  0.00     0.074 A 
ATOM     51  C   UNL A   1      48.708  26.603  29.287  1.00  0.00     0.029 A 
ATOM     52  N   UNL A   1      47.286  28.233  29.689  1.00  0.00    -0.354 N 
ATOM     53  N   UNL A   1      43.069  27.484  30.607  1.00  0.00    -0.248 NA
ATOM     54  C   UNL A   1      43.116  29.115  28.940  1.00  0.00     0.031 C 
ATOM     55  C   UNL A   1      47.785  26.196  30.294  1.00  0.00     0.029 A 
ATOM     56  C   UNL A   1      46.767  27.149  30.351  1.00  0.00     0.049 A 
ATOM     57  H   UNL A   1      47.065  29.177  29.857  1.00  0.00     0.167 HD
ATOM     58  C   UNL A   1      44.390  27.871  30.429  1.00  0.00     0.074 A 
ATOM     59  C   UNL A   1      44.344  28.944  29.439  1.00  0.00     0.031 C 
ATOM     60  C   UNL A   1      45.421  27.093  30.872  1.00  0.00     0.037 A 
BRANCH  47  61
ATOM     61  C   UNL A   1      48.331  29.771  27.140  1.00  0.00     0.057 A 
ATOM     62  C   UNL A   1      49.630  30.290  27.261  1.00  0.00     0.134 A 
ATOM     63  C   UNL A   1      47.304  30.731  27.036  1.00  0.00     0.134 A 
ATOM     64  F   UNL A   1      50.687  29.474  27.388  1.00  0.00    -0.206 F 
ATOM     65  C   UNL A   1      49.878  31.663  27.340  1.00  0.00     0.040 A 
ATOM     66  C   UNL A   1      47.547  32.104  27.055  1.00  0.00     0.040 A 
ATOM     67  F   UNL A   1      46.007  30.401  27.016  1.00  0.00    -0.206 F 
ATOM     68  C   UNL A   1      48.835  32.575  27.242  1.00  0.00     0.006 A 
ENDBRANCH  47  61
BRANCH  48  69
ATOM     69  C   UNL A   1      39.994  27.902  28.684  1.00  0.00     0.057 A 
ATOM     70  C   UNL A   1      39.066  27.888  29.736  1.00  0.00     0.134 A 
ATOM     71  C   UNL A   1      39.669  28.724  27.590  1.00  0.00     0.134 A 
ATOM     72  F   UNL A   1      39.300  27.167  30.841  1.00  0.00    -0.206 F 
ATOM     73  C   UNL A   1      37.900  28.667  29.713  1.00  0.00     0.040 A 
ATOM     74  C   UNL A   1      38.505  29.499  27.549  1.00  0.00     0.040 A 
ATOM     75  F   UNL A   1      40.513  28.876  26.559  1.00  0.00    -0.206 F 
ATOM     76  C   UNL A   1      37.623  29.484  28.621  1.00  0.00     0.006 A 
ENDBRANCH  48  69
BRANCH  60  77
ATOM     77  C   UNL A   1      45.093  25.931  31.770  1.00  0.00     0.057 A 
ATOM     78  C   UNL A   1      44.988  26.024  33.166  1.00  0.00     0.134 A 
ATOM     79  C   UNL A   1      44.715  24.717  31.187  1.00  0.00     0.134 A 
ATOM     80  F   UNL A   1      45.223  27.177  33.805  1.00  0.00    -0.206 F 
ATOM     81  C   UNL A   1      44.572  24.941  33.948  1.00  0.00     0.040 A 
ATOM     82  C   UNL A   1      44.264  23.640  31.954  1.00  0.00     0.040 A 
ATOM     83  F   UNL A   1      44.730  24.574  29.852  1.00  0.00    -0.206 F 
ATOM     84  C   UNL A   1      44.202  23.747  33.341  1.00  0.00     0.006 A 
ENDBRANCH  60  77
ENDBRANCH  34  35
ENDBRANCH  27  29
ENDBRANCH  26  27
ENDBRANCH  25  26
ENDBRANCH  24  25
ENDBRANCH  23  24
ENDBRANCH  22  23
ENDBRANCH   1  22
TORSDOF 19
ENDMDL
