MODEL 1
REMARK VINA RESULT:     -10.5      0.000      0.000
REMARK SMILES CS(=O)(=O)c1ccc(-n2nnc(C(=O)OCCOCCOCCOC(=O)c3ccc(-c4c5nc(c(-c6c(F)cccc6F)c6ccc([nH]6)c(-c6c(F)cccc6F)c6nc(c(-c7c(F)cccc7F)c7ccc4[nH]7)C=C6)C=C5)cc3)c2-c2cc(F)cc(F)c2)cc1
REMARK SMILES IDX 19 1 18 2 17 3 16 4 15 5 13 6 14 7 12 8 9 9 10 10 81 11
REMARK SMILES IDX 11 12 8 13 5 14 6 15 91 16 7 17 90 18 2 19 1 20 3 21 4 22
REMARK SMILES IDX 82 23 83 24 89 25 84 26 87 27 85 28 86 29 88 30 20 31 21 32
REMARK SMILES IDX 22 33 23 34 24 35 25 36 26 37 27 38 28 39 80 40 29 41 79 42
REMARK SMILES IDX 30 43 31 44 32 45 73 46 33 47 78 48 72 49 74 50 34 51 77 52
REMARK SMILES IDX 71 53 70 54 35 56 61 57 44 58 60 59 45 60 48 61 59 62 75 63
REMARK SMILES IDX 46 64 47 65 58 67 76 68 49 69 36 70 37 71 42 72 38 73 39 74
REMARK SMILES IDX 41 75 43 76 40 77 62 78 63 79 68 80 64 81 65 82 67 83 69 84
REMARK SMILES IDX 66 85 50 86 51 87 56 88 52 89 53 90 55 91 57 92 54 93
REMARK H PARENT 74 55 48 66
REMARK Flexibility Score: inf
ROOT
ATOM      1  C   UNL A   1      32.607  36.373  32.196  1.00  0.00     0.188 C 
ENDROOT
BRANCH   1   2
ATOM      2  O   UNL A   1      32.148  36.270  30.852  1.00  0.00    -0.376 OA
BRANCH   2   3
ATOM      3  C   UNL A   1      33.028  36.596  29.780  1.00  0.00     0.202 C 
BRANCH   3   4
ATOM      4  C   UNL A   1      33.888  35.493  29.138  1.00  0.00     0.261 C 
BRANCH   4   5
ATOM      5  O   UNL A   1      33.666  34.181  29.680  1.00  0.00    -0.458 OA
BRANCH   5   6
ATOM      6  C   UNL A   1      34.578  33.204  29.366  1.00  0.00     0.361 C 
ATOM      7  O   UNL A   1      35.675  33.115  29.851  1.00  0.00    -0.244 OA
BRANCH   6   8
ATOM      8  C   UNL A   1      34.020  32.216  28.435  1.00  0.00     0.198 A 
ATOM      9  N   UNL A   1      33.517  30.498  27.200  1.00  0.00    -0.212 N 
ATOM     10  N   UNL A   1      32.737  31.519  26.793  1.00  0.00    -0.061 NA
ATOM     11  C   UNL A   1      34.483  30.953  28.088  1.00  0.00     0.110 A 
ATOM     12  N   UNL A   1      32.948  32.531  27.624  1.00  0.00    -0.122 NA
BRANCH   9  13
ATOM     13  C   UNL A   1      33.206  29.161  26.873  1.00  0.00     0.067 A 
ATOM     14  C   UNL A   1      32.545  26.521  26.317  1.00  0.00     0.067 A 
ATOM     15  C   UNL A   1      33.779  27.026  25.890  1.00  0.00     0.022 A 
ATOM     16  C   UNL A   1      31.628  27.341  26.981  1.00  0.00     0.022 A 
ATOM     17  C   UNL A   1      34.100  28.368  26.143  1.00  0.00     0.030 A 
ATOM     18  C   UNL A   1      31.965  28.655  27.277  1.00  0.00     0.030 A 
BRANCH  14  19
ATOM     19  S   UNL A   1      32.051  24.830  26.086  1.00  0.00     0.175 S 
ATOM     20  C   UNL A   1      33.509  23.850  25.920  1.00  0.00     0.163 C 
ATOM     21  O   UNL A   1      31.351  24.781  24.816  1.00  0.00    -0.224 OA
ATOM     22  O   UNL A   1      31.393  24.437  27.317  1.00  0.00    -0.224 OA
ENDBRANCH  14  19
ENDBRANCH   9  13
BRANCH  11  23
ATOM     23  C   UNL A   1      35.717  30.237  28.420  1.00  0.00     0.009 A 
ATOM     24  C   UNL A   1      35.905  29.680  29.688  1.00  0.00     0.049 A 
ATOM     25  C   UNL A   1      36.771  30.175  27.493  1.00  0.00     0.049 A 
ATOM     26  C   UNL A   1      37.133  29.114  30.025  1.00  0.00     0.126 A 
ATOM     27  C   UNL A   1      37.986  29.593  27.851  1.00  0.00     0.126 A 
ATOM     28  F   UNL A   1      37.309  28.626  31.259  1.00  0.00    -0.207 F 
ATOM     29  C   UNL A   1      38.180  29.066  29.118  1.00  0.00     0.078 A 
ATOM     30  F   UNL A   1      38.989  29.566  26.965  1.00  0.00    -0.207 F 
ENDBRANCH  11  23
ENDBRANCH   6   8
ENDBRANCH   5   6
ENDBRANCH   4   5
ENDBRANCH   3   4
ENDBRANCH   2   3
ENDBRANCH   1   2
BRANCH   1  31
ATOM     31  C   UNL A   1      33.805  37.289  32.529  1.00  0.00     0.188 C 
BRANCH  31  32
ATOM     32  O   UNL A   1      34.868  36.631  33.195  1.00  0.00    -0.376 OA
BRANCH  32  33
ATOM     33  C   UNL A   1      34.665  35.309  33.677  1.00  0.00     0.202 C 
BRANCH  33  34
ATOM     34  C   UNL A   1      35.545  34.168  33.161  1.00  0.00     0.261 C 
BRANCH  34  35
ATOM     35  O   UNL A   1      36.782  34.565  32.599  1.00  0.00    -0.460 OA
BRANCH  35  36
ATOM     36  C   UNL A   1      37.859  34.362  33.381  1.00  0.00     0.338 C 
ATOM     37  O   UNL A   1      38.367  35.151  34.158  1.00  0.00    -0.246 OA
BRANCH  36  38
ATOM     38  C   UNL A   1      38.381  33.023  33.093  1.00  0.00     0.060 A 
ATOM     39  C   UNL A   1      39.227  32.454  34.046  1.00  0.00     0.016 A 
ATOM     40  C   UNL A   1      38.273  32.523  31.787  1.00  0.00     0.016 A 
ATOM     41  C   UNL A   1      40.155  31.536  33.614  1.00  0.00     0.010 A 
ATOM     42  C   UNL A   1      39.212  31.626  31.352  1.00  0.00     0.010 A 
ATOM     43  C   UNL A   1      40.198  31.229  32.251  1.00  0.00    -0.014 A 
BRANCH  43  44
ATOM     44  C   UNL A   1      41.340  30.483  31.773  1.00  0.00     0.031 A 
ATOM     45  C   UNL A   1      42.168  31.234  30.817  1.00  0.00     0.074 A 
ATOM     46  C   UNL A   1      41.628  29.262  32.260  1.00  0.00     0.049 A 
ATOM     47  N   UNL A   1      42.362  30.979  29.568  1.00  0.00    -0.248 NA
ATOM     48  C   UNL A   1      42.730  32.516  31.271  1.00  0.00     0.031 C 
ATOM     49  C   UNL A   1      41.022  28.624  33.436  1.00  0.00     0.029 A 
ATOM     50  N   UNL A   1      42.600  28.381  31.892  1.00  0.00    -0.354 N 
ATOM     51  C   UNL A   1      43.276  31.938  29.146  1.00  0.00     0.074 A 
ATOM     52  C   UNL A   1      43.289  32.967  30.149  1.00  0.00     0.031 C 
ATOM     53  C   UNL A   1      41.787  27.578  33.815  1.00  0.00     0.029 A 
ATOM     54  C   UNL A   1      42.848  27.397  32.838  1.00  0.00     0.049 A 
ATOM     55  H   UNL A   1      43.081  28.436  31.035  1.00  0.00     0.167 HD
ATOM     56  C   UNL A   1      44.198  31.624  28.200  1.00  0.00     0.037 A 
ATOM     57  C   UNL A   1      43.894  26.539  32.857  1.00  0.00     0.037 A 
ATOM     58  C   UNL A   1      43.807  30.445  27.468  1.00  0.00     0.049 A 
ATOM     59  C   UNL A   1      44.468  26.469  31.494  1.00  0.00     0.074 A 
ATOM     60  C   UNL A   1      42.900  30.126  26.483  1.00  0.00     0.029 A 
ATOM     61  N   UNL A   1      44.222  29.272  28.040  1.00  0.00    -0.354 N 
ATOM     62  N   UNL A   1      43.851  25.945  30.471  1.00  0.00    -0.248 NA
ATOM     63  C   UNL A   1      45.633  27.285  31.162  1.00  0.00     0.031 C 
ATOM     64  C   UNL A   1      42.689  28.718  26.572  1.00  0.00     0.029 A 
ATOM     65  C   UNL A   1      43.474  28.212  27.606  1.00  0.00     0.049 A 
ATOM     66  H   UNL A   1      44.964  29.200  28.682  1.00  0.00     0.167 HD
ATOM     67  C   UNL A   1      44.277  26.694  29.392  1.00  0.00     0.074 A 
ATOM     68  C   UNL A   1      45.491  27.361  29.837  1.00  0.00     0.031 C 
ATOM     69  C   UNL A   1      43.432  26.979  28.361  1.00  0.00     0.037 A 
BRANCH  56  70
ATOM     70  C   UNL A   1      45.658  32.024  28.284  1.00  0.00     0.057 A 
ATOM     71  C   UNL A   1      46.260  32.588  27.143  1.00  0.00     0.134 A 
ATOM     72  C   UNL A   1      46.562  31.588  29.277  1.00  0.00     0.134 A 
ATOM     73  F   UNL A   1      45.513  33.043  26.126  1.00  0.00    -0.206 F 
ATOM     74  C   UNL A   1      47.648  32.624  26.964  1.00  0.00     0.040 A 
ATOM     75  C   UNL A   1      47.951  31.666  29.129  1.00  0.00     0.040 A 
ATOM     76  F   UNL A   1      46.173  30.972  30.398  1.00  0.00    -0.206 F 
ATOM     77  C   UNL A   1      48.498  32.150  27.955  1.00  0.00     0.006 A 
ENDBRANCH  56  70
BRANCH  57  78
ATOM     78  C   UNL A   1      44.572  25.961  34.036  1.00  0.00     0.057 A 
ATOM     79  C   UNL A   1      44.468  24.599  34.343  1.00  0.00     0.134 A 
ATOM     80  C   UNL A   1      45.543  26.685  34.753  1.00  0.00     0.134 A 
ATOM     81  F   UNL A   1      43.600  23.818  33.685  1.00  0.00    -0.206 F 
ATOM     82  C   UNL A   1      45.295  23.987  35.293  1.00  0.00     0.040 A 
ATOM     83  C   UNL A   1      46.366  26.090  35.712  1.00  0.00     0.040 A 
ATOM     84  F   UNL A   1      45.782  27.978  34.485  1.00  0.00    -0.206 F 
ATOM     85  C   UNL A   1      46.254  24.731  35.975  1.00  0.00     0.006 A 
ENDBRANCH  57  78
BRANCH  69  86
ATOM     86  C   UNL A   1      42.283  26.047  28.135  1.00  0.00     0.057 A 
ATOM     87  C   UNL A   1      42.387  24.807  27.493  1.00  0.00     0.134 A 
ATOM     88  C   UNL A   1      41.032  26.397  28.655  1.00  0.00     0.134 A 
ATOM     89  F   UNL A   1      43.564  24.360  27.034  1.00  0.00    -0.206 F 
ATOM     90  C   UNL A   1      41.277  23.972  27.335  1.00  0.00     0.040 A 
ATOM     91  C   UNL A   1      39.925  25.557  28.536  1.00  0.00     0.040 A 
ATOM     92  F   UNL A   1      40.875  27.552  29.321  1.00  0.00    -0.206 F 
ATOM     93  C   UNL A   1      40.042  24.344  27.863  1.00  0.00     0.006 A 
ENDBRANCH  69  86
ENDBRANCH  43  44
ENDBRANCH  36  38
ENDBRANCH  35  36
ENDBRANCH  34  35
ENDBRANCH  33  34
ENDBRANCH  32  33
ENDBRANCH  31  32
ENDBRANCH   1  31
TORSDOF 20
ENDMDL
MODEL 2
REMARK VINA RESULT:     -10.1      2.931      6.627
REMARK SMILES CS(=O)(=O)c1ccc(-n2nnc(C(=O)OCCOCCOCCOC(=O)c3ccc(-c4c5nc(c(-c6c(F)cccc6F)c6ccc([nH]6)c(-c6c(F)cccc6F)c6nc(c(-c7c(F)cccc7F)c7ccc4[nH]7)C=C6)C=C5)cc3)c2-c2cc(F)cc(F)c2)cc1
REMARK SMILES IDX 19 1 18 2 17 3 16 4 15 5 13 6 14 7 12 8 9 9 10 10 81 11
REMARK SMILES IDX 11 12 8 13 5 14 6 15 91 16 7 17 90 18 2 19 1 20 3 21 4 22
REMARK SMILES IDX 82 23 83 24 89 25 84 26 87 27 85 28 86 29 88 30 20 31 21 32
REMARK SMILES IDX 22 33 23 34 24 35 25 36 26 37 27 38 28 39 80 40 29 41 79 42
REMARK SMILES IDX 30 43 31 44 32 45 73 46 33 47 78 48 72 49 74 50 34 51 77 52
REMARK SMILES IDX 71 53 70 54 35 56 61 57 44 58 60 59 45 60 48 61 59 62 75 63
REMARK SMILES IDX 46 64 47 65 58 67 76 68 49 69 36 70 37 71 42 72 38 73 39 74
REMARK SMILES IDX 41 75 43 76 40 77 62 78 63 79 68 80 64 81 65 82 67 83 69 84
REMARK SMILES IDX 66 85 50 86 51 87 56 88 52 89 53 90 55 91 57 92 54 93
REMARK H PARENT 74 55 48 66
REMARK Flexibility Score: inf
ROOT
ATOM      1  C   UNL A   1      33.049  33.473  27.675  1.00  0.00     0.188 C 
ENDROOT
BRANCH   1   2
ATOM      2  O   UNL A   1      31.751  33.264  27.126  1.00  0.00    -0.376 OA
BRANCH   2   3
ATOM      3  C   UNL A   1      31.424  32.002  26.552  1.00  0.00     0.202 C 
BRANCH   3   4
ATOM      4  C   UNL A   1      30.606  31.947  25.249  1.00  0.00     0.261 C 
BRANCH   4   5
ATOM      5  O   UNL A   1      30.139  30.634  24.900  1.00  0.00    -0.458 OA
BRANCH   5   6
ATOM      6  C   UNL A   1      29.882  30.386  23.574  1.00  0.00     0.361 C 
ATOM      7  O   UNL A   1      29.422  31.191  22.806  1.00  0.00    -0.244 OA
BRANCH   6   8
ATOM      8  C   UNL A   1      30.329  29.047  23.173  1.00  0.00     0.198 A 
ATOM      9  N   UNL A   1      31.166  27.049  22.977  1.00  0.00    -0.212 N 
ATOM     10  N   UNL A   1      30.704  27.405  21.762  1.00  0.00    -0.061 NA
ATOM     11  C   UNL A   1      31.138  28.137  23.841  1.00  0.00     0.110 A 
ATOM     12  N   UNL A   1      30.079  28.567  21.902  1.00  0.00    -0.122 NA
BRANCH   9  13
ATOM     13  C   UNL A   1      31.436  25.701  23.294  1.00  0.00     0.067 A 
ATOM     14  C   UNL A   1      32.034  23.045  23.843  1.00  0.00     0.067 A 
ATOM     15  C   UNL A   1      30.724  23.506  24.020  1.00  0.00     0.022 A 
ATOM     16  C   UNL A   1      33.049  23.915  23.435  1.00  0.00     0.022 A 
ATOM     17  C   UNL A   1      30.428  24.856  23.774  1.00  0.00     0.030 A 
ATOM     18  C   UNL A   1      32.747  25.238  23.141  1.00  0.00     0.030 A 
BRANCH  14  19
ATOM     19  S   UNL A   1      32.513  21.352  24.088  1.00  0.00     0.175 S 
ATOM     20  C   UNL A   1      34.235  21.320  24.474  1.00  0.00     0.163 C 
ATOM     21  O   UNL A   1      32.347  20.693  22.806  1.00  0.00    -0.224 OA
ATOM     22  O   UNL A   1      31.789  20.899  25.260  1.00  0.00    -0.224 OA
ENDBRANCH  14  19
ENDBRANCH   9  13
BRANCH  11  23
ATOM     23  C   UNL A   1      31.909  28.239  25.082  1.00  0.00     0.009 A 
ATOM     24  C   UNL A   1      31.327  27.936  26.316  1.00  0.00     0.049 A 
ATOM     25  C   UNL A   1      33.226  28.728  25.060  1.00  0.00     0.049 A 
ATOM     26  C   UNL A   1      32.036  28.160  27.495  1.00  0.00     0.126 A 
ATOM     27  C   UNL A   1      33.918  28.932  26.252  1.00  0.00     0.126 A 
ATOM     28  F   UNL A   1      31.444  27.907  28.669  1.00  0.00    -0.207 F 
ATOM     29  C   UNL A   1      33.329  28.659  27.476  1.00  0.00     0.078 A 
ATOM     30  F   UNL A   1      35.163  29.425  26.214  1.00  0.00    -0.207 F 
ENDBRANCH  11  23
ENDBRANCH   6   8
ENDBRANCH   5   6
ENDBRANCH   4   5
ENDBRANCH   3   4
ENDBRANCH   2   3
ENDBRANCH   1   2
BRANCH   1  31
ATOM     31  C   UNL A   1      33.246  34.505  28.807  1.00  0.00     0.188 C 
BRANCH  31  32
ATOM     32  O   UNL A   1      34.213  34.128  29.771  1.00  0.00    -0.376 OA
BRANCH  32  33
ATOM     33  C   UNL A   1      35.271  33.262  29.382  1.00  0.00     0.202 C 
BRANCH  33  34
ATOM     34  C   UNL A   1      36.237  32.719  30.438  1.00  0.00     0.261 C 
BRANCH  34  35
ATOM     35  O   UNL A   1      37.095  31.684  29.999  1.00  0.00    -0.460 OA
BRANCH  35  36
ATOM     36  C   UNL A   1      36.726  30.441  30.358  1.00  0.00     0.338 C 
ATOM     37  O   UNL A   1      35.861  30.129  31.158  1.00  0.00    -0.246 OA
BRANCH  36  38
ATOM     38  C   UNL A   1      37.600  29.491  29.665  1.00  0.00     0.060 A 
ATOM     39  C   UNL A   1      38.044  28.387  30.394  1.00  0.00     0.016 A 
ATOM     40  C   UNL A   1      38.188  29.877  28.451  1.00  0.00     0.016 A 
ATOM     41  C   UNL A   1      39.242  27.819  30.034  1.00  0.00     0.010 A 
ATOM     42  C   UNL A   1      39.394  29.326  28.105  1.00  0.00     0.010 A 
ATOM     43  C   UNL A   1      39.945  28.378  28.963  1.00  0.00    -0.014 A 
BRANCH  43  44
ATOM     44  C   UNL A   1      41.314  27.954  28.771  1.00  0.00     0.031 A 
ATOM     45  C   UNL A   1      41.431  26.656  28.091  1.00  0.00     0.074 A 
ATOM     46  C   UNL A   1      42.344  28.751  29.110  1.00  0.00     0.049 A 
ATOM     47  N   UNL A   1      41.894  25.552  28.570  1.00  0.00    -0.248 NA
ATOM     48  C   UNL A   1      40.819  26.531  26.759  1.00  0.00     0.031 C 
ATOM     49  C   UNL A   1      42.267  30.170  29.483  1.00  0.00     0.029 A 
ATOM     50  N   UNL A   1      43.685  28.509  29.079  1.00  0.00    -0.354 N 
ATOM     51  C   UNL A   1      41.855  24.657  27.506  1.00  0.00     0.074 A 
ATOM     52  C   UNL A   1      40.994  25.235  26.512  1.00  0.00     0.031 C 
ATOM     53  C   UNL A   1      43.502  30.711  29.418  1.00  0.00     0.029 A 
ATOM     54  C   UNL A   1      44.461  29.657  29.135  1.00  0.00     0.049 A 
ATOM     55  H   UNL A   1      44.067  27.603  29.022  1.00  0.00     0.167 HD
ATOM     56  C   UNL A   1      42.814  23.703  27.390  1.00  0.00     0.037 A 
ATOM     57  C   UNL A   1      45.789  29.748  28.892  1.00  0.00     0.037 A 
ATOM     58  C   UNL A   1      43.500  23.502  28.642  1.00  0.00     0.049 A 
ATOM     59  C   UNL A   1      46.384  28.398  29.033  1.00  0.00     0.074 A 
ATOM     60  C   UNL A   1      43.238  22.886  29.845  1.00  0.00     0.029 A 
ATOM     61  N   UNL A   1      44.570  24.335  28.830  1.00  0.00    -0.354 N 
ATOM     62  N   UNL A   1      46.472  27.758  30.166  1.00  0.00    -0.248 NA
ATOM     63  C   UNL A   1      46.608  27.584  27.842  1.00  0.00     0.031 C 
ATOM     64  C   UNL A   1      44.116  23.481  30.799  1.00  0.00     0.029 A 
ATOM     65  C   UNL A   1      44.893  24.441  30.155  1.00  0.00     0.049 A 
ATOM     66  H   UNL A   1      45.046  24.799  28.105  1.00  0.00     0.167 HD
ATOM     67  C   UNL A   1      46.335  26.428  29.819  1.00  0.00     0.074 A 
ATOM     68  C   UNL A   1      46.612  26.368  28.392  1.00  0.00     0.031 C 
ATOM     69  C   UNL A   1      45.680  25.556  30.637  1.00  0.00     0.037 A 
BRANCH  56  70
ATOM     70  C   UNL A   1      43.493  23.350  26.080  1.00  0.00     0.057 A 
ATOM     71  C   UNL A   1      43.561  21.993  25.711  1.00  0.00     0.134 A 
ATOM     72  C   UNL A   1      44.351  24.204  25.355  1.00  0.00     0.134 A 
ATOM     73  F   UNL A   1      42.795  21.075  26.322  1.00  0.00    -0.206 F 
ATOM     74  C   UNL A   1      44.477  21.514  24.768  1.00  0.00     0.040 A 
ATOM     75  C   UNL A   1      45.235  23.742  24.375  1.00  0.00     0.040 A 
ATOM     76  F   UNL A   1      44.466  25.512  25.612  1.00  0.00    -0.206 F 
ATOM     77  C   UNL A   1      45.328  22.389  24.105  1.00  0.00     0.006 A 
ENDBRANCH  56  70
BRANCH  57  78
ATOM     78  C   UNL A   1      46.530  30.887  28.313  1.00  0.00     0.057 A 
ATOM     79  C   UNL A   1      46.225  31.384  27.040  1.00  0.00     0.134 A 
ATOM     80  C   UNL A   1      47.393  31.677  29.096  1.00  0.00     0.134 A 
ATOM     81  F   UNL A   1      45.380  30.723  26.237  1.00  0.00    -0.206 F 
ATOM     82  C   UNL A   1      46.732  32.605  26.579  1.00  0.00     0.040 A 
ATOM     83  C   UNL A   1      47.915  32.891  28.644  1.00  0.00     0.040 A 
ATOM     84  F   UNL A   1      47.689  31.336  30.359  1.00  0.00    -0.206 F 
ATOM     85  C   UNL A   1      47.573  33.367  27.385  1.00  0.00     0.006 A 
ENDBRANCH  57  78
BRANCH  69  86
ATOM     86  C   UNL A   1      45.616  25.893  32.093  1.00  0.00     0.057 A 
ATOM     87  C   UNL A   1      46.662  25.678  33.000  1.00  0.00     0.134 A 
ATOM     88  C   UNL A   1      44.467  26.526  32.579  1.00  0.00     0.134 A 
ATOM     89  F   UNL A   1      47.827  25.149  32.602  1.00  0.00    -0.206 F 
ATOM     90  C   UNL A   1      46.546  26.039  34.345  1.00  0.00     0.040 A 
ATOM     91  C   UNL A   1      44.353  26.923  33.911  1.00  0.00     0.040 A 
ATOM     92  F   UNL A   1      43.445  26.801  31.752  1.00  0.00    -0.206 F 
ATOM     93  C   UNL A   1      45.391  26.668  34.803  1.00  0.00     0.006 A 
ENDBRANCH  69  86
ENDBRANCH  43  44
ENDBRANCH  36  38
ENDBRANCH  35  36
ENDBRANCH  34  35
ENDBRANCH  33  34
ENDBRANCH  32  33
ENDBRANCH  31  32
ENDBRANCH   1  31
TORSDOF 20
ENDMDL
MODEL 3
REMARK VINA RESULT:      -9.6      5.354     11.642
REMARK SMILES CS(=O)(=O)c1ccc(-n2nnc(C(=O)OCCOCCOCCOC(=O)c3ccc(-c4c5nc(c(-c6c(F)cccc6F)c6ccc([nH]6)c(-c6c(F)cccc6F)c6nc(c(-c7c(F)cccc7F)c7ccc4[nH]7)C=C6)C=C5)cc3)c2-c2cc(F)cc(F)c2)cc1
REMARK SMILES IDX 19 1 18 2 17 3 16 4 15 5 13 6 14 7 12 8 9 9 10 10 81 11
REMARK SMILES IDX 11 12 8 13 5 14 6 15 91 16 7 17 90 18 2 19 1 20 3 21 4 22
REMARK SMILES IDX 82 23 83 24 89 25 84 26 87 27 85 28 86 29 88 30 20 31 21 32
REMARK SMILES IDX 22 33 23 34 24 35 25 36 26 37 27 38 28 39 80 40 29 41 79 42
REMARK SMILES IDX 30 43 31 44 32 45 73 46 33 47 78 48 72 49 74 50 34 51 77 52
REMARK SMILES IDX 71 53 70 54 35 56 61 57 44 58 60 59 45 60 48 61 59 62 75 63
REMARK SMILES IDX 46 64 47 65 58 67 76 68 49 69 36 70 37 71 42 72 38 73 39 74
REMARK SMILES IDX 41 75 43 76 40 77 62 78 63 79 68 80 64 81 65 82 67 83 69 84
REMARK SMILES IDX 66 85 50 86 51 87 56 88 52 89 53 90 55 91 57 92 54 93
REMARK H PARENT 74 55 48 66
REMARK Flexibility Score: inf
ROOT
ATOM      1  C   UNL A   1      43.676  19.895  24.918  1.00  0.00     0.188 C 
ENDROOT
BRANCH   1   2
ATOM      2  O   UNL A   1      44.502  20.994  25.291  1.00  0.00    -0.376 OA
BRANCH   2   3
ATOM      3  C   UNL A   1      44.489  22.183  24.506  1.00  0.00     0.202 C 
BRANCH   3   4
ATOM      4  C   UNL A   1      44.218  23.539  25.183  1.00  0.00     0.261 C 
BRANCH   4   5
ATOM      5  O   UNL A   1      45.058  24.608  24.720  1.00  0.00    -0.458 OA
BRANCH   5   6
ATOM      6  C   UNL A   1      44.881  25.844  25.292  1.00  0.00     0.361 C 
ATOM      7  O   UNL A   1      43.845  26.456  25.284  1.00  0.00    -0.244 OA
BRANCH   6   8
ATOM      8  C   UNL A   1      46.083  26.294  26.004  1.00  0.00     0.198 A 
ATOM      9  N   UNL A   1      47.684  26.757  27.401  1.00  0.00    -0.212 N 
ATOM     10  N   UNL A   1      47.930  27.453  26.273  1.00  0.00    -0.061 NA
ATOM     11  C   UNL A   1      46.421  26.180  27.346  1.00  0.00     0.110 A 
ATOM     12  N   UNL A   1      47.029  27.077  25.374  1.00  0.00    -0.122 NA
BRANCH   9  13
ATOM     13  C   UNL A   1      48.693  26.537  28.363  1.00  0.00     0.067 A 
ATOM     14  C   UNL A   1      50.706  26.200  30.247  1.00  0.00     0.067 A 
ATOM     15  C   UNL A   1      50.400  25.151  29.372  1.00  0.00     0.022 A 
ATOM     16  C   UNL A   1      49.982  27.396  30.210  1.00  0.00     0.022 A 
ATOM     17  C   UNL A   1      49.361  25.309  28.441  1.00  0.00     0.030 A 
ATOM     18  C   UNL A   1      48.990  27.573  29.255  1.00  0.00     0.030 A 
BRANCH  14  19
ATOM     19  S   UNL A   1      52.023  26.125  31.437  1.00  0.00     0.175 S 
ATOM     20  C   UNL A   1      53.554  26.253  30.568  1.00  0.00     0.163 C 
ATOM     21  O   UNL A   1      51.968  24.798  32.020  1.00  0.00    -0.224 OA
ATOM     22  O   UNL A   1      51.882  27.310  32.261  1.00  0.00    -0.224 OA
ENDBRANCH  14  19
ENDBRANCH   9  13
BRANCH  11  23
ATOM     23  C   UNL A   1      45.669  25.703  28.509  1.00  0.00     0.009 A 
ATOM     24  C   UNL A   1      45.292  26.579  29.530  1.00  0.00     0.049 A 
ATOM     25  C   UNL A   1      45.391  24.334  28.659  1.00  0.00     0.049 A 
ATOM     26  C   UNL A   1      44.692  26.086  30.686  1.00  0.00     0.126 A 
ATOM     27  C   UNL A   1      44.778  23.866  29.820  1.00  0.00     0.126 A 
ATOM     28  F   UNL A   1      44.379  26.936  31.672  1.00  0.00    -0.207 F 
ATOM     29  C   UNL A   1      44.430  24.733  30.844  1.00  0.00     0.078 A 
ATOM     30  F   UNL A   1      44.544  22.555  29.959  1.00  0.00    -0.207 F 
ENDBRANCH  11  23
ENDBRANCH   6   8
ENDBRANCH   5   6
ENDBRANCH   4   5
ENDBRANCH   3   4
ENDBRANCH   2   3
ENDBRANCH   1   2
BRANCH   1  31
ATOM     31  C   UNL A   1      43.446  18.736  25.913  1.00  0.00     0.188 C 
BRANCH  31  32
ATOM     32  O   UNL A   1      42.230  18.825  26.634  1.00  0.00    -0.376 OA
BRANCH  32  33
ATOM     33  C   UNL A   1      41.202  19.679  26.147  1.00  0.00     0.202 C 
BRANCH  33  34
ATOM     34  C   UNL A   1      40.743  20.871  26.990  1.00  0.00     0.261 C 
BRANCH  34  35
ATOM     35  O   UNL A   1      41.144  22.141  26.511  1.00  0.00    -0.460 OA
BRANCH  35  36
ATOM     36  C   UNL A   1      40.209  23.106  26.589  1.00  0.00     0.338 C 
ATOM     37  O   UNL A   1      39.002  22.974  26.489  1.00  0.00    -0.246 OA
BRANCH  36  38
ATOM     38  C   UNL A   1      40.896  24.390  26.752  1.00  0.00     0.060 A 
ATOM     39  C   UNL A   1      41.792  24.499  27.815  1.00  0.00     0.016 A 
ATOM     40  C   UNL A   1      40.410  25.508  26.059  1.00  0.00     0.016 A 
ATOM     41  C   UNL A   1      42.007  25.748  28.349  1.00  0.00     0.010 A 
ATOM     42  C   UNL A   1      40.604  26.750  26.604  1.00  0.00     0.010 A 
ATOM     43  C   UNL A   1      41.315  26.831  27.798  1.00  0.00    -0.014 A 
BRANCH  43  44
ATOM     44  C   UNL A   1      41.335  28.076  28.531  1.00  0.00     0.031 A 
ATOM     45  C   UNL A   1      42.519  28.901  28.248  1.00  0.00     0.074 A 
ATOM     46  C   UNL A   1      40.300  28.442  29.310  1.00  0.00     0.049 A 
ATOM     47  N   UNL A   1      43.472  29.220  29.056  1.00  0.00    -0.248 NA
ATOM     48  C   UNL A   1      42.749  29.296  26.850  1.00  0.00     0.031 C 
ATOM     49  C   UNL A   1      38.975  27.808  29.360  1.00  0.00     0.029 A 
ATOM     50  N   UNL A   1      40.160  29.523  30.128  1.00  0.00    -0.354 N 
ATOM     51  C   UNL A   1      44.294  30.067  28.321  1.00  0.00     0.074 A 
ATOM     52  C   UNL A   1      43.934  29.896  26.941  1.00  0.00     0.031 C 
ATOM     53  C   UNL A   1      38.111  28.640  29.979  1.00  0.00     0.029 A 
ATOM     54  C   UNL A   1      38.845  29.789  30.481  1.00  0.00     0.049 A 
ATOM     55  H   UNL A   1      40.921  30.065  30.439  1.00  0.00     0.167 HD
ATOM     56  C   UNL A   1      44.940  31.088  28.940  1.00  0.00     0.037 A 
ATOM     57  C   UNL A   1      38.379  30.909  31.080  1.00  0.00     0.037 A 
ATOM     58  C   UNL A   1      44.998  30.876  30.365  1.00  0.00     0.049 A 
ATOM     59  C   UNL A   1      39.516  31.597  31.737  1.00  0.00     0.074 A 
ATOM     60  C   UNL A   1      45.714  30.088  31.237  1.00  0.00     0.029 A 
ATOM     61  N   UNL A   1      43.910  31.356  31.044  1.00  0.00    -0.354 N 
ATOM     62  N   UNL A   1      40.156  31.119  32.768  1.00  0.00    -0.248 NA
ATOM     63  C   UNL A   1      40.183  32.699  31.049  1.00  0.00     0.031 C 
ATOM     64  C   UNL A   1      44.942  30.009  32.434  1.00  0.00     0.029 A 
ATOM     65  C   UNL A   1      43.777  30.754  32.265  1.00  0.00     0.049 A 
ATOM     66  H   UNL A   1      43.301  32.047  30.698  1.00  0.00     0.167 HD
ATOM     67  C   UNL A   1      41.455  31.555  32.597  1.00  0.00     0.074 A 
ATOM     68  C   UNL A   1      41.374  32.658  31.651  1.00  0.00     0.031 C 
ATOM     69  C   UNL A   1      42.510  30.773  32.964  1.00  0.00     0.037 A 
BRANCH  56  70
ATOM     70  C   UNL A   1      45.033  32.491  28.370  1.00  0.00     0.057 A 
ATOM     71  C   UNL A   1      43.841  33.219  28.198  1.00  0.00     0.134 A 
ATOM     72  C   UNL A   1      46.153  33.017  27.691  1.00  0.00     0.134 A 
ATOM     73  F   UNL A   1      42.704  32.826  28.793  1.00  0.00    -0.206 F 
ATOM     74  C   UNL A   1      43.749  34.322  27.341  1.00  0.00     0.040 A 
ATOM     75  C   UNL A   1      46.083  34.148  26.871  1.00  0.00     0.040 A 
ATOM     76  F   UNL A   1      47.351  32.423  27.689  1.00  0.00    -0.206 F 
ATOM     77  C   UNL A   1      44.872  34.782  26.664  1.00  0.00     0.006 A 
ENDBRANCH  56  70
BRANCH  57  78
ATOM     78  C   UNL A   1      37.055  31.543  30.915  1.00  0.00     0.057 A 
ATOM     79  C   UNL A   1      36.188  31.715  32.001  1.00  0.00     0.134 A 
ATOM     80  C   UNL A   1      36.708  32.221  29.732  1.00  0.00     0.134 A 
ATOM     81  F   UNL A   1      36.457  31.142  33.182  1.00  0.00    -0.206 F 
ATOM     82  C   UNL A   1      35.052  32.530  31.922  1.00  0.00     0.040 A 
ATOM     83  C   UNL A   1      35.571  33.028  29.635  1.00  0.00     0.040 A 
ATOM     84  F   UNL A   1      37.507  32.190  28.655  1.00  0.00    -0.206 F 
ATOM     85  C   UNL A   1      34.745  33.196  30.739  1.00  0.00     0.006 A 
ENDBRANCH  57  78
BRANCH  69  86
ATOM     86  C   UNL A   1      42.268  29.744  34.022  1.00  0.00     0.057 A 
ATOM     87  C   UNL A   1      41.900  28.417  33.764  1.00  0.00     0.134 A 
ATOM     88  C   UNL A   1      42.486  30.100  35.358  1.00  0.00     0.134 A 
ATOM     89  F   UNL A   1      41.747  27.972  32.509  1.00  0.00    -0.206 F 
ATOM     90  C   UNL A   1      41.712  27.497  34.800  1.00  0.00     0.040 A 
ATOM     91  C   UNL A   1      42.337  29.182  36.397  1.00  0.00     0.040 A 
ATOM     92  F   UNL A   1      42.883  31.344  35.671  1.00  0.00    -0.206 F 
ATOM     93  C   UNL A   1      41.936  27.878  36.121  1.00  0.00     0.006 A 
ENDBRANCH  69  86
ENDBRANCH  43  44
ENDBRANCH  36  38
ENDBRANCH  35  36
ENDBRANCH  34  35
ENDBRANCH  33  34
ENDBRANCH  32  33
ENDBRANCH  31  32
ENDBRANCH   1  31
TORSDOF 20
ENDMDL
