MODEL 1
REMARK VINA RESULT:     -10.7      0.000      0.000
REMARK SMILES CCc1cccc(-c2ccc([C@@H](C)C(=O)OCCOCCOCCOC(=O)c3ccc(-c4c5nc(c(-c6c(F)cccc6F)c6ccc([nH]6)c(-c6c(F)cccc6F)c6nc(c(-c7c(F)cccc7F)c7ccc4[nH]7)C=C6)C=C5)cc3)cc2)c1
REMARK SMILES IDX 20 1 19 2 18 3 17 4 16 5 14 6 15 7 12 8 13 9 11 10 8 11 9 12
REMARK SMILES IDX 83 13 10 14 82 15 7 16 3 17 4 18 84 19 5 20 6 21 2 22 1 23
REMARK SMILES IDX 21 24 22 25 23 26 24 27 25 28 26 29 27 30 28 31 29 32 81 33
REMARK SMILES IDX 30 34 80 35 31 36 32 37 33 38 74 39 34 40 79 41 73 42 75 43
REMARK SMILES IDX 35 44 78 45 72 46 71 47 36 49 62 50 45 51 61 52 46 53 49 54
REMARK SMILES IDX 60 55 76 56 47 57 48 58 59 60 77 61 50 62 37 63 38 64 43 65
REMARK SMILES IDX 39 66 40 67 42 68 44 69 41 70 63 71 64 72 69 73 65 74 66 75
REMARK SMILES IDX 68 76 70 77 67 78 51 79 52 80 57 81 53 82 54 83 56 84 58 85
REMARK SMILES IDX 55 86
REMARK H PARENT 75 48 49 59
REMARK Flexibility Score: inf
ROOT
ATOM      1  C   UNL A   1      33.242  36.372  30.753  1.00  0.00     0.188 C 
ENDROOT
BRANCH   1   2
ATOM      2  O   UNL A   1      32.519  35.433  29.967  1.00  0.00    -0.376 OA
BRANCH   2   3
ATOM      3  C   UNL A   1      33.158  34.812  28.858  1.00  0.00     0.202 C 
BRANCH   3   4
ATOM      4  C   UNL A   1      34.584  34.267  29.044  1.00  0.00     0.261 C 
BRANCH   4   5
ATOM      5  O   UNL A   1      34.705  32.829  29.154  1.00  0.00    -0.463 OA
BRANCH   5   6
ATOM      6  C   UNL A   1      35.512  32.214  28.251  1.00  0.00     0.313 C 
ATOM      7  O   UNL A   1      36.394  32.804  27.628  1.00  0.00    -0.252 OA
BRANCH   6   8
ATOM      8  C   UNL A   1      35.292  30.709  28.047  1.00  0.00     0.126 C 
ATOM      9  C   UNL A   1      36.613  30.077  27.615  1.00  0.00     0.025 C 
BRANCH   8  10
ATOM     10  C   UNL A   1      34.139  30.181  27.192  1.00  0.00    -0.034 A 
ATOM     11  C   UNL A   1      32.043  29.081  25.575  1.00  0.00    -0.018 A 
ATOM     12  C   UNL A   1      31.796  30.091  26.522  1.00  0.00     0.009 A 
ATOM     13  C   UNL A   1      33.365  28.643  25.437  1.00  0.00     0.009 A 
ATOM     14  C   UNL A   1      32.823  30.641  27.311  1.00  0.00     0.005 A 
ATOM     15  C   UNL A   1      34.395  29.188  26.222  1.00  0.00     0.005 A 
BRANCH  11  16
ATOM     16  C   UNL A   1      30.955  28.548  24.727  1.00  0.00    -0.018 A 
ATOM     17  C   UNL A   1      29.209  28.824  23.013  1.00  0.00    -0.048 A 
ATOM     18  C   UNL A   1      28.898  27.463  23.126  1.00  0.00     0.004 A 
ATOM     19  C   UNL A   1      30.234  29.356  23.824  1.00  0.00     0.012 A 
ATOM     20  C   UNL A   1      29.591  26.650  24.018  1.00  0.00     0.001 A 
ATOM     21  C   UNL A   1      30.606  27.189  24.811  1.00  0.00     0.009 A 
BRANCH  17  22
ATOM     22  C   UNL A   1      28.401  29.688  22.070  1.00  0.00     0.032 C 
ATOM     23  C   UNL A   1      27.654  30.828  22.746  1.00  0.00     0.009 C 
ENDBRANCH  17  22
ENDBRANCH  11  16
ENDBRANCH   8  10
ENDBRANCH   6   8
ENDBRANCH   5   6
ENDBRANCH   4   5
ENDBRANCH   3   4
ENDBRANCH   2   3
ENDBRANCH   1   2
BRANCH   1  24
ATOM     24  C   UNL A   1      32.871  36.565  32.231  1.00  0.00     0.188 C 
BRANCH  24  25
ATOM     25  O   UNL A   1      33.797  36.011  33.139  1.00  0.00    -0.376 OA
BRANCH  25  26
ATOM     26  C   UNL A   1      34.669  35.020  32.640  1.00  0.00     0.202 C 
BRANCH  26  27
ATOM     27  C   UNL A   1      34.223  33.568  32.867  1.00  0.00     0.261 C 
BRANCH  27  28
ATOM     28  O   UNL A   1      35.157  32.547  32.468  1.00  0.00    -0.460 OA
BRANCH  28  29
ATOM     29  C   UNL A   1      36.264  32.384  33.233  1.00  0.00     0.338 C 
ATOM     30  O   UNL A   1      36.380  32.630  34.415  1.00  0.00    -0.246 OA
BRANCH  29  31
ATOM     31  C   UNL A   1      37.266  31.647  32.425  1.00  0.00     0.060 A 
ATOM     32  C   UNL A   1      38.004  30.614  33.023  1.00  0.00     0.016 A 
ATOM     33  C   UNL A   1      37.476  31.976  31.085  1.00  0.00     0.016 A 
ATOM     34  C   UNL A   1      38.975  29.928  32.288  1.00  0.00     0.010 A 
ATOM     35  C   UNL A   1      38.462  31.302  30.358  1.00  0.00     0.010 A 
ATOM     36  C   UNL A   1      39.238  30.295  30.962  1.00  0.00    -0.014 A 
BRANCH  36  37
ATOM     37  C   UNL A   1      40.436  29.771  30.258  1.00  0.00     0.031 A 
ATOM     38  C   UNL A   1      41.593  30.706  30.019  1.00  0.00     0.074 A 
ATOM     39  C   UNL A   1      40.504  28.501  29.822  1.00  0.00     0.049 A 
ATOM     40  N   UNL A   1      42.694  30.514  29.340  1.00  0.00    -0.248 NA
ATOM     41  C   UNL A   1      41.483  32.041  30.625  1.00  0.00     0.031 C 
ATOM     42  C   UNL A   1      39.475  27.482  30.017  1.00  0.00     0.029 A 
ATOM     43  N   UNL A   1      41.482  27.859  29.099  1.00  0.00    -0.354 N 
ATOM     44  C   UNL A   1      43.402  31.706  29.427  1.00  0.00     0.074 A 
ATOM     45  C   UNL A   1      42.590  32.625  30.195  1.00  0.00     0.031 C 
ATOM     46  C   UNL A   1      39.866  26.349  29.409  1.00  0.00     0.029 A 
ATOM     47  C   UNL A   1      41.152  26.573  28.750  1.00  0.00     0.049 A 
ATOM     48  H   UNL A   1      42.338  28.282  28.857  1.00  0.00     0.167 HD
ATOM     49  C   UNL A   1      44.621  32.009  28.920  1.00  0.00     0.037 A 
ATOM     50  C   UNL A   1      41.798  25.691  27.959  1.00  0.00     0.037 A 
ATOM     51  C   UNL A   1      45.425  31.100  28.146  1.00  0.00     0.049 A 
ATOM     52  C   UNL A   1      43.116  26.076  27.335  1.00  0.00     0.074 A 
ATOM     53  C   UNL A   1      46.680  31.308  27.600  1.00  0.00     0.029 A 
ATOM     54  N   UNL A   1      45.047  29.812  27.797  1.00  0.00    -0.354 N 
ATOM     55  N   UNL A   1      43.790  27.196  27.442  1.00  0.00    -0.248 NA
ATOM     56  C   UNL A   1      43.764  25.070  26.480  1.00  0.00     0.031 C 
ATOM     57  C   UNL A   1      47.034  30.169  26.871  1.00  0.00     0.029 A 
ATOM     58  C   UNL A   1      46.032  29.224  27.019  1.00  0.00     0.049 A 
ATOM     59  H   UNL A   1      44.205  29.379  28.063  1.00  0.00     0.167 HD
ATOM     60  C   UNL A   1      44.952  27.018  26.699  1.00  0.00     0.074 A 
ATOM     61  C   UNL A   1      44.897  25.678  26.155  1.00  0.00     0.031 C 
ATOM     62  C   UNL A   1      45.973  27.885  26.487  1.00  0.00     0.037 A 
BRANCH  49  63
ATOM     63  C   UNL A   1      45.142  33.397  29.161  1.00  0.00     0.057 A 
ATOM     64  C   UNL A   1      44.915  34.444  28.257  1.00  0.00     0.134 A 
ATOM     65  C   UNL A   1      45.868  33.695  30.321  1.00  0.00     0.134 A 
ATOM     66  F   UNL A   1      44.239  34.226  27.118  1.00  0.00    -0.206 F 
ATOM     67  C   UNL A   1      45.417  35.727  28.483  1.00  0.00     0.040 A 
ATOM     68  C   UNL A   1      46.348  34.980  30.574  1.00  0.00     0.040 A 
ATOM     69  F   UNL A   1      46.118  32.742  31.232  1.00  0.00    -0.206 F 
ATOM     70  C   UNL A   1      46.131  36.000  29.649  1.00  0.00     0.006 A 
ENDBRANCH  49  63
BRANCH  50  71
ATOM     71  C   UNL A   1      41.199  24.358  27.687  1.00  0.00     0.057 A 
ATOM     72  C   UNL A   1      41.676  23.202  28.316  1.00  0.00     0.134 A 
ATOM     73  C   UNL A   1      40.151  24.205  26.770  1.00  0.00     0.134 A 
ATOM     74  F   UNL A   1      42.697  23.278  29.182  1.00  0.00    -0.206 F 
ATOM     75  C   UNL A   1      41.148  21.942  28.030  1.00  0.00     0.040 A 
ATOM     76  C   UNL A   1      39.593  22.955  26.498  1.00  0.00     0.040 A 
ATOM     77  F   UNL A   1      39.649  25.271  26.130  1.00  0.00    -0.206 F 
ATOM     78  C   UNL A   1      40.098  21.817  27.122  1.00  0.00     0.006 A 
ENDBRANCH  50  71
BRANCH  62  79
ATOM     79  C   UNL A   1      47.140  27.402  25.673  1.00  0.00     0.057 A 
ATOM     80  C   UNL A   1      47.212  27.588  24.286  1.00  0.00     0.134 A 
ATOM     81  C   UNL A   1      48.231  26.779  26.294  1.00  0.00     0.134 A 
ATOM     82  F   UNL A   1      46.198  28.169  23.625  1.00  0.00    -0.206 F 
ATOM     83  C   UNL A   1      48.312  27.150  23.545  1.00  0.00     0.040 A 
ATOM     84  C   UNL A   1      49.351  26.365  25.569  1.00  0.00     0.040 A 
ATOM     85  F   UNL A   1      48.237  26.579  27.621  1.00  0.00    -0.206 F 
ATOM     86  C   UNL A   1      49.389  26.545  24.188  1.00  0.00     0.006 A 
ENDBRANCH  62  79
ENDBRANCH  36  37
ENDBRANCH  29  31
ENDBRANCH  28  29
ENDBRANCH  27  28
ENDBRANCH  26  27
ENDBRANCH  25  26
ENDBRANCH  24  25
ENDBRANCH   1  24
TORSDOF 20
ENDMDL
MODEL 2
REMARK VINA RESULT:     -10.7      2.014      3.570
REMARK SMILES CCc1cccc(-c2ccc([C@@H](C)C(=O)OCCOCCOCCOC(=O)c3ccc(-c4c5nc(c(-c6c(F)cccc6F)c6ccc([nH]6)c(-c6c(F)cccc6F)c6nc(c(-c7c(F)cccc7F)c7ccc4[nH]7)C=C6)C=C5)cc3)cc2)c1
REMARK SMILES IDX 20 1 19 2 18 3 17 4 16 5 14 6 15 7 12 8 13 9 11 10 8 11 9 12
REMARK SMILES IDX 83 13 10 14 82 15 7 16 3 17 4 18 84 19 5 20 6 21 2 22 1 23
REMARK SMILES IDX 21 24 22 25 23 26 24 27 25 28 26 29 27 30 28 31 29 32 81 33
REMARK SMILES IDX 30 34 80 35 31 36 32 37 33 38 74 39 34 40 79 41 73 42 75 43
REMARK SMILES IDX 35 44 78 45 72 46 71 47 36 49 62 50 45 51 61 52 46 53 49 54
REMARK SMILES IDX 60 55 76 56 47 57 48 58 59 60 77 61 50 62 37 63 38 64 43 65
REMARK SMILES IDX 39 66 40 67 42 68 44 69 41 70 63 71 64 72 69 73 65 74 66 75
REMARK SMILES IDX 68 76 70 77 67 78 51 79 52 80 57 81 53 82 54 83 56 84 58 85
REMARK SMILES IDX 55 86
REMARK H PARENT 75 48 49 59
REMARK Flexibility Score: inf
ROOT
ATOM      1  C   UNL A   1      34.958  33.757  28.333  1.00  0.00     0.188 C 
ENDROOT
BRANCH   1   2
ATOM      2  O   UNL A   1      34.725  32.570  27.585  1.00  0.00    -0.376 OA
BRANCH   2   3
ATOM      3  C   UNL A   1      34.465  31.352  28.274  1.00  0.00     0.202 C 
BRANCH   3   4
ATOM      4  C   UNL A   1      34.326  30.059  27.452  1.00  0.00     0.261 C 
BRANCH   4   5
ATOM      5  O   UNL A   1      33.861  30.218  26.091  1.00  0.00    -0.463 OA
BRANCH   5   6
ATOM      6  C   UNL A   1      32.609  29.772  25.819  1.00  0.00     0.313 C 
ATOM      7  O   UNL A   1      31.623  30.088  26.485  1.00  0.00    -0.252 OA
BRANCH   6   8
ATOM      8  C   UNL A   1      32.458  28.851  24.601  1.00  0.00     0.126 C 
ATOM      9  C   UNL A   1      30.976  28.750  24.245  1.00  0.00     0.025 C 
BRANCH   8  10
ATOM     10  C   UNL A   1      33.114  27.470  24.560  1.00  0.00    -0.034 A 
ATOM     11  C   UNL A   1      34.293  24.857  24.598  1.00  0.00    -0.018 A 
ATOM     12  C   UNL A   1      34.011  25.526  23.393  1.00  0.00     0.009 A 
ATOM     13  C   UNL A   1      33.990  25.528  25.788  1.00  0.00     0.009 A 
ATOM     14  C   UNL A   1      33.443  26.812  23.369  1.00  0.00     0.005 A 
ATOM     15  C   UNL A   1      33.421  26.813  25.771  1.00  0.00     0.005 A 
BRANCH  11  16
ATOM     16  C   UNL A   1      34.930  23.522  24.599  1.00  0.00    -0.018 A 
ATOM     17  C   UNL A   1      34.817  21.066  24.740  1.00  0.00    -0.048 A 
ATOM     18  C   UNL A   1      36.207  21.004  24.576  1.00  0.00     0.004 A 
ATOM     19  C   UNL A   1      34.192  22.331  24.757  1.00  0.00     0.012 A 
ATOM     20  C   UNL A   1      36.955  22.168  24.429  1.00  0.00     0.001 A 
ATOM     21  C   UNL A   1      36.322  23.412  24.442  1.00  0.00     0.009 A 
BRANCH  17  22
ATOM     22  C   UNL A   1      34.042  19.785  24.949  1.00  0.00     0.032 C 
ATOM     23  C   UNL A   1      32.531  19.940  24.849  1.00  0.00     0.009 C 
ENDBRANCH  17  22
ENDBRANCH  11  16
ENDBRANCH   8  10
ENDBRANCH   6   8
ENDBRANCH   5   6
ENDBRANCH   4   5
ENDBRANCH   3   4
ENDBRANCH   2   3
ENDBRANCH   1   2
BRANCH   1  24
ATOM     24  C   UNL A   1      33.788  34.707  28.626  1.00  0.00     0.188 C 
BRANCH  24  25
ATOM     25  O   UNL A   1      33.240  34.573  29.918  1.00  0.00    -0.376 OA
BRANCH  25  26
ATOM     26  C   UNL A   1      34.084  34.886  31.006  1.00  0.00     0.202 C 
BRANCH  26  27
ATOM     27  C   UNL A   1      34.135  33.839  32.129  1.00  0.00     0.261 C 
BRANCH  27  28
ATOM     28  O   UNL A   1      34.945  32.676  31.876  1.00  0.00    -0.460 OA
BRANCH  28  29
ATOM     29  C   UNL A   1      35.932  32.401  32.765  1.00  0.00     0.338 C 
ATOM     30  O   UNL A   1      35.910  32.583  33.963  1.00  0.00    -0.246 OA
BRANCH  29  31
ATOM     31  C   UNL A   1      36.983  31.637  32.049  1.00  0.00     0.060 A 
ATOM     32  C   UNL A   1      37.857  30.820  32.783  1.00  0.00     0.016 A 
ATOM     33  C   UNL A   1      37.104  31.726  30.662  1.00  0.00     0.016 A 
ATOM     34  C   UNL A   1      38.873  30.115  32.132  1.00  0.00     0.010 A 
ATOM     35  C   UNL A   1      38.133  31.037  30.015  1.00  0.00     0.010 A 
ATOM     36  C   UNL A   1      39.043  30.251  30.747  1.00  0.00    -0.014 A 
BRANCH  36  37
ATOM     37  C   UNL A   1      40.267  29.735  30.084  1.00  0.00     0.031 A 
ATOM     38  C   UNL A   1      41.412  30.685  29.854  1.00  0.00     0.074 A 
ATOM     39  C   UNL A   1      40.368  28.457  29.675  1.00  0.00     0.049 A 
ATOM     40  N   UNL A   1      42.534  30.499  29.207  1.00  0.00    -0.248 NA
ATOM     41  C   UNL A   1      41.265  32.030  30.430  1.00  0.00     0.031 C 
ATOM     42  C   UNL A   1      39.352  27.424  29.866  1.00  0.00     0.029 A 
ATOM     43  N   UNL A   1      41.374  27.819  28.991  1.00  0.00    -0.354 N 
ATOM     44  C   UNL A   1      43.219  31.706  29.287  1.00  0.00     0.074 A 
ATOM     45  C   UNL A   1      42.372  32.625  30.016  1.00  0.00     0.031 C 
ATOM     46  C   UNL A   1      39.778  26.286  29.291  1.00  0.00     0.029 A 
ATOM     47  C   UNL A   1      41.076  26.520  28.659  1.00  0.00     0.049 A 
ATOM     48  H   UNL A   1      42.229  28.252  28.761  1.00  0.00     0.167 HD
ATOM     49  C   UNL A   1      44.444  32.020  28.803  1.00  0.00     0.037 A 
ATOM     50  C   UNL A   1      41.756  25.635  27.903  1.00  0.00     0.037 A 
ATOM     51  C   UNL A   1      45.283  31.110  28.069  1.00  0.00     0.049 A 
ATOM     52  C   UNL A   1      43.082  26.031  27.303  1.00  0.00     0.074 A 
ATOM     53  C   UNL A   1      46.547  31.330  27.549  1.00  0.00     0.029 A 
ATOM     54  N   UNL A   1      44.936  29.808  27.736  1.00  0.00    -0.354 N 
ATOM     55  N   UNL A   1      43.734  27.164  27.404  1.00  0.00    -0.248 NA
ATOM     56  C   UNL A   1      43.769  25.019  26.485  1.00  0.00     0.031 C 
ATOM     57  C   UNL A   1      46.939  30.183  26.852  1.00  0.00     0.029 A 
ATOM     58  C   UNL A   1      45.950  29.223  26.995  1.00  0.00     0.049 A 
ATOM     59  H   UNL A   1      44.095  29.366  27.991  1.00  0.00     0.167 HD
ATOM     60  C   UNL A   1      44.916  26.992  26.693  1.00  0.00     0.074 A 
ATOM     61  C   UNL A   1      44.899  25.640  26.176  1.00  0.00     0.031 C 
ATOM     62  C   UNL A   1      45.927  27.873  26.489  1.00  0.00     0.037 A 
BRANCH  49  63
ATOM     63  C   UNL A   1      44.935  33.422  29.029  1.00  0.00     0.057 A 
ATOM     64  C   UNL A   1      44.719  34.444  28.095  1.00  0.00     0.134 A 
ATOM     65  C   UNL A   1      45.620  33.757  30.204  1.00  0.00     0.134 A 
ATOM     66  F   UNL A   1      44.082  34.190  26.942  1.00  0.00    -0.206 F 
ATOM     67  C   UNL A   1      45.193  35.741  28.308  1.00  0.00     0.040 A 
ATOM     68  C   UNL A   1      46.071  35.055  30.442  1.00  0.00     0.040 A 
ATOM     69  F   UNL A   1      45.857  32.829  31.143  1.00  0.00    -0.206 F 
ATOM     70  C   UNL A   1      45.866  36.050  29.488  1.00  0.00     0.006 A 
ENDBRANCH  49  63
BRANCH  50  71
ATOM     71  C   UNL A   1      41.187  24.286  27.643  1.00  0.00     0.057 A 
ATOM     72  C   UNL A   1      41.682  23.149  28.292  1.00  0.00     0.134 A 
ATOM     73  C   UNL A   1      40.151  24.099  26.719  1.00  0.00     0.134 A 
ATOM     74  F   UNL A   1      42.693  23.257  29.166  1.00  0.00    -0.206 F 
ATOM     75  C   UNL A   1      41.183  21.874  28.018  1.00  0.00     0.040 A 
ATOM     76  C   UNL A   1      39.622  22.834  26.458  1.00  0.00     0.040 A 
ATOM     77  F   UNL A   1      39.633  25.146  26.060  1.00  0.00    -0.206 F 
ATOM     78  C   UNL A   1      40.144  21.716  27.103  1.00  0.00     0.006 A 
ENDBRANCH  50  71
BRANCH  62  79
ATOM     79  C   UNL A   1      47.123  27.395  25.713  1.00  0.00     0.057 A 
ATOM     80  C   UNL A   1      47.242  27.588  24.331  1.00  0.00     0.134 A 
ATOM     81  C   UNL A   1      48.192  26.769  26.369  1.00  0.00     0.134 A 
ATOM     82  F   UNL A   1      46.252  28.171  23.638  1.00  0.00    -0.206 F 
ATOM     83  C   UNL A   1      48.368  27.155  23.626  1.00  0.00     0.040 A 
ATOM     84  C   UNL A   1      49.336  26.360  25.682  1.00  0.00     0.040 A 
ATOM     85  F   UNL A   1      48.151  26.562  27.694  1.00  0.00    -0.206 F 
ATOM     86  C   UNL A   1      49.423  26.546  24.304  1.00  0.00     0.006 A 
ENDBRANCH  62  79
ENDBRANCH  36  37
ENDBRANCH  29  31
ENDBRANCH  28  29
ENDBRANCH  27  28
ENDBRANCH  26  27
ENDBRANCH  25  26
ENDBRANCH  24  25
ENDBRANCH   1  24
TORSDOF 20
ENDMDL
MODEL 3
REMARK VINA RESULT:     -10.5      1.437      2.500
REMARK SMILES CCc1cccc(-c2ccc([C@@H](C)C(=O)OCCOCCOCCOC(=O)c3ccc(-c4c5nc(c(-c6c(F)cccc6F)c6ccc([nH]6)c(-c6c(F)cccc6F)c6nc(c(-c7c(F)cccc7F)c7ccc4[nH]7)C=C6)C=C5)cc3)cc2)c1
REMARK SMILES IDX 20 1 19 2 18 3 17 4 16 5 14 6 15 7 12 8 13 9 11 10 8 11 9 12
REMARK SMILES IDX 83 13 10 14 82 15 7 16 3 17 4 18 84 19 5 20 6 21 2 22 1 23
REMARK SMILES IDX 21 24 22 25 23 26 24 27 25 28 26 29 27 30 28 31 29 32 81 33
REMARK SMILES IDX 30 34 80 35 31 36 32 37 33 38 74 39 34 40 79 41 73 42 75 43
REMARK SMILES IDX 35 44 78 45 72 46 71 47 36 49 62 50 45 51 61 52 46 53 49 54
REMARK SMILES IDX 60 55 76 56 47 57 48 58 59 60 77 61 50 62 37 63 38 64 43 65
REMARK SMILES IDX 39 66 40 67 42 68 44 69 41 70 63 71 64 72 69 73 65 74 66 75
REMARK SMILES IDX 68 76 70 77 67 78 51 79 52 80 57 81 53 82 54 83 56 84 58 85
REMARK SMILES IDX 55 86
REMARK H PARENT 75 48 49 59
REMARK Flexibility Score: inf
ROOT
ATOM      1  C   UNL A   1      33.254  37.471  31.221  1.00  0.00     0.188 C 
ENDROOT
BRANCH   1   2
ATOM      2  O   UNL A   1      33.218  37.598  29.805  1.00  0.00    -0.376 OA
BRANCH   2   3
ATOM      3  C   UNL A   1      33.085  36.430  29.003  1.00  0.00     0.202 C 
BRANCH   3   4
ATOM      4  C   UNL A   1      34.357  35.663  28.606  1.00  0.00     0.261 C 
BRANCH   4   5
ATOM      5  O   UNL A   1      34.199  34.663  27.572  1.00  0.00    -0.463 OA
BRANCH   5   6
ATOM      6  C   UNL A   1      33.530  33.533  27.914  1.00  0.00     0.313 C 
ATOM      7  O   UNL A   1      32.303  33.479  28.000  1.00  0.00    -0.252 OA
BRANCH   6   8
ATOM      8  C   UNL A   1      34.381  32.283  28.176  1.00  0.00     0.126 C 
ATOM      9  C   UNL A   1      35.837  32.608  27.852  1.00  0.00     0.025 C 
BRANCH   8  10
ATOM     10  C   UNL A   1      33.994  30.920  27.600  1.00  0.00    -0.034 A 
ATOM     11  C   UNL A   1      33.365  28.313  26.588  1.00  0.00    -0.018 A 
ATOM     12  C   UNL A   1      32.399  29.333  26.661  1.00  0.00     0.009 A 
ATOM     13  C   UNL A   1      34.660  28.626  27.015  1.00  0.00     0.009 A 
ATOM     14  C   UNL A   1      32.706  30.617  27.147  1.00  0.00     0.005 A 
ATOM     15  C   UNL A   1      34.973  29.907  27.503  1.00  0.00     0.005 A 
BRANCH  11  16
ATOM     16  C   UNL A   1      33.030  26.983  26.034  1.00  0.00    -0.018 A 
ATOM     17  C   UNL A   1      33.673  24.757  25.201  1.00  0.00    -0.048 A 
ATOM     18  C   UNL A   1      32.321  24.456  24.993  1.00  0.00     0.004 A 
ATOM     19  C   UNL A   1      34.015  26.026  25.715  1.00  0.00     0.012 A 
ATOM     20  C   UNL A   1      31.334  25.390  25.292  1.00  0.00     0.001 A 
ATOM     21  C   UNL A   1      31.686  26.640  25.805  1.00  0.00     0.009 A 
BRANCH  17  22
ATOM     22  C   UNL A   1      34.722  23.737  24.817  1.00  0.00     0.032 C 
ATOM     23  C   UNL A   1      36.000  23.808  25.641  1.00  0.00     0.009 C 
ENDBRANCH  17  22
ENDBRANCH  11  16
ENDBRANCH   8  10
ENDBRANCH   6   8
ENDBRANCH   5   6
ENDBRANCH   4   5
ENDBRANCH   3   4
ENDBRANCH   2   3
ENDBRANCH   1   2
BRANCH   1  24
ATOM     24  C   UNL A   1      32.510  36.308  31.894  1.00  0.00     0.188 C 
BRANCH  24  25
ATOM     25  O   UNL A   1      33.263  35.625  32.871  1.00  0.00    -0.376 OA
BRANCH  25  26
ATOM     26  C   UNL A   1      34.277  34.759  32.407  1.00  0.00     0.202 C 
BRANCH  26  27
ATOM     27  C   UNL A   1      34.075  33.270  32.725  1.00  0.00     0.261 C 
BRANCH  27  28
ATOM     28  O   UNL A   1      35.107  32.377  32.265  1.00  0.00    -0.460 OA
BRANCH  28  29
ATOM     29  C   UNL A   1      36.192  32.220  33.061  1.00  0.00     0.338 C 
ATOM     30  O   UNL A   1      36.279  32.482  34.242  1.00  0.00    -0.246 OA
BRANCH  29  31
ATOM     31  C   UNL A   1      37.212  31.468  32.290  1.00  0.00     0.060 A 
ATOM     32  C   UNL A   1      38.095  30.615  32.969  1.00  0.00     0.016 A 
ATOM     33  C   UNL A   1      37.297  31.606  30.904  1.00  0.00     0.016 A 
ATOM     34  C   UNL A   1      39.083  29.920  32.266  1.00  0.00     0.010 A 
ATOM     35  C   UNL A   1      38.298  30.927  30.204  1.00  0.00     0.010 A 
ATOM     36  C   UNL A   1      39.217  30.104  30.883  1.00  0.00    -0.014 A 
BRANCH  36  37
ATOM     37  C   UNL A   1      40.415  29.595  30.167  1.00  0.00     0.031 A 
ATOM     38  C   UNL A   1      41.564  30.540  29.934  1.00  0.00     0.074 A 
ATOM     39  C   UNL A   1      40.489  28.330  29.716  1.00  0.00     0.049 A 
ATOM     40  N   UNL A   1      42.664  30.363  29.248  1.00  0.00    -0.248 NA
ATOM     41  C   UNL A   1      41.449  31.868  30.556  1.00  0.00     0.031 C 
ATOM     42  C   UNL A   1      39.467  27.303  29.904  1.00  0.00     0.029 A 
ATOM     43  N   UNL A   1      41.467  27.704  28.982  1.00  0.00    -0.354 N 
ATOM     44  C   UNL A   1      43.365  31.559  29.346  1.00  0.00     0.074 A 
ATOM     45  C   UNL A   1      42.550  32.464  30.128  1.00  0.00     0.031 C 
ATOM     46  C   UNL A   1      39.863  26.179  29.281  1.00  0.00     0.029 A 
ATOM     47  C   UNL A   1      41.144  26.420  28.619  1.00  0.00     0.049 A 
ATOM     48  H   UNL A   1      42.319  28.135  28.741  1.00  0.00     0.167 HD
ATOM     49  C   UNL A   1      44.579  31.875  28.836  1.00  0.00     0.037 A 
ATOM     50  C   UNL A   1      41.791  25.552  27.815  1.00  0.00     0.037 A 
ATOM     51  C   UNL A   1      45.385  30.981  28.049  1.00  0.00     0.049 A 
ATOM     52  C   UNL A   1      43.104  25.952  27.189  1.00  0.00     0.074 A 
ATOM     53  C   UNL A   1      46.636  31.204  27.499  1.00  0.00     0.029 A 
ATOM     54  N   UNL A   1      45.013  29.694  27.686  1.00  0.00    -0.354 N 
ATOM     55  N   UNL A   1      43.772  27.074  27.306  1.00  0.00    -0.248 NA
ATOM     56  C   UNL A   1      43.755  24.960  26.319  1.00  0.00     0.031 C 
ATOM     57  C   UNL A   1      46.994  30.075  26.755  1.00  0.00     0.029 A 
ATOM     58  C   UNL A   1      45.998  29.122  26.896  1.00  0.00     0.049 A 
ATOM     59  H   UNL A   1      44.175  29.253  27.951  1.00  0.00     0.167 HD
ATOM     60  C   UNL A   1      44.931  26.913  26.555  1.00  0.00     0.074 A 
ATOM     61  C   UNL A   1      44.882  25.579  25.996  1.00  0.00     0.031 C 
ATOM     62  C   UNL A   1      45.946  27.789  26.349  1.00  0.00     0.037 A 
BRANCH  49  63
ATOM     63  C   UNL A   1      45.092  33.264  29.091  1.00  0.00     0.057 A 
ATOM     64  C   UNL A   1      45.732  33.612  30.289  1.00  0.00     0.134 A 
ATOM     65  C   UNL A   1      44.958  34.264  28.119  1.00  0.00     0.134 A 
ATOM     66  F   UNL A   1      45.881  32.708  31.269  1.00  0.00    -0.206 F 
ATOM     67  C   UNL A   1      46.192  34.910  30.522  1.00  0.00     0.040 A 
ATOM     68  C   UNL A   1      45.442  35.556  28.327  1.00  0.00     0.040 A 
ATOM     69  F   UNL A   1      44.362  33.999  26.947  1.00  0.00    -0.206 F 
ATOM     70  C   UNL A   1      46.052  35.885  29.536  1.00  0.00     0.006 A 
ENDBRANCH  49  63
BRANCH  50  71
ATOM     71  C   UNL A   1      41.200  24.218  27.530  1.00  0.00     0.057 A 
ATOM     72  C   UNL A   1      40.135  24.068  26.633  1.00  0.00     0.134 A 
ATOM     73  C   UNL A   1      41.667  23.063  28.170  1.00  0.00     0.134 A 
ATOM     74  F   UNL A   1      39.623  25.140  26.011  1.00  0.00    -0.206 F 
ATOM     75  C   UNL A   1      39.546  22.825  26.397  1.00  0.00     0.040 A 
ATOM     76  C   UNL A   1      41.107  21.809  27.920  1.00  0.00     0.040 A 
ATOM     77  F   UNL A   1      42.682  23.136  29.044  1.00  0.00    -0.206 F 
ATOM     78  C   UNL A   1      40.037  21.689  27.038  1.00  0.00     0.006 A 
ENDBRANCH  50  71
BRANCH  62  79
ATOM     79  C   UNL A   1      47.112  27.323  25.524  1.00  0.00     0.057 A 
ATOM     80  C   UNL A   1      47.238  27.637  24.164  1.00  0.00     0.134 A 
ATOM     81  C   UNL A   1      48.149  26.585  26.111  1.00  0.00     0.134 A 
ATOM     82  F   UNL A   1      46.278  28.333  23.535  1.00  0.00    -0.206 F 
ATOM     83  C   UNL A   1      48.337  27.213  23.414  1.00  0.00     0.040 A 
ATOM     84  C   UNL A   1      49.268  26.182  25.380  1.00  0.00     0.040 A 
ATOM     85  F   UNL A   1      48.101  26.258  27.412  1.00  0.00    -0.206 F 
ATOM     86  C   UNL A   1      49.361  26.490  24.025  1.00  0.00     0.006 A 
ENDBRANCH  62  79
ENDBRANCH  36  37
ENDBRANCH  29  31
ENDBRANCH  28  29
ENDBRANCH  27  28
ENDBRANCH  26  27
ENDBRANCH  25  26
ENDBRANCH  24  25
ENDBRANCH   1  24
TORSDOF 20
ENDMDL
