MODEL 1
REMARK VINA RESULT:     -10.5      0.000      0.000
REMARK SMILES Cc1ccc(C(=O)NC2CC2)cc1NC(=O)[C@@H]1[C@@H](C(=O)OCCOCCOCCOC(=O)c2ccc(-c3c4nc(c(-c5c(F)cccc5F)c5ccc([nH]5)c(-c5c(F)cccc5F)c5nc(c(-c6c(F)cccc6F)c6ccc3[nH]6)C=C5)C=C4)cc2)[C@H]2C=C[C@@H]1C2
REMARK SMILES IDX 25 1 24 2 23 3 22 4 21 5 19 6 20 7 18 8 17 9 90 10 87 11
REMARK SMILES IDX 89 12 91 13 88 14 15 15 14 16 16 18 13 19 1 20 2 21 3 22
REMARK SMILES IDX 4 23 12 24 5 25 6 26 7 27 8 28 9 30 10 31 11 32 26 33 27 34
REMARK SMILES IDX 28 35 29 36 30 37 31 38 32 39 33 40 34 41 86 42 35 43 85 44
REMARK SMILES IDX 36 45 37 46 38 47 79 48 39 49 84 50 78 51 80 52 40 53 83 54
REMARK SMILES IDX 77 55 76 56 41 58 67 59 50 60 66 61 51 62 54 63 65 64 81 65
REMARK SMILES IDX 52 66 53 67 64 69 82 70 55 71 42 72 43 73 48 74 44 75 45 76
REMARK SMILES IDX 47 77 49 78 46 79 68 80 69 81 74 82 70 83 71 84 73 85 75 86
REMARK SMILES IDX 72 87 56 88 57 89 62 90 58 91 59 92 61 93 63 94 60 95
REMARK H PARENT 14 17 8 29 80 57 54 68
REMARK Flexibility Score: inf
ROOT
ATOM      1  C   UNL A   1      39.433  26.891  29.090  1.00  0.00     0.188 C 
ENDROOT
BRANCH   1   2
ATOM      2  O   UNL A   1      40.216  26.899  27.910  1.00  0.00    -0.376 OA
BRANCH   2   3
ATOM      3  C   UNL A   1      39.903  25.813  27.043  1.00  0.00     0.202 C 
BRANCH   3   4
ATOM      4  C   UNL A   1      38.996  24.691  27.610  1.00  0.00     0.261 C 
BRANCH   4   5
ATOM      5  O   UNL A   1      37.921  24.032  26.653  1.00  0.00    -0.463 OA
BRANCH   5   6
ATOM      6  C   UNL A   1      37.216  23.142  25.907  1.00  0.00     0.310 C 
ATOM      7  O   UNL A   1      37.942  22.595  25.060  1.00  0.00    -0.252 OA
BRANCH   6   8
ATOM      8  C   UNL A   1      35.697  22.587  25.902  1.00  0.00     0.119 C 
ATOM      9  C   UNL A   1      34.657  23.708  25.475  1.00  0.00     0.100 C 
ATOM     10  C   UNL A   1      33.245  23.041  25.618  1.00  0.00     0.025 C 
ATOM     11  C   UNL A   1      34.646  21.715  26.749  1.00  0.00     0.027 C 
ATOM     12  C   UNL A   1      32.817  23.091  27.051  1.00  0.00    -0.027 C 
ATOM     13  C   UNL A   1      33.572  21.552  25.630  1.00  0.00     0.017 C 
ATOM     14  C   UNL A   1      33.703  22.359  27.733  1.00  0.00    -0.027 C 
BRANCH   9  15
ATOM     15  C   UNL A   1      34.824  24.219  24.074  1.00  0.00     0.228 C 
ATOM     16  N   UNL A   1      34.125  25.296  23.613  1.00  0.00    -0.326 N 
ATOM     17  H   UNL A   1      34.328  25.496  22.672  1.00  0.00     0.169 HD
ATOM     18  O   UNL A   1      35.503  23.588  23.258  1.00  0.00    -0.274 OA
BRANCH  16  19
ATOM     19  C   UNL A   1      33.178  26.197  24.159  1.00  0.00     0.044 A 
ATOM     20  C   UNL A   1      31.883  26.102  21.935  1.00  0.00     0.046 C 
ATOM     21  C   UNL A   1      32.073  26.551  23.361  1.00  0.00    -0.027 A 
ATOM     22  C   UNL A   1      31.088  27.412  23.881  1.00  0.00     0.006 A 
ATOM     23  C   UNL A   1      31.164  27.895  25.185  1.00  0.00     0.014 A 
ATOM     24  C   UNL A   1      33.277  26.784  25.432  1.00  0.00     0.040 A 
ATOM     25  C   UNL A   1      32.259  27.579  25.986  1.00  0.00     0.041 A 
BRANCH  25  26
ATOM     26  C   UNL A   1      32.268  28.171  27.366  1.00  0.00     0.251 C 
ATOM     27  O   UNL A   1      31.422  27.803  28.183  1.00  0.00    -0.269 OA
ATOM     28  N   UNL A   1      33.229  29.064  27.780  1.00  0.00    -0.349 N 
ATOM     29  H   UNL A   1      33.185  29.326  28.729  1.00  0.00     0.164 HD
BRANCH  28  30
ATOM     30  C   UNL A   1      34.272  29.656  27.031  1.00  0.00     0.082 C 
ATOM     31  C   UNL A   1      35.127  30.647  27.747  1.00  0.00     0.027 C 
ATOM     32  C   UNL A   1      35.724  29.375  27.297  1.00  0.00     0.027 C 
ENDBRANCH  28  30
ENDBRANCH  25  26
ENDBRANCH  16  19
ENDBRANCH   9  15
ENDBRANCH   6   8
ENDBRANCH   5   6
ENDBRANCH   4   5
ENDBRANCH   3   4
ENDBRANCH   2   3
ENDBRANCH   1   2
BRANCH   1  33
ATOM     33  C   UNL A   1      38.788  28.254  29.360  1.00  0.00     0.188 C 
BRANCH  33  34
ATOM     34  O   UNL A   1      38.118  28.350  30.604  1.00  0.00    -0.376 OA
BRANCH  34  35
ATOM     35  C   UNL A   1      37.059  29.301  30.709  1.00  0.00     0.202 C 
BRANCH  35  36
ATOM     36  C   UNL A   1      37.147  29.916  32.105  1.00  0.00     0.261 C 
BRANCH  36  37
ATOM     37  O   UNL A   1      36.461  31.190  32.105  1.00  0.00    -0.460 OA
BRANCH  37  38
ATOM     38  C   UNL A   1      36.943  32.073  33.012  1.00  0.00     0.338 C 
ATOM     39  O   UNL A   1      36.538  32.197  34.166  1.00  0.00    -0.246 OA
BRANCH  38  40
ATOM     40  C   UNL A   1      37.842  33.046  32.324  1.00  0.00     0.060 A 
ATOM     41  C   UNL A   1      37.651  33.218  30.980  1.00  0.00     0.016 A 
ATOM     42  C   UNL A   1      39.007  33.596  32.880  1.00  0.00     0.016 A 
ATOM     43  C   UNL A   1      38.693  33.758  30.215  1.00  0.00     0.010 A 
ATOM     44  C   UNL A   1      40.074  34.068  32.057  1.00  0.00     0.010 A 
ATOM     45  C   UNL A   1      40.004  34.037  30.653  1.00  0.00    -0.014 A 
BRANCH  45  46
ATOM     46  C   UNL A   1      41.326  34.266  29.820  1.00  0.00     0.031 A 
ATOM     47  C   UNL A   1      42.237  33.086  29.657  1.00  0.00     0.074 A 
ATOM     48  C   UNL A   1      41.864  35.316  29.057  1.00  0.00     0.049 A 
ATOM     49  N   UNL A   1      43.391  33.141  29.057  1.00  0.00    -0.248 NA
ATOM     50  C   UNL A   1      41.979  31.786  30.269  1.00  0.00     0.031 C 
ATOM     51  C   UNL A   1      42.247  35.045  27.648  1.00  0.00     0.029 A 
ATOM     52  N   UNL A   1      41.931  36.729  29.013  1.00  0.00    -0.354 N 
ATOM     53  C   UNL A   1      43.739  31.850  28.807  1.00  0.00     0.074 A 
ATOM     54  C   UNL A   1      43.046  31.106  29.830  1.00  0.00     0.031 C 
ATOM     55  C   UNL A   1      42.644  36.162  27.024  1.00  0.00     0.029 A 
ATOM     56  C   UNL A   1      42.623  37.279  27.941  1.00  0.00     0.049 A 
ATOM     57  H   UNL A   1      41.511  37.291  29.704  1.00  0.00     0.167 HD
ATOM     58  C   UNL A   1      44.314  31.522  27.615  1.00  0.00     0.037 A 
ATOM     59  C   UNL A   1      43.242  38.496  27.785  1.00  0.00     0.037 A 
ATOM     60  C   UNL A   1      44.732  32.682  26.795  1.00  0.00     0.049 A 
ATOM     61  C   UNL A   1      44.617  38.293  27.133  1.00  0.00     0.074 A 
ATOM     62  C   UNL A   1      44.332  33.153  25.553  1.00  0.00     0.029 A 
ATOM     63  N   UNL A   1      45.642  33.626  27.272  1.00  0.00    -0.354 N 
ATOM     64  N   UNL A   1      44.944  37.201  26.494  1.00  0.00    -0.248 NA
ATOM     65  C   UNL A   1      45.794  39.146  27.342  1.00  0.00     0.031 C 
ATOM     66  C   UNL A   1      45.018  34.370  25.283  1.00  0.00     0.029 A 
ATOM     67  C   UNL A   1      45.860  34.649  26.345  1.00  0.00     0.049 A 
ATOM     68  H   UNL A   1      46.077  33.577  28.153  1.00  0.00     0.167 HD
ATOM     69  C   UNL A   1      46.300  37.007  26.606  1.00  0.00     0.074 A 
ATOM     70  C   UNL A   1      46.796  38.326  26.964  1.00  0.00     0.031 C 
ATOM     71  C   UNL A   1      46.833  35.735  26.604  1.00  0.00     0.037 A 
BRANCH  58  72
ATOM     72  C   UNL A   1      44.287  30.106  27.054  1.00  0.00     0.057 A 
ATOM     73  C   UNL A   1      45.487  29.488  26.656  1.00  0.00     0.134 A 
ATOM     74  C   UNL A   1      43.133  29.333  26.790  1.00  0.00     0.134 A 
ATOM     75  F   UNL A   1      46.670  30.100  26.805  1.00  0.00    -0.206 F 
ATOM     76  C   UNL A   1      45.531  28.214  26.068  1.00  0.00     0.040 A 
ATOM     77  C   UNL A   1      43.171  28.031  26.278  1.00  0.00     0.040 A 
ATOM     78  F   UNL A   1      41.891  29.807  26.932  1.00  0.00    -0.206 F 
ATOM     79  C   UNL A   1      44.373  27.469  25.901  1.00  0.00     0.006 A 
ENDBRANCH  58  72
BRANCH  59  80
ATOM     80  C   UNL A   1      42.821  39.634  28.680  1.00  0.00     0.057 A 
ATOM     81  C   UNL A   1      41.621  40.296  28.368  1.00  0.00     0.134 A 
ATOM     82  C   UNL A   1      43.372  39.988  29.920  1.00  0.00     0.134 A 
ATOM     83  F   UNL A   1      41.085  40.160  27.145  1.00  0.00    -0.206 F 
ATOM     84  C   UNL A   1      40.917  41.080  29.294  1.00  0.00     0.040 A 
ATOM     85  C   UNL A   1      42.660  40.728  30.880  1.00  0.00     0.040 A 
ATOM     86  F   UNL A   1      44.620  39.648  30.254  1.00  0.00    -0.206 F 
ATOM     87  C   UNL A   1      41.404  41.237  30.585  1.00  0.00     0.006 A 
ENDBRANCH  59  80
BRANCH  71  88
ATOM     88  C   UNL A   1      48.271  35.344  26.945  1.00  0.00     0.057 A 
ATOM     89  C   UNL A   1      49.317  35.136  26.033  1.00  0.00     0.134 A 
ATOM     90  C   UNL A   1      48.670  35.280  28.303  1.00  0.00     0.134 A 
ATOM     91  F   UNL A   1      49.153  35.314  24.717  1.00  0.00    -0.206 F 
ATOM     92  C   UNL A   1      50.627  34.812  26.432  1.00  0.00     0.040 A 
ATOM     93  C   UNL A   1      49.985  35.030  28.714  1.00  0.00     0.040 A 
ATOM     94  F   UNL A   1      47.797  35.481  29.301  1.00  0.00    -0.206 F 
ATOM     95  C   UNL A   1      50.967  34.767  27.777  1.00  0.00     0.006 A 
ENDBRANCH  71  88
ENDBRANCH  45  46
ENDBRANCH  38  40
ENDBRANCH  37  38
ENDBRANCH  36  37
ENDBRANCH  35  36
ENDBRANCH  34  35
ENDBRANCH  33  34
ENDBRANCH   1  33
TORSDOF 21
ENDMDL
MODEL 2
REMARK VINA RESULT:     -10.3      1.664      3.535
REMARK SMILES Cc1ccc(C(=O)NC2CC2)cc1NC(=O)[C@@H]1[C@@H](C(=O)OCCOCCOCCOC(=O)c2ccc(-c3c4nc(c(-c5c(F)cccc5F)c5ccc([nH]5)c(-c5c(F)cccc5F)c5nc(c(-c6c(F)cccc6F)c6ccc3[nH]6)C=C5)C=C4)cc2)[C@H]2C=C[C@@H]1C2
REMARK SMILES IDX 25 1 24 2 23 3 22 4 21 5 19 6 20 7 18 8 17 9 90 10 87 11
REMARK SMILES IDX 89 12 91 13 88 14 15 15 14 16 16 18 13 19 1 20 2 21 3 22
REMARK SMILES IDX 4 23 12 24 5 25 6 26 7 27 8 28 9 30 10 31 11 32 26 33 27 34
REMARK SMILES IDX 28 35 29 36 30 37 31 38 32 39 33 40 34 41 86 42 35 43 85 44
REMARK SMILES IDX 36 45 37 46 38 47 79 48 39 49 84 50 78 51 80 52 40 53 83 54
REMARK SMILES IDX 77 55 76 56 41 58 67 59 50 60 66 61 51 62 54 63 65 64 81 65
REMARK SMILES IDX 52 66 53 67 64 69 82 70 55 71 42 72 43 73 48 74 44 75 45 76
REMARK SMILES IDX 47 77 49 78 46 79 68 80 69 81 74 82 70 83 71 84 73 85 75 86
REMARK SMILES IDX 72 87 56 88 57 89 62 90 58 91 59 92 61 93 63 94 60 95
REMARK H PARENT 14 17 8 29 80 57 54 68
REMARK Flexibility Score: inf
ROOT
ATOM      1  C   UNL A   1      35.958  31.123  29.177  1.00  0.00     0.188 C 
ENDROOT
BRANCH   1   2
ATOM      2  O   UNL A   1      36.152  30.655  27.854  1.00  0.00    -0.376 OA
BRANCH   2   3
ATOM      3  C   UNL A   1      35.554  29.380  27.637  1.00  0.00     0.202 C 
BRANCH   3   4
ATOM      4  C   UNL A   1      34.386  29.309  26.621  1.00  0.00     0.261 C 
BRANCH   4   5
ATOM      5  O   UNL A   1      33.285  28.188  26.812  1.00  0.00    -0.463 OA
BRANCH   5   6
ATOM      6  C   UNL A   1      32.141  27.459  26.726  1.00  0.00     0.310 C 
ATOM      7  O   UNL A   1      31.524  27.469  27.804  1.00  0.00    -0.252 OA
BRANCH   6   8
ATOM      8  C   UNL A   1      31.372  26.653  25.554  1.00  0.00     0.119 C 
ATOM      9  C   UNL A   1      31.223  27.521  24.235  1.00  0.00     0.100 C 
ATOM     10  C   UNL A   1      30.380  26.640  23.249  1.00  0.00     0.025 C 
ATOM     11  C   UNL A   1      30.102  25.710  25.264  1.00  0.00     0.027 C 
ATOM     12  C   UNL A   1      28.928  26.774  23.585  1.00  0.00    -0.027 C 
ATOM     13  C   UNL A   1      30.523  25.241  23.838  1.00  0.00     0.017 C 
ATOM     14  C   UNL A   1      28.782  26.287  24.821  1.00  0.00    -0.027 C 
BRANCH   9  15
ATOM     15  C   UNL A   1      32.520  27.894  23.579  1.00  0.00     0.228 C 
ATOM     16  N   UNL A   1      33.517  26.982  23.386  1.00  0.00    -0.326 N 
ATOM     17  H   UNL A   1      34.310  27.382  22.962  1.00  0.00     0.169 HD
ATOM     18  O   UNL A   1      32.770  29.075  23.318  1.00  0.00    -0.274 OA
BRANCH  16  19
ATOM     19  C   UNL A   1      33.689  25.601  23.646  1.00  0.00     0.044 A 
ATOM     20  C   UNL A   1      32.917  25.106  21.239  1.00  0.00     0.046 C 
ATOM     21  C   UNL A   1      33.439  24.698  22.593  1.00  0.00    -0.027 A 
ATOM     22  C   UNL A   1      33.637  23.320  22.798  1.00  0.00     0.006 A 
ATOM     23  C   UNL A   1      34.110  22.829  24.013  1.00  0.00     0.014 A 
ATOM     24  C   UNL A   1      34.064  25.063  24.888  1.00  0.00     0.040 A 
ATOM     25  C   UNL A   1      34.341  23.698  25.076  1.00  0.00     0.041 A 
BRANCH  25  26
ATOM     26  C   UNL A   1      34.821  23.073  26.354  1.00  0.00     0.251 C 
ATOM     27  O   UNL A   1      33.996  22.739  27.206  1.00  0.00    -0.269 OA
ATOM     28  N   UNL A   1      36.148  22.793  26.587  1.00  0.00    -0.349 N 
ATOM     29  H   UNL A   1      36.340  22.311  27.424  1.00  0.00     0.164 HD
BRANCH  28  30
ATOM     30  C   UNL A   1      37.274  23.103  25.788  1.00  0.00     0.082 C 
ATOM     31  C   UNL A   1      38.220  24.117  26.337  1.00  0.00     0.027 C 
ATOM     32  C   UNL A   1      38.674  22.723  26.177  1.00  0.00     0.027 C 
ENDBRANCH  28  30
ENDBRANCH  25  26
ENDBRANCH  16  19
ENDBRANCH   9  15
ENDBRANCH   6   8
ENDBRANCH   5   6
ENDBRANCH   4   5
ENDBRANCH   3   4
ENDBRANCH   2   3
ENDBRANCH   1   2
BRANCH   1  33
ATOM     33  C   UNL A   1      35.081  32.378  29.217  1.00  0.00     0.188 C 
BRANCH  33  34
ATOM     34  O   UNL A   1      34.381  32.566  30.434  1.00  0.00    -0.376 OA
BRANCH  34  35
ATOM     35  C   UNL A   1      34.401  33.871  31.010  1.00  0.00     0.202 C 
BRANCH  35  36
ATOM     36  C   UNL A   1      34.540  33.691  32.521  1.00  0.00     0.261 C 
BRANCH  36  37
ATOM     37  O   UNL A   1      35.879  33.233  32.822  1.00  0.00    -0.460 OA
BRANCH  37  38
ATOM     38  C   UNL A   1      36.788  34.231  32.936  1.00  0.00     0.338 C 
ATOM     39  O   UNL A   1      36.531  35.394  33.243  1.00  0.00    -0.246 OA
BRANCH  38  40
ATOM     40  C   UNL A   1      38.094  33.777  32.374  1.00  0.00     0.060 A 
ATOM     41  C   UNL A   1      39.223  34.184  33.031  1.00  0.00     0.016 A 
ATOM     42  C   UNL A   1      38.265  33.192  31.110  1.00  0.00     0.016 A 
ATOM     43  C   UNL A   1      40.444  34.167  32.346  1.00  0.00     0.010 A 
ATOM     44  C   UNL A   1      39.513  33.264  30.418  1.00  0.00     0.010 A 
ATOM     45  C   UNL A   1      40.639  33.894  30.976  1.00  0.00    -0.014 A 
BRANCH  45  46
ATOM     46  C   UNL A   1      41.870  34.220  30.040  1.00  0.00     0.031 A 
ATOM     47  C   UNL A   1      42.847  33.110  29.796  1.00  0.00     0.074 A 
ATOM     48  C   UNL A   1      42.268  35.308  29.244  1.00  0.00     0.049 A 
ATOM     49  N   UNL A   1      43.942  33.249  29.106  1.00  0.00    -0.248 NA
ATOM     50  C   UNL A   1      42.734  31.793  30.417  1.00  0.00     0.031 C 
ATOM     51  C   UNL A   1      42.554  35.067  27.807  1.00  0.00     0.029 A 
ATOM     52  N   UNL A   1      42.228  36.722  29.206  1.00  0.00    -0.354 N 
ATOM     53  C   UNL A   1      44.361  31.987  28.819  1.00  0.00     0.074 A 
ATOM     54  C   UNL A   1      43.808  31.193  29.889  1.00  0.00     0.031 C 
ATOM     55  C   UNL A   1      42.818  36.211  27.162  1.00  0.00     0.029 A 
ATOM     56  C   UNL A   1      42.790  37.322  28.086  1.00  0.00     0.049 A 
ATOM     57  H   UNL A   1      41.826  37.251  29.933  1.00  0.00     0.167 HD
ATOM     58  C   UNL A   1      44.860  31.703  27.583  1.00  0.00     0.037 A 
ATOM     59  C   UNL A   1      43.304  38.581  27.889  1.00  0.00     0.037 A 
ATOM     60  C   UNL A   1      45.125  32.892  26.740  1.00  0.00     0.049 A 
ATOM     61  C   UNL A   1      44.634  38.479  27.127  1.00  0.00     0.074 A 
ATOM     62  C   UNL A   1      44.594  33.335  25.538  1.00  0.00     0.029 A 
ATOM     63  N   UNL A   1      46.001  33.898  27.149  1.00  0.00    -0.354 N 
ATOM     64  N   UNL A   1      44.987  37.414  26.456  1.00  0.00    -0.248 NA
ATOM     65  C   UNL A   1      45.759  39.415  27.247  1.00  0.00     0.031 C 
ATOM     66  C   UNL A   1      45.167  34.599  25.222  1.00  0.00     0.029 A 
ATOM     67  C   UNL A   1      46.069  34.936  26.215  1.00  0.00     0.049 A 
ATOM     68  H   UNL A   1      46.508  33.880  27.993  1.00  0.00     0.167 HD
ATOM     69  C   UNL A   1      46.358  37.320  26.458  1.00  0.00     0.074 A 
ATOM     70  C   UNL A   1      46.784  38.670  26.784  1.00  0.00     0.031 C 
ATOM     71  C   UNL A   1      46.979  36.089  26.403  1.00  0.00     0.037 A 
BRANCH  58  72
ATOM     72  C   UNL A   1      44.890  30.290  27.016  1.00  0.00     0.057 A 
ATOM     73  C   UNL A   1      46.096  29.759  26.521  1.00  0.00     0.134 A 
ATOM     74  C   UNL A   1      43.777  29.437  26.836  1.00  0.00     0.134 A 
ATOM     75  F   UNL A   1      47.241  30.454  26.583  1.00  0.00    -0.206 F 
ATOM     76  C   UNL A   1      46.185  28.493  25.922  1.00  0.00     0.040 A 
ATOM     77  C   UNL A   1      43.867  28.142  26.313  1.00  0.00     0.040 A 
ATOM     78  F   UNL A   1      42.519  29.821  27.076  1.00  0.00    -0.206 F 
ATOM     79  C   UNL A   1      45.074  27.668  25.840  1.00  0.00     0.006 A 
ENDBRANCH  58  72
BRANCH  59  80
ATOM     80  C   UNL A   1      42.877  39.684  28.823  1.00  0.00     0.057 A 
ATOM     81  C   UNL A   1      41.668  40.342  28.539  1.00  0.00     0.134 A 
ATOM     82  C   UNL A   1      43.430  40.003  30.072  1.00  0.00     0.134 A 
ATOM     83  F   UNL A   1      41.127  40.241  27.315  1.00  0.00    -0.206 F 
ATOM     84  C   UNL A   1      40.960  41.088  29.495  1.00  0.00     0.040 A 
ATOM     85  C   UNL A   1      42.716  40.703  31.059  1.00  0.00     0.040 A 
ATOM     86  F   UNL A   1      44.683  39.665  30.388  1.00  0.00    -0.206 F 
ATOM     87  C   UNL A   1      41.453  41.208  30.787  1.00  0.00     0.006 A 
ENDBRANCH  59  80
BRANCH  71  88
ATOM     88  C   UNL A   1      48.464  35.803  26.624  1.00  0.00     0.057 A 
ATOM     89  C   UNL A   1      49.455  35.727  25.634  1.00  0.00     0.134 A 
ATOM     90  C   UNL A   1      48.963  35.706  27.947  1.00  0.00     0.134 A 
ATOM     91  F   UNL A   1      49.183  35.955  24.344  1.00  0.00    -0.206 F 
ATOM     92  C   UNL A   1      50.812  35.494  25.926  1.00  0.00     0.040 A 
ATOM     93  C   UNL A   1      50.320  35.547  28.254  1.00  0.00     0.040 A 
ATOM     94  F   UNL A   1      48.151  35.785  29.011  1.00  0.00    -0.206 F 
ATOM     95  C   UNL A   1      51.250  35.412  27.240  1.00  0.00     0.006 A 
ENDBRANCH  71  88
ENDBRANCH  45  46
ENDBRANCH  38  40
ENDBRANCH  37  38
ENDBRANCH  36  37
ENDBRANCH  35  36
ENDBRANCH  34  35
ENDBRANCH  33  34
ENDBRANCH   1  33
TORSDOF 21
ENDMDL
MODEL 3
REMARK VINA RESULT:     -10.2      7.394     12.312
REMARK SMILES Cc1ccc(C(=O)NC2CC2)cc1NC(=O)[C@@H]1[C@@H](C(=O)OCCOCCOCCOC(=O)c2ccc(-c3c4nc(c(-c5c(F)cccc5F)c5ccc([nH]5)c(-c5c(F)cccc5F)c5nc(c(-c6c(F)cccc6F)c6ccc3[nH]6)C=C5)C=C4)cc2)[C@H]2C=C[C@@H]1C2
REMARK SMILES IDX 25 1 24 2 23 3 22 4 21 5 19 6 20 7 18 8 17 9 90 10 87 11
REMARK SMILES IDX 89 12 91 13 88 14 15 15 14 16 16 18 13 19 1 20 2 21 3 22
REMARK SMILES IDX 4 23 12 24 5 25 6 26 7 27 8 28 9 30 10 31 11 32 26 33 27 34
REMARK SMILES IDX 28 35 29 36 30 37 31 38 32 39 33 40 34 41 86 42 35 43 85 44
REMARK SMILES IDX 36 45 37 46 38 47 79 48 39 49 84 50 78 51 80 52 40 53 83 54
REMARK SMILES IDX 77 55 76 56 41 58 67 59 50 60 66 61 51 62 54 63 65 64 81 65
REMARK SMILES IDX 52 66 53 67 64 69 82 70 55 71 42 72 43 73 48 74 44 75 45 76
REMARK SMILES IDX 47 77 49 78 46 79 68 80 69 81 74 82 70 83 71 84 73 85 75 86
REMARK SMILES IDX 72 87 56 88 57 89 62 90 58 91 59 92 61 93 63 94 60 95
REMARK H PARENT 14 17 8 29 80 57 54 68
REMARK Flexibility Score: inf
ROOT
ATOM      1  C   UNL A   1      39.601  22.885  26.548  1.00  0.00     0.188 C 
ENDROOT
BRANCH   1   2
ATOM      2  O   UNL A   1      38.676  23.956  26.600  1.00  0.00    -0.376 OA
BRANCH   2   3
ATOM      3  C   UNL A   1      37.579  23.769  25.711  1.00  0.00     0.202 C 
BRANCH   3   4
ATOM      4  C   UNL A   1      36.154  23.866  26.311  1.00  0.00     0.261 C 
BRANCH   4   5
ATOM      5  O   UNL A   1      35.092  24.793  25.590  1.00  0.00    -0.463 OA
BRANCH   5   6
ATOM      6  C   UNL A   1      34.443  25.561  24.676  1.00  0.00     0.310 C 
ATOM      7  O   UNL A   1      34.499  25.050  23.544  1.00  0.00    -0.252 OA
BRANCH   6   8
ATOM      8  C   UNL A   1      33.574  26.924  24.721  1.00  0.00     0.119 C 
ATOM      9  C   UNL A   1      32.014  26.634  24.718  1.00  0.00     0.100 C 
ATOM     10  C   UNL A   1      31.329  28.043  24.665  1.00  0.00     0.025 C 
ATOM     11  C   UNL A   1      33.460  28.396  24.085  1.00  0.00     0.027 C 
ATOM     12  C   UNL A   1      31.312  28.531  23.250  1.00  0.00    -0.027 C 
ATOM     13  C   UNL A   1      32.445  28.980  25.113  1.00  0.00     0.017 C 
ATOM     14  C   UNL A   1      32.590  28.667  22.884  1.00  0.00    -0.027 C 
BRANCH   9  15
ATOM     15  C   UNL A   1      31.512  25.885  25.918  1.00  0.00     0.228 C 
ATOM     16  N   UNL A   1      31.515  24.522  25.968  1.00  0.00    -0.326 N 
ATOM     17  H   UNL A   1      31.138  24.180  26.810  1.00  0.00     0.169 HD
ATOM     18  O   UNL A   1      30.956  26.489  26.841  1.00  0.00    -0.274 OA
BRANCH  16  19
ATOM     19  C   UNL A   1      31.929  23.478  25.105  1.00  0.00     0.044 A 
ATOM     20  C   UNL A   1      30.211  24.301  23.372  1.00  0.00     0.046 C 
ATOM     21  C   UNL A   1      31.326  23.400  23.833  1.00  0.00    -0.027 A 
ATOM     22  C   UNL A   1      31.739  22.403  22.930  1.00  0.00     0.006 A 
ATOM     23  C   UNL A   1      32.757  21.509  23.253  1.00  0.00     0.014 A 
ATOM     24  C   UNL A   1      32.879  22.498  25.437  1.00  0.00     0.040 A 
ATOM     25  C   UNL A   1      33.352  21.550  24.512  1.00  0.00     0.041 A 
BRANCH  25  26
ATOM     26  C   UNL A   1      34.419  20.528  24.778  1.00  0.00     0.251 C 
ATOM     27  O   UNL A   1      35.601  20.840  24.622  1.00  0.00    -0.269 OA
ATOM     28  N   UNL A   1      34.134  19.270  25.257  1.00  0.00    -0.349 N 
ATOM     29  H   UNL A   1      34.915  18.710  25.472  1.00  0.00     0.164 HD
BRANCH  28  30
ATOM     30  C   UNL A   1      32.872  18.672  25.485  1.00  0.00     0.082 C 
ATOM     31  C   UNL A   1      32.284  17.906  24.349  1.00  0.00     0.027 C 
ATOM     32  C   UNL A   1      32.684  17.184  25.573  1.00  0.00     0.027 C 
ENDBRANCH  28  30
ENDBRANCH  25  26
ENDBRANCH  16  19
ENDBRANCH   9  15
ENDBRANCH   6   8
ENDBRANCH   5   6
ENDBRANCH   4   5
ENDBRANCH   3   4
ENDBRANCH   2   3
ENDBRANCH   1   2
BRANCH   1  33
ATOM     33  C   UNL A   1      40.734  23.057  27.565  1.00  0.00     0.188 C 
BRANCH  33  34
ATOM     34  O   UNL A   1      42.005  22.638  27.103  1.00  0.00    -0.376 OA
BRANCH  34  35
ATOM     35  C   UNL A   1      42.231  22.650  25.694  1.00  0.00     0.202 C 
BRANCH  35  36
ATOM     36  C   UNL A   1      43.744  22.638  25.483  1.00  0.00     0.261 C 
BRANCH  36  37
ATOM     37  O   UNL A   1      44.286  23.923  25.869  1.00  0.00    -0.460 OA
BRANCH  37  38
ATOM     38  C   UNL A   1      45.339  23.842  26.717  1.00  0.00     0.338 C 
ATOM     39  O   UNL A   1      46.256  23.027  26.635  1.00  0.00    -0.246 OA
BRANCH  38  40
ATOM     40  C   UNL A   1      45.081  24.703  27.909  1.00  0.00     0.060 A 
ATOM     41  C   UNL A   1      46.171  25.281  28.501  1.00  0.00     0.016 A 
ATOM     42  C   UNL A   1      43.866  24.761  28.611  1.00  0.00     0.016 A 
ATOM     43  C   UNL A   1      46.063  25.725  29.824  1.00  0.00     0.010 A 
ATOM     44  C   UNL A   1      43.818  25.152  29.984  1.00  0.00     0.010 A 
ATOM     45  C   UNL A   1      44.972  25.527  30.694  1.00  0.00    -0.014 A 
BRANCH  45  46
ATOM     46  C   UNL A   1      44.896  25.630  32.269  1.00  0.00     0.031 A 
ATOM     47  C   UNL A   1      44.546  26.969  32.844  1.00  0.00     0.074 A 
ATOM     48  C   UNL A   1      44.974  24.724  33.341  1.00  0.00     0.049 A 
ATOM     49  N   UNL A   1      44.515  27.223  34.121  1.00  0.00    -0.248 NA
ATOM     50  C   UNL A   1      44.332  28.160  32.026  1.00  0.00     0.031 C 
ATOM     51  C   UNL A   1      43.857  24.683  34.318  1.00  0.00     0.029 A 
ATOM     52  N   UNL A   1      45.628  23.531  33.735  1.00  0.00    -0.354 N 
ATOM     53  C   UNL A   1      43.836  28.394  34.248  1.00  0.00     0.074 A 
ATOM     54  C   UNL A   1      44.053  29.053  32.983  1.00  0.00     0.031 C 
ATOM     55  C   UNL A   1      44.027  23.704  35.216  1.00  0.00     0.029 A 
ATOM     56  C   UNL A   1      45.279  23.023  34.980  1.00  0.00     0.049 A 
ATOM     57  H   UNL A   1      46.292  23.088  33.159  1.00  0.00     0.167 HD
ATOM     58  C   UNL A   1      42.936  28.550  35.260  1.00  0.00     0.037 A 
ATOM     59  C   UNL A   1      45.952  22.195  35.846  1.00  0.00     0.037 A 
ATOM     60  C   UNL A   1      42.976  27.482  36.286  1.00  0.00     0.049 A 
ATOM     61  C   UNL A   1      45.839  22.745  37.275  1.00  0.00     0.074 A 
ATOM     62  C   UNL A   1      42.054  26.530  36.694  1.00  0.00     0.029 A 
ATOM     63  N   UNL A   1      44.137  27.205  37.009  1.00  0.00    -0.354 N 
ATOM     64  N   UNL A   1      44.934  23.619  37.629  1.00  0.00    -0.248 NA
ATOM     65  C   UNL A   1      46.840  22.575  38.336  1.00  0.00     0.031 C 
ATOM     66  C   UNL A   1      42.660  25.696  37.675  1.00  0.00     0.029 A 
ATOM     67  C   UNL A   1      43.953  26.137  37.893  1.00  0.00     0.049 A 
ATOM     68  H   UNL A   1      44.981  27.699  36.909  1.00  0.00     0.167 HD
ATOM     69  C   UNL A   1      45.432  24.388  38.653  1.00  0.00     0.074 A 
ATOM     70  C   UNL A   1      46.520  23.580  39.177  1.00  0.00     0.031 C 
ATOM     71  C   UNL A   1      45.028  25.698  38.811  1.00  0.00     0.037 A 
BRANCH  58  72
ATOM     72  C   UNL A   1      41.812  29.575  35.208  1.00  0.00     0.057 A 
ATOM     73  C   UNL A   1      41.852  30.703  36.048  1.00  0.00     0.134 A 
ATOM     74  C   UNL A   1      40.629  29.479  34.439  1.00  0.00     0.134 A 
ATOM     75  F   UNL A   1      42.890  30.925  36.867  1.00  0.00    -0.206 F 
ATOM     76  C   UNL A   1      40.819  31.652  36.104  1.00  0.00     0.040 A 
ATOM     77  C   UNL A   1      39.629  30.460  34.427  1.00  0.00     0.040 A 
ATOM     78  F   UNL A   1      40.317  28.402  33.712  1.00  0.00    -0.206 F 
ATOM     79  C   UNL A   1      39.715  31.547  35.272  1.00  0.00     0.006 A 
ENDBRANCH  58  72
BRANCH  59  80
ATOM     80  C   UNL A   1      47.051  21.322  35.295  1.00  0.00     0.057 A 
ATOM     81  C   UNL A   1      46.674  20.112  34.686  1.00  0.00     0.134 A 
ATOM     82  C   UNL A   1      48.400  21.661  35.121  1.00  0.00     0.134 A 
ATOM     83  F   UNL A   1      45.453  19.605  34.915  1.00  0.00    -0.206 F 
ATOM     84  C   UNL A   1      47.508  19.407  33.805  1.00  0.00     0.040 A 
ATOM     85  C   UNL A   1      49.235  20.999  34.205  1.00  0.00     0.040 A 
ATOM     86  F   UNL A   1      48.974  22.634  35.835  1.00  0.00    -0.206 F 
ATOM     87  C   UNL A   1      48.773  19.894  33.505  1.00  0.00     0.006 A 
ENDBRANCH  59  80
BRANCH  71  88
ATOM     88  C   UNL A   1      45.647  26.740  39.743  1.00  0.00     0.057 A 
ATOM     89  C   UNL A   1      46.788  27.516  39.486  1.00  0.00     0.134 A 
ATOM     90  C   UNL A   1      44.983  27.074  40.950  1.00  0.00     0.134 A 
ATOM     91  F   UNL A   1      47.444  27.442  38.322  1.00  0.00    -0.206 F 
ATOM     92  C   UNL A   1      47.274  28.483  40.385  1.00  0.00     0.040 A 
ATOM     93  C   UNL A   1      45.416  28.083  41.819  1.00  0.00     0.040 A 
ATOM     94  F   UNL A   1      43.863  26.445  41.332  1.00  0.00    -0.206 F 
ATOM     95  C   UNL A   1      46.583  28.776  41.552  1.00  0.00     0.006 A 
ENDBRANCH  71  88
ENDBRANCH  45  46
ENDBRANCH  38  40
ENDBRANCH  37  38
ENDBRANCH  36  37
ENDBRANCH  35  36
ENDBRANCH  34  35
ENDBRANCH  33  34
ENDBRANCH   1  33
TORSDOF 21
ENDMDL
