MODEL 1
REMARK VINA RESULT:     -10.8      0.000      0.000
REMARK SMILES C[C@@H](C(=O)OCCOCCOCCOC(=O)c1ccc(-c2c3nc(c(-c4c(F)cccc4F)c4ccc([nH]4)c(-c4c(F)cccc4F)c4nc(c(-c5c(F)cccc5F)c5ccc2[nH]5)C=C4)C=C3)cc1)c1ccc(-c2ccccc2)c(F)c1
REMARK SMILES IDX 9 1 8 2 7 3 6 4 5 5 3 6 4 7 2 8 1 9 71 10 72 11 83 12 73 13
REMARK SMILES IDX 81 14 74 15 82 16 75 17 76 18 80 19 77 20 79 21 78 22 10 23
REMARK SMILES IDX 11 24 12 25 13 26 14 27 15 28 16 29 17 30 18 31 70 32 19 33
REMARK SMILES IDX 69 34 20 35 21 36 22 37 63 38 23 39 68 40 62 41 64 42 24 43
REMARK SMILES IDX 67 44 61 45 60 46 25 48 51 49 34 50 50 51 35 52 38 53 49 54
REMARK SMILES IDX 65 55 36 56 37 57 48 59 66 60 39 61 26 62 27 63 32 64 28 65
REMARK SMILES IDX 29 66 31 67 33 68 30 69 52 70 53 71 58 72 54 73 55 74 57 75
REMARK SMILES IDX 59 76 56 77 40 78 41 79 46 80 42 81 43 82 45 83 47 84 44 85
REMARK H PARENT 64 47 38 58
REMARK Flexibility Score: inf
ROOT
ATOM      1  C   UNL A   1      39.493  21.714  26.139  1.00  0.00     0.188 C 
ENDROOT
BRANCH   1   2
ATOM      2  O   UNL A   1      38.393  21.205  25.392  1.00  0.00    -0.376 OA
BRANCH   2   3
ATOM      3  C   UNL A   1      37.379  22.108  24.959  1.00  0.00     0.202 C 
BRANCH   3   4
ATOM      4  C   UNL A   1      36.159  22.332  25.867  1.00  0.00     0.261 C 
BRANCH   4   5
ATOM      5  O   UNL A   1      35.080  21.386  25.683  1.00  0.00    -0.463 OA
BRANCH   5   6
ATOM      6  C   UNL A   1      34.000  21.550  26.491  1.00  0.00     0.313 C 
ATOM      7  O   UNL A   1      34.048  21.457  27.716  1.00  0.00    -0.252 OA
BRANCH   6   8
ATOM      8  C   UNL A   1      32.692  21.900  25.752  1.00  0.00     0.126 C 
ATOM      9  C   UNL A   1      32.471  21.212  24.401  1.00  0.00     0.025 C 
BRANCH   8  10
ATOM     10  C   UNL A   1      32.395  23.402  25.800  1.00  0.00    -0.031 A 
ATOM     11  C   UNL A   1      33.481  24.288  25.794  1.00  0.00     0.005 A 
ATOM     12  C   UNL A   1      31.117  23.967  25.869  1.00  0.00     0.044 A 
ATOM     13  C   UNL A   1      33.300  25.675  25.841  1.00  0.00     0.012 A 
ATOM     14  C   UNL A   1      30.945  25.363  25.918  1.00  0.00     0.131 A 
ATOM     15  C   UNL A   1      32.025  26.261  25.894  1.00  0.00     0.017 A 
ATOM     16  F   UNL A   1      29.683  25.816  25.987  1.00  0.00    -0.206 F 
BRANCH  15  17
ATOM     17  C   UNL A   1      31.882  27.741  25.930  1.00  0.00    -0.015 A 
ATOM     18  C   UNL A   1      32.235  28.469  27.083  1.00  0.00     0.009 A 
ATOM     19  C   UNL A   1      31.359  28.482  24.854  1.00  0.00     0.009 A 
ATOM     20  C   UNL A   1      32.040  29.848  27.173  1.00  0.00     0.001 A 
ATOM     21  C   UNL A   1      31.198  29.873  24.930  1.00  0.00     0.001 A 
ATOM     22  C   UNL A   1      31.534  30.556  26.093  1.00  0.00     0.000 A 
ENDBRANCH  15  17
ENDBRANCH   8  10
ENDBRANCH   6   8
ENDBRANCH   5   6
ENDBRANCH   4   5
ENDBRANCH   3   4
ENDBRANCH   2   3
ENDBRANCH   1   2
BRANCH   1  23
ATOM     23  C   UNL A   1      40.655  20.768  26.483  1.00  0.00     0.188 C 
BRANCH  23  24
ATOM     24  O   UNL A   1      41.761  20.863  25.614  1.00  0.00    -0.376 OA
BRANCH  24  25
ATOM     25  C   UNL A   1      43.029  20.471  26.109  1.00  0.00     0.202 C 
BRANCH  25  26
ATOM     26  C   UNL A   1      44.267  21.298  25.716  1.00  0.00     0.261 C 
BRANCH  26  27
ATOM     27  O   UNL A   1      44.353  22.627  26.261  1.00  0.00    -0.460 OA
BRANCH  27  28
ATOM     28  C   UNL A   1      43.872  23.638  25.510  1.00  0.00     0.338 C 
ATOM     29  O   UNL A   1      43.803  23.680  24.285  1.00  0.00    -0.246 OA
BRANCH  28  30
ATOM     30  C   UNL A   1      43.237  24.616  26.416  1.00  0.00     0.060 A 
ATOM     31  C   UNL A   1      43.758  25.916  26.487  1.00  0.00     0.016 A 
ATOM     32  C   UNL A   1      42.132  24.259  27.191  1.00  0.00     0.016 A 
ATOM     33  C   UNL A   1      43.177  26.858  27.335  1.00  0.00     0.010 A 
ATOM     34  C   UNL A   1      41.569  25.199  28.063  1.00  0.00     0.010 A 
ATOM     35  C   UNL A   1      42.101  26.499  28.154  1.00  0.00    -0.014 A 
BRANCH  35  36
ATOM     36  C   UNL A   1      41.670  27.421  29.236  1.00  0.00     0.031 A 
ATOM     37  C   UNL A   1      42.433  27.403  30.530  1.00  0.00     0.074 A 
ATOM     38  C   UNL A   1      40.659  28.291  29.063  1.00  0.00     0.049 A 
ATOM     39  N   UNL A   1      42.206  28.052  31.643  1.00  0.00    -0.248 NA
ATOM     40  C   UNL A   1      43.618  26.529  30.573  1.00  0.00     0.031 C 
ATOM     41  C   UNL A   1      39.899  28.468  27.829  1.00  0.00     0.029 A 
ATOM     42  N   UNL A   1      40.099  29.194  29.936  1.00  0.00    -0.354 N 
ATOM     43  C   UNL A   1      43.201  27.648  32.523  1.00  0.00     0.074 A 
ATOM     44  C   UNL A   1      44.027  26.690  31.821  1.00  0.00     0.031 C 
ATOM     45  C   UNL A   1      38.967  29.417  28.025  1.00  0.00     0.029 A 
ATOM     46  C   UNL A   1      39.038  29.890  29.407  1.00  0.00     0.049 A 
ATOM     47  H   UNL A   1      40.427  29.330  30.854  1.00  0.00     0.167 HD
ATOM     48  C   UNL A   1      43.404  28.036  33.804  1.00  0.00     0.037 A 
ATOM     49  C   UNL A   1      38.210  30.789  29.982  1.00  0.00     0.037 A 
ATOM     50  C   UNL A   1      42.585  28.995  34.497  1.00  0.00     0.049 A 
ATOM     51  C   UNL A   1      38.423  31.156  31.430  1.00  0.00     0.074 A 
ATOM     52  C   UNL A   1      42.695  29.439  35.802  1.00  0.00     0.029 A 
ATOM     53  N   UNL A   1      41.501  29.656  33.937  1.00  0.00    -0.354 N 
ATOM     54  N   UNL A   1      39.364  30.767  32.258  1.00  0.00    -0.248 NA
ATOM     55  C   UNL A   1      37.454  32.087  32.030  1.00  0.00     0.031 C 
ATOM     56  C   UNL A   1      41.648  30.333  36.048  1.00  0.00     0.029 A 
ATOM     57  C   UNL A   1      40.920  30.488  34.879  1.00  0.00     0.049 A 
ATOM     58  H   UNL A   1      41.193  29.549  33.009  1.00  0.00     0.167 HD
ATOM     59  C   UNL A   1      39.113  31.420  33.460  1.00  0.00     0.074 A 
ATOM     60  C   UNL A   1      37.953  32.257  33.246  1.00  0.00     0.031 C 
ATOM     61  C   UNL A   1      39.774  31.328  34.640  1.00  0.00     0.037 A 
BRANCH  48  62
ATOM     62  C   UNL A   1      44.526  27.379  34.552  1.00  0.00     0.057 A 
ATOM     63  C   UNL A   1      44.343  26.206  35.295  1.00  0.00     0.134 A 
ATOM     64  C   UNL A   1      45.815  27.927  34.517  1.00  0.00     0.134 A 
ATOM     65  F   UNL A   1      43.130  25.640  35.386  1.00  0.00    -0.206 F 
ATOM     66  C   UNL A   1      45.395  25.616  35.996  1.00  0.00     0.040 A 
ATOM     67  C   UNL A   1      46.881  27.332  35.192  1.00  0.00     0.040 A 
ATOM     68  F   UNL A   1      46.059  29.050  33.823  1.00  0.00    -0.206 F 
ATOM     69  C   UNL A   1      46.670  26.175  35.941  1.00  0.00     0.006 A 
ENDBRANCH  48  62
BRANCH  49  70
ATOM     70  C   UNL A   1      37.090  31.398  29.208  1.00  0.00     0.057 A 
ATOM     71  C   UNL A   1      37.136  32.732  28.781  1.00  0.00     0.134 A 
ATOM     72  C   UNL A   1      35.931  30.675  28.897  1.00  0.00     0.134 A 
ATOM     73  F   UNL A   1      38.194  33.501  29.082  1.00  0.00    -0.206 F 
ATOM     74  C   UNL A   1      36.089  33.318  28.067  1.00  0.00     0.040 A 
ATOM     75  C   UNL A   1      34.885  31.241  28.165  1.00  0.00     0.040 A 
ATOM     76  F   UNL A   1      35.799  29.402  29.296  1.00  0.00    -0.206 F 
ATOM     77  C   UNL A   1      34.962  32.568  27.749  1.00  0.00     0.006 A 
ENDBRANCH  49  70
BRANCH  61  78
ATOM     78  C   UNL A   1      39.281  32.177  35.777  1.00  0.00     0.057 A 
ATOM     79  C   UNL A   1      38.395  31.680  36.742  1.00  0.00     0.134 A 
ATOM     80  C   UNL A   1      39.731  33.494  35.933  1.00  0.00     0.134 A 
ATOM     81  F   UNL A   1      37.917  30.430  36.648  1.00  0.00    -0.206 F 
ATOM     82  C   UNL A   1      37.955  32.471  37.806  1.00  0.00     0.040 A 
ATOM     83  C   UNL A   1      39.321  34.285  37.007  1.00  0.00     0.040 A 
ATOM     84  F   UNL A   1      40.588  34.030  35.051  1.00  0.00    -0.206 F 
ATOM     85  C   UNL A   1      38.424  33.775  37.945  1.00  0.00     0.006 A 
ENDBRANCH  61  78
ENDBRANCH  35  36
ENDBRANCH  28  30
ENDBRANCH  27  28
ENDBRANCH  26  27
ENDBRANCH  25  26
ENDBRANCH  24  25
ENDBRANCH  23  24
ENDBRANCH   1  23
TORSDOF 19
ENDMDL
MODEL 2
REMARK VINA RESULT:     -10.6      3.574      5.835
REMARK SMILES C[C@@H](C(=O)OCCOCCOCCOC(=O)c1ccc(-c2c3nc(c(-c4c(F)cccc4F)c4ccc([nH]4)c(-c4c(F)cccc4F)c4nc(c(-c5c(F)cccc5F)c5ccc2[nH]5)C=C4)C=C3)cc1)c1ccc(-c2ccccc2)c(F)c1
REMARK SMILES IDX 9 1 8 2 7 3 6 4 5 5 3 6 4 7 2 8 1 9 71 10 72 11 83 12 73 13
REMARK SMILES IDX 81 14 74 15 82 16 75 17 76 18 80 19 77 20 79 21 78 22 10 23
REMARK SMILES IDX 11 24 12 25 13 26 14 27 15 28 16 29 17 30 18 31 70 32 19 33
REMARK SMILES IDX 69 34 20 35 21 36 22 37 63 38 23 39 68 40 62 41 64 42 24 43
REMARK SMILES IDX 67 44 61 45 60 46 25 48 51 49 34 50 50 51 35 52 38 53 49 54
REMARK SMILES IDX 65 55 36 56 37 57 48 59 66 60 39 61 26 62 27 63 32 64 28 65
REMARK SMILES IDX 29 66 31 67 33 68 30 69 52 70 53 71 58 72 54 73 55 74 57 75
REMARK SMILES IDX 59 76 56 77 40 78 41 79 46 80 42 81 43 82 45 83 47 84 44 85
REMARK H PARENT 64 47 38 58
REMARK Flexibility Score: inf
ROOT
ATOM      1  C   UNL A   1      36.190  23.732  24.956  1.00  0.00     0.188 C 
ENDROOT
BRANCH   1   2
ATOM      2  O   UNL A   1      34.915  24.313  25.213  1.00  0.00    -0.376 OA
BRANCH   2   3
ATOM      3  C   UNL A   1      34.308  25.112  24.202  1.00  0.00     0.202 C 
BRANCH   3   4
ATOM      4  C   UNL A   1      33.831  26.526  24.572  1.00  0.00     0.261 C 
BRANCH   4   5
ATOM      5  O   UNL A   1      32.437  26.621  24.946  1.00  0.00    -0.463 OA
BRANCH   5   6
ATOM      6  C   UNL A   1      31.548  26.072  24.076  1.00  0.00     0.313 C 
ATOM      7  O   UNL A   1      31.450  26.414  22.900  1.00  0.00    -0.252 OA
BRANCH   6   8
ATOM      8  C   UNL A   1      30.677  24.948  24.673  1.00  0.00     0.126 C 
ATOM      9  C   UNL A   1      30.150  25.178  26.093  1.00  0.00     0.025 C 
BRANCH   8  10
ATOM     10  C   UNL A   1      31.263  23.562  24.387  1.00  0.00    -0.031 A 
ATOM     11  C   UNL A   1      31.614  22.757  25.480  1.00  0.00     0.005 A 
ATOM     12  C   UNL A   1      31.496  23.034  23.112  1.00  0.00     0.044 A 
ATOM     13  C   UNL A   1      32.161  21.481  25.309  1.00  0.00     0.012 A 
ATOM     14  C   UNL A   1      32.048  21.750  22.950  1.00  0.00     0.131 A 
ATOM     15  C   UNL A   1      32.387  20.928  24.037  1.00  0.00     0.017 A 
ATOM     16  F   UNL A   1      32.241  21.327  21.691  1.00  0.00    -0.206 F 
BRANCH  15  17
ATOM     17  C   UNL A   1      32.958  19.562  23.906  1.00  0.00    -0.015 A 
ATOM     18  C   UNL A   1      34.129  19.202  24.602  1.00  0.00     0.009 A 
ATOM     19  C   UNL A   1      32.400  18.580  23.066  1.00  0.00     0.009 A 
ATOM     20  C   UNL A   1      34.730  17.953  24.439  1.00  0.00     0.001 A 
ATOM     21  C   UNL A   1      32.983  17.311  22.931  1.00  0.00     0.001 A 
ATOM     22  C   UNL A   1      34.152  17.000  23.614  1.00  0.00     0.000 A 
ENDBRANCH  15  17
ENDBRANCH   8  10
ENDBRANCH   6   8
ENDBRANCH   5   6
ENDBRANCH   4   5
ENDBRANCH   3   4
ENDBRANCH   2   3
ENDBRANCH   1   2
BRANCH   1  23
ATOM     23  C   UNL A   1      36.252  22.295  24.413  1.00  0.00     0.188 C 
BRANCH  23  24
ATOM     24  O   UNL A   1      36.840  21.363  25.292  1.00  0.00    -0.376 OA
BRANCH  24  25
ATOM     25  C   UNL A   1      38.252  21.358  25.405  1.00  0.00     0.202 C 
BRANCH  25  26
ATOM     26  C   UNL A   1      39.005  20.028  25.221  1.00  0.00     0.261 C 
BRANCH  26  27
ATOM     27  O   UNL A   1      39.859  19.616  26.304  1.00  0.00    -0.460 OA
BRANCH  27  28
ATOM     28  C   UNL A   1      41.191  19.679  26.103  1.00  0.00     0.338 C 
ATOM     29  O   UNL A   1      41.878  18.893  25.457  1.00  0.00    -0.246 OA
BRANCH  28  30
ATOM     30  C   UNL A   1      41.667  20.979  26.615  1.00  0.00     0.060 A 
ATOM     31  C   UNL A   1      41.666  21.208  27.998  1.00  0.00     0.016 A 
ATOM     32  C   UNL A   1      42.117  21.970  25.740  1.00  0.00     0.016 A 
ATOM     33  C   UNL A   1      42.110  22.429  28.507  1.00  0.00     0.010 A 
ATOM     34  C   UNL A   1      42.535  23.205  26.252  1.00  0.00     0.010 A 
ATOM     35  C   UNL A   1      42.516  23.447  27.638  1.00  0.00    -0.014 A 
BRANCH  35  36
ATOM     36  C   UNL A   1      42.727  24.817  28.172  1.00  0.00     0.031 A 
ATOM     37  C   UNL A   1      44.121  25.217  28.567  1.00  0.00     0.074 A 
ATOM     38  C   UNL A   1      41.721  25.705  28.262  1.00  0.00     0.049 A 
ATOM     39  N   UNL A   1      44.545  26.321  29.126  1.00  0.00    -0.248 NA
ATOM     40  C   UNL A   1      45.182  24.235  28.290  1.00  0.00     0.031 C 
ATOM     41  C   UNL A   1      40.346  25.469  27.831  1.00  0.00     0.029 A 
ATOM     42  N   UNL A   1      41.706  26.992  28.746  1.00  0.00    -0.354 N 
ATOM     43  C   UNL A   1      45.915  26.155  29.291  1.00  0.00     0.074 A 
ATOM     44  C   UNL A   1      46.249  24.843  28.784  1.00  0.00     0.031 C 
ATOM     45  C   UNL A   1      39.619  26.573  28.075  1.00  0.00     0.029 A 
ATOM     46  C   UNL A   1      40.464  27.581  28.714  1.00  0.00     0.049 A 
ATOM     47  H   UNL A   1      42.510  27.449  29.085  1.00  0.00     0.167 HD
ATOM     48  C   UNL A   1      46.812  27.018  29.824  1.00  0.00     0.037 A 
ATOM     49  C   UNL A   1      40.059  28.786  29.167  1.00  0.00     0.037 A 
ATOM     50  C   UNL A   1      46.477  28.326  30.320  1.00  0.00     0.049 A 
ATOM     51  C   UNL A   1      41.070  29.703  29.812  1.00  0.00     0.074 A 
ATOM     52  C   UNL A   1      47.309  29.268  30.899  1.00  0.00     0.029 A 
ATOM     53  N   UNL A   1      45.203  28.876  30.298  1.00  0.00    -0.354 N 
ATOM     54  N   UNL A   1      42.362  29.538  29.969  1.00  0.00    -0.248 NA
ATOM     55  C   UNL A   1      40.565  30.976  30.352  1.00  0.00     0.031 C 
ATOM     56  C   UNL A   1      46.531  30.369  31.272  1.00  0.00     0.029 A 
ATOM     57  C   UNL A   1      45.223  30.135  30.874  1.00  0.00     0.049 A 
ATOM     58  H   UNL A   1      44.405  28.436  29.928  1.00  0.00     0.167 HD
ATOM     59  C   UNL A   1      42.823  30.689  30.599  1.00  0.00     0.074 A 
ATOM     60  C   UNL A   1      41.680  31.559  30.766  1.00  0.00     0.031 C 
ATOM     61  C   UNL A   1      44.077  30.995  31.015  1.00  0.00     0.037 A 
BRANCH  48  62
ATOM     62  C   UNL A   1      48.231  26.547  29.944  1.00  0.00     0.057 A 
ATOM     63  C   UNL A   1      48.690  25.836  31.060  1.00  0.00     0.134 A 
ATOM     64  C   UNL A   1      49.149  26.803  28.918  1.00  0.00     0.134 A 
ATOM     65  F   UNL A   1      47.867  25.575  32.087  1.00  0.00    -0.206 F 
ATOM     66  C   UNL A   1      50.018  25.418  31.161  1.00  0.00     0.040 A 
ATOM     67  C   UNL A   1      50.472  26.367  28.995  1.00  0.00     0.040 A 
ATOM     68  F   UNL A   1      48.774  27.479  27.821  1.00  0.00    -0.206 F 
ATOM     69  C   UNL A   1      50.911  25.678  30.124  1.00  0.00     0.006 A 
ENDBRANCH  48  62
BRANCH  49  70
ATOM     70  C   UNL A   1      38.631  29.203  29.051  1.00  0.00     0.057 A 
ATOM     71  C   UNL A   1      37.756  29.129  30.144  1.00  0.00     0.134 A 
ATOM     72  C   UNL A   1      38.093  29.658  27.841  1.00  0.00     0.134 A 
ATOM     73  F   UNL A   1      38.187  28.659  31.324  1.00  0.00    -0.206 F 
ATOM     74  C   UNL A   1      36.414  29.503  30.045  1.00  0.00     0.040 A 
ATOM     75  C   UNL A   1      36.759  30.056  27.732  1.00  0.00     0.040 A 
ATOM     76  F   UNL A   1      38.859  29.729  26.742  1.00  0.00    -0.206 F 
ATOM     77  C   UNL A   1      35.914  29.978  28.837  1.00  0.00     0.006 A 
ENDBRANCH  49  70
BRANCH  61  78
ATOM     78  C   UNL A   1      44.283  32.337  31.657  1.00  0.00     0.057 A 
ATOM     79  C   UNL A   1      44.604  33.476  30.907  1.00  0.00     0.134 A 
ATOM     80  C   UNL A   1      44.117  32.501  33.039  1.00  0.00     0.134 A 
ATOM     81  F   UNL A   1      44.788  33.388  29.581  1.00  0.00    -0.206 F 
ATOM     82  C   UNL A   1      44.776  34.723  31.511  1.00  0.00     0.040 A 
ATOM     83  C   UNL A   1      44.258  33.747  33.650  1.00  0.00     0.040 A 
ATOM     84  F   UNL A   1      43.799  31.454  33.816  1.00  0.00    -0.206 F 
ATOM     85  C   UNL A   1      44.596  34.863  32.885  1.00  0.00     0.006 A 
ENDBRANCH  61  78
ENDBRANCH  35  36
ENDBRANCH  28  30
ENDBRANCH  27  28
ENDBRANCH  26  27
ENDBRANCH  25  26
ENDBRANCH  24  25
ENDBRANCH  23  24
ENDBRANCH   1  23
TORSDOF 19
ENDMDL
MODEL 3
REMARK VINA RESULT:     -10.6      5.344     10.414
REMARK SMILES C[C@@H](C(=O)OCCOCCOCCOC(=O)c1ccc(-c2c3nc(c(-c4c(F)cccc4F)c4ccc([nH]4)c(-c4c(F)cccc4F)c4nc(c(-c5c(F)cccc5F)c5ccc2[nH]5)C=C4)C=C3)cc1)c1ccc(-c2ccccc2)c(F)c1
REMARK SMILES IDX 9 1 8 2 7 3 6 4 5 5 3 6 4 7 2 8 1 9 71 10 72 11 83 12 73 13
REMARK SMILES IDX 81 14 74 15 82 16 75 17 76 18 80 19 77 20 79 21 78 22 10 23
REMARK SMILES IDX 11 24 12 25 13 26 14 27 15 28 16 29 17 30 18 31 70 32 19 33
REMARK SMILES IDX 69 34 20 35 21 36 22 37 63 38 23 39 68 40 62 41 64 42 24 43
REMARK SMILES IDX 67 44 61 45 60 46 25 48 51 49 34 50 50 51 35 52 38 53 49 54
REMARK SMILES IDX 65 55 36 56 37 57 48 59 66 60 39 61 26 62 27 63 32 64 28 65
REMARK SMILES IDX 29 66 31 67 33 68 30 69 52 70 53 71 58 72 54 73 55 74 57 75
REMARK SMILES IDX 59 76 56 77 40 78 41 79 46 80 42 81 43 82 45 83 47 84 44 85
REMARK H PARENT 64 47 38 58
REMARK Flexibility Score: inf
ROOT
ATOM      1  C   UNL A   1      33.355  35.651  30.236  1.00  0.00     0.188 C 
ENDROOT
BRANCH   1   2
ATOM      2  O   UNL A   1      33.923  35.555  28.934  1.00  0.00    -0.376 OA
BRANCH   2   3
ATOM      3  C   UNL A   1      35.061  34.719  28.740  1.00  0.00     0.202 C 
BRANCH   3   4
ATOM      4  C   UNL A   1      34.952  33.549  27.750  1.00  0.00     0.261 C 
BRANCH   4   5
ATOM      5  O   UNL A   1      35.853  32.447  28.007  1.00  0.00    -0.463 OA
BRANCH   5   6
ATOM      6  C   UNL A   1      35.401  31.494  28.864  1.00  0.00     0.313 C 
ATOM      7  O   UNL A   1      34.830  31.749  29.922  1.00  0.00    -0.252 OA
BRANCH   6   8
ATOM      8  C   UNL A   1      35.630  30.044  28.391  1.00  0.00     0.126 C 
ATOM      9  C   UNL A   1      37.065  29.676  27.998  1.00  0.00     0.025 C 
BRANCH   8  10
ATOM     10  C   UNL A   1      34.528  29.576  27.436  1.00  0.00    -0.031 A 
ATOM     11  C   UNL A   1      33.291  30.233  27.485  1.00  0.00     0.005 A 
ATOM     12  C   UNL A   1      34.650  28.524  26.521  1.00  0.00     0.044 A 
ATOM     13  C   UNL A   1      32.229  29.866  26.652  1.00  0.00     0.012 A 
ATOM     14  C   UNL A   1      33.576  28.161  25.688  1.00  0.00     0.131 A 
ATOM     15  C   UNL A   1      32.338  28.824  25.716  1.00  0.00     0.017 A 
ATOM     16  F   UNL A   1      33.782  27.137  24.845  1.00  0.00    -0.206 F 
BRANCH  15  17
ATOM     17  C   UNL A   1      31.185  28.478  24.843  1.00  0.00    -0.015 A 
ATOM     18  C   UNL A   1      30.656  27.172  24.834  1.00  0.00     0.009 A 
ATOM     19  C   UNL A   1      30.592  29.401  23.963  1.00  0.00     0.009 A 
ATOM     20  C   UNL A   1      29.626  26.799  23.970  1.00  0.00     0.001 A 
ATOM     21  C   UNL A   1      29.531  29.037  23.121  1.00  0.00     0.001 A 
ATOM     22  C   UNL A   1      29.052  27.733  23.121  1.00  0.00     0.000 A 
ENDBRANCH  15  17
ENDBRANCH   8  10
ENDBRANCH   6   8
ENDBRANCH   5   6
ENDBRANCH   4   5
ENDBRANCH   3   4
ENDBRANCH   2   3
ENDBRANCH   1   2
BRANCH   1  23
ATOM     23  C   UNL A   1      34.086  34.984  31.414  1.00  0.00     0.188 C 
BRANCH  23  24
ATOM     24  O   UNL A   1      33.261  34.198  32.243  1.00  0.00    -0.376 OA
BRANCH  24  25
ATOM     25  C   UNL A   1      33.872  33.495  33.311  1.00  0.00     0.202 C 
BRANCH  25  26
ATOM     26  C   UNL A   1      35.408  33.414  33.362  1.00  0.00     0.261 C 
BRANCH  26  27
ATOM     27  O   UNL A   1      35.992  32.116  33.145  1.00  0.00    -0.460 OA
BRANCH  27  28
ATOM     28  C   UNL A   1      37.135  31.832  33.800  1.00  0.00     0.338 C 
ATOM     29  O   UNL A   1      37.310  31.835  35.016  1.00  0.00    -0.246 OA
BRANCH  28  30
ATOM     30  C   UNL A   1      38.103  31.302  32.819  1.00  0.00     0.060 A 
ATOM     31  C   UNL A   1      39.111  30.433  33.259  1.00  0.00     0.016 A 
ATOM     32  C   UNL A   1      38.019  31.656  31.471  1.00  0.00     0.016 A 
ATOM     33  C   UNL A   1      40.038  29.919  32.351  1.00  0.00     0.010 A 
ATOM     34  C   UNL A   1      38.969  31.162  30.568  1.00  0.00     0.010 A 
ATOM     35  C   UNL A   1      39.996  30.306  31.007  1.00  0.00    -0.014 A 
BRANCH  35  36
ATOM     36  C   UNL A   1      41.136  29.969  30.118  1.00  0.00     0.031 A 
ATOM     37  C   UNL A   1      41.154  28.614  29.469  1.00  0.00     0.074 A 
ATOM     38  C   UNL A   1      42.111  30.857  29.850  1.00  0.00     0.049 A 
ATOM     39  N   UNL A   1      42.072  28.060  28.719  1.00  0.00    -0.248 NA
ATOM     40  C   UNL A   1      39.971  27.768  29.698  1.00  0.00     0.031 C 
ATOM     41  C   UNL A   1      42.162  32.229  30.345  1.00  0.00     0.029 A 
ATOM     42  N   UNL A   1      43.248  30.731  29.087  1.00  0.00    -0.354 N 
ATOM     43  C   UNL A   1      41.589  26.795  28.409  1.00  0.00     0.074 A 
ATOM     44  C   UNL A   1      40.304  26.658  29.059  1.00  0.00     0.031 C 
ATOM     45  C   UNL A   1      43.277  32.818  29.878  1.00  0.00     0.029 A 
ATOM     46  C   UNL A   1      44.038  31.857  29.082  1.00  0.00     0.049 A 
ATOM     47  H   UNL A   1      43.475  29.912  28.590  1.00  0.00     0.167 HD
ATOM     48  C   UNL A   1      42.168  25.831  27.655  1.00  0.00     0.037 A 
ATOM     49  C   UNL A   1      45.245  32.072  28.517  1.00  0.00     0.037 A 
ATOM     50  C   UNL A   1      43.443  25.973  27.003  1.00  0.00     0.049 A 
ATOM     51  C   UNL A   1      45.895  30.958  27.732  1.00  0.00     0.074 A 
ATOM     52  C   UNL A   1      44.126  25.048  26.234  1.00  0.00     0.029 A 
ATOM     53  N   UNL A   1      44.227  27.117  27.046  1.00  0.00    -0.354 N 
ATOM     54  N   UNL A   1      45.434  29.763  27.447  1.00  0.00    -0.248 NA
ATOM     55  C   UNL A   1      47.239  31.220  27.193  1.00  0.00     0.031 C 
ATOM     56  C   UNL A   1      45.347  25.614  25.852  1.00  0.00     0.029 A 
ATOM     57  C   UNL A   1      45.398  26.912  26.336  1.00  0.00     0.049 A 
ATOM     58  H   UNL A   1      43.986  27.949  27.512  1.00  0.00     0.167 HD
ATOM     59  C   UNL A   1      46.417  29.145  26.681  1.00  0.00     0.074 A 
ATOM     60  C   UNL A   1      47.484  30.108  26.516  1.00  0.00     0.031 C 
ATOM     61  C   UNL A   1      46.442  27.890  26.169  1.00  0.00     0.037 A 
BRANCH  48  62
ATOM     62  C   UNL A   1      41.448  24.520  27.543  1.00  0.00     0.057 A 
ATOM     63  C   UNL A   1      41.807  23.403  28.307  1.00  0.00     0.134 A 
ATOM     64  C   UNL A   1      40.370  24.380  26.660  1.00  0.00     0.134 A 
ATOM     65  F   UNL A   1      42.843  23.464  29.157  1.00  0.00    -0.206 F 
ATOM     66  C   UNL A   1      41.135  22.186  28.180  1.00  0.00     0.040 A 
ATOM     67  C   UNL A   1      39.672  23.177  26.543  1.00  0.00     0.040 A 
ATOM     68  F   UNL A   1      39.974  25.412  25.898  1.00  0.00    -0.206 F 
ATOM     69  C   UNL A   1      40.060  22.073  27.300  1.00  0.00     0.006 A 
ENDBRANCH  48  62
BRANCH  49  70
ATOM     70  C   UNL A   1      45.938  33.384  28.676  1.00  0.00     0.057 A 
ATOM     71  C   UNL A   1      45.821  34.395  27.713  1.00  0.00     0.134 A 
ATOM     72  C   UNL A   1      46.758  33.654  29.779  1.00  0.00     0.134 A 
ATOM     73  F   UNL A   1      45.089  34.193  26.606  1.00  0.00    -0.206 F 
ATOM     74  C   UNL A   1      46.474  35.622  27.843  1.00  0.00     0.040 A 
ATOM     75  C   UNL A   1      47.401  34.884  29.933  1.00  0.00     0.040 A 
ATOM     76  F   UNL A   1      46.945  32.726  30.729  1.00  0.00    -0.206 F 
ATOM     77  C   UNL A   1      47.261  35.873  28.963  1.00  0.00     0.006 A 
ENDBRANCH  49  70
BRANCH  61  78
ATOM     78  C   UNL A   1      47.643  27.499  25.356  1.00  0.00     0.057 A 
ATOM     79  C   UNL A   1      48.781  26.929  25.943  1.00  0.00     0.134 A 
ATOM     80  C   UNL A   1      47.646  27.655  23.964  1.00  0.00     0.134 A 
ATOM     81  F   UNL A   1      48.849  26.760  27.272  1.00  0.00    -0.206 F 
ATOM     82  C   UNL A   1      49.886  26.552  25.177  1.00  0.00     0.040 A 
ATOM     83  C   UNL A   1      48.732  27.256  23.185  1.00  0.00     0.040 A 
ATOM     84  F   UNL A   1      46.585  28.185  23.336  1.00  0.00    -0.206 F 
ATOM     85  C   UNL A   1      49.861  26.708  23.793  1.00  0.00     0.006 A 
ENDBRANCH  61  78
ENDBRANCH  35  36
ENDBRANCH  28  30
ENDBRANCH  27  28
ENDBRANCH  26  27
ENDBRANCH  25  26
ENDBRANCH  24  25
ENDBRANCH  23  24
ENDBRANCH   1  23
TORSDOF 19
ENDMDL
