MODEL 1
REMARK VINA RESULT:      -9.6      0.000      0.000
REMARK SMILES [NH3+]C[C@H]1CC[C@@H](C(=O)N[C@H](CC(=O)OCCOCCOCCOC(=O)c2ccc(-c3c4nc(c(-c5c(F)cccc5F)c5ccc([nH]5)c(-c5c(F)cccc5F)c5nc(c(-c6c(F)cccc6F)c6ccc3[nH]6)C=C5)C=C4)cc2)c2cccs2)O1
REMARK SMILES IDX 17 1 16 2 15 3 14 4 12 5 13 6 11 7 10 8 9 9 7 10 8 11 6 13
REMARK SMILES IDX 3 14 4 15 85 16 5 17 2 18 1 19 80 23 81 24 84 25 82 26 83 27
REMARK SMILES IDX 18 28 19 29 20 30 21 31 22 32 23 33 24 34 25 35 26 36 27 37
REMARK SMILES IDX 79 38 28 39 78 40 29 41 30 42 31 43 72 44 32 45 77 46 71 47
REMARK SMILES IDX 73 48 33 49 76 50 70 51 69 52 34 54 60 55 43 56 59 57 44 58
REMARK SMILES IDX 47 59 58 60 74 61 45 62 46 63 57 65 75 66 48 67 35 68 36 69
REMARK SMILES IDX 41 70 37 71 38 72 40 73 42 74 39 75 61 76 62 77 67 78 63 79
REMARK SMILES IDX 64 80 66 81 68 82 65 83 49 84 50 85 55 86 51 87 52 88 54 89
REMARK SMILES IDX 56 90 53 91
REMARK H PARENT 9 12 1 20 1 21 1 22 73 53 47 64
REMARK Flexibility Score: inf
ROOT
ATOM      1  O   UNL A   1      39.833  22.668  26.767  1.00  0.00    -0.376 OA
ENDROOT
BRANCH   1   2
ATOM      2  C   UNL A   1      39.083  21.700  26.052  1.00  0.00     0.202 C 
BRANCH   2   3
ATOM      3  C   UNL A   1      37.672  22.100  25.614  1.00  0.00     0.261 C 
BRANCH   3   4
ATOM      4  O   UNL A   1      37.348  21.815  24.236  1.00  0.00    -0.463 OA
BRANCH   4   5
ATOM      5  C   UNL A   1      36.675  22.794  23.594  1.00  0.00     0.308 C 
ATOM      6  O   UNL A   1      36.875  23.126  22.429  1.00  0.00    -0.252 OA
BRANCH   5   7
ATOM      7  C   UNL A   1      35.702  23.579  24.437  1.00  0.00     0.153 C 
BRANCH   7   8
ATOM      8  C   UNL A   1      34.204  23.642  24.125  1.00  0.00     0.133 C 
BRANCH   8   9
ATOM      9  N   UNL A   1      33.899  24.360  22.874  1.00  0.00    -0.346 N 
ATOM     10  C   UNL A   1      33.504  25.646  22.639  1.00  0.00     0.249 C 
ATOM     11  O   UNL A   1      33.603  26.073  21.486  1.00  0.00    -0.272 OA
ATOM     12  H   UNL A   1      33.996  23.813  22.061  1.00  0.00     0.164 HD
BRANCH  10  13
ATOM     13  C   UNL A   1      32.886  26.495  23.759  1.00  0.00     0.207 C 
ATOM     14  C   UNL A   1      31.429  28.319  23.817  1.00  0.00     0.174 C 
ATOM     15  C   UNL A   1      30.806  27.193  24.627  1.00  0.00     0.041 C 
ATOM     16  O   UNL A   1      32.752  27.882  23.445  1.00  0.00    -0.359 OA
ATOM     17  C   UNL A   1      31.495  25.971  24.085  1.00  0.00     0.045 C 
BRANCH  14  18
ATOM     18  C   UNL A   1      30.653  28.646  22.531  1.00  0.00     0.291 C 
BRANCH  18  19
ATOM     19  N   UNL A   1      31.295  29.744  21.797  1.00  0.00    -0.355 N 
ATOM     20  H   UNL A   1      30.664  30.084  21.072  1.00  0.00     0.344 HD
ATOM     21  H   UNL A   1      32.156  29.407  21.367  1.00  0.00     0.344 HD
ATOM     22  H   UNL A   1      31.512  30.504  22.443  1.00  0.00     0.344 HD
ENDBRANCH  18  19
ENDBRANCH  14  18
ENDBRANCH  10  13
ENDBRANCH   8   9
BRANCH   8  23
ATOM     23  C   UNL A   1      33.481  22.304  23.977  1.00  0.00     0.028 A 
ATOM     24  C   UNL A   1      32.605  21.844  23.007  1.00  0.00     0.017 A 
ATOM     25  S   UNL A   1      33.604  21.150  25.264  1.00  0.00    -0.147 S 
ATOM     26  C   UNL A   1      32.005  20.592  23.345  1.00  0.00     0.012 A 
ATOM     27  C   UNL A   1      32.459  20.107  24.548  1.00  0.00     0.065 A 
ENDBRANCH   8  23
ENDBRANCH   7   8
ENDBRANCH   5   7
ENDBRANCH   4   5
ENDBRANCH   3   4
ENDBRANCH   2   3
ENDBRANCH   1   2
BRANCH   1  28
ATOM     28  C   UNL A   1      40.810  22.262  27.718  1.00  0.00     0.188 C 
BRANCH  28  29
ATOM     29  C   UNL A   1      42.193  21.772  27.266  1.00  0.00     0.188 C 
BRANCH  29  30
ATOM     30  O   UNL A   1      42.538  20.475  27.715  1.00  0.00    -0.376 OA
BRANCH  30  31
ATOM     31  C   UNL A   1      42.002  19.407  26.948  1.00  0.00     0.202 C 
BRANCH  31  32
ATOM     32  C   UNL A   1      42.584  19.384  25.531  1.00  0.00     0.261 C 
BRANCH  32  33
ATOM     33  O   UNL A   1      43.980  19.026  25.479  1.00  0.00    -0.460 OA
BRANCH  33  34
ATOM     34  C   UNL A   1      44.681  19.507  24.434  1.00  0.00     0.338 C 
ATOM     35  O   UNL A   1      44.902  18.942  23.368  1.00  0.00    -0.246 OA
BRANCH  34  36
ATOM     36  C   UNL A   1      45.013  20.915  24.706  1.00  0.00     0.060 A 
ATOM     37  C   UNL A   1      45.620  21.241  25.922  1.00  0.00     0.016 A 
ATOM     38  C   UNL A   1      44.691  21.915  23.789  1.00  0.00     0.016 A 
ATOM     39  C   UNL A   1      45.887  22.571  26.244  1.00  0.00     0.010 A 
ATOM     40  C   UNL A   1      44.948  23.252  24.118  1.00  0.00     0.010 A 
ATOM     41  C   UNL A   1      45.521  23.589  25.359  1.00  0.00    -0.014 A 
BRANCH  41  42
ATOM     42  C   UNL A   1      45.581  25.008  25.791  1.00  0.00     0.031 A 
ATOM     43  C   UNL A   1      46.895  25.734  25.702  1.00  0.00     0.074 A 
ATOM     44  C   UNL A   1      44.489  25.662  26.226  1.00  0.00     0.049 A 
ATOM     45  N   UNL A   1      47.228  26.913  26.157  1.00  0.00    -0.248 NA
ATOM     46  C   UNL A   1      47.981  25.028  25.003  1.00  0.00     0.031 C 
ATOM     47  C   UNL A   1      43.135  25.112  26.277  1.00  0.00     0.029 A 
ATOM     48  N   UNL A   1      44.353  26.938  26.716  1.00  0.00    -0.354 N 
ATOM     49  C   UNL A   1      48.568  27.079  25.830  1.00  0.00     0.074 A 
ATOM     50  C   UNL A   1      48.987  25.877  25.141  1.00  0.00     0.031 C 
ATOM     51  C   UNL A   1      42.308  26.041  26.786  1.00  0.00     0.029 A 
ATOM     52  C   UNL A   1      43.081  27.229  27.145  1.00  0.00     0.049 A 
ATOM     53  H   UNL A   1      45.097  27.582  26.758  1.00  0.00     0.167 HD
ATOM     54  C   UNL A   1      49.377  28.134  26.085  1.00  0.00     0.037 A 
ATOM     55  C   UNL A   1      42.606  28.312  27.793  1.00  0.00     0.037 A 
ATOM     56  C   UNL A   1      48.957  29.336  26.753  1.00  0.00     0.049 A 
ATOM     57  C   UNL A   1      43.543  29.437  28.146  1.00  0.00     0.074 A 
ATOM     58  C   UNL A   1      49.704  30.460  27.060  1.00  0.00     0.029 A 
ATOM     59  N   UNL A   1      47.672  29.571  27.217  1.00  0.00    -0.354 N 
ATOM     60  N   UNL A   1      44.819  29.569  27.874  1.00  0.00    -0.248 NA
ATOM     61  C   UNL A   1      42.977  30.558  28.912  1.00  0.00     0.031 C 
ATOM     62  C   UNL A   1      48.880  31.359  27.747  1.00  0.00     0.029 A 
ATOM     63  C   UNL A   1      47.609  30.813  27.827  1.00  0.00     0.049 A 
ATOM     64  H   UNL A   1      46.915  28.948  27.127  1.00  0.00     0.167 HD
ATOM     65  C   UNL A   1      45.203  30.788  28.420  1.00  0.00     0.074 A 
ATOM     66  C   UNL A   1      44.021  31.367  29.023  1.00  0.00     0.031 C 
ATOM     67  C   UNL A   1      46.425  31.376  28.423  1.00  0.00     0.037 A 
BRANCH  54  68
ATOM     68  C   UNL A   1      50.815  28.009  25.678  1.00  0.00     0.057 A 
ATOM     69  C   UNL A   1      51.825  27.699  26.596  1.00  0.00     0.134 A 
ATOM     70  C   UNL A   1      51.189  28.194  24.341  1.00  0.00     0.134 A 
ATOM     71  F   UNL A   1      51.535  27.531  27.895  1.00  0.00    -0.206 F 
ATOM     72  C   UNL A   1      53.161  27.598  26.203  1.00  0.00     0.040 A 
ATOM     73  C   UNL A   1      52.517  28.072  23.931  1.00  0.00     0.040 A 
ATOM     74  F   UNL A   1      50.269  28.493  23.412  1.00  0.00    -0.206 F 
ATOM     75  C   UNL A   1      53.509  27.780  24.865  1.00  0.00     0.006 A 
ENDBRANCH  54  68
BRANCH  55  76
ATOM     76  C   UNL A   1      41.180  28.367  28.202  1.00  0.00     0.057 A 
ATOM     77  C   UNL A   1      40.766  27.911  29.459  1.00  0.00     0.134 A 
ATOM     78  C   UNL A   1      40.192  28.851  27.335  1.00  0.00     0.134 A 
ATOM     79  F   UNL A   1      41.660  27.408  30.322  1.00  0.00    -0.206 F 
ATOM     80  C   UNL A   1      39.421  27.926  29.836  1.00  0.00     0.040 A 
ATOM     81  C   UNL A   1      38.848  28.896  27.708  1.00  0.00     0.040 A 
ATOM     82  F   UNL A   1      40.522  29.294  26.114  1.00  0.00    -0.206 F 
ATOM     83  C   UNL A   1      38.460  28.427  28.961  1.00  0.00     0.006 A 
ENDBRANCH  55  76
BRANCH  67  84
ATOM     84  C   UNL A   1      46.541  32.722  29.076  1.00  0.00     0.057 A 
ATOM     85  C   UNL A   1      46.899  32.862  30.422  1.00  0.00     0.134 A 
ATOM     86  C   UNL A   1      46.335  33.894  28.336  1.00  0.00     0.134 A 
ATOM     87  F   UNL A   1      47.097  31.778  31.188  1.00  0.00    -0.206 F 
ATOM     88  C   UNL A   1      47.028  34.119  31.016  1.00  0.00     0.040 A 
ATOM     89  C   UNL A   1      46.485  35.156  28.911  1.00  0.00     0.040 A 
ATOM     90  F   UNL A   1      46.000  33.831  27.039  1.00  0.00    -0.206 F 
ATOM     91  C   UNL A   1      46.827  35.271  30.257  1.00  0.00     0.006 A 
ENDBRANCH  67  84
ENDBRANCH  41  42
ENDBRANCH  34  36
ENDBRANCH  33  34
ENDBRANCH  32  33
ENDBRANCH  31  32
ENDBRANCH  30  31
ENDBRANCH  29  30
ENDBRANCH  28  29
ENDBRANCH   1  28
TORSDOF 23
ENDMDL
MODEL 2
REMARK VINA RESULT:      -9.5      4.811      7.745
REMARK SMILES [NH3+]C[C@H]1CC[C@@H](C(=O)N[C@H](CC(=O)OCCOCCOCCOC(=O)c2ccc(-c3c4nc(c(-c5c(F)cccc5F)c5ccc([nH]5)c(-c5c(F)cccc5F)c5nc(c(-c6c(F)cccc6F)c6ccc3[nH]6)C=C5)C=C4)cc2)c2cccs2)O1
REMARK SMILES IDX 17 1 16 2 15 3 14 4 12 5 13 6 11 7 10 8 9 9 7 10 8 11 6 13
REMARK SMILES IDX 3 14 4 15 85 16 5 17 2 18 1 19 80 23 81 24 84 25 82 26 83 27
REMARK SMILES IDX 18 28 19 29 20 30 21 31 22 32 23 33 24 34 25 35 26 36 27 37
REMARK SMILES IDX 79 38 28 39 78 40 29 41 30 42 31 43 72 44 32 45 77 46 71 47
REMARK SMILES IDX 73 48 33 49 76 50 70 51 69 52 34 54 60 55 43 56 59 57 44 58
REMARK SMILES IDX 47 59 58 60 74 61 45 62 46 63 57 65 75 66 48 67 35 68 36 69
REMARK SMILES IDX 41 70 37 71 38 72 40 73 42 74 39 75 61 76 62 77 67 78 63 79
REMARK SMILES IDX 64 80 66 81 68 82 65 83 49 84 50 85 55 86 51 87 52 88 54 89
REMARK SMILES IDX 56 90 53 91
REMARK H PARENT 9 12 1 20 1 21 1 22 73 53 47 64
REMARK Flexibility Score: inf
ROOT
ATOM      1  O   UNL A   1      39.666  22.135  26.912  1.00  0.00    -0.376 OA
ENDROOT
BRANCH   1   2
ATOM      2  C   UNL A   1      38.722  22.043  25.859  1.00  0.00     0.202 C 
BRANCH   2   3
ATOM      3  C   UNL A   1      37.541  23.016  25.896  1.00  0.00     0.261 C 
BRANCH   3   4
ATOM      4  O   UNL A   1      37.281  23.720  24.663  1.00  0.00    -0.463 OA
BRANCH   4   5
ATOM      5  C   UNL A   1      36.529  23.043  23.768  1.00  0.00     0.308 C 
ATOM      6  O   UNL A   1      36.679  23.099  22.550  1.00  0.00    -0.252 OA
BRANCH   5   7
ATOM      7  C   UNL A   1      35.369  22.270  24.342  1.00  0.00     0.153 C 
BRANCH   7   8
ATOM      8  C   UNL A   1      33.913  22.567  23.969  1.00  0.00     0.133 C 
BRANCH   8   9
ATOM      9  N   UNL A   1      32.941  21.747  24.715  1.00  0.00    -0.346 N 
ATOM     10  C   UNL A   1      32.795  20.393  24.829  1.00  0.00     0.249 C 
ATOM     11  O   UNL A   1      32.088  19.970  25.746  1.00  0.00    -0.272 OA
ATOM     12  H   UNL A   1      32.277  22.268  25.221  1.00  0.00     0.164 HD
BRANCH  10  13
ATOM     13  C   UNL A   1      33.427  19.445  23.800  1.00  0.00     0.207 C 
ATOM     14  C   UNL A   1      34.379  17.316  23.904  1.00  0.00     0.174 C 
ATOM     15  C   UNL A   1      33.227  17.267  22.913  1.00  0.00     0.041 C 
ATOM     16  O   UNL A   1      34.539  18.696  24.291  1.00  0.00    -0.359 OA
ATOM     17  C   UNL A   1      32.384  18.444  23.324  1.00  0.00     0.045 C 
BRANCH  14  18
ATOM     18  C   UNL A   1      34.126  16.488  25.175  1.00  0.00     0.291 C 
BRANCH  18  19
ATOM     19  N   UNL A   1      35.389  15.992  25.736  1.00  0.00    -0.355 N 
ATOM     20  H   UNL A   1      36.104  16.714  25.655  1.00  0.00     0.344 HD
ATOM     21  H   UNL A   1      35.686  15.161  25.225  1.00  0.00     0.344 HD
ATOM     22  H   UNL A   1      35.254  15.756  26.720  1.00  0.00     0.344 HD
ENDBRANCH  18  19
ENDBRANCH  14  18
ENDBRANCH  10  13
ENDBRANCH   8   9
BRANCH   8  23
ATOM     23  C   UNL A   1      33.434  24.003  24.180  1.00  0.00     0.028 A 
ATOM     24  C   UNL A   1      33.355  25.074  23.305  1.00  0.00     0.017 A 
ATOM     25  S   UNL A   1      33.032  24.513  25.786  1.00  0.00    -0.147 S 
ATOM     26  C   UNL A   1      33.025  26.303  23.956  1.00  0.00     0.012 A 
ATOM     27  C   UNL A   1      32.826  26.138  25.305  1.00  0.00     0.065 A 
ENDBRANCH   8  23
ENDBRANCH   7   8
ENDBRANCH   5   7
ENDBRANCH   4   5
ENDBRANCH   3   4
ENDBRANCH   2   3
ENDBRANCH   1   2
BRANCH   1  28
ATOM     28  C   UNL A   1      40.647  21.120  27.091  1.00  0.00     0.188 C 
BRANCH  28  29
ATOM     29  C   UNL A   1      41.911  21.385  27.921  1.00  0.00     0.188 C 
BRANCH  29  30
ATOM     30  O   UNL A   1      43.115  21.399  27.178  1.00  0.00    -0.376 OA
BRANCH  30  31
ATOM     31  C   UNL A   1      43.019  20.879  25.861  1.00  0.00     0.202 C 
BRANCH  31  32
ATOM     32  C   UNL A   1      43.519  21.885  24.820  1.00  0.00     0.261 C 
BRANCH  32  33
ATOM     33  O   UNL A   1      42.918  23.190  24.934  1.00  0.00    -0.460 OA
BRANCH  33  34
ATOM     34  C   UNL A   1      43.760  24.219  25.151  1.00  0.00     0.338 C 
ATOM     35  O   UNL A   1      44.831  24.431  24.589  1.00  0.00    -0.246 OA
BRANCH  34  36
ATOM     36  C   UNL A   1      43.109  25.168  26.068  1.00  0.00     0.060 A 
ATOM     37  C   UNL A   1      43.478  26.516  26.015  1.00  0.00     0.016 A 
ATOM     38  C   UNL A   1      42.173  24.731  27.004  1.00  0.00     0.016 A 
ATOM     39  C   UNL A   1      42.934  27.433  26.914  1.00  0.00     0.010 A 
ATOM     40  C   UNL A   1      41.636  25.650  27.914  1.00  0.00     0.010 A 
ATOM     41  C   UNL A   1      42.035  26.999  27.893  1.00  0.00    -0.014 A 
BRANCH  41  42
ATOM     42  C   UNL A   1      41.637  27.911  28.994  1.00  0.00     0.031 A 
ATOM     43  C   UNL A   1      42.436  27.893  30.269  1.00  0.00     0.074 A 
ATOM     44  C   UNL A   1      40.608  28.767  28.867  1.00  0.00     0.049 A 
ATOM     45  N   UNL A   1      42.194  28.479  31.412  1.00  0.00    -0.248 NA
ATOM     46  C   UNL A   1      43.678  27.105  30.245  1.00  0.00     0.031 C 
ATOM     47  C   UNL A   1      39.806  28.956  27.659  1.00  0.00     0.029 A 
ATOM     48  N   UNL A   1      40.057  29.636  29.777  1.00  0.00    -0.354 N 
ATOM     49  C   UNL A   1      43.233  28.105  32.255  1.00  0.00     0.074 A 
ATOM     50  C   UNL A   1      44.106  27.239  31.491  1.00  0.00     0.031 C 
ATOM     51  C   UNL A   1      38.856  29.874  27.908  1.00  0.00     0.029 A 
ATOM     52  C   UNL A   1      38.948  30.296  29.305  1.00  0.00     0.049 A 
ATOM     53  H   UNL A   1      40.421  29.773  30.682  1.00  0.00     0.167 HD
ATOM     54  C   UNL A   1      43.439  28.447  33.548  1.00  0.00     0.037 A 
ATOM     55  C   UNL A   1      38.083  31.112  29.941  1.00  0.00     0.037 A 
ATOM     56  C   UNL A   1      42.582  29.323  34.302  1.00  0.00     0.049 A 
ATOM     57  C   UNL A   1      38.280  31.409  31.403  1.00  0.00     0.074 A 
ATOM     58  C   UNL A   1      42.705  29.728  35.619  1.00  0.00     0.029 A 
ATOM     59  N   UNL A   1      41.440  29.931  33.802  1.00  0.00    -0.354 N 
ATOM     60  N   UNL A   1      39.239  31.017  32.207  1.00  0.00    -0.248 NA
ATOM     61  C   UNL A   1      37.263  32.251  32.053  1.00  0.00     0.031 C 
ATOM     62  C   UNL A   1      41.615  30.549  35.929  1.00  0.00     0.029 A 
ATOM     63  C   UNL A   1      40.838  30.691  34.790  1.00  0.00     0.049 A 
ATOM     64  H   UNL A   1      41.107  29.836  32.880  1.00  0.00     0.167 HD
ATOM     65  C   UNL A   1      38.951  31.574  33.447  1.00  0.00     0.074 A 
ATOM     66  C   UNL A   1      37.737  32.347  33.288  1.00  0.00     0.031 C 
ATOM     67  C   UNL A   1      39.630  31.455  34.616  1.00  0.00     0.037 A 
BRANCH  54  68
ATOM     68  C   UNL A   1      44.617  27.831  34.242  1.00  0.00     0.057 A 
ATOM     69  C   UNL A   1      44.604  26.508  34.699  1.00  0.00     0.134 A 
ATOM     70  C   UNL A   1      45.786  28.577  34.444  1.00  0.00     0.134 A 
ATOM     71  F   UNL A   1      43.508  25.750  34.554  1.00  0.00    -0.206 F 
ATOM     72  C   UNL A   1      45.706  25.954  35.353  1.00  0.00     0.040 A 
ATOM     73  C   UNL A   1      46.902  28.026  35.074  1.00  0.00     0.040 A 
ATOM     74  F   UNL A   1      45.862  29.850  34.029  1.00  0.00    -0.206 F 
ATOM     75  C   UNL A   1      46.862  26.712  35.537  1.00  0.00     0.006 A 
ENDBRANCH  54  68
BRANCH  55  76
ATOM     76  C   UNL A   1      36.913  31.667  29.213  1.00  0.00     0.057 A 
ATOM     77  C   UNL A   1      36.933  32.963  28.686  1.00  0.00     0.134 A 
ATOM     78  C   UNL A   1      35.737  30.924  29.052  1.00  0.00     0.134 A 
ATOM     79  F   UNL A   1      38.020  33.735  28.835  1.00  0.00    -0.206 F 
ATOM     80  C   UNL A   1      35.824  33.505  28.033  1.00  0.00     0.040 A 
ATOM     81  C   UNL A   1      34.630  31.443  28.379  1.00  0.00     0.040 A 
ATOM     82  F   UNL A   1      35.651  29.679  29.542  1.00  0.00    -0.206 F 
ATOM     83  C   UNL A   1      34.671  32.739  27.873  1.00  0.00     0.006 A 
ENDBRANCH  55  76
BRANCH  67  84
ATOM     84  C   UNL A   1      39.091  32.195  35.805  1.00  0.00     0.057 A 
ATOM     85  C   UNL A   1      39.370  33.550  36.020  1.00  0.00     0.134 A 
ATOM     86  C   UNL A   1      38.246  31.555  36.721  1.00  0.00     0.134 A 
ATOM     87  F   UNL A   1      40.184  34.217  35.186  1.00  0.00    -0.206 F 
ATOM     88  C   UNL A   1      38.845  34.238  37.116  1.00  0.00     0.040 A 
ATOM     89  C   UNL A   1      37.694  32.238  37.806  1.00  0.00     0.040 A 
ATOM     90  F   UNL A   1      37.929  30.261  36.567  1.00  0.00    -0.206 F 
ATOM     91  C   UNL A   1      37.999  33.583  38.009  1.00  0.00     0.006 A 
ENDBRANCH  67  84
ENDBRANCH  41  42
ENDBRANCH  34  36
ENDBRANCH  33  34
ENDBRANCH  32  33
ENDBRANCH  31  32
ENDBRANCH  30  31
ENDBRANCH  29  30
ENDBRANCH  28  29
ENDBRANCH   1  28
TORSDOF 23
ENDMDL
MODEL 3
REMARK VINA RESULT:      -9.5      6.256     11.057
REMARK SMILES [NH3+]C[C@H]1CC[C@@H](C(=O)N[C@H](CC(=O)OCCOCCOCCOC(=O)c2ccc(-c3c4nc(c(-c5c(F)cccc5F)c5ccc([nH]5)c(-c5c(F)cccc5F)c5nc(c(-c6c(F)cccc6F)c6ccc3[nH]6)C=C5)C=C4)cc2)c2cccs2)O1
REMARK SMILES IDX 17 1 16 2 15 3 14 4 12 5 13 6 11 7 10 8 9 9 7 10 8 11 6 13
REMARK SMILES IDX 3 14 4 15 85 16 5 17 2 18 1 19 80 23 81 24 84 25 82 26 83 27
REMARK SMILES IDX 18 28 19 29 20 30 21 31 22 32 23 33 24 34 25 35 26 36 27 37
REMARK SMILES IDX 79 38 28 39 78 40 29 41 30 42 31 43 72 44 32 45 77 46 71 47
REMARK SMILES IDX 73 48 33 49 76 50 70 51 69 52 34 54 60 55 43 56 59 57 44 58
REMARK SMILES IDX 47 59 58 60 74 61 45 62 46 63 57 65 75 66 48 67 35 68 36 69
REMARK SMILES IDX 41 70 37 71 38 72 40 73 42 74 39 75 61 76 62 77 67 78 63 79
REMARK SMILES IDX 64 80 66 81 68 82 65 83 49 84 50 85 55 86 51 87 52 88 54 89
REMARK SMILES IDX 56 90 53 91
REMARK H PARENT 9 12 1 20 1 21 1 22 73 53 47 64
REMARK Flexibility Score: inf
ROOT
ATOM      1  O   UNL A   1      31.631  27.367  26.193  1.00  0.00    -0.376 OA
ENDROOT
BRANCH   1   2
ATOM      2  C   UNL A   1      31.159  26.337  25.341  1.00  0.00     0.202 C 
BRANCH   2   3
ATOM      3  C   UNL A   1      30.709  25.035  26.007  1.00  0.00     0.261 C 
BRANCH   3   4
ATOM      4  O   UNL A   1      30.312  23.983  25.102  1.00  0.00    -0.463 OA
BRANCH   4   5
ATOM      5  C   UNL A   1      31.332  23.290  24.549  1.00  0.00     0.308 C 
ATOM      6  O   UNL A   1      31.479  23.116  23.343  1.00  0.00    -0.252 OA
BRANCH   5   7
ATOM      7  C   UNL A   1      32.263  22.612  25.521  1.00  0.00     0.153 C 
BRANCH   7   8
ATOM      8  C   UNL A   1      33.260  21.531  25.092  1.00  0.00     0.133 C 
BRANCH   8   9
ATOM      9  N   UNL A   1      32.773  20.700  23.975  1.00  0.00    -0.346 N 
ATOM     10  C   UNL A   1      32.784  19.348  23.778  1.00  0.00     0.249 C 
ATOM     11  O   UNL A   1      32.050  18.893  22.898  1.00  0.00    -0.272 OA
ATOM     12  H   UNL A   1      32.369  21.212  23.238  1.00  0.00     0.164 HD
BRANCH  10  13
ATOM     13  C   UNL A   1      33.736  18.446  24.576  1.00  0.00     0.207 C 
ATOM     14  C   UNL A   1      33.507  16.413  25.701  1.00  0.00     0.174 C 
ATOM     15  C   UNL A   1      34.587  16.246  24.644  1.00  0.00     0.041 C 
ATOM     16  O   UNL A   1      33.140  17.807  25.705  1.00  0.00    -0.359 OA
ATOM     17  C   UNL A   1      34.273  17.348  23.669  1.00  0.00     0.045 C 
BRANCH  14  18
ATOM     18  C   UNL A   1      32.243  15.585  25.417  1.00  0.00     0.291 C 
BRANCH  18  19
ATOM     19  N   UNL A   1      32.501  14.152  25.612  1.00  0.00    -0.355 N 
ATOM     20  H   UNL A   1      31.926  13.804  26.380  1.00  0.00     0.344 HD
ATOM     21  H   UNL A   1      33.487  14.012  25.836  1.00  0.00     0.344 HD
ATOM     22  H   UNL A   1      32.271  13.646  24.758  1.00  0.00     0.344 HD
ENDBRANCH  18  19
ENDBRANCH  14  18
ENDBRANCH  10  13
ENDBRANCH   8   9
BRANCH   8  23
ATOM     23  C   UNL A   1      34.634  22.015  24.630  1.00  0.00     0.028 A 
ATOM     24  C   UNL A   1      35.005  22.816  23.562  1.00  0.00     0.017 A 
ATOM     25  S   UNL A   1      36.040  21.399  25.432  1.00  0.00    -0.147 S 
ATOM     26  C   UNL A   1      36.421  22.874  23.375  1.00  0.00     0.012 A 
ATOM     27  C   UNL A   1      37.100  22.146  24.322  1.00  0.00     0.065 A 
ENDBRANCH   8  23
ENDBRANCH   7   8
ENDBRANCH   5   7
ENDBRANCH   4   5
ENDBRANCH   3   4
ENDBRANCH   2   3
ENDBRANCH   1   2
BRANCH   1  28
ATOM     28  C   UNL A   1      33.022  27.500  26.459  1.00  0.00     0.188 C 
BRANCH  28  29
ATOM     29  C   UNL A   1      33.691  28.882  26.480  1.00  0.00     0.188 C 
BRANCH  29  30
ATOM     30  O   UNL A   1      33.064  29.831  27.322  1.00  0.00    -0.376 OA
BRANCH  30  31
ATOM     31  C   UNL A   1      33.745  31.070  27.448  1.00  0.00     0.202 C 
BRANCH  31  32
ATOM     32  C   UNL A   1      32.767  32.230  27.660  1.00  0.00     0.261 C 
BRANCH  32  33
ATOM     33  O   UNL A   1      33.345  33.530  27.429  1.00  0.00    -0.460 OA
BRANCH  33  34
ATOM     34  C   UNL A   1      33.340  34.380  28.473  1.00  0.00     0.338 C 
ATOM     35  O   UNL A   1      32.465  35.191  28.764  1.00  0.00    -0.246 OA
BRANCH  34  36
ATOM     36  C   UNL A   1      34.494  34.069  29.332  1.00  0.00     0.060 A 
ATOM     37  C   UNL A   1      35.782  34.294  28.836  1.00  0.00     0.016 A 
ATOM     38  C   UNL A   1      34.314  33.520  30.601  1.00  0.00     0.016 A 
ATOM     39  C   UNL A   1      36.900  33.947  29.593  1.00  0.00     0.010 A 
ATOM     40  C   UNL A   1      35.438  33.160  31.355  1.00  0.00     0.010 A 
ATOM     41  C   UNL A   1      36.736  33.346  30.845  1.00  0.00    -0.014 A 
BRANCH  41  42
ATOM     42  C   UNL A   1      37.904  32.760  31.548  1.00  0.00     0.031 A 
ATOM     43  C   UNL A   1      38.578  31.557  30.948  1.00  0.00     0.074 A 
ATOM     44  C   UNL A   1      38.388  33.296  32.683  1.00  0.00     0.049 A 
ATOM     45  N   UNL A   1      39.508  30.786  31.449  1.00  0.00    -0.248 NA
ATOM     46  C   UNL A   1      38.140  31.175  29.596  1.00  0.00     0.031 C 
ATOM     47  C   UNL A   1      37.892  34.511  33.326  1.00  0.00     0.029 A 
ATOM     48  N   UNL A   1      39.407  32.873  33.501  1.00  0.00    -0.354 N 
ATOM     49  C   UNL A   1      39.743  29.809  30.490  1.00  0.00     0.074 A 
ATOM     50  C   UNL A   1      38.857  30.082  29.380  1.00  0.00     0.031 C 
ATOM     51  C   UNL A   1      38.600  34.729  34.447  1.00  0.00     0.029 A 
ATOM     52  C   UNL A   1      39.560  33.641  34.630  1.00  0.00     0.049 A 
ATOM     53  H   UNL A   1      39.974  32.094  33.299  1.00  0.00     0.167 HD
ATOM     54  C   UNL A   1      40.615  28.774  30.533  1.00  0.00     0.037 A 
ATOM     55  C   UNL A   1      40.352  33.461  35.706  1.00  0.00     0.037 A 
ATOM     56  C   UNL A   1      41.510  28.512  31.628  1.00  0.00     0.049 A 
ATOM     57  C   UNL A   1      41.251  32.255  35.773  1.00  0.00     0.074 A 
ATOM     58  C   UNL A   1      42.430  27.487  31.766  1.00  0.00     0.029 A 
ATOM     59  N   UNL A   1      41.598  29.285  32.776  1.00  0.00    -0.354 N 
ATOM     60  N   UNL A   1      41.437  31.309  34.885  1.00  0.00    -0.248 NA
ATOM     61  C   UNL A   1      42.039  32.082  37.004  1.00  0.00     0.031 C 
ATOM     62  C   UNL A   1      43.045  27.617  33.016  1.00  0.00     0.029 A 
ATOM     63  C   UNL A   1      42.541  28.749  33.636  1.00  0.00     0.049 A 
ATOM     64  H   UNL A   1      41.068  30.096  32.953  1.00  0.00     0.167 HD
ATOM     65  C   UNL A   1      42.370  30.441  35.439  1.00  0.00     0.074 A 
ATOM     66  C   UNL A   1      42.727  30.981  36.734  1.00  0.00     0.031 C 
ATOM     67  C   UNL A   1      42.885  29.297  34.922  1.00  0.00     0.037 A 
BRANCH  54  68
ATOM     68  C   UNL A   1      40.606  27.820  29.376  1.00  0.00     0.057 A 
ATOM     69  C   UNL A   1      39.664  26.790  29.267  1.00  0.00     0.134 A 
ATOM     70  C   UNL A   1      41.552  27.946  28.350  1.00  0.00     0.134 A 
ATOM     71  F   UNL A   1      38.746  26.604  30.226  1.00  0.00    -0.206 F 
ATOM     72  C   UNL A   1      39.677  25.904  28.188  1.00  0.00     0.040 A 
ATOM     73  C   UNL A   1      41.559  27.082  27.256  1.00  0.00     0.040 A 
ATOM     74  F   UNL A   1      42.481  28.913  28.395  1.00  0.00    -0.206 F 
ATOM     75  C   UNL A   1      40.624  26.052  27.175  1.00  0.00     0.006 A 
ENDBRANCH  54  68
BRANCH  55  76
ATOM     76  C   UNL A   1      40.295  34.420  36.839  1.00  0.00     0.057 A 
ATOM     77  C   UNL A   1      39.346  34.285  37.858  1.00  0.00     0.134 A 
ATOM     78  C   UNL A   1      41.172  35.509  36.915  1.00  0.00     0.134 A 
ATOM     79  F   UNL A   1      38.458  33.280  37.825  1.00  0.00    -0.206 F 
ATOM     80  C   UNL A   1      39.263  35.203  38.907  1.00  0.00     0.040 A 
ATOM     81  C   UNL A   1      41.118  36.420  37.972  1.00  0.00     0.040 A 
ATOM     82  F   UNL A   1      42.100  35.699  35.966  1.00  0.00    -0.206 F 
ATOM     83  C   UNL A   1      40.157  36.271  38.968  1.00  0.00     0.006 A 
ENDBRANCH  55  76
BRANCH  67  84
ATOM     84  C   UNL A   1      43.906  28.567  35.746  1.00  0.00     0.057 A 
ATOM     85  C   UNL A   1      45.275  28.841  35.639  1.00  0.00     0.134 A 
ATOM     86  C   UNL A   1      43.509  27.611  36.690  1.00  0.00     0.134 A 
ATOM     87  F   UNL A   1      45.720  29.737  34.745  1.00  0.00    -0.206 F 
ATOM     88  C   UNL A   1      46.215  28.175  36.426  1.00  0.00     0.040 A 
ATOM     89  C   UNL A   1      44.437  26.956  37.500  1.00  0.00     0.040 A 
ATOM     90  F   UNL A   1      42.212  27.309  36.851  1.00  0.00    -0.206 F 
ATOM     91  C   UNL A   1      45.796  27.233  37.365  1.00  0.00     0.006 A 
ENDBRANCH  67  84
ENDBRANCH  41  42
ENDBRANCH  34  36
ENDBRANCH  33  34
ENDBRANCH  32  33
ENDBRANCH  31  32
ENDBRANCH  30  31
ENDBRANCH  29  30
ENDBRANCH  28  29
ENDBRANCH   1  28
TORSDOF 23
ENDMDL
