MODEL 1
REMARK VINA RESULT:     -10.1      0.000      0.000
REMARK SMILES C[C@@H](SC1CCOCC1)c1ccc(C(=O)OCCOCCOCCOC(=O)c2ccc(-c3c4nc(c(-c5c(F)cccc5F)c5ccc([nH]5)c(-c5c(F)cccc5F)c5nc(c(-c6c(F)cccc6F)c6ccc3[nH]6)C=C5)C=C4)cc2)o1
REMARK SMILES IDX 20 1 19 2 18 3 17 4 16 5 14 6 15 7 13 8 10 9 11 10 82 11
REMARK SMILES IDX 12 12 2 13 1 14 3 15 4 16 5 17 9 18 6 19 8 20 7 21 21 22
REMARK SMILES IDX 22 23 23 24 24 25 25 26 26 27 27 28 28 29 29 30 81 31 30 32
REMARK SMILES IDX 80 33 31 34 32 35 33 36 74 37 34 38 79 39 73 40 75 41 35 42
REMARK SMILES IDX 78 43 72 44 71 45 36 47 62 48 45 49 61 50 46 51 49 52 60 53
REMARK SMILES IDX 76 54 47 55 48 56 59 58 77 59 50 60 37 61 38 62 43 63 39 64
REMARK SMILES IDX 40 65 42 66 44 67 41 68 63 69 64 70 69 71 65 72 66 73 68 74
REMARK SMILES IDX 70 75 67 76 51 77 52 78 57 79 53 80 54 81 56 82 58 83 55 84
REMARK H PARENT 75 46 49 57
REMARK Flexibility Score: inf
ROOT
ATOM      1  C   UNL A   1      32.948  36.032  30.032  1.00  0.00     0.188 C 
ENDROOT
BRANCH   1   2
ATOM      2  O   UNL A   1      32.633  34.715  29.594  1.00  0.00    -0.376 OA
BRANCH   2   3
ATOM      3  C   UNL A   1      33.290  34.180  28.452  1.00  0.00     0.202 C 
BRANCH   3   4
ATOM      4  C   UNL A   1      34.405  33.164  28.713  1.00  0.00     0.261 C 
BRANCH   4   5
ATOM      5  O   UNL A   1      34.718  32.394  27.539  1.00  0.00    -0.457 OA
BRANCH   5   6
ATOM      6  C   UNL A   1      34.701  31.036  27.697  1.00  0.00     0.374 C 
ATOM      7  O   UNL A   1      35.425  30.418  28.469  1.00  0.00    -0.242 OA
BRANCH   6   8
ATOM      8  C   UNL A   1      33.632  30.468  26.908  1.00  0.00     0.211 A 
ATOM      9  C   UNL A   1      32.726  28.865  25.679  1.00  0.00     0.117 A 
ATOM     10  C   UNL A   1      31.727  29.789  25.913  1.00  0.00     0.048 A 
ATOM     11  O   UNL A   1      33.887  29.296  26.252  1.00  0.00    -0.453 OA
ATOM     12  C   UNL A   1      32.313  30.824  26.687  1.00  0.00     0.058 A 
BRANCH   9  13
ATOM     13  C   UNL A   1      32.792  27.610  24.845  1.00  0.00     0.110 C 
ATOM     14  C   UNL A   1      33.841  27.851  23.757  1.00  0.00     0.028 C 
BRANCH  13  15
ATOM     15  S   UNL A   1      33.186  26.160  25.925  1.00  0.00    -0.147 SA
BRANCH  15  16
ATOM     16  C   UNL A   1      33.360  24.713  24.790  1.00  0.00     0.052 C 
ATOM     17  C   UNL A   1      34.869  24.517  24.558  1.00  0.00     0.043 C 
ATOM     18  C   UNL A   1      32.639  24.811  23.450  1.00  0.00     0.043 C 
ATOM     19  C   UNL A   1      35.148  23.417  23.541  1.00  0.00     0.161 C 
ATOM     20  C   UNL A   1      33.030  23.663  22.529  1.00  0.00     0.161 C 
ATOM     21  O   UNL A   1      34.438  23.653  22.326  1.00  0.00    -0.381 OA
ENDBRANCH  15  16
ENDBRANCH  13  15
ENDBRANCH   9  13
ENDBRANCH   6   8
ENDBRANCH   5   6
ENDBRANCH   4   5
ENDBRANCH   3   4
ENDBRANCH   2   3
ENDBRANCH   1   2
BRANCH   1  22
ATOM     22  C   UNL A   1      32.630  36.444  31.482  1.00  0.00     0.188 C 
BRANCH  22  23
ATOM     23  O   UNL A   1      33.752  36.443  32.351  1.00  0.00    -0.376 OA
BRANCH  23  24
ATOM     24  C   UNL A   1      34.171  35.169  32.817  1.00  0.00     0.202 C 
BRANCH  24  25
ATOM     25  C   UNL A   1      35.547  34.769  32.278  1.00  0.00     0.261 C 
BRANCH  25  26
ATOM     26  O   UNL A   1      35.682  33.372  31.966  1.00  0.00    -0.460 OA
BRANCH  26  27
ATOM     27  C   UNL A   1      36.367  32.613  32.849  1.00  0.00     0.338 C 
ATOM     28  O   UNL A   1      36.124  32.451  34.031  1.00  0.00    -0.246 OA
BRANCH  27  29
ATOM     29  C   UNL A   1      37.396  31.868  32.099  1.00  0.00     0.060 A 
ATOM     30  C   UNL A   1      38.323  31.093  32.805  1.00  0.00     0.016 A 
ATOM     31  C   UNL A   1      37.444  31.941  30.704  1.00  0.00     0.016 A 
ATOM     32  C   UNL A   1      39.321  30.405  32.114  1.00  0.00     0.010 A 
ATOM     33  C   UNL A   1      38.453  31.264  30.016  1.00  0.00     0.010 A 
ATOM     34  C   UNL A   1      39.411  30.515  30.718  1.00  0.00    -0.014 A 
BRANCH  34  35
ATOM     35  C   UNL A   1      40.593  29.982  30.001  1.00  0.00     0.031 A 
ATOM     36  C   UNL A   1      41.745  30.908  29.721  1.00  0.00     0.074 A 
ATOM     37  C   UNL A   1      40.644  28.703  29.591  1.00  0.00     0.049 A 
ATOM     38  N   UNL A   1      42.860  30.677  29.076  1.00  0.00    -0.248 NA
ATOM     39  C   UNL A   1      41.620  32.279  30.241  1.00  0.00     0.031 C 
ATOM     40  C   UNL A   1      39.609  27.699  29.817  1.00  0.00     0.029 A 
ATOM     41  N   UNL A   1      41.612  28.039  28.879  1.00  0.00    -0.354 N 
ATOM     42  C   UNL A   1      43.569  31.870  29.114  1.00  0.00     0.074 A 
ATOM     43  C   UNL A   1      42.748  32.831  29.819  1.00  0.00     0.031 C 
ATOM     44  C   UNL A   1      39.988  26.546  29.239  1.00  0.00     0.029 A 
ATOM     45  C   UNL A   1      41.280  26.741  28.582  1.00  0.00     0.049 A 
ATOM     46  H   UNL A   1      42.462  28.455  28.607  1.00  0.00     0.167 HD
ATOM     47  C   UNL A   1      44.798  32.141  28.615  1.00  0.00     0.037 A 
ATOM     48  C   UNL A   1      41.939  25.823  27.848  1.00  0.00     0.037 A 
ATOM     49  C   UNL A   1      45.613  31.195  27.901  1.00  0.00     0.049 A 
ATOM     50  C   UNL A   1      43.267  26.170  27.233  1.00  0.00     0.074 A 
ATOM     51  C   UNL A   1      46.883  31.371  27.380  1.00  0.00     0.029 A 
ATOM     52  N   UNL A   1      45.228  29.900  27.592  1.00  0.00    -0.354 N 
ATOM     53  N   UNL A   1      43.951  27.286  27.313  1.00  0.00    -0.248 NA
ATOM     54  C   UNL A   1      43.918  25.126  26.425  1.00  0.00     0.031 C 
ATOM     55  C   UNL A   1      47.251  30.192  26.721  1.00  0.00     0.029 A 
ATOM     56  C   UNL A   1      46.226  29.272  26.866  1.00  0.00     0.049 A 
ATOM     57  H   UNL A   1      44.372  29.488  27.851  1.00  0.00     0.167 HD
ATOM     58  C   UNL A   1      45.119  27.072  26.592  1.00  0.00     0.074 A 
ATOM     59  C   UNL A   1      45.056  25.716  26.085  1.00  0.00     0.031 C 
ATOM     60  C   UNL A   1      46.153  27.921  26.372  1.00  0.00     0.037 A 
BRANCH  47  61
ATOM     61  C   UNL A   1      45.322  33.531  28.812  1.00  0.00     0.057 A 
ATOM     62  C   UNL A   1      46.106  33.870  29.923  1.00  0.00     0.134 A 
ATOM     63  C   UNL A   1      45.047  34.537  27.879  1.00  0.00     0.134 A 
ATOM     64  F   UNL A   1      46.390  32.954  30.861  1.00  0.00    -0.206 F 
ATOM     65  C   UNL A   1      46.579  35.170  30.109  1.00  0.00     0.040 A 
ATOM     66  C   UNL A   1      45.532  35.835  28.044  1.00  0.00     0.040 A 
ATOM     67  F   UNL A   1      44.302  34.275  26.794  1.00  0.00    -0.206 F 
ATOM     68  C   UNL A   1      46.295  36.156  29.165  1.00  0.00     0.006 A 
ENDBRANCH  47  61
BRANCH  48  69
ATOM     69  C   UNL A   1      41.349  24.477  27.645  1.00  0.00     0.057 A 
ATOM     70  C   UNL A   1      40.311  24.275  26.729  1.00  0.00     0.134 A 
ATOM     71  C   UNL A   1      41.793  23.370  28.377  1.00  0.00     0.134 A 
ATOM     72  F   UNL A   1      39.828  25.305  26.019  1.00  0.00    -0.206 F 
ATOM     73  C   UNL A   1      39.728  23.019  26.554  1.00  0.00     0.040 A 
ATOM     74  C   UNL A   1      41.232  22.105  28.198  1.00  0.00     0.040 A 
ATOM     75  F   UNL A   1      42.779  23.504  29.275  1.00  0.00    -0.206 F 
ATOM     76  C   UNL A   1      40.192  21.929  27.287  1.00  0.00     0.006 A 
ENDBRANCH  48  69
BRANCH  60  77
ATOM     77  C   UNL A   1      47.316  27.402  25.579  1.00  0.00     0.057 A 
ATOM     78  C   UNL A   1      47.426  27.621  24.201  1.00  0.00     0.134 A 
ATOM     79  C   UNL A   1      48.360  26.714  26.212  1.00  0.00     0.134 A 
ATOM     80  F   UNL A   1      46.454  28.262  23.534  1.00  0.00    -0.206 F 
ATOM     81  C   UNL A   1      48.527  27.161  23.476  1.00  0.00     0.040 A 
ATOM     82  C   UNL A   1      49.475  26.268  25.502  1.00  0.00     0.040 A 
ATOM     83  F   UNL A   1      48.320  26.480  27.531  1.00  0.00    -0.206 F 
ATOM     84  C   UNL A   1      49.558  26.488  24.128  1.00  0.00     0.006 A 
ENDBRANCH  60  77
ENDBRANCH  34  35
ENDBRANCH  27  29
ENDBRANCH  26  27
ENDBRANCH  25  26
ENDBRANCH  24  25
ENDBRANCH  23  24
ENDBRANCH  22  23
ENDBRANCH   1  22
TORSDOF 20
ENDMDL
MODEL 2
REMARK VINA RESULT:      -9.8      1.826      2.527
REMARK SMILES C[C@@H](SC1CCOCC1)c1ccc(C(=O)OCCOCCOCCOC(=O)c2ccc(-c3c4nc(c(-c5c(F)cccc5F)c5ccc([nH]5)c(-c5c(F)cccc5F)c5nc(c(-c6c(F)cccc6F)c6ccc3[nH]6)C=C5)C=C4)cc2)o1
REMARK SMILES IDX 20 1 19 2 18 3 17 4 16 5 14 6 15 7 13 8 10 9 11 10 82 11
REMARK SMILES IDX 12 12 2 13 1 14 3 15 4 16 5 17 9 18 6 19 8 20 7 21 21 22
REMARK SMILES IDX 22 23 23 24 24 25 25 26 26 27 27 28 28 29 29 30 81 31 30 32
REMARK SMILES IDX 80 33 31 34 32 35 33 36 74 37 34 38 79 39 73 40 75 41 35 42
REMARK SMILES IDX 78 43 72 44 71 45 36 47 62 48 45 49 61 50 46 51 49 52 60 53
REMARK SMILES IDX 76 54 47 55 48 56 59 58 77 59 50 60 37 61 38 62 43 63 39 64
REMARK SMILES IDX 40 65 42 66 44 67 41 68 63 69 64 70 69 71 65 72 66 73 68 74
REMARK SMILES IDX 70 75 67 76 51 77 52 78 57 79 53 80 54 81 56 82 58 83 55 84
REMARK H PARENT 75 46 49 57
REMARK Flexibility Score: inf
ROOT
ATOM      1  C   UNL A   1      32.642  36.109  31.934  1.00  0.00     0.188 C 
ENDROOT
BRANCH   1   2
ATOM      2  O   UNL A   1      32.537  36.668  30.629  1.00  0.00    -0.376 OA
BRANCH   2   3
ATOM      3  C   UNL A   1      32.922  35.891  29.501  1.00  0.00     0.202 C 
BRANCH   3   4
ATOM      4  C   UNL A   1      33.717  34.614  29.783  1.00  0.00     0.261 C 
BRANCH   4   5
ATOM      5  O   UNL A   1      33.366  33.550  28.882  1.00  0.00    -0.457 OA
BRANCH   5   6
ATOM      6  C   UNL A   1      34.269  33.289  27.890  1.00  0.00     0.374 C 
ATOM      7  O   UNL A   1      34.908  34.145  27.289  1.00  0.00    -0.242 OA
BRANCH   6   8
ATOM      8  C   UNL A   1      34.432  31.860  27.744  1.00  0.00     0.211 A 
ATOM      9  C   UNL A   1      33.809  29.870  27.002  1.00  0.00     0.117 A 
ATOM     10  C   UNL A   1      35.071  29.710  27.536  1.00  0.00     0.048 A 
ATOM     11  O   UNL A   1      33.410  31.165  27.161  1.00  0.00    -0.453 OA
ATOM     12  C   UNL A   1      35.463  30.982  28.027  1.00  0.00     0.058 A 
BRANCH   9  13
ATOM     13  C   UNL A   1      32.803  28.903  26.428  1.00  0.00     0.110 C 
ATOM     14  C   UNL A   1      31.511  29.074  27.231  1.00  0.00     0.028 C 
BRANCH  13  15
ATOM     15  S   UNL A   1      32.583  29.227  24.620  1.00  0.00    -0.147 SA
BRANCH  15  16
ATOM     16  C   UNL A   1      30.759  29.222  24.321  1.00  0.00     0.052 C 
ATOM     17  C   UNL A   1      30.500  28.180  23.218  1.00  0.00     0.043 C 
ATOM     18  C   UNL A   1      30.132  30.555  23.931  1.00  0.00     0.043 C 
ATOM     19  C   UNL A   1      29.037  28.157  22.792  1.00  0.00     0.161 C 
ATOM     20  C   UNL A   1      28.680  30.378  23.509  1.00  0.00     0.161 C 
ATOM     21  O   UNL A   1      28.593  29.462  22.423  1.00  0.00    -0.381 OA
ENDBRANCH  15  16
ENDBRANCH  13  15
ENDBRANCH   9  13
ENDBRANCH   6   8
ENDBRANCH   5   6
ENDBRANCH   4   5
ENDBRANCH   3   4
ENDBRANCH   2   3
ENDBRANCH   1   2
BRANCH   1  22
ATOM     22  C   UNL A   1      33.776  36.575  32.868  1.00  0.00     0.188 C 
BRANCH  22  23
ATOM     23  O   UNL A   1      34.931  35.749  32.841  1.00  0.00    -0.376 OA
BRANCH  23  24
ATOM     24  C   UNL A   1      35.399  35.302  34.105  1.00  0.00     0.202 C 
BRANCH  24  25
ATOM     25  C   UNL A   1      35.189  33.800  34.312  1.00  0.00     0.261 C 
BRANCH  25  26
ATOM     26  O   UNL A   1      36.087  32.965  33.561  1.00  0.00    -0.460 OA
BRANCH  26  27
ATOM     27  C   UNL A   1      35.553  32.262  32.538  1.00  0.00     0.338 C 
ATOM     28  O   UNL A   1      34.401  32.283  32.147  1.00  0.00    -0.246 OA
BRANCH  27  29
ATOM     29  C   UNL A   1      36.655  31.562  31.850  1.00  0.00     0.060 A 
ATOM     30  C   UNL A   1      37.405  30.616  32.557  1.00  0.00     0.016 A 
ATOM     31  C   UNL A   1      36.945  31.845  30.512  1.00  0.00     0.016 A 
ATOM     32  C   UNL A   1      38.469  29.966  31.931  1.00  0.00     0.010 A 
ATOM     33  C   UNL A   1      38.019  31.204  29.892  1.00  0.00     0.010 A 
ATOM     34  C   UNL A   1      38.803  30.283  30.606  1.00  0.00    -0.014 A 
BRANCH  34  35
ATOM     35  C   UNL A   1      40.060  29.774  30.009  1.00  0.00     0.031 A 
ATOM     36  C   UNL A   1      41.223  30.717  29.865  1.00  0.00     0.074 A 
ATOM     37  C   UNL A   1      40.171  28.502  29.589  1.00  0.00     0.049 A 
ATOM     38  N   UNL A   1      42.402  30.509  29.338  1.00  0.00    -0.248 NA
ATOM     39  C   UNL A   1      41.026  32.079  30.389  1.00  0.00     0.031 C 
ATOM     40  C   UNL A   1      39.131  27.483  29.691  1.00  0.00     0.029 A 
ATOM     41  N   UNL A   1      41.217  27.860  28.973  1.00  0.00    -0.354 N 
ATOM     42  C   UNL A   1      43.088  31.709  29.467  1.00  0.00     0.074 A 
ATOM     43  C   UNL A   1      42.185  32.650  30.095  1.00  0.00     0.031 C 
ATOM     44  C   UNL A   1      39.584  26.343  29.139  1.00  0.00     0.029 A 
ATOM     45  C   UNL A   1      40.935  26.563  28.625  1.00  0.00     0.049 A 
ATOM     46  H   UNL A   1      42.085  28.290  28.798  1.00  0.00     0.167 HD
ATOM     47  C   UNL A   1      44.359  32.003  29.104  1.00  0.00     0.037 A 
ATOM     48  C   UNL A   1      41.679  25.664  27.951  1.00  0.00     0.037 A 
ATOM     49  C   UNL A   1      45.257  31.078  28.466  1.00  0.00     0.049 A 
ATOM     50  C   UNL A   1      43.060  26.036  27.484  1.00  0.00     0.074 A 
ATOM     51  C   UNL A   1      46.572  31.276  28.085  1.00  0.00     0.029 A 
ATOM     52  N   UNL A   1      44.923  29.783  28.100  1.00  0.00    -0.354 N 
ATOM     53  N   UNL A   1      43.717  27.159  27.652  1.00  0.00    -0.248 NA
ATOM     54  C   UNL A   1      43.806  25.013  26.734  1.00  0.00     0.031 C 
ATOM     55  C   UNL A   1      47.022  30.112  27.451  1.00  0.00     0.029 A 
ATOM     56  C   UNL A   1      46.000  29.177  27.475  1.00  0.00     0.049 A 
ATOM     57  H   UNL A   1      44.050  29.357  28.262  1.00  0.00     0.167 HD
ATOM     58  C   UNL A   1      44.956  26.970  27.054  1.00  0.00     0.074 A 
ATOM     59  C   UNL A   1      44.965  25.621  26.524  1.00  0.00     0.031 C 
ATOM     60  C   UNL A   1      45.997  27.833  26.957  1.00  0.00     0.037 A 
BRANCH  47  61
ATOM     61  C   UNL A   1      44.841  33.395  29.375  1.00  0.00     0.057 A 
ATOM     62  C   UNL A   1      45.497  33.727  30.568  1.00  0.00     0.134 A 
ATOM     63  C   UNL A   1      44.655  34.412  28.431  1.00  0.00     0.134 A 
ATOM     64  F   UNL A   1      45.689  32.800  31.519  1.00  0.00    -0.206 F 
ATOM     65  C   UNL A   1      45.931  35.029  30.822  1.00  0.00     0.040 A 
ATOM     66  C   UNL A   1      45.103  35.713  28.665  1.00  0.00     0.040 A 
ATOM     67  F   UNL A   1      44.035  34.158  27.269  1.00  0.00    -0.206 F 
ATOM     68  C   UNL A   1      45.737  36.025  29.866  1.00  0.00     0.006 A 
ENDBRANCH  47  61
BRANCH  48  69
ATOM     69  C   UNL A   1      41.131  24.316  27.668  1.00  0.00     0.057 A 
ATOM     70  C   UNL A   1      41.593  23.190  28.358  1.00  0.00     0.134 A 
ATOM     71  C   UNL A   1      40.150  24.119  26.689  1.00  0.00     0.134 A 
ATOM     72  F   UNL A   1      42.550  23.314  29.289  1.00  0.00    -0.206 F 
ATOM     73  C   UNL A   1      41.106  21.912  28.076  1.00  0.00     0.040 A 
ATOM     74  C   UNL A   1      39.641  22.851  26.411  1.00  0.00     0.040 A 
ATOM     75  F   UNL A   1      39.674  25.160  25.990  1.00  0.00    -0.206 F 
ATOM     76  C   UNL A   1      40.124  21.741  27.104  1.00  0.00     0.006 A 
ENDBRANCH  48  69
BRANCH  60  77
ATOM     77  C   UNL A   1      47.243  27.340  26.283  1.00  0.00     0.057 A 
ATOM     78  C   UNL A   1      47.466  27.529  24.914  1.00  0.00     0.134 A 
ATOM     79  C   UNL A   1      48.252  26.710  27.023  1.00  0.00     0.134 A 
ATOM     80  F   UNL A   1      46.534  28.115  24.147  1.00  0.00    -0.206 F 
ATOM     81  C   UNL A   1      48.643  27.094  24.301  1.00  0.00     0.040 A 
ATOM     82  C   UNL A   1      49.441  26.290  26.426  1.00  0.00     0.040 A 
ATOM     83  F   UNL A   1      48.104  26.508  28.341  1.00  0.00    -0.206 F 
ATOM     84  C   UNL A   1      49.637  26.478  25.059  1.00  0.00     0.006 A 
ENDBRANCH  60  77
ENDBRANCH  34  35
ENDBRANCH  27  29
ENDBRANCH  26  27
ENDBRANCH  25  26
ENDBRANCH  24  25
ENDBRANCH  23  24
ENDBRANCH  22  23
ENDBRANCH   1  22
TORSDOF 20
ENDMDL
MODEL 3
REMARK VINA RESULT:      -9.8      1.511      2.443
REMARK SMILES C[C@@H](SC1CCOCC1)c1ccc(C(=O)OCCOCCOCCOC(=O)c2ccc(-c3c4nc(c(-c5c(F)cccc5F)c5ccc([nH]5)c(-c5c(F)cccc5F)c5nc(c(-c6c(F)cccc6F)c6ccc3[nH]6)C=C5)C=C4)cc2)o1
REMARK SMILES IDX 20 1 19 2 18 3 17 4 16 5 14 6 15 7 13 8 10 9 11 10 82 11
REMARK SMILES IDX 12 12 2 13 1 14 3 15 4 16 5 17 9 18 6 19 8 20 7 21 21 22
REMARK SMILES IDX 22 23 23 24 24 25 25 26 26 27 27 28 28 29 29 30 81 31 30 32
REMARK SMILES IDX 80 33 31 34 32 35 33 36 74 37 34 38 79 39 73 40 75 41 35 42
REMARK SMILES IDX 78 43 72 44 71 45 36 47 62 48 45 49 61 50 46 51 49 52 60 53
REMARK SMILES IDX 76 54 47 55 48 56 59 58 77 59 50 60 37 61 38 62 43 63 39 64
REMARK SMILES IDX 40 65 42 66 44 67 41 68 63 69 64 70 69 71 65 72 66 73 68 74
REMARK SMILES IDX 70 75 67 76 51 77 52 78 57 79 53 80 54 81 56 82 58 83 55 84
REMARK H PARENT 75 46 49 57
REMARK Flexibility Score: inf
ROOT
ATOM      1  C   UNL A   1      33.251  33.098  28.044  1.00  0.00     0.188 C 
ENDROOT
BRANCH   1   2
ATOM      2  O   UNL A   1      32.023  33.243  27.339  1.00  0.00    -0.376 OA
BRANCH   2   3
ATOM      3  C   UNL A   1      31.400  32.097  26.771  1.00  0.00     0.202 C 
BRANCH   3   4
ATOM      4  C   UNL A   1      32.317  30.931  26.396  1.00  0.00     0.261 C 
BRANCH   4   5
ATOM      5  O   UNL A   1      32.077  29.772  27.214  1.00  0.00    -0.457 OA
BRANCH   5   6
ATOM      6  C   UNL A   1      33.038  28.802  27.167  1.00  0.00     0.374 C 
ATOM      7  O   UNL A   1      34.160  28.913  27.648  1.00  0.00    -0.242 OA
BRANCH   6   8
ATOM      8  C   UNL A   1      32.491  27.603  26.574  1.00  0.00     0.211 A 
ATOM      9  C   UNL A   1      32.647  25.526  25.823  1.00  0.00     0.117 A 
ATOM     10  C   UNL A   1      31.303  25.841  25.825  1.00  0.00     0.048 A 
ATOM     11  O   UNL A   1      33.367  26.607  26.243  1.00  0.00    -0.453 OA
ATOM     12  C   UNL A   1      31.205  27.178  26.290  1.00  0.00     0.058 A 
BRANCH   9  13
ATOM     13  C   UNL A   1      33.422  24.324  25.346  1.00  0.00     0.110 C 
ATOM     14  C   UNL A   1      34.906  24.699  25.399  1.00  0.00     0.028 C 
BRANCH  13  15
ATOM     15  S   UNL A   1      33.007  22.855  26.391  1.00  0.00    -0.147 SA
BRANCH  15  16
ATOM     16  C   UNL A   1      33.260  21.376  25.313  1.00  0.00     0.052 C 
ATOM     17  C   UNL A   1      32.268  21.512  24.144  1.00  0.00     0.043 C 
ATOM     18  C   UNL A   1      33.091  20.015  25.978  1.00  0.00     0.043 C 
ATOM     19  C   UNL A   1      32.293  20.290  23.234  1.00  0.00     0.161 C 
ATOM     20  C   UNL A   1      33.114  18.892  24.950  1.00  0.00     0.161 C 
ATOM     21  O   UNL A   1      32.090  19.093  23.982  1.00  0.00    -0.381 OA
ENDBRANCH  15  16
ENDBRANCH  13  15
ENDBRANCH   9  13
ENDBRANCH   6   8
ENDBRANCH   5   6
ENDBRANCH   4   5
ENDBRANCH   3   4
ENDBRANCH   2   3
ENDBRANCH   1   2
BRANCH   1  22
ATOM     22  C   UNL A   1      34.248  34.272  28.077  1.00  0.00     0.188 C 
BRANCH  22  23
ATOM     23  O   UNL A   1      34.866  34.478  29.338  1.00  0.00    -0.376 OA
BRANCH  23  24
ATOM     24  C   UNL A   1      34.002  34.874  30.393  1.00  0.00     0.202 C 
BRANCH  24  25
ATOM     25  C   UNL A   1      34.319  34.163  31.711  1.00  0.00     0.261 C 
BRANCH  25  26
ATOM     26  O   UNL A   1      34.889  32.852  31.557  1.00  0.00    -0.460 OA
BRANCH  26  27
ATOM     27  C   UNL A   1      35.761  32.452  32.509  1.00  0.00     0.338 C 
ATOM     28  O   UNL A   1      35.639  32.556  33.715  1.00  0.00    -0.246 OA
BRANCH  27  29
ATOM     29  C   UNL A   1      36.845  31.707  31.841  1.00  0.00     0.060 A 
ATOM     30  C   UNL A   1      37.784  31.026  32.624  1.00  0.00     0.016 A 
ATOM     31  C   UNL A   1      36.933  31.686  30.446  1.00  0.00     0.016 A 
ATOM     32  C   UNL A   1      38.833  30.340  32.009  1.00  0.00     0.010 A 
ATOM     33  C   UNL A   1      37.991  31.012  29.834  1.00  0.00     0.010 A 
ATOM     34  C   UNL A   1      38.961  30.359  30.613  1.00  0.00    -0.014 A 
BRANCH  34  35
ATOM     35  C   UNL A   1      40.187  29.835  29.967  1.00  0.00     0.031 A 
ATOM     36  C   UNL A   1      41.350  30.766  29.765  1.00  0.00     0.074 A 
ATOM     37  C   UNL A   1      40.268  28.559  29.553  1.00  0.00     0.049 A 
ATOM     38  N   UNL A   1      42.504  30.543  29.188  1.00  0.00    -0.248 NA
ATOM     39  C   UNL A   1      41.188  32.133  30.284  1.00  0.00     0.031 C 
ATOM     40  C   UNL A   1      39.225  27.549  29.709  1.00  0.00     0.029 A 
ATOM     41  N   UNL A   1      41.281  27.902  28.898  1.00  0.00    -0.354 N 
ATOM     42  C   UNL A   1      43.205  31.738  29.278  1.00  0.00     0.074 A 
ATOM     43  C   UNL A   1      42.337  32.692  29.936  1.00  0.00     0.031 C 
ATOM     44  C   UNL A   1      39.644  26.401  29.147  1.00  0.00     0.029 A 
ATOM     45  C   UNL A   1      40.973  26.605  28.574  1.00  0.00     0.049 A 
ATOM     46  H   UNL A   1      42.144  28.323  28.682  1.00  0.00     0.167 HD
ATOM     47  C   UNL A   1      44.461  32.017  28.857  1.00  0.00     0.037 A 
ATOM     48  C   UNL A   1      41.680  25.694  27.876  1.00  0.00     0.037 A 
ATOM     49  C   UNL A   1      45.323  31.079  28.189  1.00  0.00     0.049 A 
ATOM     50  C   UNL A   1      43.042  26.049  27.346  1.00  0.00     0.074 A 
ATOM     51  C   UNL A   1      46.621  31.262  27.749  1.00  0.00     0.029 A 
ATOM     52  N   UNL A   1      44.962  29.784  27.849  1.00  0.00    -0.354 N 
ATOM     53  N   UNL A   1      43.715  27.167  27.476  1.00  0.00    -0.248 NA
ATOM     54  C   UNL A   1      43.746  25.013  26.574  1.00  0.00     0.031 C 
ATOM     55  C   UNL A   1      47.034  30.089  27.107  1.00  0.00     0.029 A 
ATOM     56  C   UNL A   1      46.006  29.164  27.183  1.00  0.00     0.049 A 
ATOM     57  H   UNL A   1      44.093  29.367  28.052  1.00  0.00     0.167 HD
ATOM     58  C   UNL A   1      44.926  26.962  26.826  1.00  0.00     0.074 A 
ATOM     59  C   UNL A   1      44.900  25.609  26.309  1.00  0.00     0.031 C 
ATOM     60  C   UNL A   1      45.968  27.816  26.677  1.00  0.00     0.037 A 
BRANCH  47  61
ATOM     61  C   UNL A   1      44.966  33.407  29.095  1.00  0.00     0.057 A 
ATOM     62  C   UNL A   1      44.759  34.435  28.165  1.00  0.00     0.134 A 
ATOM     63  C   UNL A   1      45.660  33.724  30.269  1.00  0.00     0.134 A 
ATOM     64  F   UNL A   1      44.117  34.189  27.012  1.00  0.00    -0.206 F 
ATOM     65  C   UNL A   1      45.245  35.725  28.385  1.00  0.00     0.040 A 
ATOM     66  C   UNL A   1      46.132  35.016  30.509  1.00  0.00     0.040 A 
ATOM     67  F   UNL A   1      45.890  32.785  31.199  1.00  0.00    -0.206 F 
ATOM     68  C   UNL A   1      45.930  36.018  29.563  1.00  0.00     0.006 A 
ENDBRANCH  47  61
BRANCH  48  69
ATOM     69  C   UNL A   1      41.108  24.348  27.629  1.00  0.00     0.057 A 
ATOM     70  C   UNL A   1      41.572  23.227  28.327  1.00  0.00     0.134 A 
ATOM     71  C   UNL A   1      40.103  24.148  26.676  1.00  0.00     0.134 A 
ATOM     72  F   UNL A   1      42.551  23.355  29.234  1.00  0.00    -0.206 F 
ATOM     73  C   UNL A   1      41.062  21.951  28.078  1.00  0.00     0.040 A 
ATOM     74  C   UNL A   1      39.571  22.881  26.431  1.00  0.00     0.040 A 
ATOM     75  F   UNL A   1      39.624  25.182  25.970  1.00  0.00    -0.206 F 
ATOM     76  C   UNL A   1      40.056  21.777  27.131  1.00  0.00     0.006 A 
ENDBRANCH  48  69
BRANCH  60  77
ATOM     77  C   UNL A   1      47.180  27.306  25.954  1.00  0.00     0.057 A 
ATOM     78  C   UNL A   1      47.342  27.475  24.574  1.00  0.00     0.134 A 
ATOM     79  C   UNL A   1      48.218  26.679  26.657  1.00  0.00     0.134 A 
ATOM     80  F   UNL A   1      46.380  28.057  23.843  1.00  0.00    -0.206 F 
ATOM     81  C   UNL A   1      48.487  27.025  23.915  1.00  0.00     0.040 A 
ATOM     82  C   UNL A   1      49.377  26.244  26.012  1.00  0.00     0.040 A 
ATOM     83  F   UNL A   1      48.129  26.495  27.982  1.00  0.00    -0.206 F 
ATOM     84  C   UNL A   1      49.511  26.413  24.635  1.00  0.00     0.006 A 
ENDBRANCH  60  77
ENDBRANCH  34  35
ENDBRANCH  27  29
ENDBRANCH  26  27
ENDBRANCH  25  26
ENDBRANCH  24  25
ENDBRANCH  23  24
ENDBRANCH  22  23
ENDBRANCH   1  22
TORSDOF 20
ENDMDL
