MODEL 1
REMARK VINA RESULT:      -9.9      0.000      0.000
REMARK SMILES COc1cc([N+](=O)[O-])cc2c1=N[C@H](C(=O)OCCOCCOCCOC(=O)c1ccc(-c3c4nc(c(-c5c(F)cccc5F)c5ccc([nH]5)c(-c5c(F)cccc5F)c5nc(c(-c6c(F)cccc6F)c6ccc3[nH]6)C=C5)C=C4)cc1)C=2CC[NH3+]
REMARK SMILES IDX 20 1 19 2 18 3 17 4 16 5 14 6 15 7 13 8 3 9 4 10 11 11 5 12
REMARK SMILES IDX 10 13 12 14 9 15 82 16 2 17 1 18 6 19 7 20 8 21 83 22 84 23
REMARK SMILES IDX 85 24 21 28 22 29 23 30 24 31 25 32 26 33 27 34 28 35 29 36
REMARK SMILES IDX 81 37 30 38 80 39 31 40 32 41 33 42 74 43 34 44 79 45 73 46
REMARK SMILES IDX 75 47 35 48 78 49 72 50 71 51 36 53 62 54 45 55 61 56 46 57
REMARK SMILES IDX 49 58 60 59 76 60 47 61 48 62 59 64 77 65 50 66 37 67 38 68
REMARK SMILES IDX 43 69 39 70 40 71 42 72 44 73 41 74 63 75 64 76 69 77 65 78
REMARK SMILES IDX 66 79 68 80 70 81 67 82 51 83 52 84 57 85 53 86 54 87 56 88
REMARK SMILES IDX 58 89 55 90
REMARK H PARENT 85 25 85 26 85 27 75 52 49 63
REMARK Flexibility Score: inf
ROOT
ATOM      1  C   UNL A   1      39.176  20.952  25.975  1.00  0.00     0.188 C 
ENDROOT
BRANCH   1   2
ATOM      2  O   UNL A   1      38.157  21.547  25.185  1.00  0.00    -0.376 OA
BRANCH   2   3
ATOM      3  C   UNL A   1      36.826  21.439  25.682  1.00  0.00     0.202 C 
BRANCH   3   4
ATOM      4  C   UNL A   1      35.695  22.073  24.849  1.00  0.00     0.261 C 
BRANCH   4   5
ATOM      5  O   UNL A   1      34.612  21.194  24.436  1.00  0.00    -0.461 OA
BRANCH   5   6
ATOM      6  C   UNL A   1      33.492  21.844  23.997  1.00  0.00     0.335 C 
ATOM      7  O   UNL A   1      32.690  21.317  23.225  1.00  0.00    -0.249 OA
BRANCH   6   8
ATOM      8  C   UNL A   1      33.311  23.331  24.498  1.00  0.00     0.243 C 
ATOM      9  C   UNL A   1      32.396  25.781  21.881  1.00  0.00     0.151 A 
ATOM     10  C   UNL A   1      31.385  26.671  21.935  1.00  0.00     0.134 A 
ATOM     11  C   UNL A   1      32.604  24.874  23.051  1.00  0.00     0.109 A 
ATOM     12  C   UNL A   1      30.512  26.789  23.094  1.00  0.00     0.273 A 
ATOM     13  C   UNL A   1      31.577  24.891  24.102  1.00  0.00     0.012 A 
ATOM     14  N   UNL A   1      33.642  24.137  23.268  1.00  0.00    -0.261 NA
ATOM     15  C   UNL A   1      30.580  25.930  24.132  1.00  0.00     0.096 A 
ATOM     16  C   UNL A   1      32.025  23.987  24.989  1.00  0.00    -0.019 C 
BRANCH   9  17
ATOM     17  O   UNL A   1      33.223  25.592  20.797  1.00  0.00    -0.494 OA
ATOM     18  C   UNL A   1      32.546  25.490  19.550  1.00  0.00     0.278 C 
ENDBRANCH   9  17
BRANCH  12  19
ATOM     19  N   UNL A   1      29.476  27.832  23.135  1.00  0.00     0.062 N 
ATOM     20  O   UNL A   1      28.313  27.492  23.393  1.00  0.00    -0.258 OA
ATOM     21  O   UNL A   1      29.833  28.991  22.888  1.00  0.00    -0.258 OA
ENDBRANCH  12  19
BRANCH  16  22
ATOM     22  C   UNL A   1      31.625  24.016  26.448  1.00  0.00     0.096 C 
BRANCH  22  23
ATOM     23  C   UNL A   1      31.046  22.755  27.076  1.00  0.00     0.263 C 
BRANCH  23  24
ATOM     24  N   UNL A   1      29.613  22.622  26.856  1.00  0.00    -0.357 N 
ATOM     25  H   UNL A   1      29.233  21.930  27.501  1.00  0.00     0.344 HD
ATOM     26  H   UNL A   1      29.443  22.321  25.896  1.00  0.00     0.344 HD
ATOM     27  H   UNL A   1      29.159  23.520  27.015  1.00  0.00     0.344 HD
ENDBRANCH  23  24
ENDBRANCH  22  23
ENDBRANCH  16  22
ENDBRANCH   6   8
ENDBRANCH   5   6
ENDBRANCH   4   5
ENDBRANCH   3   4
ENDBRANCH   2   3
ENDBRANCH   1   2
BRANCH   1  28
ATOM     28  C   UNL A   1      39.964  21.890  26.900  1.00  0.00     0.188 C 
BRANCH  28  29
ATOM     29  O   UNL A   1      41.262  21.451  27.269  1.00  0.00    -0.376 OA
BRANCH  29  30
ATOM     30  C   UNL A   1      42.104  20.871  26.272  1.00  0.00     0.202 C 
BRANCH  30  31
ATOM     31  C   UNL A   1      43.055  21.759  25.455  1.00  0.00     0.261 C 
BRANCH  31  32
ATOM     32  O   UNL A   1      42.680  23.140  25.310  1.00  0.00    -0.460 OA
BRANCH  32  33
ATOM     33  C   UNL A   1      43.612  24.101  25.496  1.00  0.00     0.338 C 
ATOM     34  O   UNL A   1      44.590  24.315  24.796  1.00  0.00    -0.246 OA
BRANCH  33  35
ATOM     35  C   UNL A   1      43.075  25.048  26.517  1.00  0.00     0.060 A 
ATOM     36  C   UNL A   1      42.131  24.650  27.469  1.00  0.00     0.016 A 
ATOM     37  C   UNL A   1      43.429  26.399  26.424  1.00  0.00     0.016 A 
ATOM     38  C   UNL A   1      41.560  25.597  28.326  1.00  0.00     0.010 A 
ATOM     39  C   UNL A   1      42.860  27.343  27.287  1.00  0.00     0.010 A 
ATOM     40  C   UNL A   1      41.937  26.949  28.259  1.00  0.00    -0.014 A 
BRANCH  40  41
ATOM     41  C   UNL A   1      41.541  27.883  29.346  1.00  0.00     0.031 A 
ATOM     42  C   UNL A   1      40.380  28.828  29.245  1.00  0.00     0.074 A 
ATOM     43  C   UNL A   1      42.298  27.877  30.460  1.00  0.00     0.049 A 
ATOM     44  N   UNL A   1      39.860  29.586  30.181  1.00  0.00    -0.248 NA
ATOM     45  C   UNL A   1      39.731  28.961  27.934  1.00  0.00     0.031 C 
ATOM     46  C   UNL A   1      43.516  27.083  30.640  1.00  0.00     0.029 A 
ATOM     47  N   UNL A   1      42.155  28.543  31.649  1.00  0.00    -0.354 N 
ATOM     48  C   UNL A   1      38.794  30.252  29.590  1.00  0.00     0.074 A 
ATOM     49  C   UNL A   1      38.795  29.868  28.190  1.00  0.00     0.031 C 
ATOM     50  C   UNL A   1      43.982  27.271  31.882  1.00  0.00     0.029 A 
ATOM     51  C   UNL A   1      43.112  28.213  32.576  1.00  0.00     0.049 A 
ATOM     52  H   UNL A   1      41.437  29.195  31.821  1.00  0.00     0.167 HD
ATOM     53  C   UNL A   1      37.885  31.078  30.168  1.00  0.00     0.037 A 
ATOM     54  C   UNL A   1      43.269  28.613  33.850  1.00  0.00     0.037 A 
ATOM     55  C   UNL A   1      37.917  31.496  31.552  1.00  0.00     0.049 A 
ATOM     56  C   UNL A   1      42.264  29.551  34.455  1.00  0.00     0.074 A 
ATOM     57  C   UNL A   1      37.023  32.308  32.233  1.00  0.00     0.029 A 
ATOM     58  N   UNL A   1      38.907  31.154  32.462  1.00  0.00    -0.354 N 
ATOM     59  N   UNL A   1      41.188  30.072  33.919  1.00  0.00    -0.248 NA
ATOM     60  C   UNL A   1      42.490  29.941  35.853  1.00  0.00     0.031 C 
ATOM     61  C   UNL A   1      37.498  32.494  33.538  1.00  0.00     0.029 A 
ATOM     62  C   UNL A   1      38.658  31.753  33.689  1.00  0.00     0.049 A 
ATOM     63  H   UNL A   1      39.676  30.570  32.266  1.00  0.00     0.167 HD
ATOM     64  C   UNL A   1      40.597  30.831  34.921  1.00  0.00     0.074 A 
ATOM     65  C   UNL A   1      41.414  30.670  36.104  1.00  0.00     0.031 C 
ATOM     66  C   UNL A   1      39.479  31.598  34.863  1.00  0.00     0.037 A 
BRANCH  53  67
ATOM     67  C   UNL A   1      36.749  31.566  29.309  1.00  0.00     0.057 A 
ATOM     68  C   UNL A   1      35.681  30.729  28.959  1.00  0.00     0.134 A 
ATOM     69  C   UNL A   1      36.751  32.861  28.771  1.00  0.00     0.134 A 
ATOM     70  F   UNL A   1      35.621  29.471  29.421  1.00  0.00    -0.206 F 
ATOM     71  C   UNL A   1      34.658  31.163  28.113  1.00  0.00     0.040 A 
ATOM     72  C   UNL A   1      35.719  33.316  27.948  1.00  0.00     0.040 A 
ATOM     73  F   UNL A   1      37.747  33.714  29.058  1.00  0.00    -0.206 F 
ATOM     74  C   UNL A   1      34.671  32.463  27.612  1.00  0.00     0.006 A 
ENDBRANCH  53  67
BRANCH  54  75
ATOM     75  C   UNL A   1      44.409  28.108  34.656  1.00  0.00     0.057 A 
ATOM     76  C   UNL A   1      45.638  28.778  34.674  1.00  0.00     0.134 A 
ATOM     77  C   UNL A   1      44.281  26.970  35.460  1.00  0.00     0.134 A 
ATOM     78  F   UNL A   1      45.829  29.865  33.912  1.00  0.00    -0.206 F 
ATOM     79  C   UNL A   1      46.695  28.341  35.472  1.00  0.00     0.040 A 
ATOM     80  C   UNL A   1      45.318  26.542  36.289  1.00  0.00     0.040 A 
ATOM     81  F   UNL A   1      43.125  26.291  35.492  1.00  0.00    -0.206 F 
ATOM     82  C   UNL A   1      46.530  27.230  36.296  1.00  0.00     0.006 A 
ENDBRANCH  54  75
BRANCH  66  83
ATOM     83  C   UNL A   1      39.073  32.295  36.134  1.00  0.00     0.057 A 
ATOM     84  C   UNL A   1      39.495  33.605  36.396  1.00  0.00     0.134 A 
ATOM     85  C   UNL A   1      38.242  31.685  37.084  1.00  0.00     0.134 A 
ATOM     86  F   UNL A   1      40.297  34.249  35.535  1.00  0.00    -0.206 F 
ATOM     87  C   UNL A   1      39.093  34.286  37.547  1.00  0.00     0.040 A 
ATOM     88  C   UNL A   1      37.806  32.367  38.221  1.00  0.00     0.040 A 
ATOM     89  F   UNL A   1      37.787  30.437  36.889  1.00  0.00    -0.206 F 
ATOM     90  C   UNL A   1      38.235  33.672  38.456  1.00  0.00     0.006 A 
ENDBRANCH  66  83
ENDBRANCH  40  41
ENDBRANCH  33  35
ENDBRANCH  32  33
ENDBRANCH  31  32
ENDBRANCH  30  31
ENDBRANCH  29  30
ENDBRANCH  28  29
ENDBRANCH   1  28
TORSDOF 22
ENDMDL
MODEL 2
REMARK VINA RESULT:      -9.9      3.899      7.635
REMARK SMILES COc1cc([N+](=O)[O-])cc2c1=N[C@H](C(=O)OCCOCCOCCOC(=O)c1ccc(-c3c4nc(c(-c5c(F)cccc5F)c5ccc([nH]5)c(-c5c(F)cccc5F)c5nc(c(-c6c(F)cccc6F)c6ccc3[nH]6)C=C5)C=C4)cc1)C=2CC[NH3+]
REMARK SMILES IDX 20 1 19 2 18 3 17 4 16 5 14 6 15 7 13 8 3 9 4 10 11 11 5 12
REMARK SMILES IDX 10 13 12 14 9 15 82 16 2 17 1 18 6 19 7 20 8 21 83 22 84 23
REMARK SMILES IDX 85 24 21 28 22 29 23 30 24 31 25 32 26 33 27 34 28 35 29 36
REMARK SMILES IDX 81 37 30 38 80 39 31 40 32 41 33 42 74 43 34 44 79 45 73 46
REMARK SMILES IDX 75 47 35 48 78 49 72 50 71 51 36 53 62 54 45 55 61 56 46 57
REMARK SMILES IDX 49 58 60 59 76 60 47 61 48 62 59 64 77 65 50 66 37 67 38 68
REMARK SMILES IDX 43 69 39 70 40 71 42 72 44 73 41 74 63 75 64 76 69 77 65 78
REMARK SMILES IDX 66 79 68 80 70 81 67 82 51 83 52 84 57 85 53 86 54 87 56 88
REMARK SMILES IDX 58 89 55 90
REMARK H PARENT 85 25 85 26 85 27 75 52 49 63
REMARK Flexibility Score: inf
ROOT
ATOM      1  C   UNL A   1      32.260  20.413  24.969  1.00  0.00     0.188 C 
ENDROOT
BRANCH   1   2
ATOM      2  O   UNL A   1      32.289  20.056  23.595  1.00  0.00    -0.376 OA
BRANCH   2   3
ATOM      3  C   UNL A   1      32.148  21.122  22.661  1.00  0.00     0.202 C 
BRANCH   3   4
ATOM      4  C   UNL A   1      32.113  22.561  23.213  1.00  0.00     0.261 C 
BRANCH   4   5
ATOM      5  O   UNL A   1      30.801  23.134  23.468  1.00  0.00    -0.461 OA
BRANCH   5   6
ATOM      6  C   UNL A   1      30.808  24.479  23.710  1.00  0.00     0.335 C 
ATOM      7  O   UNL A   1      29.778  25.154  23.690  1.00  0.00    -0.249 OA
BRANCH   6   8
ATOM      8  C   UNL A   1      32.223  25.130  23.969  1.00  0.00     0.243 C 
ATOM      9  C   UNL A   1      32.247  28.822  24.208  1.00  0.00     0.151 A 
ATOM     10  C   UNL A   1      32.813  29.559  25.185  1.00  0.00     0.134 A 
ATOM     11  C   UNL A   1      32.351  27.333  24.293  1.00  0.00     0.109 A 
ATOM     12  C   UNL A   1      33.532  28.955  26.297  1.00  0.00     0.273 A 
ATOM     13  C   UNL A   1      32.904  26.770  25.532  1.00  0.00     0.012 A 
ATOM     14  N   UNL A   1      32.078  26.496  23.348  1.00  0.00    -0.261 NA
ATOM     15  C   UNL A   1      33.568  27.620  26.487  1.00  0.00     0.096 A 
ATOM     16  C   UNL A   1      32.860  25.445  25.319  1.00  0.00    -0.019 C 
BRANCH   9  17
ATOM     17  O   UNL A   1      31.516  29.333  23.159  1.00  0.00    -0.494 OA
ATOM     18  C   UNL A   1      30.165  29.643  23.478  1.00  0.00     0.278 C 
ENDBRANCH   9  17
BRANCH  12  19
ATOM     19  N   UNL A   1      34.202  29.807  27.292  1.00  0.00     0.062 N 
ATOM     20  O   UNL A   1      35.240  29.384  27.820  1.00  0.00    -0.258 OA
ATOM     21  O   UNL A   1      33.669  30.892  27.557  1.00  0.00    -0.258 OA
ENDBRANCH  12  19
BRANCH  16  22
ATOM     22  C   UNL A   1      33.771  24.477  26.042  1.00  0.00     0.096 C 
BRANCH  22  23
ATOM     23  C   UNL A   1      35.168  24.232  25.489  1.00  0.00     0.263 C 
BRANCH  23  24
ATOM     24  N   UNL A   1      35.216  24.279  24.035  1.00  0.00    -0.357 N 
ATOM     25  H   UNL A   1      34.521  24.943  23.694  1.00  0.00     0.344 HD
ATOM     26  H   UNL A   1      35.014  23.353  23.658  1.00  0.00     0.344 HD
ATOM     27  H   UNL A   1      36.144  24.574  23.734  1.00  0.00     0.344 HD
ENDBRANCH  23  24
ENDBRANCH  22  23
ENDBRANCH  16  22
ENDBRANCH   6   8
ENDBRANCH   5   6
ENDBRANCH   4   5
ENDBRANCH   3   4
ENDBRANCH   2   3
ENDBRANCH   1   2
BRANCH   1  28
ATOM     28  C   UNL A   1      33.606  20.418  25.707  1.00  0.00     0.188 C 
BRANCH  28  29
ATOM     29  O   UNL A   1      34.705  19.871  24.997  1.00  0.00    -0.376 OA
BRANCH  29  30
ATOM     30  C   UNL A   1      35.810  20.717  24.676  1.00  0.00     0.202 C 
BRANCH  30  31
ATOM     31  C   UNL A   1      37.243  20.271  25.004  1.00  0.00     0.261 C 
BRANCH  31  32
ATOM     32  O   UNL A   1      38.165  21.305  25.392  1.00  0.00    -0.460 OA
BRANCH  32  33
ATOM     33  C   UNL A   1      39.260  20.977  26.114  1.00  0.00     0.338 C 
ATOM     34  O   UNL A   1      39.799  19.883  26.167  1.00  0.00    -0.246 OA
BRANCH  33  35
ATOM     35  C   UNL A   1      39.876  22.252  26.587  1.00  0.00     0.060 A 
ATOM     36  C   UNL A   1      40.904  22.269  27.534  1.00  0.00     0.016 A 
ATOM     37  C   UNL A   1      39.308  23.461  26.167  1.00  0.00     0.016 A 
ATOM     38  C   UNL A   1      41.366  23.488  28.042  1.00  0.00     0.010 A 
ATOM     39  C   UNL A   1      39.776  24.679  26.674  1.00  0.00     0.010 A 
ATOM     40  C   UNL A   1      40.823  24.706  27.600  1.00  0.00    -0.014 A 
BRANCH  40  41
ATOM     41  C   UNL A   1      41.504  25.985  27.931  1.00  0.00     0.031 A 
ATOM     42  C   UNL A   1      42.913  26.304  27.522  1.00  0.00     0.074 A 
ATOM     43  C   UNL A   1      40.806  26.877  28.658  1.00  0.00     0.049 A 
ATOM     44  N   UNL A   1      43.558  27.440  27.634  1.00  0.00    -0.248 NA
ATOM     45  C   UNL A   1      43.706  25.216  26.934  1.00  0.00     0.031 C 
ATOM     46  C   UNL A   1      39.468  26.644  29.208  1.00  0.00     0.029 A 
ATOM     47  N   UNL A   1      41.110  28.154  29.051  1.00  0.00    -0.354 N 
ATOM     48  C   UNL A   1      44.818  27.223  27.091  1.00  0.00     0.074 A 
ATOM     49  C   UNL A   1      44.871  25.820  26.723  1.00  0.00     0.031 C 
ATOM     50  C   UNL A   1      39.048  27.756  29.826  1.00  0.00     0.029 A 
ATOM     51  C   UNL A   1      40.092  28.770  29.736  1.00  0.00     0.049 A 
ATOM     52  H   UNL A   1      41.974  28.587  28.862  1.00  0.00     0.167 HD
ATOM     53  C   UNL A   1      45.820  28.116  26.889  1.00  0.00     0.037 A 
ATOM     54  C   UNL A   1      40.000  30.018  30.228  1.00  0.00     0.037 A 
ATOM     55  C   UNL A   1      45.781  29.502  27.302  1.00  0.00     0.049 A 
ATOM     56  C   UNL A   1      41.137  30.977  30.016  1.00  0.00     0.074 A 
ATOM     57  C   UNL A   1      46.737  30.489  27.116  1.00  0.00     0.029 A 
ATOM     58  N   UNL A   1      44.740  30.092  28.005  1.00  0.00    -0.354 N 
ATOM     59  N   UNL A   1      42.271  30.793  29.386  1.00  0.00    -0.248 NA
ATOM     60  C   UNL A   1      40.968  32.326  30.571  1.00  0.00     0.031 C 
ATOM     61  C   UNL A   1      46.294  31.659  27.746  1.00  0.00     0.029 A 
ATOM     62  C   UNL A   1      45.038  31.421  28.277  1.00  0.00     0.049 A 
ATOM     63  H   UNL A   1      43.910  29.635  28.272  1.00  0.00     0.167 HD
ATOM     64  C   UNL A   1      42.939  32.009  29.449  1.00  0.00     0.074 A 
ATOM     65  C   UNL A   1      42.066  32.930  30.144  1.00  0.00     0.031 C 
ATOM     66  C   UNL A   1      44.169  32.333  28.977  1.00  0.00     0.037 A 
BRANCH  53  67
ATOM     67  C   UNL A   1      47.043  27.631  26.158  1.00  0.00     0.057 A 
ATOM     68  C   UNL A   1      47.093  27.590  24.758  1.00  0.00     0.134 A 
ATOM     69  C   UNL A   1      48.157  27.140  26.854  1.00  0.00     0.134 A 
ATOM     70  F   UNL A   1      46.057  28.026  24.026  1.00  0.00    -0.206 F 
ATOM     71  C   UNL A   1      48.205  27.084  24.081  1.00  0.00     0.040 A 
ATOM     72  C   UNL A   1      49.285  26.659  26.188  1.00  0.00     0.040 A 
ATOM     73  F   UNL A   1      48.174  27.143  28.196  1.00  0.00    -0.206 F 
ATOM     74  C   UNL A   1      49.309  26.624  24.796  1.00  0.00     0.006 A 
ENDBRANCH  53  67
BRANCH  54  75
ATOM     75  C   UNL A   1      38.776  30.449  30.947  1.00  0.00     0.057 A 
ATOM     76  C   UNL A   1      37.716  31.066  30.271  1.00  0.00     0.134 A 
ATOM     77  C   UNL A   1      38.618  30.213  32.317  1.00  0.00     0.134 A 
ATOM     78  F   UNL A   1      37.813  31.335  28.961  1.00  0.00    -0.206 F 
ATOM     79  C   UNL A   1      36.540  31.423  30.930  1.00  0.00     0.040 A 
ATOM     80  C   UNL A   1      37.434  30.533  32.982  1.00  0.00     0.040 A 
ATOM     81  F   UNL A   1      39.594  29.616  33.017  1.00  0.00    -0.206 F 
ATOM     82  C   UNL A   1      36.390  31.140  32.286  1.00  0.00     0.006 A 
ENDBRANCH  54  75
BRANCH  66  83
ATOM     83  C   UNL A   1      44.618  33.754  29.183  1.00  0.00     0.057 A 
ATOM     84  C   UNL A   1      45.359  34.112  30.318  1.00  0.00     0.134 A 
ATOM     85  C   UNL A   1      44.348  34.763  28.248  1.00  0.00     0.134 A 
ATOM     86  F   UNL A   1      45.650  33.201  31.258  1.00  0.00    -0.206 F 
ATOM     87  C   UNL A   1      45.824  35.415  30.506  1.00  0.00     0.040 A 
ATOM     88  C   UNL A   1      44.836  36.061  28.408  1.00  0.00     0.040 A 
ATOM     89  F   UNL A   1      43.658  34.487  27.130  1.00  0.00    -0.206 F 
ATOM     90  C   UNL A   1      45.575  36.390  29.543  1.00  0.00     0.006 A 
ENDBRANCH  66  83
ENDBRANCH  40  41
ENDBRANCH  33  35
ENDBRANCH  32  33
ENDBRANCH  31  32
ENDBRANCH  30  31
ENDBRANCH  29  30
ENDBRANCH  28  29
ENDBRANCH   1  28
TORSDOF 22
ENDMDL
MODEL 3
REMARK VINA RESULT:      -9.7      0.980      6.042
REMARK SMILES COc1cc([N+](=O)[O-])cc2c1=N[C@H](C(=O)OCCOCCOCCOC(=O)c1ccc(-c3c4nc(c(-c5c(F)cccc5F)c5ccc([nH]5)c(-c5c(F)cccc5F)c5nc(c(-c6c(F)cccc6F)c6ccc3[nH]6)C=C5)C=C4)cc1)C=2CC[NH3+]
REMARK SMILES IDX 20 1 19 2 18 3 17 4 16 5 14 6 15 7 13 8 3 9 4 10 11 11 5 12
REMARK SMILES IDX 10 13 12 14 9 15 82 16 2 17 1 18 6 19 7 20 8 21 83 22 84 23
REMARK SMILES IDX 85 24 21 28 22 29 23 30 24 31 25 32 26 33 27 34 28 35 29 36
REMARK SMILES IDX 81 37 30 38 80 39 31 40 32 41 33 42 74 43 34 44 79 45 73 46
REMARK SMILES IDX 75 47 35 48 78 49 72 50 71 51 36 53 62 54 45 55 61 56 46 57
REMARK SMILES IDX 49 58 60 59 76 60 47 61 48 62 59 64 77 65 50 66 37 67 38 68
REMARK SMILES IDX 43 69 39 70 40 71 42 72 44 73 41 74 63 75 64 76 69 77 65 78
REMARK SMILES IDX 66 79 68 80 70 81 67 82 51 83 52 84 57 85 53 86 54 87 56 88
REMARK SMILES IDX 58 89 55 90
REMARK H PARENT 85 25 85 26 85 27 75 52 49 63
REMARK Flexibility Score: inf
ROOT
ATOM      1  C   UNL A   1      39.311  21.158  26.103  1.00  0.00     0.188 C 
ENDROOT
BRANCH   1   2
ATOM      2  O   UNL A   1      38.299  21.517  25.174  1.00  0.00    -0.376 OA
BRANCH   2   3
ATOM      3  C   UNL A   1      36.968  21.572  25.678  1.00  0.00     0.202 C 
BRANCH   3   4
ATOM      4  C   UNL A   1      35.858  22.056  24.724  1.00  0.00     0.261 C 
BRANCH   4   5
ATOM      5  O   UNL A   1      34.706  21.183  24.560  1.00  0.00    -0.461 OA
BRANCH   5   6
ATOM      6  C   UNL A   1      33.586  21.808  24.089  1.00  0.00     0.335 C 
ATOM      7  O   UNL A   1      32.804  21.254  23.315  1.00  0.00    -0.249 OA
BRANCH   6   8
ATOM      8  C   UNL A   1      33.375  23.301  24.557  1.00  0.00     0.243 C 
ATOM      9  C   UNL A   1      32.389  25.671  21.892  1.00  0.00     0.151 A 
ATOM     10  C   UNL A   1      31.359  26.539  21.932  1.00  0.00     0.134 A 
ATOM     11  C   UNL A   1      32.624  24.795  23.081  1.00  0.00     0.109 A 
ATOM     12  C   UNL A   1      30.491  26.664  23.094  1.00  0.00     0.273 A 
ATOM     13  C   UNL A   1      31.604  24.814  24.138  1.00  0.00     0.012 A 
ATOM     14  N   UNL A   1      33.680  24.086  23.307  1.00  0.00    -0.261 NA
ATOM     15  C   UNL A   1      30.584  25.831  24.151  1.00  0.00     0.096 A 
ATOM     16  C   UNL A   1      32.077  23.941  25.043  1.00  0.00    -0.019 C 
BRANCH   9  17
ATOM     17  O   UNL A   1      33.213  25.475  20.807  1.00  0.00    -0.494 OA
ATOM     18  C   UNL A   1      32.547  25.495  19.550  1.00  0.00     0.278 C 
ENDBRANCH   9  17
BRANCH  12  19
ATOM     19  N   UNL A   1      29.432  27.685  23.119  1.00  0.00     0.062 N 
ATOM     20  O   UNL A   1      29.725  28.840  22.779  1.00  0.00    -0.258 OA
ATOM     21  O   UNL A   1      28.311  27.326  23.501  1.00  0.00    -0.258 OA
ENDBRANCH  12  19
BRANCH  16  22
ATOM     22  C   UNL A   1      31.686  23.994  26.503  1.00  0.00     0.096 C 
BRANCH  22  23
ATOM     23  C   UNL A   1      30.504  23.160  26.977  1.00  0.00     0.263 C 
BRANCH  23  24
ATOM     24  N   UNL A   1      29.243  23.885  26.922  1.00  0.00    -0.357 N 
ATOM     25  H   UNL A   1      29.233  24.488  26.100  1.00  0.00     0.344 HD
ATOM     26  H   UNL A   1      29.142  24.456  27.763  1.00  0.00     0.344 HD
ATOM     27  H   UNL A   1      28.471  23.222  26.867  1.00  0.00     0.344 HD
ENDBRANCH  23  24
ENDBRANCH  22  23
ENDBRANCH  16  22
ENDBRANCH   6   8
ENDBRANCH   5   6
ENDBRANCH   4   5
ENDBRANCH   3   4
ENDBRANCH   2   3
ENDBRANCH   1   2
BRANCH   1  28
ATOM     28  C   UNL A   1      39.970  22.306  26.880  1.00  0.00     0.188 C 
BRANCH  28  29
ATOM     29  O   UNL A   1      41.364  22.181  27.109  1.00  0.00    -0.376 OA
BRANCH  29  30
ATOM     30  C   UNL A   1      42.213  21.822  26.019  1.00  0.00     0.202 C 
BRANCH  30  31
ATOM     31  C   UNL A   1      42.989  22.907  25.256  1.00  0.00     0.261 C 
BRANCH  31  32
ATOM     32  O   UNL A   1      42.566  24.266  25.463  1.00  0.00    -0.460 OA
BRANCH  32  33
ATOM     33  C   UNL A   1      43.493  25.216  25.722  1.00  0.00     0.338 C 
ATOM     34  O   UNL A   1      44.421  25.545  25.001  1.00  0.00    -0.246 OA
BRANCH  33  35
ATOM     35  C   UNL A   1      43.006  26.002  26.893  1.00  0.00     0.060 A 
ATOM     36  C   UNL A   1      41.986  25.532  27.727  1.00  0.00     0.016 A 
ATOM     37  C   UNL A   1      43.494  27.302  27.071  1.00  0.00     0.016 A 
ATOM     38  C   UNL A   1      41.473  26.354  28.736  1.00  0.00     0.010 A 
ATOM     39  C   UNL A   1      42.983  28.120  28.085  1.00  0.00     0.010 A 
ATOM     40  C   UNL A   1      41.983  27.648  28.940  1.00  0.00    -0.014 A 
BRANCH  40  41
ATOM     41  C   UNL A   1      41.633  28.395  30.177  1.00  0.00     0.031 A 
ATOM     42  C   UNL A   1      42.383  28.257  31.469  1.00  0.00     0.074 A 
ATOM     43  C   UNL A   1      40.565  29.213  30.112  1.00  0.00     0.049 A 
ATOM     44  N   UNL A   1      42.253  28.962  32.568  1.00  0.00    -0.248 NA
ATOM     45  C   UNL A   1      43.388  27.189  31.555  1.00  0.00     0.031 C 
ATOM     46  C   UNL A   1      39.688  29.354  28.948  1.00  0.00     0.029 A 
ATOM     47  N   UNL A   1      40.042  30.084  31.032  1.00  0.00    -0.354 N 
ATOM     48  C   UNL A   1      43.188  28.457  33.462  1.00  0.00     0.074 A 
ATOM     49  C   UNL A   1      43.823  27.331  32.802  1.00  0.00     0.031 C 
ATOM     50  C   UNL A   1      38.766  30.291  29.204  1.00  0.00     0.029 A 
ATOM     51  C   UNL A   1      38.971  30.799  30.555  1.00  0.00     0.049 A 
ATOM     52  H   UNL A   1      40.398  30.187  31.943  1.00  0.00     0.167 HD
ATOM     53  C   UNL A   1      43.508  28.911  34.701  1.00  0.00     0.037 A 
ATOM     54  C   UNL A   1      38.239  31.767  31.135  1.00  0.00     0.037 A 
ATOM     55  C   UNL A   1      42.839  30.002  35.374  1.00  0.00     0.049 A 
ATOM     56  C   UNL A   1      38.597  32.230  32.519  1.00  0.00     0.074 A 
ATOM     57  C   UNL A   1      43.111  30.551  36.618  1.00  0.00     0.029 A 
ATOM     58  N   UNL A   1      41.749  30.698  34.870  1.00  0.00    -0.354 N 
ATOM     59  N   UNL A   1      39.568  31.828  33.302  1.00  0.00    -0.248 NA
ATOM     60  C   UNL A   1      37.763  33.295  33.089  1.00  0.00     0.031 C 
ATOM     61  C   UNL A   1      42.159  31.543  36.884  1.00  0.00     0.029 A 
ATOM     62  C   UNL A   1      41.326  31.654  35.783  1.00  0.00     0.049 A 
ATOM     63  H   UNL A   1      41.336  30.537  33.991  1.00  0.00     0.167 HD
ATOM     64  C   UNL A   1      39.475  32.610  34.447  1.00  0.00     0.074 A 
ATOM     65  C   UNL A   1      38.378  33.530  34.237  1.00  0.00     0.031 C 
ATOM     66  C   UNL A   1      40.228  32.564  35.574  1.00  0.00     0.037 A 
BRANCH  53  67
ATOM     67  C   UNL A   1      44.659  28.246  35.407  1.00  0.00     0.057 A 
ATOM     68  C   UNL A   1      44.459  27.177  36.291  1.00  0.00     0.134 A 
ATOM     69  C   UNL A   1      45.972  28.715  35.254  1.00  0.00     0.134 A 
ATOM     70  F   UNL A   1      43.228  26.687  36.501  1.00  0.00    -0.206 F 
ATOM     71  C   UNL A   1      45.520  26.599  36.991  1.00  0.00     0.040 A 
ATOM     72  C   UNL A   1      47.044  28.127  35.927  1.00  0.00     0.040 A 
ATOM     73  F   UNL A   1      46.234  29.740  34.429  1.00  0.00    -0.206 F 
ATOM     74  C   UNL A   1      46.819  27.068  36.804  1.00  0.00     0.006 A 
ENDBRANCH  53  67
BRANCH  54  75
ATOM     75  C   UNL A   1      37.109  32.389  30.401  1.00  0.00     0.057 A 
ATOM     76  C   UNL A   1      37.325  33.403  29.460  1.00  0.00     0.134 A 
ATOM     77  C   UNL A   1      35.793  31.955  30.592  1.00  0.00     0.134 A 
ATOM     78  F   UNL A   1      38.562  33.875  29.244  1.00  0.00    -0.206 F 
ATOM     79  C   UNL A   1      36.274  33.953  28.727  1.00  0.00     0.040 A 
ATOM     80  C   UNL A   1      34.737  32.471  29.841  1.00  0.00     0.040 A 
ATOM     81  F   UNL A   1      35.524  30.979  31.473  1.00  0.00    -0.206 F 
ATOM     82  C   UNL A   1      34.978  33.474  28.904  1.00  0.00     0.006 A 
ENDBRANCH  54  75
BRANCH  66  83
ATOM     83  C   UNL A   1      39.894  33.563  36.649  1.00  0.00     0.057 A 
ATOM     84  C   UNL A   1      40.468  34.841  36.639  1.00  0.00     0.134 A 
ATOM     85  C   UNL A   1      38.985  33.275  37.677  1.00  0.00     0.134 A 
ATOM     86  F   UNL A   1      41.351  35.186  35.691  1.00  0.00    -0.206 F 
ATOM     87  C   UNL A   1      40.138  35.798  37.601  1.00  0.00     0.040 A 
ATOM     88  C   UNL A   1      38.621  34.234  38.624  1.00  0.00     0.040 A 
ATOM     89  F   UNL A   1      38.386  32.075  37.738  1.00  0.00    -0.206 F 
ATOM     90  C   UNL A   1      39.202  35.500  38.589  1.00  0.00     0.006 A 
ENDBRANCH  66  83
ENDBRANCH  40  41
ENDBRANCH  33  35
ENDBRANCH  32  33
ENDBRANCH  31  32
ENDBRANCH  30  31
ENDBRANCH  29  30
ENDBRANCH  28  29
ENDBRANCH   1  28
TORSDOF 22
ENDMDL
