MODEL 1
REMARK VINA RESULT:     -10.3      0.000      0.000
REMARK SMILES O=C(C[C@H]1CN(C(=O)C[C@H]2CCS(=O)(=O)C2)CCO1)OCCOCCOCCOC(=O)c1ccc(-c2c3nc(c(-c4c(F)cccc4F)c4ccc([nH]4)c(-c4c(F)cccc4F)c4nc(c(-c5c(F)cccc5F)c5ccc2[nH]5)C=C4)C=C3)cc1
REMARK SMILES IDX 24 1 23 2 22 3 21 4 20 5 2 6 1 7 3 8 4 9 5 10 19 11 6 12
REMARK SMILES IDX 18 13 17 14 7 15 8 16 9 17 10 18 11 19 16 20 12 21 13 22
REMARK SMILES IDX 14 23 15 24 25 25 26 26 27 27 28 28 29 29 30 30 31 31 32 32
REMARK SMILES IDX 33 33 85 34 34 35 84 36 35 37 36 38 37 39 78 40 38 41 83 42
REMARK SMILES IDX 77 43 79 44 39 45 82 46 76 47 75 48 40 50 66 51 49 52 65 53
REMARK SMILES IDX 50 54 53 55 64 56 80 57 51 58 52 59 63 61 81 62 54 63 41 64
REMARK SMILES IDX 42 65 47 66 43 67 44 68 46 69 48 70 45 71 67 72 68 73 73 74
REMARK SMILES IDX 69 75 70 76 72 77 74 78 71 79 55 80 56 81 61 82 57 83 58 84
REMARK SMILES IDX 60 85 62 86 59 87
REMARK H PARENT 79 49 53 60
REMARK Flexibility Score: inf
ROOT
ATOM      1  C   UNL A   1      41.714  20.092  27.213  1.00  0.00     0.188 C 
ENDROOT
BRANCH   1   2
ATOM      2  O   UNL A   1      40.522  20.833  27.486  1.00  0.00    -0.376 OA
BRANCH   2   3
ATOM      3  C   UNL A   1      40.034  21.731  26.500  1.00  0.00     0.202 C 
BRANCH   3   4
ATOM      4  C   UNL A   1      38.766  21.309  25.765  1.00  0.00     0.261 C 
BRANCH   4   5
ATOM      5  O   UNL A   1      37.740  22.303  25.733  1.00  0.00    -0.463 OA
BRANCH   5   6
ATOM      6  C   UNL A   1      36.425  22.053  25.544  1.00  0.00     0.308 C 
ATOM      7  O   UNL A   1      36.100  21.108  24.827  1.00  0.00    -0.252 OA
BRANCH   6   8
ATOM      8  C   UNL A   1      35.375  23.029  26.037  1.00  0.00     0.156 C 
BRANCH   8   9
ATOM      9  C   UNL A   1      35.281  24.364  25.310  1.00  0.00     0.148 C 
ATOM     10  C   UNL A   1      34.998  24.235  23.783  1.00  0.00     0.152 C 
ATOM     11  O   UNL A   1      34.281  25.198  25.933  1.00  0.00    -0.374 OA
ATOM     12  N   UNL A   1      33.603  23.938  23.448  1.00  0.00    -0.338 N 
ATOM     13  C   UNL A   1      32.946  24.727  25.694  1.00  0.00     0.182 C 
ATOM     14  C   UNL A   1      32.631  24.733  24.203  1.00  0.00     0.148 C 
BRANCH  12  15
ATOM     15  C   UNL A   1      33.130  23.172  22.398  1.00  0.00     0.223 C 
ATOM     16  O   UNL A   1      33.379  23.473  21.226  1.00  0.00    -0.275 OA
BRANCH  15  17
ATOM     17  C   UNL A   1      32.269  21.938  22.633  1.00  0.00     0.105 C 
BRANCH  17  18
ATOM     18  C   UNL A   1      32.802  20.828  23.545  1.00  0.00     0.014 C 
ATOM     19  C   UNL A   1      32.426  21.059  25.028  1.00  0.00     0.021 C 
ATOM     20  C   UNL A   1      32.299  19.412  23.269  1.00  0.00     0.141 C 
ATOM     21  C   UNL A   1      32.896  19.837  25.820  1.00  0.00     0.137 C 
ATOM     22  S   UNL A   1      32.904  18.476  24.663  1.00  0.00     0.150 S 
ATOM     23  O   UNL A   1      34.281  18.119  24.391  1.00  0.00    -0.229 OA
ATOM     24  O   UNL A   1      31.907  17.498  25.045  1.00  0.00    -0.229 OA
ENDBRANCH  17  18
ENDBRANCH  15  17
ENDBRANCH  12  15
ENDBRANCH   8   9
ENDBRANCH   6   8
ENDBRANCH   5   6
ENDBRANCH   4   5
ENDBRANCH   3   4
ENDBRANCH   2   3
ENDBRANCH   1   2
BRANCH   1  25
ATOM     25  C   UNL A   1      42.183  19.922  25.769  1.00  0.00     0.188 C 
BRANCH  25  26
ATOM     26  O   UNL A   1      43.515  20.347  25.582  1.00  0.00    -0.376 OA
BRANCH  26  27
ATOM     27  C   UNL A   1      43.757  21.728  25.782  1.00  0.00     0.202 C 
BRANCH  27  28
ATOM     28  C   UNL A   1      43.908  22.653  24.559  1.00  0.00     0.261 C 
BRANCH  28  29
ATOM     29  O   UNL A   1      43.444  24.013  24.665  1.00  0.00    -0.460 OA
BRANCH  29  30
ATOM     30  C   UNL A   1      44.298  24.952  25.124  1.00  0.00     0.338 C 
ATOM     31  O   UNL A   1      45.412  25.203  24.686  1.00  0.00    -0.246 OA
BRANCH  30  32
ATOM     32  C   UNL A   1      43.651  25.682  26.240  1.00  0.00     0.060 A 
ATOM     33  C   UNL A   1      44.060  26.981  26.570  1.00  0.00     0.016 A 
ATOM     34  C   UNL A   1      42.646  25.061  26.984  1.00  0.00     0.016 A 
ATOM     35  C   UNL A   1      43.454  27.664  27.637  1.00  0.00     0.010 A 
ATOM     36  C   UNL A   1      42.056  25.738  28.063  1.00  0.00     0.010 A 
ATOM     37  C   UNL A   1      42.459  27.041  28.406  1.00  0.00    -0.014 A 
BRANCH  37  38
ATOM     38  C   UNL A   1      41.881  27.703  29.611  1.00  0.00     0.031 A 
ATOM     39  C   UNL A   1      40.650  28.560  29.471  1.00  0.00     0.074 A 
ATOM     40  C   UNL A   1      42.469  27.587  30.818  1.00  0.00     0.049 A 
ATOM     41  N   UNL A   1      40.069  29.331  30.356  1.00  0.00    -0.248 NA
ATOM     42  C   UNL A   1      39.986  28.545  28.159  1.00  0.00     0.031 C 
ATOM     43  C   UNL A   1      43.646  26.772  31.109  1.00  0.00     0.029 A 
ATOM     44  N   UNL A   1      42.169  28.183  32.022  1.00  0.00    -0.354 N 
ATOM     45  C   UNL A   1      38.985  29.909  29.706  1.00  0.00     0.074 A 
ATOM     46  C   UNL A   1      38.992  29.403  28.348  1.00  0.00     0.031 C 
ATOM     47  C   UNL A   1      43.985  26.941  32.398  1.00  0.00     0.029 A 
ATOM     48  C   UNL A   1      43.084  27.914  33.013  1.00  0.00     0.049 A 
ATOM     49  H   UNL A   1      41.375  28.749  32.160  1.00  0.00     0.167 HD
ATOM     50  C   UNL A   1      38.071  30.782  30.194  1.00  0.00     0.037 A 
ATOM     51  C   UNL A   1      43.216  28.428  34.254  1.00  0.00     0.037 A 
ATOM     52  C   UNL A   1      38.055  31.281  31.545  1.00  0.00     0.049 A 
ATOM     53  C   UNL A   1      42.233  29.464  34.742  1.00  0.00     0.074 A 
ATOM     54  C   UNL A   1      37.132  32.127  32.137  1.00  0.00     0.029 A 
ATOM     55  N   UNL A   1      39.010  30.998  32.507  1.00  0.00    -0.354 N 
ATOM     56  N   UNL A   1      41.181  29.959  34.136  1.00  0.00    -0.248 NA
ATOM     57  C   UNL A   1      42.460  30.020  36.086  1.00  0.00     0.031 C 
ATOM     58  C   UNL A   1      37.566  32.413  33.434  1.00  0.00     0.029 A 
ATOM     59  C   UNL A   1      38.724  31.692  33.673  1.00  0.00     0.049 A 
ATOM     60  H   UNL A   1      39.777  30.395  32.382  1.00  0.00     0.167 HD
ATOM     61  C   UNL A   1      40.614  30.861  35.030  1.00  0.00     0.074 A 
ATOM     62  C   UNL A   1      41.421  30.829  36.229  1.00  0.00     0.031 C 
ATOM     63  C   UNL A   1      39.525  31.652  34.868  1.00  0.00     0.037 A 
BRANCH  50  64
ATOM     64  C   UNL A   1      37.013  31.294  29.261  1.00  0.00     0.057 A 
ATOM     65  C   UNL A   1      35.891  30.529  28.920  1.00  0.00     0.134 A 
ATOM     66  C   UNL A   1      37.069  32.610  28.781  1.00  0.00     0.134 A 
ATOM     67  F   UNL A   1      35.777  29.260  29.342  1.00  0.00    -0.206 F 
ATOM     68  C   UNL A   1      34.864  31.054  28.132  1.00  0.00     0.040 A 
ATOM     69  C   UNL A   1      36.039  33.153  28.013  1.00  0.00     0.040 A 
ATOM     70  F   UNL A   1      38.114  33.398  29.079  1.00  0.00    -0.206 F 
ATOM     71  C   UNL A   1      34.932  32.374  27.686  1.00  0.00     0.006 A 
ENDBRANCH  50  64
BRANCH  51  72
ATOM     72  C   UNL A   1      44.359  28.030  35.121  1.00  0.00     0.057 A 
ATOM     73  C   UNL A   1      45.558  28.752  35.126  1.00  0.00     0.134 A 
ATOM     74  C   UNL A   1      44.307  26.871  35.908  1.00  0.00     0.134 A 
ATOM     75  F   UNL A   1      45.686  29.854  34.371  1.00  0.00    -0.206 F 
ATOM     76  C   UNL A   1      46.672  28.322  35.853  1.00  0.00     0.040 A 
ATOM     77  C   UNL A   1      45.400  26.448  36.665  1.00  0.00     0.040 A 
ATOM     78  F   UNL A   1      43.191  26.129  35.949  1.00  0.00    -0.206 F 
ATOM     79  C   UNL A   1      46.592  27.168  36.628  1.00  0.00     0.006 A 
ENDBRANCH  51  72
BRANCH  63  80
ATOM     80  C   UNL A   1      39.119  32.529  36.019  1.00  0.00     0.057 A 
ATOM     81  C   UNL A   1      38.320  32.052  37.066  1.00  0.00     0.134 A 
ATOM     82  C   UNL A   1      39.577  33.850  36.109  1.00  0.00     0.134 A 
ATOM     83  F   UNL A   1      37.838  30.799  37.037  1.00  0.00    -0.206 F 
ATOM     84  C   UNL A   1      37.976  32.862  38.150  1.00  0.00     0.040 A 
ATOM     85  C   UNL A   1      39.263  34.660  37.202  1.00  0.00     0.040 A 
ATOM     86  F   UNL A   1      40.355  34.370  35.147  1.00  0.00    -0.206 F 
ATOM     87  C   UNL A   1      38.455  34.168  38.224  1.00  0.00     0.006 A 
ENDBRANCH  63  80
ENDBRANCH  37  38
ENDBRANCH  30  32
ENDBRANCH  29  30
ENDBRANCH  28  29
ENDBRANCH  27  28
ENDBRANCH  26  27
ENDBRANCH  25  26
ENDBRANCH   1  25
TORSDOF 21
ENDMDL
MODEL 2
REMARK VINA RESULT:      -9.9      4.151      8.702
REMARK SMILES O=C(C[C@H]1CN(C(=O)C[C@H]2CCS(=O)(=O)C2)CCO1)OCCOCCOCCOC(=O)c1ccc(-c2c3nc(c(-c4c(F)cccc4F)c4ccc([nH]4)c(-c4c(F)cccc4F)c4nc(c(-c5c(F)cccc5F)c5ccc2[nH]5)C=C4)C=C3)cc1
REMARK SMILES IDX 24 1 23 2 22 3 21 4 20 5 2 6 1 7 3 8 4 9 5 10 19 11 6 12
REMARK SMILES IDX 18 13 17 14 7 15 8 16 9 17 10 18 11 19 16 20 12 21 13 22
REMARK SMILES IDX 14 23 15 24 25 25 26 26 27 27 28 28 29 29 30 30 31 31 32 32
REMARK SMILES IDX 33 33 85 34 34 35 84 36 35 37 36 38 37 39 78 40 38 41 83 42
REMARK SMILES IDX 77 43 79 44 39 45 82 46 76 47 75 48 40 50 66 51 49 52 65 53
REMARK SMILES IDX 50 54 53 55 64 56 80 57 51 58 52 59 63 61 81 62 54 63 41 64
REMARK SMILES IDX 42 65 47 66 43 67 44 68 46 69 48 70 45 71 67 72 68 73 73 74
REMARK SMILES IDX 69 75 70 76 72 77 74 78 71 79 55 80 56 81 61 82 57 83 58 84
REMARK SMILES IDX 60 85 62 86 59 87
REMARK H PARENT 79 49 53 60
REMARK Flexibility Score: inf
ROOT
ATOM      1  C   UNL A   1      31.433  26.653  26.402  1.00  0.00     0.188 C 
ENDROOT
BRANCH   1   2
ATOM      2  O   UNL A   1      30.328  25.750  26.500  1.00  0.00    -0.376 OA
BRANCH   2   3
ATOM      3  C   UNL A   1      30.556  24.366  26.275  1.00  0.00     0.202 C 
BRANCH   3   4
ATOM      4  C   UNL A   1      32.006  23.938  26.081  1.00  0.00     0.261 C 
BRANCH   4   5
ATOM      5  O   UNL A   1      32.411  22.827  26.882  1.00  0.00    -0.463 OA
BRANCH   5   6
ATOM      6  C   UNL A   1      33.693  22.469  27.120  1.00  0.00     0.308 C 
ATOM      7  O   UNL A   1      33.914  21.566  27.926  1.00  0.00    -0.252 OA
BRANCH   6   8
ATOM      8  C   UNL A   1      34.840  23.289  26.564  1.00  0.00     0.156 C 
BRANCH   8   9
ATOM      9  C   UNL A   1      35.634  22.674  25.420  1.00  0.00     0.148 C 
ATOM     10  C   UNL A   1      35.030  21.348  24.870  1.00  0.00     0.152 C 
ATOM     11  O   UNL A   1      35.788  23.633  24.352  1.00  0.00    -0.374 OA
ATOM     12  N   UNL A   1      33.873  21.529  23.988  1.00  0.00    -0.338 N 
ATOM     13  C   UNL A   1      34.556  23.878  23.653  1.00  0.00     0.182 C 
ATOM     14  C   UNL A   1      34.042  22.600  23.003  1.00  0.00     0.148 C 
BRANCH  12  15
ATOM     15  C   UNL A   1      32.772  20.702  23.856  1.00  0.00     0.223 C 
ATOM     16  O   UNL A   1      32.023  20.789  22.878  1.00  0.00    -0.275 OA
BRANCH  15  17
ATOM     17  C   UNL A   1      32.422  19.662  24.913  1.00  0.00     0.105 C 
BRANCH  17  18
ATOM     18  C   UNL A   1      32.714  18.187  24.622  1.00  0.00     0.014 C 
ATOM     19  C   UNL A   1      33.627  18.004  23.386  1.00  0.00     0.021 C 
ATOM     20  C   UNL A   1      33.438  17.402  25.716  1.00  0.00     0.141 C 
ATOM     21  C   UNL A   1      33.952  16.513  23.268  1.00  0.00     0.137 C 
ATOM     22  S   UNL A   1      33.834  15.853  24.924  1.00  0.00     0.150 S 
ATOM     23  O   UNL A   1      32.659  15.008  24.993  1.00  0.00    -0.229 OA
ATOM     24  O   UNL A   1      35.138  15.410  25.372  1.00  0.00    -0.229 OA
ENDBRANCH  17  18
ENDBRANCH  15  17
ENDBRANCH  12  15
ENDBRANCH   8   9
ENDBRANCH   6   8
ENDBRANCH   5   6
ENDBRANCH   4   5
ENDBRANCH   3   4
ENDBRANCH   2   3
ENDBRANCH   1   2
BRANCH   1  25
ATOM     25  C   UNL A   1      31.482  27.665  25.258  1.00  0.00     0.188 C 
BRANCH  25  26
ATOM     26  O   UNL A   1      32.801  28.042  24.929  1.00  0.00    -0.376 OA
BRANCH  26  27
ATOM     27  C   UNL A   1      33.117  29.410  25.109  1.00  0.00     0.202 C 
BRANCH  27  28
ATOM     28  C   UNL A   1      32.928  30.053  26.497  1.00  0.00     0.261 C 
BRANCH  28  29
ATOM     29  O   UNL A   1      33.830  29.677  27.555  1.00  0.00    -0.460 OA
BRANCH  29  30
ATOM     30  C   UNL A   1      34.566  30.641  28.147  1.00  0.00     0.338 C 
ATOM     31  O   UNL A   1      34.187  31.759  28.466  1.00  0.00    -0.246 OA
BRANCH  30  32
ATOM     32  C   UNL A   1      35.928  30.113  28.401  1.00  0.00     0.060 A 
ATOM     33  C   UNL A   1      36.273  29.615  29.665  1.00  0.00     0.016 A 
ATOM     34  C   UNL A   1      36.882  30.139  27.382  1.00  0.00     0.016 A 
ATOM     35  C   UNL A   1      37.568  29.129  29.905  1.00  0.00     0.010 A 
ATOM     36  C   UNL A   1      38.182  29.673  27.630  1.00  0.00     0.010 A 
ATOM     37  C   UNL A   1      38.542  29.171  28.894  1.00  0.00    -0.014 A 
BRANCH  37  38
ATOM     38  C   UNL A   1      39.952  28.767  29.159  1.00  0.00     0.031 A 
ATOM     39  C   UNL A   1      40.923  29.774  29.720  1.00  0.00     0.074 A 
ATOM     40  C   UNL A   1      40.390  27.528  28.860  1.00  0.00     0.049 A 
ATOM     41  N   UNL A   1      42.217  29.674  29.894  1.00  0.00    -0.248 NA
ATOM     42  C   UNL A   1      40.358  31.065  30.140  1.00  0.00     0.031 C 
ATOM     43  C   UNL A   1      39.560  26.443  28.339  1.00  0.00     0.029 A 
ATOM     44  N   UNL A   1      41.651  26.982  28.926  1.00  0.00    -0.354 N 
ATOM     45  C   UNL A   1      42.626  30.892  30.424  1.00  0.00     0.074 A 
ATOM     46  C   UNL A   1      41.442  31.718  30.537  1.00  0.00     0.031 C 
ATOM     47  C   UNL A   1      40.339  25.373  28.107  1.00  0.00     0.029 A 
ATOM     48  C   UNL A   1      41.729  25.709  28.411  1.00  0.00     0.049 A 
ATOM     49  H   UNL A   1      42.425  27.458  29.307  1.00  0.00     0.167 HD
ATOM     50  C   UNL A   1      43.872  31.285  30.778  1.00  0.00     0.037 A 
ATOM     51  C   UNL A   1      42.797  24.922  28.164  1.00  0.00     0.037 A 
ATOM     52  C   UNL A   1      45.052  30.465  30.675  1.00  0.00     0.049 A 
ATOM     53  C   UNL A   1      44.184  25.420  28.490  1.00  0.00     0.074 A 
ATOM     54  C   UNL A   1      46.346  30.768  31.063  1.00  0.00     0.029 A 
ATOM     55  N   UNL A   1      45.087  29.192  30.130  1.00  0.00    -0.354 N 
ATOM     56  N   UNL A   1      44.550  26.551  29.042  1.00  0.00    -0.248 NA
ATOM     57  C   UNL A   1      45.309  24.534  28.151  1.00  0.00     0.031 C 
ATOM     58  C   UNL A   1      47.176  29.708  30.690  1.00  0.00     0.029 A 
ATOM     59  C   UNL A   1      46.390  28.717  30.129  1.00  0.00     0.049 A 
ATOM     60  H   UNL A   1      44.304  28.698  29.794  1.00  0.00     0.167 HD
ATOM     61  C   UNL A   1      45.937  26.500  29.135  1.00  0.00     0.074 A 
ATOM     62  C   UNL A   1      46.347  25.219  28.608  1.00  0.00     0.031 C 
ATOM     63  C   UNL A   1      46.794  27.437  29.610  1.00  0.00     0.037 A 
BRANCH  50  64
ATOM     64  C   UNL A   1      44.054  32.685  31.291  1.00  0.00     0.057 A 
ATOM     65  C   UNL A   1      44.108  32.973  32.660  1.00  0.00     0.134 A 
ATOM     66  C   UNL A   1      44.280  33.741  30.398  1.00  0.00     0.134 A 
ATOM     67  F   UNL A   1      43.895  32.008  33.568  1.00  0.00    -0.206 F 
ATOM     68  C   UNL A   1      44.378  34.263  33.122  1.00  0.00     0.040 A 
ATOM     69  C   UNL A   1      44.574  35.029  30.847  1.00  0.00     0.040 A 
ATOM     70  F   UNL A   1      44.250  33.530  29.073  1.00  0.00    -0.206 F 
ATOM     71  C   UNL A   1      44.623  35.293  32.214  1.00  0.00     0.006 A 
ENDBRANCH  50  64
BRANCH  51  72
ATOM     72  C   UNL A   1      42.624  23.594  27.512  1.00  0.00     0.057 A 
ATOM     73  C   UNL A   1      42.690  23.449  26.121  1.00  0.00     0.134 A 
ATOM     74  C   UNL A   1      42.312  22.451  28.261  1.00  0.00     0.134 A 
ATOM     75  F   UNL A   1      42.954  24.509  25.344  1.00  0.00    -0.206 F 
ATOM     76  C   UNL A   1      42.421  22.228  25.497  1.00  0.00     0.040 A 
ATOM     77  C   UNL A   1      42.073  21.217  27.653  1.00  0.00     0.040 A 
ATOM     78  F   UNL A   1      42.230  22.517  29.597  1.00  0.00    -0.206 F 
ATOM     79  C   UNL A   1      42.114  21.107  26.265  1.00  0.00     0.006 A 
ENDBRANCH  51  72
BRANCH  63  80
ATOM     80  C   UNL A   1      48.260  27.107  29.609  1.00  0.00     0.057 A 
ATOM     81  C   UNL A   1      48.853  26.371  30.644  1.00  0.00     0.134 A 
ATOM     82  C   UNL A   1      49.079  27.483  28.537  1.00  0.00     0.134 A 
ATOM     83  F   UNL A   1      48.128  25.989  31.707  1.00  0.00    -0.206 F 
ATOM     84  C   UNL A   1      50.209  26.038  30.620  1.00  0.00     0.040 A 
ATOM     85  C   UNL A   1      50.429  27.131  28.488  1.00  0.00     0.040 A 
ATOM     86  F   UNL A   1      48.576  28.181  27.507  1.00  0.00    -0.206 F 
ATOM     87  C   UNL A   1      50.999  26.411  29.535  1.00  0.00     0.006 A 
ENDBRANCH  63  80
ENDBRANCH  37  38
ENDBRANCH  30  32
ENDBRANCH  29  30
ENDBRANCH  28  29
ENDBRANCH  27  28
ENDBRANCH  26  27
ENDBRANCH  25  26
ENDBRANCH   1  25
TORSDOF 21
ENDMDL
MODEL 3
REMARK VINA RESULT:      -9.8      1.690      2.946
REMARK SMILES O=C(C[C@H]1CN(C(=O)C[C@H]2CCS(=O)(=O)C2)CCO1)OCCOCCOCCOC(=O)c1ccc(-c2c3nc(c(-c4c(F)cccc4F)c4ccc([nH]4)c(-c4c(F)cccc4F)c4nc(c(-c5c(F)cccc5F)c5ccc2[nH]5)C=C4)C=C3)cc1
REMARK SMILES IDX 24 1 23 2 22 3 21 4 20 5 2 6 1 7 3 8 4 9 5 10 19 11 6 12
REMARK SMILES IDX 18 13 17 14 7 15 8 16 9 17 10 18 11 19 16 20 12 21 13 22
REMARK SMILES IDX 14 23 15 24 25 25 26 26 27 27 28 28 29 29 30 30 31 31 32 32
REMARK SMILES IDX 33 33 85 34 34 35 84 36 35 37 36 38 37 39 78 40 38 41 83 42
REMARK SMILES IDX 77 43 79 44 39 45 82 46 76 47 75 48 40 50 66 51 49 52 65 53
REMARK SMILES IDX 50 54 53 55 64 56 80 57 51 58 52 59 63 61 81 62 54 63 41 64
REMARK SMILES IDX 42 65 47 66 43 67 44 68 46 69 48 70 45 71 67 72 68 73 73 74
REMARK SMILES IDX 69 75 70 76 72 77 74 78 71 79 55 80 56 81 61 82 57 83 58 84
REMARK SMILES IDX 60 85 62 86 59 87
REMARK H PARENT 79 49 53 60
REMARK Flexibility Score: inf
ROOT
ATOM      1  C   UNL A   1      42.056  19.806  27.188  1.00  0.00     0.188 C 
ENDROOT
BRANCH   1   2
ATOM      2  O   UNL A   1      40.850  20.413  27.657  1.00  0.00    -0.376 OA
BRANCH   2   3
ATOM      3  C   UNL A   1      40.340  21.543  26.964  1.00  0.00     0.202 C 
BRANCH   3   4
ATOM      4  C   UNL A   1      39.363  21.259  25.828  1.00  0.00     0.261 C 
BRANCH   4   5
ATOM      5  O   UNL A   1      38.142  21.999  25.895  1.00  0.00    -0.463 OA
BRANCH   5   6
ATOM      6  C   UNL A   1      37.001  21.672  25.249  1.00  0.00     0.308 C 
ATOM      7  O   UNL A   1      37.038  21.506  24.031  1.00  0.00    -0.252 OA
BRANCH   6   8
ATOM      8  C   UNL A   1      35.668  21.706  25.971  1.00  0.00     0.156 C 
BRANCH   8   9
ATOM      9  C   UNL A   1      35.225  23.048  26.537  1.00  0.00     0.148 C 
ATOM     10  C   UNL A   1      35.000  24.148  25.457  1.00  0.00     0.152 C 
ATOM     11  O   UNL A   1      34.034  22.881  27.334  1.00  0.00    -0.374 OA
ATOM     12  N   UNL A   1      33.738  24.026  24.722  1.00  0.00    -0.338 N 
ATOM     13  C   UNL A   1      32.875  22.590  26.536  1.00  0.00     0.182 C 
ATOM     14  C   UNL A   1      32.583  23.735  25.574  1.00  0.00     0.148 C 
BRANCH  12  15
ATOM     15  C   UNL A   1      33.497  24.345  23.397  1.00  0.00     0.223 C 
ATOM     16  O   UNL A   1      33.158  23.478  22.585  1.00  0.00    -0.275 OA
BRANCH  15  17
ATOM     17  C   UNL A   1      33.653  25.768  22.876  1.00  0.00     0.105 C 
BRANCH  17  18
ATOM     18  C   UNL A   1      33.153  26.930  23.739  1.00  0.00     0.014 C 
ATOM     19  C   UNL A   1      33.674  28.297  23.237  1.00  0.00     0.021 C 
ATOM     20  C   UNL A   1      31.639  27.132  23.808  1.00  0.00     0.141 C 
ATOM     21  C   UNL A   1      33.014  29.385  24.089  1.00  0.00     0.137 C 
ATOM     22  S   UNL A   1      31.466  28.695  24.651  1.00  0.00     0.150 S 
ATOM     23  O   UNL A   1      31.571  28.443  26.074  1.00  0.00    -0.229 OA
ATOM     24  O   UNL A   1      30.360  29.427  24.070  1.00  0.00    -0.229 OA
ENDBRANCH  17  18
ENDBRANCH  15  17
ENDBRANCH  12  15
ENDBRANCH   8   9
ENDBRANCH   6   8
ENDBRANCH   5   6
ENDBRANCH   4   5
ENDBRANCH   3   4
ENDBRANCH   2   3
ENDBRANCH   1   2
BRANCH   1  25
ATOM     25  C   UNL A   1      42.516  20.049  25.751  1.00  0.00     0.188 C 
BRANCH  25  26
ATOM     26  O   UNL A   1      43.875  20.418  25.676  1.00  0.00    -0.376 OA
BRANCH  26  27
ATOM     27  C   UNL A   1      44.147  21.804  25.773  1.00  0.00     0.202 C 
BRANCH  27  28
ATOM     28  C   UNL A   1      44.047  22.683  24.511  1.00  0.00     0.261 C 
BRANCH  28  29
ATOM     29  O   UNL A   1      43.552  24.029  24.649  1.00  0.00    -0.460 OA
BRANCH  29  30
ATOM     30  C   UNL A   1      44.396  24.983  25.097  1.00  0.00     0.338 C 
ATOM     31  O   UNL A   1      45.499  25.254  24.644  1.00  0.00    -0.246 OA
BRANCH  30  32
ATOM     32  C   UNL A   1      43.751  25.701  26.222  1.00  0.00     0.060 A 
ATOM     33  C   UNL A   1      44.150  27.002  26.555  1.00  0.00     0.016 A 
ATOM     34  C   UNL A   1      42.759  25.067  26.971  1.00  0.00     0.016 A 
ATOM     35  C   UNL A   1      43.546  27.674  27.631  1.00  0.00     0.010 A 
ATOM     36  C   UNL A   1      42.171  25.732  28.058  1.00  0.00     0.010 A 
ATOM     37  C   UNL A   1      42.564  27.038  28.405  1.00  0.00    -0.014 A 
BRANCH  37  38
ATOM     38  C   UNL A   1      41.990  27.687  29.618  1.00  0.00     0.031 A 
ATOM     39  C   UNL A   1      40.758  28.545  29.491  1.00  0.00     0.074 A 
ATOM     40  C   UNL A   1      42.582  27.561  30.822  1.00  0.00     0.049 A 
ATOM     41  N   UNL A   1      40.179  29.307  30.385  1.00  0.00    -0.248 NA
ATOM     42  C   UNL A   1      40.090  28.543  28.180  1.00  0.00     0.031 C 
ATOM     43  C   UNL A   1      43.760  26.743  31.101  1.00  0.00     0.029 A 
ATOM     44  N   UNL A   1      42.286  28.145  32.032  1.00  0.00    -0.354 N 
ATOM     45  C   UNL A   1      39.093  29.891  29.744  1.00  0.00     0.074 A 
ATOM     46  C   UNL A   1      39.096  29.398  28.382  1.00  0.00     0.031 C 
ATOM     47  C   UNL A   1      44.103  26.901  32.391  1.00  0.00     0.029 A 
ATOM     48  C   UNL A   1      43.204  27.868  33.018  1.00  0.00     0.049 A 
ATOM     49  H   UNL A   1      41.491  28.709  32.179  1.00  0.00     0.167 HD
ATOM     50  C   UNL A   1      38.181  30.759  30.243  1.00  0.00     0.037 A 
ATOM     51  C   UNL A   1      43.340  28.370  34.263  1.00  0.00     0.037 A 
ATOM     52  C   UNL A   1      38.168  31.245  31.599  1.00  0.00     0.049 A 
ATOM     53  C   UNL A   1      42.358  29.401  34.764  1.00  0.00     0.074 A 
ATOM     54  C   UNL A   1      37.247  32.085  32.202  1.00  0.00     0.029 A 
ATOM     55  N   UNL A   1      39.127  30.954  32.555  1.00  0.00    -0.354 N 
ATOM     56  N   UNL A   1      41.303  29.900  34.167  1.00  0.00    -0.248 NA
ATOM     57  C   UNL A   1      42.590  29.944  36.112  1.00  0.00     0.031 C 
ATOM     58  C   UNL A   1      37.685  32.358  33.500  1.00  0.00     0.029 A 
ATOM     59  C   UNL A   1      38.844  31.636  33.728  1.00  0.00     0.049 A 
ATOM     60  H   UNL A   1      39.894  30.352  32.422  1.00  0.00     0.167 HD
ATOM     61  C   UNL A   1      40.739  30.794  35.071  1.00  0.00     0.074 A 
ATOM     62  C   UNL A   1      41.550  30.751  36.267  1.00  0.00     0.031 C 
ATOM     63  C   UNL A   1      39.649  31.585  34.920  1.00  0.00     0.037 A 
BRANCH  50  64
ATOM     64  C   UNL A   1      37.119  31.279  29.318  1.00  0.00     0.057 A 
ATOM     65  C   UNL A   1      35.959  30.548  29.034  1.00  0.00     0.134 A 
ATOM     66  C   UNL A   1      37.213  32.573  28.789  1.00  0.00     0.134 A 
ATOM     67  F   UNL A   1      35.807  29.301  29.505  1.00  0.00    -0.206 F 
ATOM     68  C   UNL A   1      34.933  31.085  28.253  1.00  0.00     0.040 A 
ATOM     69  C   UNL A   1      36.186  33.130  28.028  1.00  0.00     0.040 A 
ATOM     70  F   UNL A   1      38.295  33.330  29.032  1.00  0.00    -0.206 F 
ATOM     71  C   UNL A   1      35.041  32.384  27.757  1.00  0.00     0.006 A 
ENDBRANCH  50  64
BRANCH  51  72
ATOM     72  C   UNL A   1      44.486  27.964  35.122  1.00  0.00     0.057 A 
ATOM     73  C   UNL A   1      45.722  28.618  35.048  1.00  0.00     0.134 A 
ATOM     74  C   UNL A   1      44.397  26.861  35.983  1.00  0.00     0.134 A 
ATOM     75  F   UNL A   1      45.885  29.662  34.222  1.00  0.00    -0.206 F 
ATOM     76  C   UNL A   1      46.833  28.174  35.771  1.00  0.00     0.040 A 
ATOM     77  C   UNL A   1      45.489  26.426  36.736  1.00  0.00     0.040 A 
ATOM     78  F   UNL A   1      43.245  26.186  36.102  1.00  0.00    -0.206 F 
ATOM     79  C   UNL A   1      46.715  27.076  36.620  1.00  0.00     0.006 A 
ENDBRANCH  51  72
BRANCH  63  80
ATOM     80  C   UNL A   1      39.247  32.451  36.081  1.00  0.00     0.057 A 
ATOM     81  C   UNL A   1      39.721  33.762  36.224  1.00  0.00     0.134 A 
ATOM     82  C   UNL A   1      38.335  31.988  37.038  1.00  0.00     0.134 A 
ATOM     83  F   UNL A   1      40.606  34.264  35.349  1.00  0.00    -0.206 F 
ATOM     84  C   UNL A   1      39.316  34.572  37.287  1.00  0.00     0.040 A 
ATOM     85  C   UNL A   1      37.902  32.799  38.088  1.00  0.00     0.040 A 
ATOM     86  F   UNL A   1      37.834  30.746  36.958  1.00  0.00    -0.206 F 
ATOM     87  C   UNL A   1      38.397  34.094  38.218  1.00  0.00     0.006 A 
ENDBRANCH  63  80
ENDBRANCH  37  38
ENDBRANCH  30  32
ENDBRANCH  29  30
ENDBRANCH  28  29
ENDBRANCH  27  28
ENDBRANCH  26  27
ENDBRANCH  25  26
ENDBRANCH   1  25
TORSDOF 21
ENDMDL
