MODEL 1
REMARK VINA RESULT:     -11.1      0.000      0.000
REMARK SMILES O=C(OCCOCCOCCOC(=O)c1ccc(F)cc1-c1ccc(F)c(Cl)c1)c1ccc(-c2c3nc(c(-c4c(F)cccc4F)c4ccc([nH]4)c(-c4c(F)cccc4F)c4nc(c(-c5c(F)cccc5F)c5ccc2[nH]5)C=C4)C=C3)cc1
REMARK SMILES IDX 7 1 6 2 5 3 4 4 3 5 2 6 1 7 30 8 31 9 83 10 32 11 82 12
REMARK SMILES IDX 33 13 34 14 35 15 76 16 36 17 81 18 75 19 77 20 37 21 80 22
REMARK SMILES IDX 74 23 73 24 38 26 64 27 47 28 63 29 48 30 51 31 62 32 78 33
REMARK SMILES IDX 49 34 50 35 61 37 79 38 52 39 39 40 40 41 45 42 41 43 42 44
REMARK SMILES IDX 44 45 46 46 43 47 65 48 66 49 71 50 67 51 68 52 70 53 72 54
REMARK SMILES IDX 69 55 53 56 54 57 59 58 55 59 56 60 58 61 60 62 57 63 8 64
REMARK SMILES IDX 9 65 10 66 11 67 12 68 13 69 14 70 15 71 16 72 21 73 17 74
REMARK SMILES IDX 20 75 18 76 19 77 22 78 23 79 29 80 24 81 27 82 25 83 28 84
REMARK SMILES IDX 26 85
REMARK H PARENT 77 25 51 36
REMARK Flexibility Score: inf
ROOT
ATOM      1  C   UNL A   1      41.089  20.407  26.455  1.00  0.00     0.188 C 
ENDROOT
BRANCH   1   2
ATOM      2  O   UNL A   1      42.104  20.676  25.489  1.00  0.00    -0.376 OA
BRANCH   2   3
ATOM      3  C   UNL A   1      43.337  21.175  25.999  1.00  0.00     0.202 C 
BRANCH   3   4
ATOM      4  C   UNL A   1      44.121  21.999  24.972  1.00  0.00     0.261 C 
BRANCH   4   5
ATOM      5  O   UNL A   1      43.361  23.153  24.584  1.00  0.00    -0.460 OA
BRANCH   5   6
ATOM      6  C   UNL A   1      43.878  24.381  24.824  1.00  0.00     0.338 C 
ATOM      7  O   UNL A   1      45.076  24.610  24.724  1.00  0.00    -0.246 OA
BRANCH   6   8
ATOM      8  C   UNL A   1      42.980  25.337  25.539  1.00  0.00     0.060 A 
ATOM      9  C   UNL A   1      43.157  26.726  25.526  1.00  0.00     0.016 A 
ATOM     10  C   UNL A   1      41.967  24.793  26.345  1.00  0.00     0.016 A 
ATOM     11  C   UNL A   1      42.401  27.549  26.360  1.00  0.00     0.010 A 
ATOM     12  C   UNL A   1      41.191  25.617  27.169  1.00  0.00     0.010 A 
ATOM     13  C   UNL A   1      41.465  26.989  27.233  1.00  0.00    -0.014 A 
BRANCH  13  14
ATOM     14  C   UNL A   1      41.055  27.779  28.417  1.00  0.00     0.031 A 
ATOM     15  C   UNL A   1      41.897  27.648  29.658  1.00  0.00     0.074 A 
ATOM     16  C   UNL A   1      40.052  28.671  28.370  1.00  0.00     0.049 A 
ATOM     17  N   UNL A   1      41.770  28.241  30.815  1.00  0.00    -0.248 NA
ATOM     18  C   UNL A   1      43.055  26.742  29.569  1.00  0.00     0.031 C 
ATOM     19  C   UNL A   1      39.250  28.973  27.191  1.00  0.00     0.029 A 
ATOM     20  N   UNL A   1      39.550  29.496  29.344  1.00  0.00    -0.354 N 
ATOM     21  C   UNL A   1      42.836  27.790  31.581  1.00  0.00     0.074 A 
ATOM     22  C   UNL A   1      43.574  26.842  30.781  1.00  0.00     0.031 C 
ATOM     23  C   UNL A   1      38.339  29.906  27.515  1.00  0.00     0.029 A 
ATOM     24  C   UNL A   1      38.474  30.240  28.930  1.00  0.00     0.049 A 
ATOM     25  H   UNL A   1      39.925  29.549  30.253  1.00  0.00     0.167 HD
ATOM     26  C   UNL A   1      43.183  28.146  32.837  1.00  0.00     0.037 A 
ATOM     27  C   UNL A   1      37.675  31.078  29.619  1.00  0.00     0.037 A 
ATOM     28  C   UNL A   1      42.438  29.073  33.637  1.00  0.00     0.049 A 
ATOM     29  C   UNL A   1      37.985  31.354  31.064  1.00  0.00     0.074 A 
ATOM     30  C   UNL A   1      42.673  29.474  34.939  1.00  0.00     0.029 A 
ATOM     31  N   UNL A   1      41.299  29.738  33.206  1.00  0.00    -0.354 N 
ATOM     32  N   UNL A   1      38.983  30.907  31.788  1.00  0.00    -0.248 NA
ATOM     33  C   UNL A   1      37.073  32.252  31.786  1.00  0.00     0.031 C 
ATOM     34  C   UNL A   1      41.649  30.350  35.311  1.00  0.00     0.029 A 
ATOM     35  C   UNL A   1      40.804  30.530  34.225  1.00  0.00     0.049 A 
ATOM     36  H   UNL A   1      40.902  29.658  32.308  1.00  0.00     0.167 HD
ATOM     37  C   UNL A   1      38.840  31.490  33.039  1.00  0.00     0.074 A 
ATOM     38  C   UNL A   1      37.654  32.320  32.980  1.00  0.00     0.031 C 
ATOM     39  C   UNL A   1      39.628  31.358  34.135  1.00  0.00     0.037 A 
BRANCH  26  40
ATOM     40  C   UNL A   1      44.400  27.490  33.413  1.00  0.00     0.057 A 
ATOM     41  C   UNL A   1      45.658  28.091  33.288  1.00  0.00     0.134 A 
ATOM     42  C   UNL A   1      44.323  26.286  34.125  1.00  0.00     0.134 A 
ATOM     43  F   UNL A   1      45.797  29.249  32.626  1.00  0.00    -0.206 F 
ATOM     44  C   UNL A   1      46.797  27.519  33.855  1.00  0.00     0.040 A 
ATOM     45  C   UNL A   1      45.451  25.716  34.716  1.00  0.00     0.040 A 
ATOM     46  F   UNL A   1      43.140  25.677  34.306  1.00  0.00    -0.206 F 
ATOM     47  C   UNL A   1      46.694  26.331  34.579  1.00  0.00     0.006 A 
ENDBRANCH  26  40
BRANCH  27  48
ATOM     48  C   UNL A   1      36.508  31.698  28.943  1.00  0.00     0.057 A 
ATOM     49  C   UNL A   1      36.511  33.059  28.601  1.00  0.00     0.134 A 
ATOM     50  C   UNL A   1      35.350  30.968  28.661  1.00  0.00     0.134 A 
ATOM     51  F   UNL A   1      37.593  33.813  28.843  1.00  0.00    -0.206 F 
ATOM     52  C   UNL A   1      35.397  33.673  28.027  1.00  0.00     0.040 A 
ATOM     53  C   UNL A   1      34.234  31.567  28.070  1.00  0.00     0.040 A 
ATOM     54  F   UNL A   1      35.291  29.659  28.948  1.00  0.00    -0.206 F 
ATOM     55  C   UNL A   1      34.253  32.925  27.760  1.00  0.00     0.006 A 
ENDBRANCH  27  48
BRANCH  39  56
ATOM     56  C   UNL A   1      39.266  32.146  35.355  1.00  0.00     0.057 A 
ATOM     57  C   UNL A   1      39.795  33.428  35.550  1.00  0.00     0.134 A 
ATOM     58  C   UNL A   1      38.508  31.587  36.390  1.00  0.00     0.134 A 
ATOM     59  F   UNL A   1      40.540  34.010  34.597  1.00  0.00    -0.206 F 
ATOM     60  C   UNL A   1      39.604  34.119  36.746  1.00  0.00     0.040 A 
ATOM     61  C   UNL A   1      38.295  32.276  37.583  1.00  0.00     0.040 A 
ATOM     62  F   UNL A   1      37.973  30.364  36.257  1.00  0.00    -0.206 F 
ATOM     63  C   UNL A   1      38.854  33.541  37.769  1.00  0.00     0.006 A 
ENDBRANCH  39  56
ENDBRANCH  13  14
ENDBRANCH   6   8
ENDBRANCH   5   6
ENDBRANCH   4   5
ENDBRANCH   3   4
ENDBRANCH   2   3
ENDBRANCH   1   2
BRANCH   1  64
ATOM     64  C   UNL A   1      40.824  21.479  27.519  1.00  0.00     0.188 C 
BRANCH  64  65
ATOM     65  O   UNL A   1      39.670  22.297  27.397  1.00  0.00    -0.376 OA
BRANCH  65  66
ATOM     66  C   UNL A   1      39.057  22.445  26.126  1.00  0.00     0.202 C 
BRANCH  66  67
ATOM     67  C   UNL A   1      38.109  23.632  25.952  1.00  0.00     0.261 C 
BRANCH  67  68
ATOM     68  O   UNL A   1      36.743  23.278  25.667  1.00  0.00    -0.460 OA
BRANCH  68  69
ATOM     69  C   UNL A   1      36.470  22.902  24.391  1.00  0.00     0.338 C 
ATOM     70  O   UNL A   1      37.018  23.284  23.374  1.00  0.00    -0.246 OA
BRANCH  69  71
ATOM     71  C   UNL A   1      35.295  22.002  24.394  1.00  0.00     0.068 A 
ATOM     72  C   UNL A   1      35.510  20.688  24.854  1.00  0.00     0.019 A 
ATOM     73  C   UNL A   1      33.994  22.449  24.079  1.00  0.00    -0.001 A 
ATOM     74  C   UNL A   1      34.433  19.820  25.019  1.00  0.00     0.040 A 
ATOM     75  C   UNL A   1      32.931  21.537  24.225  1.00  0.00     0.048 A 
ATOM     76  C   UNL A   1      33.154  20.251  24.701  1.00  0.00     0.123 A 
ATOM     77  F   UNL A   1      32.121  19.415  24.851  1.00  0.00    -0.207 F 
BRANCH  73  78
ATOM     78  C   UNL A   1      33.671  23.793  23.585  1.00  0.00    -0.016 A 
ATOM     79  C   UNL A   1      33.884  24.917  24.398  1.00  0.00     0.012 A 
ATOM     80  C   UNL A   1      33.261  23.999  22.258  1.00  0.00     0.032 A 
ATOM     81  C   UNL A   1      33.670  26.210  23.916  1.00  0.00     0.041 A 
ATOM     82  C   UNL A   1      33.068  25.294  21.768  1.00  0.00     0.077 A 
ATOM     83  C   UNL A   1      33.267  26.392  22.600  1.00  0.00     0.141 A 
ATOM     84  Cl  UNL A   1      32.620  25.517  20.120  1.00  0.00    -0.081 Cl
ATOM     85  F   UNL A   1      33.093  27.642  22.147  1.00  0.00    -0.205 F 
ENDBRANCH  73  78
ENDBRANCH  69  71
ENDBRANCH  68  69
ENDBRANCH  67  68
ENDBRANCH  66  67
ENDBRANCH  65  66
ENDBRANCH  64  65
ENDBRANCH   1  64
TORSDOF 18
ENDMDL
MODEL 2
REMARK VINA RESULT:     -11.1      1.531      2.692
REMARK SMILES O=C(OCCOCCOCCOC(=O)c1ccc(F)cc1-c1ccc(F)c(Cl)c1)c1ccc(-c2c3nc(c(-c4c(F)cccc4F)c4ccc([nH]4)c(-c4c(F)cccc4F)c4nc(c(-c5c(F)cccc5F)c5ccc2[nH]5)C=C4)C=C3)cc1
REMARK SMILES IDX 7 1 6 2 5 3 4 4 3 5 2 6 1 7 30 8 31 9 83 10 32 11 82 12
REMARK SMILES IDX 33 13 34 14 35 15 76 16 36 17 81 18 75 19 77 20 37 21 80 22
REMARK SMILES IDX 74 23 73 24 38 26 64 27 47 28 63 29 48 30 51 31 62 32 78 33
REMARK SMILES IDX 49 34 50 35 61 37 79 38 52 39 39 40 40 41 45 42 41 43 42 44
REMARK SMILES IDX 44 45 46 46 43 47 65 48 66 49 71 50 67 51 68 52 70 53 72 54
REMARK SMILES IDX 69 55 53 56 54 57 59 58 55 59 56 60 58 61 60 62 57 63 8 64
REMARK SMILES IDX 9 65 10 66 11 67 12 68 13 69 14 70 15 71 16 72 21 73 17 74
REMARK SMILES IDX 20 75 18 76 19 77 22 78 23 79 29 80 24 81 27 82 25 83 28 84
REMARK SMILES IDX 26 85
REMARK H PARENT 77 25 51 36
REMARK Flexibility Score: inf
ROOT
ATOM      1  C   UNL A   1      40.856  20.401  26.681  1.00  0.00     0.188 C 
ENDROOT
BRANCH   1   2
ATOM      2  O   UNL A   1      42.247  20.670  26.854  1.00  0.00    -0.376 OA
BRANCH   2   3
ATOM      3  C   UNL A   1      43.081  20.396  25.733  1.00  0.00     0.202 C 
BRANCH   3   4
ATOM      4  C   UNL A   1      43.904  21.610  25.288  1.00  0.00     0.261 C 
BRANCH   4   5
ATOM      5  O   UNL A   1      43.031  22.691  24.931  1.00  0.00    -0.460 OA
BRANCH   5   6
ATOM      6  C   UNL A   1      43.546  23.940  24.846  1.00  0.00     0.338 C 
ATOM      7  O   UNL A   1      44.695  24.143  24.477  1.00  0.00    -0.246 OA
BRANCH   6   8
ATOM      8  C   UNL A   1      42.772  25.013  25.541  1.00  0.00     0.060 A 
ATOM      9  C   UNL A   1      43.181  26.350  25.601  1.00  0.00     0.016 A 
ATOM     10  C   UNL A   1      41.625  24.625  26.251  1.00  0.00     0.016 A 
ATOM     11  C   UNL A   1      42.515  27.263  26.419  1.00  0.00     0.010 A 
ATOM     12  C   UNL A   1      40.941  25.542  27.058  1.00  0.00     0.010 A 
ATOM     13  C   UNL A   1      41.436  26.844  27.201  1.00  0.00    -0.014 A 
BRANCH  13  14
ATOM     14  C   UNL A   1      41.079  27.653  28.389  1.00  0.00     0.031 A 
ATOM     15  C   UNL A   1      41.947  27.506  29.610  1.00  0.00     0.074 A 
ATOM     16  C   UNL A   1      40.102  28.574  28.360  1.00  0.00     0.049 A 
ATOM     17  N   UNL A   1      41.867  28.110  30.765  1.00  0.00    -0.248 NA
ATOM     18  C   UNL A   1      43.076  26.565  29.499  1.00  0.00     0.031 C 
ATOM     19  C   UNL A   1      39.280  28.891  27.199  1.00  0.00     0.029 A 
ATOM     20  N   UNL A   1      39.648  29.419  29.340  1.00  0.00    -0.354 N 
ATOM     21  C   UNL A   1      42.937  27.632  31.508  1.00  0.00     0.074 A 
ATOM     22  C   UNL A   1      43.628  26.658  30.697  1.00  0.00     0.031 C 
ATOM     23  C   UNL A   1      38.405  29.853  27.539  1.00  0.00     0.029 A 
ATOM     24  C   UNL A   1      38.584  30.193  28.947  1.00  0.00     0.049 A 
ATOM     25  H   UNL A   1      40.047  29.468  30.239  1.00  0.00     0.167 HD
ATOM     26  C   UNL A   1      43.325  27.987  32.753  1.00  0.00     0.037 A 
ATOM     27  C   UNL A   1      37.828  31.058  29.650  1.00  0.00     0.037 A 
ATOM     28  C   UNL A   1      42.628  28.941  33.564  1.00  0.00     0.049 A 
ATOM     29  C   UNL A   1      38.181  31.335  31.084  1.00  0.00     0.074 A 
ATOM     30  C   UNL A   1      42.907  29.343  34.856  1.00  0.00     0.029 A 
ATOM     31  N   UNL A   1      41.499  29.635  33.156  1.00  0.00    -0.354 N 
ATOM     32  N   UNL A   1      39.183  30.863  31.787  1.00  0.00    -0.248 NA
ATOM     33  C   UNL A   1      37.315  32.264  31.822  1.00  0.00     0.031 C 
ATOM     34  C   UNL A   1      41.919  30.251  35.247  1.00  0.00     0.029 A 
ATOM     35  C   UNL A   1      41.053  30.449  34.181  1.00  0.00     0.049 A 
ATOM     36  H   UNL A   1      41.078  29.561  32.269  1.00  0.00     0.167 HD
ATOM     37  C   UNL A   1      39.088  31.459  33.037  1.00  0.00     0.074 A 
ATOM     38  C   UNL A   1      37.926  32.323  33.001  1.00  0.00     0.031 C 
ATOM     39  C   UNL A   1      39.899  31.310  34.114  1.00  0.00     0.037 A 
BRANCH  26  40
ATOM     40  C   UNL A   1      44.537  27.299  33.303  1.00  0.00     0.057 A 
ATOM     41  C   UNL A   1      45.809  27.862  33.143  1.00  0.00     0.134 A 
ATOM     42  C   UNL A   1      44.442  26.102  34.026  1.00  0.00     0.134 A 
ATOM     43  F   UNL A   1      45.965  29.010  32.470  1.00  0.00    -0.206 F 
ATOM     44  C   UNL A   1      46.944  27.260  33.686  1.00  0.00     0.040 A 
ATOM     45  C   UNL A   1      45.568  25.503  34.593  1.00  0.00     0.040 A 
ATOM     46  F   UNL A   1      43.247  25.530  34.239  1.00  0.00    -0.206 F 
ATOM     47  C   UNL A   1      46.824  26.081  34.421  1.00  0.00     0.006 A 
ENDBRANCH  26  40
BRANCH  27  48
ATOM     48  C   UNL A   1      36.663  31.708  28.998  1.00  0.00     0.057 A 
ATOM     49  C   UNL A   1      36.699  33.064  28.642  1.00  0.00     0.134 A 
ATOM     50  C   UNL A   1      35.476  31.011  28.754  1.00  0.00     0.134 A 
ATOM     51  F   UNL A   1      37.810  33.787  28.848  1.00  0.00    -0.206 F 
ATOM     52  C   UNL A   1      35.590  33.708  28.092  1.00  0.00     0.040 A 
ATOM     53  C   UNL A   1      34.364  31.639  28.185  1.00  0.00     0.040 A 
ATOM     54  F   UNL A   1      35.385  29.708  29.055  1.00  0.00    -0.206 F 
ATOM     55  C   UNL A   1      34.417  32.993  27.861  1.00  0.00     0.006 A 
ENDBRANCH  27  48
BRANCH  39  56
ATOM     56  C   UNL A   1      39.591  32.116  35.337  1.00  0.00     0.057 A 
ATOM     57  C   UNL A   1      38.708  31.621  36.305  1.00  0.00     0.134 A 
ATOM     58  C   UNL A   1      40.062  33.425  35.489  1.00  0.00     0.134 A 
ATOM     59  F   UNL A   1      38.216  30.377  36.204  1.00  0.00    -0.206 F 
ATOM     60  C   UNL A   1      38.281  32.410  37.371  1.00  0.00     0.040 A 
ATOM     61  C   UNL A   1      39.656  34.218  36.563  1.00  0.00     0.040 A 
ATOM     62  F   UNL A   1      40.913  33.950  34.596  1.00  0.00    -0.206 F 
ATOM     63  C   UNL A   1      38.753  33.716  37.500  1.00  0.00     0.006 A 
ENDBRANCH  39  56
ENDBRANCH  13  14
ENDBRANCH   6   8
ENDBRANCH   5   6
ENDBRANCH   4   5
ENDBRANCH   3   4
ENDBRANCH   2   3
ENDBRANCH   1   2
BRANCH   1  64
ATOM     64  C   UNL A   1      39.935  21.596  26.406  1.00  0.00     0.188 C 
BRANCH  64  65
ATOM     65  O   UNL A   1      38.751  21.390  25.650  1.00  0.00    -0.376 OA
BRANCH  65  66
ATOM     66  C   UNL A   1      37.797  22.437  25.559  1.00  0.00     0.202 C 
BRANCH  66  67
ATOM     67  C   UNL A   1      36.331  22.052  25.758  1.00  0.00     0.261 C 
BRANCH  67  68
ATOM     68  O   UNL A   1      35.445  23.158  26.011  1.00  0.00    -0.460 OA
BRANCH  68  69
ATOM     69  C   UNL A   1      34.838  23.706  24.927  1.00  0.00     0.338 C 
ATOM     70  O   UNL A   1      35.301  23.842  23.810  1.00  0.00    -0.246 OA
BRANCH  69  71
ATOM     71  C   UNL A   1      33.515  24.234  25.330  1.00  0.00     0.068 A 
ATOM     72  C   UNL A   1      33.501  25.510  25.927  1.00  0.00     0.019 A 
ATOM     73  C   UNL A   1      32.307  23.569  25.028  1.00  0.00    -0.001 A 
ATOM     74  C   UNL A   1      32.291  26.138  26.209  1.00  0.00     0.040 A 
ATOM     75  C   UNL A   1      31.099  24.217  25.354  1.00  0.00     0.048 A 
ATOM     76  C   UNL A   1      31.101  25.485  25.923  1.00  0.00     0.123 A 
ATOM     77  F   UNL A   1      29.938  26.084  26.201  1.00  0.00    -0.207 F 
BRANCH  73  78
ATOM     78  C   UNL A   1      32.218  22.238  24.416  1.00  0.00    -0.016 A 
ATOM     79  C   UNL A   1      32.093  22.104  23.025  1.00  0.00     0.012 A 
ATOM     80  C   UNL A   1      32.377  21.074  25.186  1.00  0.00     0.032 A 
ATOM     81  C   UNL A   1      32.099  20.848  22.415  1.00  0.00     0.041 A 
ATOM     82  C   UNL A   1      32.405  19.818  24.574  1.00  0.00     0.077 A 
ATOM     83  C   UNL A   1      32.260  19.710  23.193  1.00  0.00     0.141 A 
ATOM     84  Cl  UNL A   1      32.660  18.414  25.538  1.00  0.00    -0.081 Cl
ATOM     85  F   UNL A   1      32.291  18.514  22.588  1.00  0.00    -0.205 F 
ENDBRANCH  73  78
ENDBRANCH  69  71
ENDBRANCH  68  69
ENDBRANCH  67  68
ENDBRANCH  66  67
ENDBRANCH  65  66
ENDBRANCH  64  65
ENDBRANCH   1  64
TORSDOF 18
ENDMDL
MODEL 3
REMARK VINA RESULT:     -11.0      1.092      1.624
REMARK SMILES O=C(OCCOCCOCCOC(=O)c1ccc(F)cc1-c1ccc(F)c(Cl)c1)c1ccc(-c2c3nc(c(-c4c(F)cccc4F)c4ccc([nH]4)c(-c4c(F)cccc4F)c4nc(c(-c5c(F)cccc5F)c5ccc2[nH]5)C=C4)C=C3)cc1
REMARK SMILES IDX 7 1 6 2 5 3 4 4 3 5 2 6 1 7 30 8 31 9 83 10 32 11 82 12
REMARK SMILES IDX 33 13 34 14 35 15 76 16 36 17 81 18 75 19 77 20 37 21 80 22
REMARK SMILES IDX 74 23 73 24 38 26 64 27 47 28 63 29 48 30 51 31 62 32 78 33
REMARK SMILES IDX 49 34 50 35 61 37 79 38 52 39 39 40 40 41 45 42 41 43 42 44
REMARK SMILES IDX 44 45 46 46 43 47 65 48 66 49 71 50 67 51 68 52 70 53 72 54
REMARK SMILES IDX 69 55 53 56 54 57 59 58 55 59 56 60 58 61 60 62 57 63 8 64
REMARK SMILES IDX 9 65 10 66 11 67 12 68 13 69 14 70 15 71 16 72 21 73 17 74
REMARK SMILES IDX 20 75 18 76 19 77 22 78 23 79 29 80 24 81 27 82 25 83 28 84
REMARK SMILES IDX 26 85
REMARK H PARENT 77 25 51 36
REMARK Flexibility Score: inf
ROOT
ATOM      1  C   UNL A   1      41.445  20.117  26.437  1.00  0.00     0.188 C 
ENDROOT
BRANCH   1   2
ATOM      2  O   UNL A   1      42.371  20.146  25.351  1.00  0.00    -0.376 OA
BRANCH   2   3
ATOM      3  C   UNL A   1      43.704  20.527  25.675  1.00  0.00     0.202 C 
BRANCH   3   4
ATOM      4  C   UNL A   1      44.172  21.773  24.915  1.00  0.00     0.261 C 
BRANCH   4   5
ATOM      5  O   UNL A   1      43.227  22.839  25.089  1.00  0.00    -0.460 OA
BRANCH   5   6
ATOM      6  C   UNL A   1      43.648  24.113  24.916  1.00  0.00     0.338 C 
ATOM      7  O   UNL A   1      44.756  24.375  24.469  1.00  0.00    -0.246 OA
BRANCH   6   8
ATOM      8  C   UNL A   1      42.842  25.164  25.608  1.00  0.00     0.060 A 
ATOM      9  C   UNL A   1      43.222  26.509  25.685  1.00  0.00     0.016 A 
ATOM     10  C   UNL A   1      41.693  24.747  26.299  1.00  0.00     0.016 A 
ATOM     11  C   UNL A   1      42.526  27.402  26.500  1.00  0.00     0.010 A 
ATOM     12  C   UNL A   1      40.978  25.643  27.103  1.00  0.00     0.010 A 
ATOM     13  C   UNL A   1      41.445  26.954  27.264  1.00  0.00    -0.014 A 
BRANCH  13  14
ATOM     14  C   UNL A   1      41.054  27.746  28.453  1.00  0.00     0.031 A 
ATOM     15  C   UNL A   1      41.899  27.596  29.689  1.00  0.00     0.074 A 
ATOM     16  C   UNL A   1      40.067  28.656  28.414  1.00  0.00     0.049 A 
ATOM     17  N   UNL A   1      41.789  28.186  30.849  1.00  0.00    -0.248 NA
ATOM     18  C   UNL A   1      43.041  26.670  29.592  1.00  0.00     0.031 C 
ATOM     19  C   UNL A   1      39.264  28.976  27.239  1.00  0.00     0.029 A 
ATOM     20  N   UNL A   1      39.583  29.485  29.394  1.00  0.00    -0.354 N 
ATOM     21  C   UNL A   1      42.849  27.713  31.609  1.00  0.00     0.074 A 
ATOM     22  C   UNL A   1      43.568  26.756  30.801  1.00  0.00     0.031 C 
ATOM     23  C   UNL A   1      38.371  29.924  27.572  1.00  0.00     0.029 A 
ATOM     24  C   UNL A   1      38.519  30.250  28.987  1.00  0.00     0.049 A 
ATOM     25  H   UNL A   1      39.964  29.528  30.301  1.00  0.00     0.167 HD
ATOM     26  C   UNL A   1      43.208  28.058  32.864  1.00  0.00     0.037 A 
ATOM     27  C   UNL A   1      37.738  31.099  29.684  1.00  0.00     0.037 A 
ATOM     28  C   UNL A   1      42.483  28.995  33.671  1.00  0.00     0.049 A 
ATOM     29  C   UNL A   1      38.059  31.364  31.128  1.00  0.00     0.074 A 
ATOM     30  C   UNL A   1      42.732  29.387  34.973  1.00  0.00     0.029 A 
ATOM     31  N   UNL A   1      41.355  29.681  33.248  1.00  0.00    -0.354 N 
ATOM     32  N   UNL A   1      39.052  30.897  31.846  1.00  0.00    -0.248 NA
ATOM     33  C   UNL A   1      37.167  32.274  31.858  1.00  0.00     0.031 C 
ATOM     34  C   UNL A   1      41.725  30.279  35.354  1.00  0.00     0.029 A 
ATOM     35  C   UNL A   1      40.879  30.478  34.273  1.00  0.00     0.049 A 
ATOM     36  H   UNL A   1      40.952  29.612  32.352  1.00  0.00     0.167 HD
ATOM     37  C   UNL A   1      38.925  31.477  33.100  1.00  0.00     0.074 A 
ATOM     38  C   UNL A   1      37.754  32.328  33.049  1.00  0.00     0.031 C 
ATOM     39  C   UNL A   1      39.716  31.327  34.191  1.00  0.00     0.037 A 
BRANCH  26  40
ATOM     40  C   UNL A   1      44.417  27.379  33.432  1.00  0.00     0.057 A 
ATOM     41  C   UNL A   1      45.692  27.928  33.252  1.00  0.00     0.134 A 
ATOM     42  C   UNL A   1      44.316  26.204  34.190  1.00  0.00     0.134 A 
ATOM     43  F   UNL A   1      45.854  29.055  32.545  1.00  0.00    -0.206 F 
ATOM     44  C   UNL A   1      46.824  27.335  33.810  1.00  0.00     0.040 A 
ATOM     45  C   UNL A   1      45.439  25.614  34.772  1.00  0.00     0.040 A 
ATOM     46  F   UNL A   1      43.118  25.647  34.423  1.00  0.00    -0.206 F 
ATOM     47  C   UNL A   1      46.699  26.179  34.579  1.00  0.00     0.006 A 
ENDBRANCH  26  40
BRANCH  27  48
ATOM     48  C   UNL A   1      36.579  31.742  29.015  1.00  0.00     0.057 A 
ATOM     49  C   UNL A   1      36.615  33.097  28.654  1.00  0.00     0.134 A 
ATOM     50  C   UNL A   1      35.397  31.041  28.761  1.00  0.00     0.134 A 
ATOM     51  F   UNL A   1      37.721  33.823  28.869  1.00  0.00    -0.206 F 
ATOM     52  C   UNL A   1      35.510  33.734  28.087  1.00  0.00     0.040 A 
ATOM     53  C   UNL A   1      34.289  31.662  28.177  1.00  0.00     0.040 A 
ATOM     54  F   UNL A   1      35.306  29.738  29.068  1.00  0.00    -0.206 F 
ATOM     55  C   UNL A   1      34.342  33.015  27.847  1.00  0.00     0.006 A 
ENDBRANCH  27  48
BRANCH  39  56
ATOM     56  C   UNL A   1      39.374  32.115  35.416  1.00  0.00     0.057 A 
ATOM     57  C   UNL A   1      38.496  31.589  36.373  1.00  0.00     0.134 A 
ATOM     58  C   UNL A   1      39.806  33.436  35.582  1.00  0.00     0.134 A 
ATOM     59  F   UNL A   1      38.041  30.332  36.259  1.00  0.00    -0.206 F 
ATOM     60  C   UNL A   1      38.037  32.359  37.440  1.00  0.00     0.040 A 
ATOM     61  C   UNL A   1      39.367  34.210  36.656  1.00  0.00     0.040 A 
ATOM     62  F   UNL A   1      40.650  33.991  34.700  1.00  0.00    -0.206 F 
ATOM     63  C   UNL A   1      38.471  33.677  37.582  1.00  0.00     0.006 A 
ENDBRANCH  39  56
ENDBRANCH  13  14
ENDBRANCH   6   8
ENDBRANCH   5   6
ENDBRANCH   4   5
ENDBRANCH   3   4
ENDBRANCH   2   3
ENDBRANCH   1   2
BRANCH   1  64
ATOM     64  C   UNL A   1      40.001  20.538  26.145  1.00  0.00     0.188 C 
BRANCH  64  65
ATOM     65  O   UNL A   1      39.730  21.898  25.839  1.00  0.00    -0.376 OA
BRANCH  65  66
ATOM     66  C   UNL A   1      38.411  22.395  26.004  1.00  0.00     0.202 C 
BRANCH  66  67
ATOM     67  C   UNL A   1      37.473  22.269  24.803  1.00  0.00     0.261 C 
BRANCH  67  68
ATOM     68  O   UNL A   1      36.174  22.864  24.986  1.00  0.00    -0.460 OA
BRANCH  68  69
ATOM     69  C   UNL A   1      35.363  22.890  23.898  1.00  0.00     0.338 C 
ATOM     70  O   UNL A   1      35.680  23.109  22.744  1.00  0.00    -0.246 OA
BRANCH  69  71
ATOM     71  C   UNL A   1      33.961  22.710  24.336  1.00  0.00     0.068 A 
ATOM     72  C   UNL A   1      33.573  21.401  24.682  1.00  0.00     0.019 A 
ATOM     73  C   UNL A   1      33.079  23.795  24.527  1.00  0.00    -0.001 A 
ATOM     74  C   UNL A   1      32.316  21.167  25.235  1.00  0.00     0.040 A 
ATOM     75  C   UNL A   1      31.803  23.522  25.058  1.00  0.00     0.048 A 
ATOM     76  C   UNL A   1      31.441  22.228  25.415  1.00  0.00     0.123 A 
ATOM     77  F   UNL A   1      30.231  22.003  25.938  1.00  0.00    -0.207 F 
BRANCH  73  78
ATOM     78  C   UNL A   1      33.387  25.190  24.189  1.00  0.00    -0.016 A 
ATOM     79  C   UNL A   1      33.275  25.639  22.865  1.00  0.00     0.012 A 
ATOM     80  C   UNL A   1      33.679  26.131  25.190  1.00  0.00     0.032 A 
ATOM     81  C   UNL A   1      33.475  26.983  22.537  1.00  0.00     0.041 A 
ATOM     82  C   UNL A   1      33.857  27.479  24.866  1.00  0.00     0.077 A 
ATOM     83  C   UNL A   1      33.760  27.897  23.541  1.00  0.00     0.141 A 
ATOM     84  Cl  UNL A   1      34.156  28.618  26.121  1.00  0.00    -0.081 Cl
ATOM     85  F   UNL A   1      33.921  29.187  23.211  1.00  0.00    -0.205 F 
ENDBRANCH  73  78
ENDBRANCH  69  71
ENDBRANCH  68  69
ENDBRANCH  67  68
ENDBRANCH  66  67
ENDBRANCH  65  66
ENDBRANCH  64  65
ENDBRANCH   1  64
TORSDOF 18
ENDMDL
