MODEL 1
REMARK VINA RESULT:     -10.3      0.000      0.000
REMARK SMILES N#C/C(=C/c1cc2c(cc1Br)OCO2)C(=O)OCCOCCOCCOC(=O)c1ccc(-c2c3nc(c(-c4c(F)cccc4F)c4ccc([nH]4)c(-c4c(F)cccc4F)c4nc(c(-c5c(F)cccc5F)c5ccc2[nH]5)C=C4)C=C3)cc1
REMARK SMILES IDX 22 1 21 2 20 3 19 4 18 5 17 6 15 7 16 8 3 9 4 10 2 11 1 12
REMARK SMILES IDX 5 13 6 14 10 15 7 16 9 17 11 18 8 19 14 20 12 21 13 22 23 23
REMARK SMILES IDX 24 24 25 25 26 26 27 27 28 28 29 29 30 30 82 31 31 32 81 33
REMARK SMILES IDX 32 34 33 35 34 36 75 37 35 38 80 39 74 40 76 41 36 42 79 43
REMARK SMILES IDX 73 44 72 45 37 47 63 48 46 49 62 50 47 51 50 52 61 53 77 54
REMARK SMILES IDX 48 55 49 56 60 58 78 59 51 60 38 61 39 62 44 63 40 64 41 65
REMARK SMILES IDX 43 66 45 67 42 68 64 69 65 70 70 71 66 72 67 73 69 74 71 75
REMARK SMILES IDX 68 76 52 77 53 78 58 79 54 80 55 81 57 82 59 83 56 84
REMARK H PARENT 76 46 50 57
REMARK Flexibility Score: inf
ROOT
ATOM      1  C   UNL A   1      35.088  33.313  28.381  1.00  0.00     0.188 C 
ENDROOT
BRANCH   1   2
ATOM      2  C   UNL A   1      35.082  31.941  27.668  1.00  0.00     0.188 C 
BRANCH   2   3
ATOM      3  O   UNL A   1      33.892  31.180  27.605  1.00  0.00    -0.376 OA
BRANCH   3   4
ATOM      4  C   UNL A   1      33.927  29.790  27.320  1.00  0.00     0.202 C 
BRANCH   4   5
ATOM      5  C   UNL A   1      32.885  29.122  26.421  1.00  0.00     0.261 C 
BRANCH   5   6
ATOM      6  O   UNL A   1      33.074  27.709  26.301  1.00  0.00    -0.459 OA
BRANCH   6   7
ATOM      7  C   UNL A   1      31.975  26.952  26.524  1.00  0.00     0.348 C 
ATOM      8  O   UNL A   1      31.069  27.231  27.298  1.00  0.00    -0.245 OA
BRANCH   7   9
ATOM      9  C   UNL A   1      31.908  25.771  25.614  1.00  0.00     0.138 C 
ATOM     10  C   UNL A   1      31.595  25.863  24.303  1.00  0.00     0.036 C 
BRANCH   9  11
ATOM     11  C   UNL A   1      32.744  24.618  26.147  1.00  0.00     0.107 C 
ATOM     12  N   UNL A   1      33.437  23.662  26.589  1.00  0.00    -0.192 NA
ENDBRANCH   9  11
BRANCH  10  13
ATOM     13  C   UNL A   1      30.984  27.025  23.614  1.00  0.00    -0.006 A 
ATOM     14  C   UNL A   1      29.580  27.085  23.660  1.00  0.00     0.060 A 
ATOM     15  C   UNL A   1      31.682  28.080  22.960  1.00  0.00     0.029 A 
ATOM     16  C   UNL A   1      28.948  28.211  23.172  1.00  0.00     0.166 A 
ATOM     17  C   UNL A   1      31.018  29.240  22.536  1.00  0.00     0.067 A 
ATOM     18  Br  UNL A   1      33.534  27.979  22.524  1.00  0.00    -0.050 Br
ATOM     19  C   UNL A   1      29.649  29.275  22.664  1.00  0.00     0.166 A 
ATOM     20  O   UNL A   1      27.604  28.418  23.144  1.00  0.00    -0.454 OA
ATOM     21  O   UNL A   1      28.842  30.302  22.290  1.00  0.00    -0.454 OA
ATOM     22  C   UNL A   1      27.542  29.739  22.568  1.00  0.00     0.468 C 
ENDBRANCH  10  13
ENDBRANCH   7   9
ENDBRANCH   6   7
ENDBRANCH   5   6
ENDBRANCH   4   5
ENDBRANCH   3   4
ENDBRANCH   2   3
ENDBRANCH   1   2
BRANCH   1  23
ATOM     23  O   UNL A   1      34.004  33.693  29.186  1.00  0.00    -0.376 OA
BRANCH  23  24
ATOM     24  C   UNL A   1      34.272  34.438  30.360  1.00  0.00     0.202 C 
BRANCH  24  25
ATOM     25  C   UNL A   1      34.270  33.833  31.783  1.00  0.00     0.261 C 
BRANCH  25  26
ATOM     26  O   UNL A   1      34.741  32.484  31.952  1.00  0.00    -0.460 OA
BRANCH  26  27
ATOM     27  C   UNL A   1      35.835  32.325  32.745  1.00  0.00     0.338 C 
ATOM     28  O   UNL A   1      35.922  32.594  33.936  1.00  0.00    -0.246 OA
BRANCH  27  29
ATOM     29  C   UNL A   1      36.857  31.522  32.029  1.00  0.00     0.060 A 
ATOM     30  C   UNL A   1      37.714  30.684  32.767  1.00  0.00     0.016 A 
ATOM     31  C   UNL A   1      36.974  31.594  30.643  1.00  0.00     0.016 A 
ATOM     32  C   UNL A   1      38.703  29.935  32.123  1.00  0.00     0.010 A 
ATOM     33  C   UNL A   1      37.989  30.874  30.004  1.00  0.00     0.010 A 
ATOM     34  C   UNL A   1      38.879  30.066  30.740  1.00  0.00    -0.014 A 
BRANCH  34  35
ATOM     35  C   UNL A   1      40.111  29.550  30.091  1.00  0.00     0.031 A 
ATOM     36  C   UNL A   1      41.263  30.500  29.897  1.00  0.00     0.074 A 
ATOM     37  C   UNL A   1      40.219  28.277  29.672  1.00  0.00     0.049 A 
ATOM     38  N   UNL A   1      42.393  30.326  29.262  1.00  0.00    -0.248 NA
ATOM     39  C   UNL A   1      41.108  31.835  30.498  1.00  0.00     0.031 C 
ATOM     40  C   UNL A   1      39.207  27.239  29.843  1.00  0.00     0.029 A 
ATOM     41  N   UNL A   1      41.237  27.651  28.992  1.00  0.00    -0.354 N 
ATOM     42  C   UNL A   1      43.080  31.528  29.380  1.00  0.00     0.074 A 
ATOM     43  C   UNL A   1      42.223  32.435  30.113  1.00  0.00     0.031 C 
ATOM     44  C   UNL A   1      39.642  26.110  29.255  1.00  0.00     0.029 A 
ATOM     45  C   UNL A   1      40.945  26.356  28.638  1.00  0.00     0.049 A 
ATOM     46  H   UNL A   1      42.092  28.088  28.779  1.00  0.00     0.167 HD
ATOM     47  C   UNL A   1      44.317  31.847  28.929  1.00  0.00     0.037 A 
ATOM     48  C   UNL A   1      41.636  25.483  27.877  1.00  0.00     0.037 A 
ATOM     49  C   UNL A   1      45.164  30.951  28.187  1.00  0.00     0.049 A 
ATOM     50  C   UNL A   1      42.972  25.885  27.306  1.00  0.00     0.074 A 
ATOM     51  C   UNL A   1      46.434  31.180  27.687  1.00  0.00     0.029 A 
ATOM     52  N   UNL A   1      44.822  29.655  27.830  1.00  0.00    -0.354 N 
ATOM     53  N   UNL A   1      43.621  27.019  27.432  1.00  0.00    -0.248 NA
ATOM     54  C   UNL A   1      43.675  24.884  26.489  1.00  0.00     0.031 C 
ATOM     55  C   UNL A   1      46.836  30.044  26.977  1.00  0.00     0.029 A 
ATOM     56  C   UNL A   1      45.845  29.082  27.092  1.00  0.00     0.049 A 
ATOM     57  H   UNL A   1      43.977  29.208  28.066  1.00  0.00     0.167 HD
ATOM     58  C   UNL A   1      44.817  26.855  26.740  1.00  0.00     0.074 A 
ATOM     59  C   UNL A   1      44.808  25.510  26.206  1.00  0.00     0.031 C 
ATOM     60  C   UNL A   1      45.831  27.740  26.567  1.00  0.00     0.037 A 
BRANCH  47  61
ATOM     61  C   UNL A   1      44.807  33.240  29.201  1.00  0.00     0.057 A 
ATOM     62  C   UNL A   1      45.565  33.552  30.339  1.00  0.00     0.134 A 
ATOM     63  C   UNL A   1      44.524  34.284  28.312  1.00  0.00     0.134 A 
ATOM     64  F   UNL A   1      45.861  32.604  31.241  1.00  0.00    -0.206 F 
ATOM     65  C   UNL A   1      45.994  34.855  30.597  1.00  0.00     0.040 A 
ATOM     66  C   UNL A   1      44.973  35.585  28.542  1.00  0.00     0.040 A 
ATOM     67  F   UNL A   1      43.807  34.057  27.200  1.00  0.00    -0.206 F 
ATOM     68  C   UNL A   1      45.703  35.875  29.694  1.00  0.00     0.006 A 
ENDBRANCH  47  61
BRANCH  48  69
ATOM     69  C   UNL A   1      41.065  24.141  27.587  1.00  0.00     0.057 A 
ATOM     70  C   UNL A   1      41.538  22.991  28.228  1.00  0.00     0.134 A 
ATOM     71  C   UNL A   1      40.046  23.975  26.641  1.00  0.00     0.134 A 
ATOM     72  F   UNL A   1      42.536  23.078  29.120  1.00  0.00    -0.206 F 
ATOM     73  C   UNL A   1      41.029  21.725  27.932  1.00  0.00     0.040 A 
ATOM     74  C   UNL A   1      39.507  22.720  26.356  1.00  0.00     0.040 A 
ATOM     75  F   UNL A   1      39.551  25.035  25.985  1.00  0.00    -0.206 F 
ATOM     76  C   UNL A   1      40.005  21.589  26.998  1.00  0.00     0.006 A 
ENDBRANCH  48  69
BRANCH  60  77
ATOM     77  C   UNL A   1      47.039  27.272  25.803  1.00  0.00     0.057 A 
ATOM     78  C   UNL A   1      47.213  27.546  24.441  1.00  0.00     0.134 A 
ATOM     79  C   UNL A   1      48.067  26.577  26.456  1.00  0.00     0.134 A 
ATOM     80  F   UNL A   1      46.266  28.199  23.751  1.00  0.00    -0.206 F 
ATOM     81  C   UNL A   1      48.351  27.124  23.750  1.00  0.00     0.040 A 
ATOM     82  C   UNL A   1      49.223  26.176  25.783  1.00  0.00     0.040 A 
ATOM     83  F   UNL A   1      47.973  26.290  27.763  1.00  0.00    -0.206 F 
ATOM     84  C   UNL A   1      49.364  26.444  24.424  1.00  0.00     0.006 A 
ENDBRANCH  60  77
ENDBRANCH  34  35
ENDBRANCH  27  29
ENDBRANCH  26  27
ENDBRANCH  25  26
ENDBRANCH  24  25
ENDBRANCH  23  24
ENDBRANCH   1  23
TORSDOF 19
ENDMDL
MODEL 2
REMARK VINA RESULT:     -10.2      5.139     10.088
REMARK SMILES N#C/C(=C/c1cc2c(cc1Br)OCO2)C(=O)OCCOCCOCCOC(=O)c1ccc(-c2c3nc(c(-c4c(F)cccc4F)c4ccc([nH]4)c(-c4c(F)cccc4F)c4nc(c(-c5c(F)cccc5F)c5ccc2[nH]5)C=C4)C=C3)cc1
REMARK SMILES IDX 22 1 21 2 20 3 19 4 18 5 17 6 15 7 16 8 3 9 4 10 2 11 1 12
REMARK SMILES IDX 5 13 6 14 10 15 7 16 9 17 11 18 8 19 14 20 12 21 13 22 23 23
REMARK SMILES IDX 24 24 25 25 26 26 27 27 28 28 29 29 30 30 82 31 31 32 81 33
REMARK SMILES IDX 32 34 33 35 34 36 75 37 35 38 80 39 74 40 76 41 36 42 79 43
REMARK SMILES IDX 73 44 72 45 37 47 63 48 46 49 62 50 47 51 50 52 61 53 77 54
REMARK SMILES IDX 48 55 49 56 60 58 78 59 51 60 38 61 39 62 44 63 40 64 41 65
REMARK SMILES IDX 43 66 45 67 42 68 64 69 65 70 70 71 66 72 67 73 69 74 71 75
REMARK SMILES IDX 68 76 52 77 53 78 58 79 54 80 55 81 57 82 59 83 56 84
REMARK H PARENT 76 46 50 57
REMARK Flexibility Score: inf
ROOT
ATOM      1  C   UNL A   1      39.734  21.710  26.135  1.00  0.00     0.188 C 
ENDROOT
BRANCH   1   2
ATOM      2  C   UNL A   1      38.414  21.194  25.515  1.00  0.00     0.188 C 
BRANCH   2   3
ATOM      3  O   UNL A   1      37.240  21.978  25.594  1.00  0.00    -0.376 OA
BRANCH   3   4
ATOM      4  C   UNL A   1      36.410  22.168  24.457  1.00  0.00     0.202 C 
BRANCH   4   5
ATOM      5  C   UNL A   1      35.956  23.560  24.012  1.00  0.00     0.261 C 
BRANCH   5   6
ATOM      6  O   UNL A   1      34.544  23.753  24.140  1.00  0.00    -0.459 OA
BRANCH   6   7
ATOM      7  C   UNL A   1      33.814  23.467  23.037  1.00  0.00     0.348 C 
ATOM      8  O   UNL A   1      34.272  23.227  21.929  1.00  0.00    -0.245 OA
BRANCH   7   9
ATOM      9  C   UNL A   1      32.358  23.343  23.341  1.00  0.00     0.138 C 
ATOM     10  C   UNL A   1      31.825  22.287  23.997  1.00  0.00     0.036 C 
BRANCH   9  11
ATOM     11  C   UNL A   1      31.680  24.703  23.354  1.00  0.00     0.107 C 
ATOM     12  N   UNL A   1      31.119  25.832  23.365  1.00  0.00    -0.192 NA
ENDBRANCH   9  11
BRANCH  10  13
ATOM     13  C   UNL A   1      32.475  20.978  24.251  1.00  0.00    -0.006 A 
ATOM     14  C   UNL A   1      32.244  19.991  23.278  1.00  0.00     0.060 A 
ATOM     15  C   UNL A   1      33.322  20.658  25.350  1.00  0.00     0.029 A 
ATOM     16  C   UNL A   1      32.934  18.798  23.367  1.00  0.00     0.166 A 
ATOM     17  C   UNL A   1      34.060  19.465  25.376  1.00  0.00     0.067 A 
ATOM     18  Br  UNL A   1      33.463  21.754  26.901  1.00  0.00    -0.050 Br
ATOM     19  C   UNL A   1      33.846  18.559  24.364  1.00  0.00     0.166 A 
ATOM     20  O   UNL A   1      32.819  17.749  22.509  1.00  0.00    -0.454 OA
ATOM     21  O   UNL A   1      34.452  17.350  24.238  1.00  0.00    -0.454 OA
ATOM     22  C   UNL A   1      33.773  16.827  23.077  1.00  0.00     0.468 C 
ENDBRANCH  10  13
ENDBRANCH   7   9
ENDBRANCH   6   7
ENDBRANCH   5   6
ENDBRANCH   4   5
ENDBRANCH   3   4
ENDBRANCH   2   3
ENDBRANCH   1   2
BRANCH   1  23
ATOM     23  O   UNL A   1      40.308  21.041  27.226  1.00  0.00    -0.376 OA
BRANCH  23  24
ATOM     24  C   UNL A   1      41.624  20.538  27.083  1.00  0.00     0.202 C 
BRANCH  24  25
ATOM     25  C   UNL A   1      42.671  21.129  26.110  1.00  0.00     0.261 C 
BRANCH  25  26
ATOM     26  O   UNL A   1      43.436  22.269  26.541  1.00  0.00    -0.460 OA
BRANCH  26  27
ATOM     27  C   UNL A   1      43.344  23.383  25.766  1.00  0.00     0.338 C 
ATOM     28  O   UNL A   1      43.483  23.444  24.551  1.00  0.00    -0.246 OA
BRANCH  27  29
ATOM     29  C   UNL A   1      42.784  24.501  26.564  1.00  0.00     0.060 A 
ATOM     30  C   UNL A   1      43.434  25.750  26.549  1.00  0.00     0.016 A 
ATOM     31  C   UNL A   1      41.631  24.324  27.325  1.00  0.00     0.016 A 
ATOM     32  C   UNL A   1      42.945  26.815  27.311  1.00  0.00     0.010 A 
ATOM     33  C   UNL A   1      41.165  25.380  28.117  1.00  0.00     0.010 A 
ATOM     34  C   UNL A   1      41.835  26.619  28.140  1.00  0.00    -0.014 A 
BRANCH  34  35
ATOM     35  C   UNL A   1      41.502  27.614  29.191  1.00  0.00     0.031 A 
ATOM     36  C   UNL A   1      42.287  27.580  30.476  1.00  0.00     0.074 A 
ATOM     37  C   UNL A   1      40.527  28.527  29.030  1.00  0.00     0.049 A 
ATOM     38  N   UNL A   1      42.115  28.260  31.580  1.00  0.00    -0.248 NA
ATOM     39  C   UNL A   1      43.415  26.636  30.518  1.00  0.00     0.031 C 
ATOM     40  C   UNL A   1      39.727  28.709  27.823  1.00  0.00     0.029 A 
ATOM     41  N   UNL A   1      40.034  29.462  29.909  1.00  0.00    -0.354 N 
ATOM     42  C   UNL A   1      43.108  27.823  32.449  1.00  0.00     0.074 A 
ATOM     43  C   UNL A   1      43.852  26.792  31.758  1.00  0.00     0.031 C 
ATOM     44  C   UNL A   1      38.821  29.677  28.047  1.00  0.00     0.029 A 
ATOM     45  C   UNL A   1      38.954  30.157  29.422  1.00  0.00     0.049 A 
ATOM     46  H   UNL A   1      40.418  29.619  30.802  1.00  0.00     0.167 HD
ATOM     47  C   UNL A   1      43.383  28.248  33.705  1.00  0.00     0.037 A 
ATOM     48  C   UNL A   1      38.149  31.053  30.027  1.00  0.00     0.037 A 
ATOM     49  C   UNL A   1      42.635  29.263  34.399  1.00  0.00     0.049 A 
ATOM     50  C   UNL A   1      38.415  31.449  31.457  1.00  0.00     0.074 A 
ATOM     51  C   UNL A   1      42.837  29.764  35.673  1.00  0.00     0.029 A 
ATOM     52  N   UNL A   1      41.534  29.927  33.878  1.00  0.00    -0.354 N 
ATOM     53  N   UNL A   1      39.362  31.041  32.269  1.00  0.00    -0.248 NA
ATOM     54  C   UNL A   1      37.501  32.434  32.056  1.00  0.00     0.031 C 
ATOM     55  C   UNL A   1      41.822  30.687  35.946  1.00  0.00     0.029 A 
ATOM     56  C   UNL A   1      41.028  30.812  34.817  1.00  0.00     0.049 A 
ATOM     57  H   UNL A   1      41.166  29.790  32.976  1.00  0.00     0.167 HD
ATOM     58  C   UNL A   1      39.177  31.741  33.457  1.00  0.00     0.074 A 
ATOM     59  C   UNL A   1      38.034  32.607  33.257  1.00  0.00     0.031 C 
ATOM     60  C   UNL A   1      39.892  31.674  34.608  1.00  0.00     0.037 A 
BRANCH  47  61
ATOM     61  C   UNL A   1      44.527  27.584  34.418  1.00  0.00     0.057 A 
ATOM     62  C   UNL A   1      44.383  26.345  35.058  1.00  0.00     0.134 A 
ATOM     63  C   UNL A   1      45.790  28.188  34.460  1.00  0.00     0.134 A 
ATOM     64  F   UNL A   1      43.198  25.718  35.070  1.00  0.00    -0.206 F 
ATOM     65  C   UNL A   1      45.445  25.749  35.741  1.00  0.00     0.040 A 
ATOM     66  C   UNL A   1      46.867  27.587  35.112  1.00  0.00     0.040 A 
ATOM     67  F   UNL A   1      46.000  29.372  33.865  1.00  0.00    -0.206 F 
ATOM     68  C   UNL A   1      46.693  26.367  35.764  1.00  0.00     0.006 A 
ENDBRANCH  47  61
BRANCH  48  69
ATOM     69  C   UNL A   1      36.991  31.624  29.290  1.00  0.00     0.057 A 
ATOM     70  C   UNL A   1      35.814  30.892  29.096  1.00  0.00     0.134 A 
ATOM     71  C   UNL A   1      37.044  32.911  28.740  1.00  0.00     0.134 A 
ATOM     72  F   UNL A   1      35.713  29.641  29.569  1.00  0.00    -0.206 F 
ATOM     73  C   UNL A   1      34.739  31.412  28.374  1.00  0.00     0.040 A 
ATOM     74  C   UNL A   1      35.965  33.455  28.041  1.00  0.00     0.040 A 
ATOM     75  F   UNL A   1      38.144  33.665  28.883  1.00  0.00    -0.206 F 
ATOM     76  C   UNL A   1      34.810  32.700  27.850  1.00  0.00     0.006 A 
ENDBRANCH  48  69
BRANCH  60  77
ATOM     77  C   UNL A   1      39.491  32.590  35.731  1.00  0.00     0.057 A 
ATOM     78  C   UNL A   1      40.023  33.879  35.870  1.00  0.00     0.134 A 
ATOM     79  C   UNL A   1      38.519  32.192  36.660  1.00  0.00     0.134 A 
ATOM     80  F   UNL A   1      40.962  34.322  35.021  1.00  0.00    -0.206 F 
ATOM     81  C   UNL A   1      39.624  34.726  36.905  1.00  0.00     0.040 A 
ATOM     82  C   UNL A   1      38.091  33.042  37.682  1.00  0.00     0.040 A 
ATOM     83  F   UNL A   1      37.958  30.976  36.582  1.00  0.00    -0.206 F 
ATOM     84  C   UNL A   1      38.649  34.311  37.811  1.00  0.00     0.006 A 
ENDBRANCH  60  77
ENDBRANCH  34  35
ENDBRANCH  27  29
ENDBRANCH  26  27
ENDBRANCH  25  26
ENDBRANCH  24  25
ENDBRANCH  23  24
ENDBRANCH   1  23
TORSDOF 19
ENDMDL
MODEL 3
REMARK VINA RESULT:     -10.1      4.076      6.936
REMARK SMILES N#C/C(=C/c1cc2c(cc1Br)OCO2)C(=O)OCCOCCOCCOC(=O)c1ccc(-c2c3nc(c(-c4c(F)cccc4F)c4ccc([nH]4)c(-c4c(F)cccc4F)c4nc(c(-c5c(F)cccc5F)c5ccc2[nH]5)C=C4)C=C3)cc1
REMARK SMILES IDX 22 1 21 2 20 3 19 4 18 5 17 6 15 7 16 8 3 9 4 10 2 11 1 12
REMARK SMILES IDX 5 13 6 14 10 15 7 16 9 17 11 18 8 19 14 20 12 21 13 22 23 23
REMARK SMILES IDX 24 24 25 25 26 26 27 27 28 28 29 29 30 30 82 31 31 32 81 33
REMARK SMILES IDX 32 34 33 35 34 36 75 37 35 38 80 39 74 40 76 41 36 42 79 43
REMARK SMILES IDX 73 44 72 45 37 47 63 48 46 49 62 50 47 51 50 52 61 53 77 54
REMARK SMILES IDX 48 55 49 56 60 58 78 59 51 60 38 61 39 62 44 63 40 64 41 65
REMARK SMILES IDX 43 66 45 67 42 68 64 69 65 70 70 71 66 72 67 73 69 74 71 75
REMARK SMILES IDX 68 76 52 77 53 78 58 79 54 80 55 81 57 82 59 83 56 84
REMARK H PARENT 76 46 50 57
REMARK Flexibility Score: inf
ROOT
ATOM      1  C   UNL A   1      32.740  29.993  26.889  1.00  0.00     0.188 C 
ENDROOT
BRANCH   1   2
ATOM      2  C   UNL A   1      32.251  28.663  27.507  1.00  0.00     0.188 C 
BRANCH   2   3
ATOM      3  O   UNL A   1      32.486  27.440  26.837  1.00  0.00    -0.376 OA
BRANCH   3   4
ATOM      4  C   UNL A   1      33.626  27.270  26.007  1.00  0.00     0.202 C 
BRANCH   4   5
ATOM      5  C   UNL A   1      33.506  26.805  24.555  1.00  0.00     0.261 C 
BRANCH   5   6
ATOM      6  O   UNL A   1      32.288  26.101  24.293  1.00  0.00    -0.459 OA
BRANCH   6   7
ATOM      7  C   UNL A   1      32.401  24.757  24.187  1.00  0.00     0.348 C 
ATOM      8  O   UNL A   1      32.929  24.163  23.257  1.00  0.00    -0.245 OA
BRANCH   7   9
ATOM      9  C   UNL A   1      31.921  24.051  25.412  1.00  0.00     0.138 C 
ATOM     10  C   UNL A   1      32.720  23.286  26.187  1.00  0.00     0.036 C 
BRANCH   9  11
ATOM     11  C   UNL A   1      30.675  24.715  25.976  1.00  0.00     0.107 C 
ATOM     12  N   UNL A   1      29.642  25.266  26.443  1.00  0.00    -0.192 NA
ENDBRANCH   9  11
BRANCH  10  13
ATOM     13  C   UNL A   1      34.063  22.763  25.837  1.00  0.00    -0.006 A 
ATOM     14  C   UNL A   1      35.144  23.589  26.191  1.00  0.00     0.060 A 
ATOM     15  C   UNL A   1      34.345  21.509  25.224  1.00  0.00     0.029 A 
ATOM     16  C   UNL A   1      36.427  23.105  26.034  1.00  0.00     0.166 A 
ATOM     17  C   UNL A   1      35.657  21.018  25.140  1.00  0.00     0.067 A 
ATOM     18  Br  UNL A   1      33.005  20.440  24.393  1.00  0.00    -0.050 Br
ATOM     19  C   UNL A   1      36.674  21.841  25.562  1.00  0.00     0.166 A 
ATOM     20  O   UNL A   1      37.571  23.780  26.326  1.00  0.00    -0.454 OA
ATOM     21  O   UNL A   1      38.000  21.543  25.536  1.00  0.00    -0.454 OA
ATOM     22  C   UNL A   1      38.566  22.790  25.993  1.00  0.00     0.468 C 
ENDBRANCH  10  13
ENDBRANCH   7   9
ENDBRANCH   6   7
ENDBRANCH   5   6
ENDBRANCH   4   5
ENDBRANCH   3   4
ENDBRANCH   2   3
ENDBRANCH   1   2
BRANCH   1  23
ATOM     23  O   UNL A   1      31.833  30.844  26.241  1.00  0.00    -0.376 OA
BRANCH  23  24
ATOM     24  C   UNL A   1      31.578  32.112  26.819  1.00  0.00     0.202 C 
BRANCH  24  25
ATOM     25  C   UNL A   1      32.682  33.136  27.170  1.00  0.00     0.261 C 
BRANCH  25  26
ATOM     26  O   UNL A   1      32.338  34.249  28.014  1.00  0.00    -0.460 OA
BRANCH  26  27
ATOM     27  C   UNL A   1      33.376  34.900  28.604  1.00  0.00     0.338 C 
ATOM     28  O   UNL A   1      33.372  36.047  29.033  1.00  0.00    -0.246 OA
BRANCH  27  29
ATOM     29  C   UNL A   1      34.464  33.937  28.904  1.00  0.00     0.060 A 
ATOM     30  C   UNL A   1      34.147  32.714  29.525  1.00  0.00     0.016 A 
ATOM     31  C   UNL A   1      35.786  34.234  28.580  1.00  0.00     0.016 A 
ATOM     32  C   UNL A   1      35.154  31.797  29.842  1.00  0.00     0.010 A 
ATOM     33  C   UNL A   1      36.796  33.333  28.934  1.00  0.00     0.010 A 
ATOM     34  C   UNL A   1      36.492  32.125  29.594  1.00  0.00    -0.014 A 
BRANCH  34  35
ATOM     35  C   UNL A   1      37.583  31.331  30.213  1.00  0.00     0.031 A 
ATOM     36  C   UNL A   1      37.931  31.603  31.652  1.00  0.00     0.074 A 
ATOM     37  C   UNL A   1      38.264  30.395  29.528  1.00  0.00     0.049 A 
ATOM     38  N   UNL A   1      38.909  31.129  32.381  1.00  0.00    -0.248 NA
ATOM     39  C   UNL A   1      37.055  32.550  32.361  1.00  0.00     0.031 C 
ATOM     40  C   UNL A   1      37.999  29.992  28.150  1.00  0.00     0.029 A 
ATOM     41  N   UNL A   1      39.340  29.628  29.906  1.00  0.00    -0.354 N 
ATOM     42  C   UNL A   1      38.770  31.724  33.629  1.00  0.00     0.074 A 
ATOM     43  C   UNL A   1      37.639  32.622  33.547  1.00  0.00     0.031 C 
ATOM     44  C   UNL A   1      38.910  29.071  27.787  1.00  0.00     0.029 A 
ATOM     45  C   UNL A   1      39.840  28.846  28.893  1.00  0.00     0.049 A 
ATOM     46  H   UNL A   1      39.717  29.636  30.816  1.00  0.00     0.167 HD
ATOM     47  C   UNL A   1      39.510  31.533  34.747  1.00  0.00     0.037 A 
ATOM     48  C   UNL A   1      40.938  28.065  28.855  1.00  0.00     0.037 A 
ATOM     49  C   UNL A   1      40.645  30.652  34.827  1.00  0.00     0.049 A 
ATOM     50  C   UNL A   1      41.804  27.934  30.082  1.00  0.00     0.074 A 
ATOM     51  C   UNL A   1      41.459  30.389  35.914  1.00  0.00     0.029 A 
ATOM     52  N   UNL A   1      41.132  29.895  33.771  1.00  0.00    -0.354 N 
ATOM     53  N   UNL A   1      41.660  28.490  31.262  1.00  0.00    -0.248 NA
ATOM     54  C   UNL A   1      42.985  27.063  29.974  1.00  0.00     0.031 C 
ATOM     55  C   UNL A   1      42.475  29.520  35.502  1.00  0.00     0.029 A 
ATOM     56  C   UNL A   1      42.253  29.187  34.174  1.00  0.00     0.049 A 
ATOM     57  H   UNL A   1      40.740  29.865  32.869  1.00  0.00     0.167 HD
ATOM     58  C   UNL A   1      42.709  28.012  32.041  1.00  0.00     0.074 A 
ATOM     59  C   UNL A   1      43.475  27.114  31.204  1.00  0.00     0.031 C 
ATOM     60  C   UNL A   1      43.008  28.291  33.335  1.00  0.00     0.037 A 
BRANCH  47  61
ATOM     61  C   UNL A   1      39.129  32.325  35.965  1.00  0.00     0.057 A 
ATOM     62  C   UNL A   1      39.639  33.608  36.207  1.00  0.00     0.134 A 
ATOM     63  C   UNL A   1      38.234  31.802  36.907  1.00  0.00     0.134 A 
ATOM     64  F   UNL A   1      40.513  34.165  35.355  1.00  0.00    -0.206 F 
ATOM     65  C   UNL A   1      39.299  34.326  37.355  1.00  0.00     0.040 A 
ATOM     66  C   UNL A   1      37.862  32.522  38.043  1.00  0.00     0.040 A 
ATOM     67  F   UNL A   1      37.702  30.581  36.737  1.00  0.00    -0.206 F 
ATOM     68  C   UNL A   1      38.403  33.785  38.274  1.00  0.00     0.006 A 
ENDBRANCH  47  61
BRANCH  48  69
ATOM     69  C   UNL A   1      41.301  27.360  27.597  1.00  0.00     0.057 A 
ATOM     70  C   UNL A   1      40.926  26.031  27.370  1.00  0.00     0.134 A 
ATOM     71  C   UNL A   1      42.054  27.994  26.601  1.00  0.00     0.134 A 
ATOM     72  F   UNL A   1      40.232  25.358  28.299  1.00  0.00    -0.206 F 
ATOM     73  C   UNL A   1      41.296  25.354  26.205  1.00  0.00     0.040 A 
ATOM     74  C   UNL A   1      42.406  27.339  25.419  1.00  0.00     0.040 A 
ATOM     75  F   UNL A   1      42.453  29.265  26.758  1.00  0.00    -0.206 F 
ATOM     76  C   UNL A   1      42.032  26.012  25.223  1.00  0.00     0.006 A 
ENDBRANCH  48  69
BRANCH  60  77
ATOM     77  C   UNL A   1      44.188  27.586  33.944  1.00  0.00     0.057 A 
ATOM     78  C   UNL A   1      44.080  26.321  34.534  1.00  0.00     0.134 A 
ATOM     79  C   UNL A   1      45.464  28.166  33.895  1.00  0.00     0.134 A 
ATOM     80  F   UNL A   1      42.888  25.711  34.623  1.00  0.00    -0.206 F 
ATOM     81  C   UNL A   1      45.190  25.669  35.076  1.00  0.00     0.040 A 
ATOM     82  C   UNL A   1      46.587  27.511  34.406  1.00  0.00     0.040 A 
ATOM     83  F   UNL A   1      45.645  29.371  33.334  1.00  0.00    -0.206 F 
ATOM     84  C   UNL A   1      46.450  26.261  35.006  1.00  0.00     0.006 A 
ENDBRANCH  60  77
ENDBRANCH  34  35
ENDBRANCH  27  29
ENDBRANCH  26  27
ENDBRANCH  25  26
ENDBRANCH  24  25
ENDBRANCH  23  24
ENDBRANCH   1  23
TORSDOF 19
ENDMDL
