MODEL 1
REMARK VINA RESULT:     -12.5      0.000      0.000
REMARK SMILES Cc1cccc(NC(=O)[C@H]2C=C[C@@H]([NH3+])C2)c1C(=O)OCCOCCOCCOC(=O)c1ccc(-c2c3nc(c(-c4c(F)cccc4F)c4ccc([nH]4)c(-c4c(F)cccc4F)c4nc(c(-c5c(F)cccc5F)c5ccc2[nH]5)C=C4)C=C3)cc1
REMARK SMILES IDX 23 1 22 2 21 3 20 4 19 5 17 6 18 7 16 8 1 9 2 10 3 11 4 12
REMARK SMILES IDX 6 13 5 14 7 15 8 16 9 18 10 19 11 20 15 21 12 22 13 23 14 24
REMARK SMILES IDX 24 28 25 29 26 30 27 31 28 32 29 33 30 34 31 35 32 36 84 37
REMARK SMILES IDX 33 38 83 39 34 40 35 41 36 42 77 43 37 44 82 45 76 46 78 47
REMARK SMILES IDX 38 48 81 49 75 50 74 51 39 53 65 54 48 55 64 56 49 57 52 58
REMARK SMILES IDX 63 59 79 60 50 61 51 62 62 64 80 65 53 66 40 67 41 68 46 69
REMARK SMILES IDX 42 70 43 71 45 72 47 73 44 74 66 75 67 76 72 77 68 78 69 79
REMARK SMILES IDX 71 80 73 81 70 82 54 83 55 84 60 85 56 86 57 87 59 88 61 89
REMARK SMILES IDX 58 90
REMARK H PARENT 7 17 14 25 14 26 14 27 78 52 52 63
REMARK Flexibility Score: inf
ROOT
ATOM      1  C   UNL A   1      33.890  32.811  28.011  1.00  0.00     0.188 C 
ENDROOT
BRANCH   1   2
ATOM      2  O   UNL A   1      33.257  31.601  27.532  1.00  0.00    -0.376 OA
BRANCH   2   3
ATOM      3  C   UNL A   1      33.873  30.298  27.437  1.00  0.00     0.202 C 
BRANCH   3   4
ATOM      4  C   UNL A   1      33.297  29.045  26.441  1.00  0.00     0.261 C 
BRANCH   4   5
ATOM      5  O   UNL A   1      32.488  27.615  26.853  1.00  0.00    -0.460 OA
BRANCH   5   6
ATOM      6  C   UNL A   1      31.969  26.447  26.189  1.00  0.00     0.340 C 
ATOM      7  O   UNL A   1      31.266  25.557  26.664  1.00  0.00    -0.246 OA
BRANCH   6   8
ATOM      8  C   UNL A   1      32.226  26.036  24.794  1.00  0.00     0.086 A 
ATOM      9  C   UNL A   1      34.475  25.175  25.606  1.00  0.00     0.045 C 
ATOM     10  C   UNL A   1      33.455  25.418  24.530  1.00  0.00    -0.034 A 
ATOM     11  C   UNL A   1      33.633  24.816  23.280  1.00  0.00     0.004 A 
ATOM     12  C   UNL A   1      32.629  24.838  22.311  1.00  0.00     0.002 A 
ATOM     13  C   UNL A   1      31.117  25.932  23.828  1.00  0.00     0.056 A 
ATOM     14  C   UNL A   1      31.389  25.402  22.584  1.00  0.00     0.027 A 
BRANCH  13  15
ATOM     15  N   UNL A   1      29.745  26.132  24.196  1.00  0.00    -0.325 N 
ATOM     16  C   UNL A   1      28.658  26.872  23.819  1.00  0.00     0.231 C 
ATOM     17  H   UNL A   1      29.512  25.557  24.959  1.00  0.00     0.169 HD
ATOM     18  O   UNL A   1      27.567  26.453  24.247  1.00  0.00    -0.274 OA
BRANCH  16  19
ATOM     19  C   UNL A   1      28.578  28.171  22.991  1.00  0.00     0.107 C 
ATOM     20  C   UNL A   1      27.343  28.999  23.141  1.00  0.00    -0.012 C 
ATOM     21  C   UNL A   1      29.736  29.175  23.055  1.00  0.00     0.087 C 
ATOM     22  C   UNL A   1      27.624  30.306  23.118  1.00  0.00     0.033 C 
ATOM     23  C   UNL A   1      29.089  30.577  22.995  1.00  0.00     0.205 C 
BRANCH  23  24
ATOM     24  N   UNL A   1      29.547  31.456  24.060  1.00  0.00    -0.352 N 
ATOM     25  H   UNL A   1      29.070  31.213  24.928  1.00  0.00     0.345 HD
ATOM     26  H   UNL A   1      29.339  32.424  23.815  1.00  0.00     0.345 HD
ATOM     27  H   UNL A   1      30.554  31.345  24.182  1.00  0.00     0.345 HD
ENDBRANCH  23  24
ENDBRANCH  16  19
ENDBRANCH  13  15
ENDBRANCH   6   8
ENDBRANCH   5   6
ENDBRANCH   4   5
ENDBRANCH   3   4
ENDBRANCH   2   3
ENDBRANCH   1   2
BRANCH   1  28
ATOM     28  C   UNL A   1      33.227  34.195  28.054  1.00  0.00     0.188 C 
BRANCH  28  29
ATOM     29  O   UNL A   1      32.762  34.502  29.355  1.00  0.00    -0.376 OA
BRANCH  29  30
ATOM     30  C   UNL A   1      32.920  35.857  29.757  1.00  0.00     0.202 C 
BRANCH  30  31
ATOM     31  C   UNL A   1      32.667  36.096  31.265  1.00  0.00     0.261 C 
BRANCH  31  32
ATOM     32  O   UNL A   1      33.095  34.960  32.059  1.00  0.00    -0.460 OA
BRANCH  32  33
ATOM     33  C   UNL A   1      34.378  34.964  32.554  1.00  0.00     0.338 C 
ATOM     34  O   UNL A   1      34.966  35.958  32.957  1.00  0.00    -0.246 OA
BRANCH  33  35
ATOM     35  C   UNL A   1      35.032  33.633  32.303  1.00  0.00     0.060 A 
ATOM     36  C   UNL A   1      35.508  32.713  33.254  1.00  0.00     0.016 A 
ATOM     37  C   UNL A   1      35.524  33.475  31.059  1.00  0.00     0.016 A 
ATOM     38  C   UNL A   1      36.603  31.782  32.957  1.00  0.00     0.010 A 
ATOM     39  C   UNL A   1      36.735  32.803  30.970  1.00  0.00     0.010 A 
ATOM     40  C   UNL A   1      37.350  31.844  31.780  1.00  0.00    -0.014 A 
BRANCH  40  41
ATOM     41  C   UNL A   1      38.767  31.134  31.408  1.00  0.00     0.031 A 
ATOM     42  C   UNL A   1      39.215  29.684  30.651  1.00  0.00     0.074 A 
ATOM     43  C   UNL A   1      39.842  31.847  31.818  1.00  0.00     0.049 A 
ATOM     44  N   UNL A   1      40.381  29.090  30.846  1.00  0.00    -0.248 NA
ATOM     45  C   UNL A   1      38.474  28.766  29.699  1.00  0.00     0.031 C 
ATOM     46  C   UNL A   1      41.250  31.640  31.497  1.00  0.00     0.029 A 
ATOM     47  N   UNL A   1      39.869  32.854  32.795  1.00  0.00    -0.354 N 
ATOM     48  C   UNL A   1      40.502  28.014  29.960  1.00  0.00     0.074 A 
ATOM     49  C   UNL A   1      39.219  27.697  29.502  1.00  0.00     0.031 C 
ATOM     50  C   UNL A   1      41.993  32.195  32.465  1.00  0.00     0.029 A 
ATOM     51  C   UNL A   1      41.082  32.682  33.483  1.00  0.00     0.049 A 
ATOM     52  H   UNL A   1      39.182  33.539  32.962  1.00  0.00     0.167 HD
ATOM     53  C   UNL A   1      41.675  27.510  29.503  1.00  0.00     0.037 A 
ATOM     54  C   UNL A   1      41.087  32.364  34.805  1.00  0.00     0.037 A 
ATOM     55  C   UNL A   1      42.713  27.833  30.440  1.00  0.00     0.049 A 
ATOM     56  C   UNL A   1      41.777  31.047  35.100  1.00  0.00     0.074 A 
ATOM     57  C   UNL A   1      43.718  28.771  30.480  1.00  0.00     0.029 A 
ATOM     58  N   UNL A   1      42.533  27.372  31.737  1.00  0.00    -0.354 N 
ATOM     59  N   UNL A   1      42.296  30.255  34.199  1.00  0.00    -0.248 NA
ATOM     60  C   UNL A   1      41.909  30.503  36.449  1.00  0.00     0.031 C 
ATOM     61  C   UNL A   1      43.999  29.010  31.860  1.00  0.00     0.029 A 
ATOM     62  C   UNL A   1      43.220  28.162  32.634  1.00  0.00     0.049 A 
ATOM     63  H   UNL A   1      41.989  26.588  31.983  1.00  0.00     0.167 HD
ATOM     64  C   UNL A   1      42.654  29.068  34.786  1.00  0.00     0.074 A 
ATOM     65  C   UNL A   1      42.477  29.311  36.204  1.00  0.00     0.031 C 
ATOM     66  C   UNL A   1      42.997  27.957  34.064  1.00  0.00     0.037 A 
BRANCH  53  67
ATOM     67  C   UNL A   1      41.819  26.766  28.175  1.00  0.00     0.057 A 
ATOM     68  C   UNL A   1      41.549  27.405  26.956  1.00  0.00     0.134 A 
ATOM     69  C   UNL A   1      42.115  25.381  28.033  1.00  0.00     0.134 A 
ATOM     70  F   UNL A   1      41.179  28.692  26.923  1.00  0.00    -0.206 F 
ATOM     71  C   UNL A   1      41.620  26.745  25.711  1.00  0.00     0.040 A 
ATOM     72  C   UNL A   1      42.265  24.731  26.797  1.00  0.00     0.040 A 
ATOM     73  F   UNL A   1      42.212  24.553  29.084  1.00  0.00    -0.206 F 
ATOM     74  C   UNL A   1      42.007  25.412  25.625  1.00  0.00     0.006 A 
ENDBRANCH  53  67
BRANCH  54  75
ATOM     75  C   UNL A   1      39.951  32.981  35.558  1.00  0.00     0.057 A 
ATOM     76  C   UNL A   1      38.856  32.165  35.909  1.00  0.00     0.134 A 
ATOM     77  C   UNL A   1      40.046  34.205  36.224  1.00  0.00     0.134 A 
ATOM     78  F   UNL A   1      38.686  30.975  35.311  1.00  0.00    -0.206 F 
ATOM     79  C   UNL A   1      37.977  32.489  36.949  1.00  0.00     0.040 A 
ATOM     80  C   UNL A   1      39.159  34.552  37.259  1.00  0.00     0.040 A 
ATOM     81  F   UNL A   1      41.073  35.029  35.984  1.00  0.00    -0.206 F 
ATOM     82  C   UNL A   1      38.146  33.676  37.650  1.00  0.00     0.006 A 
ENDBRANCH  54  75
BRANCH  66  83
ATOM     83  C   UNL A   1      43.115  26.557  34.638  1.00  0.00     0.057 A 
ATOM     84  C   UNL A   1      42.027  25.769  35.051  1.00  0.00     0.134 A 
ATOM     85  C   UNL A   1      44.362  25.891  34.646  1.00  0.00     0.134 A 
ATOM     86  F   UNL A   1      40.766  26.212  34.976  1.00  0.00    -0.206 F 
ATOM     87  C   UNL A   1      42.177  24.453  35.510  1.00  0.00     0.040 A 
ATOM     88  C   UNL A   1      44.513  24.556  35.033  1.00  0.00     0.040 A 
ATOM     89  F   UNL A   1      45.485  26.505  34.244  1.00  0.00    -0.206 F 
ATOM     90  C   UNL A   1      43.421  23.836  35.491  1.00  0.00     0.006 A 
ENDBRANCH  66  83
ENDBRANCH  40  41
ENDBRANCH  33  35
ENDBRANCH  32  33
ENDBRANCH  31  32
ENDBRANCH  30  31
ENDBRANCH  29  30
ENDBRANCH  28  29
ENDBRANCH   1  28
TORSDOF 20
ENDMDL
MODEL 2
REMARK VINA RESULT:     -12.5      1.462      2.927
REMARK SMILES Cc1cccc(NC(=O)[C@H]2C=C[C@@H]([NH3+])C2)c1C(=O)OCCOCCOCCOC(=O)c1ccc(-c2c3nc(c(-c4c(F)cccc4F)c4ccc([nH]4)c(-c4c(F)cccc4F)c4nc(c(-c5c(F)cccc5F)c5ccc2[nH]5)C=C4)C=C3)cc1
REMARK SMILES IDX 23 1 22 2 21 3 20 4 19 5 17 6 18 7 16 8 1 9 2 10 3 11 4 12
REMARK SMILES IDX 6 13 5 14 7 15 8 16 9 18 10 19 11 20 15 21 12 22 13 23 14 24
REMARK SMILES IDX 24 28 25 29 26 30 27 31 28 32 29 33 30 34 31 35 32 36 84 37
REMARK SMILES IDX 33 38 83 39 34 40 35 41 36 42 77 43 37 44 82 45 76 46 78 47
REMARK SMILES IDX 38 48 81 49 75 50 74 51 39 53 65 54 48 55 64 56 49 57 52 58
REMARK SMILES IDX 63 59 79 60 50 61 51 62 62 64 80 65 53 66 40 67 41 68 46 69
REMARK SMILES IDX 42 70 43 71 45 72 47 73 44 74 66 75 67 76 72 77 68 78 69 79
REMARK SMILES IDX 71 80 73 81 70 82 54 83 55 84 60 85 56 86 57 87 59 88 61 89
REMARK SMILES IDX 58 90
REMARK H PARENT 7 17 14 25 14 26 14 27 78 52 52 63
REMARK Flexibility Score: inf
ROOT
ATOM      1  C   UNL A   1      33.295  32.303  27.893  1.00  0.00     0.188 C 
ENDROOT
BRANCH   1   2
ATOM      2  O   UNL A   1      34.592  31.707  27.651  1.00  0.00    -0.376 OA
BRANCH   2   3
ATOM      3  C   UNL A   1      34.993  30.367  28.008  1.00  0.00     0.202 C 
BRANCH   3   4
ATOM      4  C   UNL A   1      34.774  29.010  27.005  1.00  0.00     0.261 C 
BRANCH   4   5
ATOM      5  O   UNL A   1      33.530  27.860  26.989  1.00  0.00    -0.460 OA
BRANCH   5   6
ATOM      6  C   UNL A   1      32.092  27.835  27.074  1.00  0.00     0.340 C 
ATOM      7  O   UNL A   1      31.393  27.907  28.082  1.00  0.00    -0.246 OA
BRANCH   6   8
ATOM      8  C   UNL A   1      31.144  27.654  25.956  1.00  0.00     0.086 A 
ATOM      9  C   UNL A   1      32.072  29.816  24.997  1.00  0.00     0.045 C 
ATOM     10  C   UNL A   1      31.149  28.632  24.953  1.00  0.00    -0.034 A 
ATOM     11  C   UNL A   1      30.435  28.373  23.779  1.00  0.00     0.004 A 
ATOM     12  C   UNL A   1      29.721  27.187  23.606  1.00  0.00     0.002 A 
ATOM     13  C   UNL A   1      30.512  26.343  25.715  1.00  0.00     0.056 A 
ATOM     14  C   UNL A   1      29.755  26.190  24.573  1.00  0.00     0.027 A 
BRANCH  13  15
ATOM     15  N   UNL A   1      30.839  25.172  26.476  1.00  0.00    -0.325 N 
ATOM     16  C   UNL A   1      31.853  24.265  26.617  1.00  0.00     0.231 C 
ATOM     17  H   UNL A   1      30.102  24.951  27.090  1.00  0.00     0.169 HD
ATOM     18  O   UNL A   1      31.811  23.592  27.663  1.00  0.00    -0.274 OA
BRANCH  16  19
ATOM     19  C   UNL A   1      33.010  23.911  25.660  1.00  0.00     0.107 C 
ATOM     20  C   UNL A   1      34.148  24.875  25.581  1.00  0.00    -0.012 C 
ATOM     21  C   UNL A   1      33.670  22.530  25.758  1.00  0.00     0.087 C 
ATOM     22  C   UNL A   1      35.320  24.242  25.460  1.00  0.00     0.033 C 
ATOM     23  C   UNL A   1      35.174  22.755  25.483  1.00  0.00     0.205 C 
BRANCH  23  24
ATOM     24  N   UNL A   1      36.028  22.164  26.502  1.00  0.00    -0.352 N 
ATOM     25  H   UNL A   1      35.846  22.613  27.400  1.00  0.00     0.345 HD
ATOM     26  H   UNL A   1      37.006  22.299  26.246  1.00  0.00     0.345 HD
ATOM     27  H   UNL A   1      35.829  21.165  26.575  1.00  0.00     0.345 HD
ENDBRANCH  23  24
ENDBRANCH  16  19
ENDBRANCH  13  15
ENDBRANCH   6   8
ENDBRANCH   5   6
ENDBRANCH   4   5
ENDBRANCH   3   4
ENDBRANCH   2   3
ENDBRANCH   1   2
BRANCH   1  28
ATOM     28  C   UNL A   1      32.983  33.803  27.796  1.00  0.00     0.188 C 
BRANCH  28  29
ATOM     29  O   UNL A   1      33.771  34.551  28.703  1.00  0.00    -0.376 OA
BRANCH  29  30
ATOM     30  C   UNL A   1      33.203  35.781  29.138  1.00  0.00     0.202 C 
BRANCH  30  31
ATOM     31  C   UNL A   1      32.864  35.814  30.647  1.00  0.00     0.261 C 
BRANCH  31  32
ATOM     32  O   UNL A   1      33.161  34.545  31.284  1.00  0.00    -0.460 OA
BRANCH  32  33
ATOM     33  C   UNL A   1      34.118  34.525  32.271  1.00  0.00     0.338 C 
ATOM     34  O   UNL A   1      34.435  35.489  32.953  1.00  0.00    -0.246 OA
BRANCH  33  35
ATOM     35  C   UNL A   1      34.880  33.229  32.225  1.00  0.00     0.060 A 
ATOM     36  C   UNL A   1      35.561  32.591  33.276  1.00  0.00     0.016 A 
ATOM     37  C   UNL A   1      35.239  32.833  30.989  1.00  0.00     0.016 A 
ATOM     38  C   UNL A   1      36.709  31.708  33.039  1.00  0.00     0.010 A 
ATOM     39  C   UNL A   1      36.497  32.258  30.881  1.00  0.00     0.010 A 
ATOM     40  C   UNL A   1      37.303  31.562  31.785  1.00  0.00    -0.014 A 
BRANCH  40  41
ATOM     41  C   UNL A   1      38.736  30.901  31.384  1.00  0.00     0.031 A 
ATOM     42  C   UNL A   1      39.219  29.490  30.577  1.00  0.00     0.074 A 
ATOM     43  C   UNL A   1      39.794  31.629  31.812  1.00  0.00     0.049 A 
ATOM     44  N   UNL A   1      40.401  28.921  30.747  1.00  0.00    -0.248 NA
ATOM     45  C   UNL A   1      38.498  28.584  29.598  1.00  0.00     0.031 C 
ATOM     46  C   UNL A   1      41.206  31.471  31.478  1.00  0.00     0.029 A 
ATOM     47  N   UNL A   1      39.800  32.604  32.822  1.00  0.00    -0.354 N 
ATOM     48  C   UNL A   1      40.546  27.879  29.826  1.00  0.00     0.074 A 
ATOM     49  C   UNL A   1      39.269  27.543  29.363  1.00  0.00     0.031 C 
ATOM     50  C   UNL A   1      41.939  32.013  32.462  1.00  0.00     0.029 A 
ATOM     51  C   UNL A   1      41.021  32.442  33.499  1.00  0.00     0.049 A 
ATOM     52  H   UNL A   1      39.096  33.265  33.015  1.00  0.00     0.167 HD
ATOM     53  C   UNL A   1      41.730  27.421  29.347  1.00  0.00     0.037 A 
ATOM     54  C   UNL A   1      41.041  32.080  34.810  1.00  0.00     0.037 A 
ATOM     55  C   UNL A   1      42.763  27.742  30.289  1.00  0.00     0.049 A 
ATOM     56  C   UNL A   1      41.767  30.774  35.058  1.00  0.00     0.074 A 
ATOM     57  C   UNL A   1      43.744  28.704  30.356  1.00  0.00     0.029 A 
ATOM     58  N   UNL A   1      42.603  27.233  31.571  1.00  0.00    -0.354 N 
ATOM     59  N   UNL A   1      42.302  30.025  34.129  1.00  0.00    -0.248 NA
ATOM     60  C   UNL A   1      41.920  30.188  36.388  1.00  0.00     0.031 C 
ATOM     61  C   UNL A   1      44.025  28.905  31.742  1.00  0.00     0.029 A 
ATOM     62  C   UNL A   1      43.273  28.011  32.491  1.00  0.00     0.049 A 
ATOM     63  H   UNL A   1      42.081  26.427  31.793  1.00  0.00     0.167 HD
ATOM     64  C   UNL A   1      42.695  28.830  34.674  1.00  0.00     0.074 A 
ATOM     65  C   UNL A   1      42.519  29.021  36.100  1.00  0.00     0.031 C 
ATOM     66  C   UNL A   1      43.063  27.753  33.914  1.00  0.00     0.037 A 
BRANCH  53  67
ATOM     67  C   UNL A   1      41.886  26.726  27.994  1.00  0.00     0.057 A 
ATOM     68  C   UNL A   1      41.993  27.468  26.808  1.00  0.00     0.134 A 
ATOM     69  C   UNL A   1      41.829  25.321  27.778  1.00  0.00     0.134 A 
ATOM     70  F   UNL A   1      41.983  28.807  26.833  1.00  0.00    -0.206 F 
ATOM     71  C   UNL A   1      42.088  26.869  25.535  1.00  0.00     0.040 A 
ATOM     72  C   UNL A   1      42.001  24.710  26.525  1.00  0.00     0.040 A 
ATOM     73  F   UNL A   1      41.535  24.452  28.757  1.00  0.00    -0.206 F 
ATOM     74  C   UNL A   1      42.122  25.487  25.391  1.00  0.00     0.006 A 
ENDBRANCH  53  67
BRANCH  54  75
ATOM     75  C   UNL A   1      39.893  32.642  35.588  1.00  0.00     0.057 A 
ATOM     76  C   UNL A   1      38.841  31.776  35.953  1.00  0.00     0.134 A 
ATOM     77  C   UNL A   1      39.946  33.864  36.261  1.00  0.00     0.134 A 
ATOM     78  F   UNL A   1      38.713  30.583  35.349  1.00  0.00    -0.206 F 
ATOM     79  C   UNL A   1      37.968  32.054  37.010  1.00  0.00     0.040 A 
ATOM     80  C   UNL A   1      39.063  34.165  37.315  1.00  0.00     0.040 A 
ATOM     81  F   UNL A   1      40.931  34.735  36.008  1.00  0.00    -0.206 F 
ATOM     82  C   UNL A   1      38.098  33.243  37.717  1.00  0.00     0.006 A 
ENDBRANCH  54  75
BRANCH  66  83
ATOM     83  C   UNL A   1      43.221  26.338  34.441  1.00  0.00     0.057 A 
ATOM     84  C   UNL A   1      42.183  25.572  34.996  1.00  0.00     0.134 A 
ATOM     85  C   UNL A   1      44.435  25.638  34.254  1.00  0.00     0.134 A 
ATOM     86  F   UNL A   1      40.938  26.052  35.116  1.00  0.00    -0.206 F 
ATOM     87  C   UNL A   1      42.358  24.243  35.406  1.00  0.00     0.040 A 
ATOM     88  C   UNL A   1      44.600  24.291  34.592  1.00  0.00     0.040 A 
ATOM     89  F   UNL A   1      45.506  26.229  33.701  1.00  0.00    -0.206 F 
ATOM     90  C   UNL A   1      43.566  23.593  35.194  1.00  0.00     0.006 A 
ENDBRANCH  66  83
ENDBRANCH  40  41
ENDBRANCH  33  35
ENDBRANCH  32  33
ENDBRANCH  31  32
ENDBRANCH  30  31
ENDBRANCH  29  30
ENDBRANCH  28  29
ENDBRANCH   1  28
TORSDOF 20
ENDMDL
MODEL 3
REMARK VINA RESULT:     -12.0      3.962      9.384
REMARK SMILES Cc1cccc(NC(=O)[C@H]2C=C[C@@H]([NH3+])C2)c1C(=O)OCCOCCOCCOC(=O)c1ccc(-c2c3nc(c(-c4c(F)cccc4F)c4ccc([nH]4)c(-c4c(F)cccc4F)c4nc(c(-c5c(F)cccc5F)c5ccc2[nH]5)C=C4)C=C3)cc1
REMARK SMILES IDX 23 1 22 2 21 3 20 4 19 5 17 6 18 7 16 8 1 9 2 10 3 11 4 12
REMARK SMILES IDX 6 13 5 14 7 15 8 16 9 18 10 19 11 20 15 21 12 22 13 23 14 24
REMARK SMILES IDX 24 28 25 29 26 30 27 31 28 32 29 33 30 34 31 35 32 36 84 37
REMARK SMILES IDX 33 38 83 39 34 40 35 41 36 42 77 43 37 44 82 45 76 46 78 47
REMARK SMILES IDX 38 48 81 49 75 50 74 51 39 53 65 54 48 55 64 56 49 57 52 58
REMARK SMILES IDX 63 59 79 60 50 61 51 62 62 64 80 65 53 66 40 67 41 68 46 69
REMARK SMILES IDX 42 70 43 71 45 72 47 73 44 74 66 75 67 76 72 77 68 78 69 79
REMARK SMILES IDX 71 80 73 81 70 82 54 83 55 84 60 85 56 86 57 87 59 88 61 89
REMARK SMILES IDX 58 90
REMARK H PARENT 7 17 14 25 14 26 14 27 78 52 52 63
REMARK Flexibility Score: inf
ROOT
ATOM      1  C   UNL A   1      35.900  23.126  23.191  1.00  0.00     0.188 C 
ENDROOT
BRANCH   1   2
ATOM      2  O   UNL A   1      34.512  23.417  22.902  1.00  0.00    -0.376 OA
BRANCH   2   3
ATOM      3  C   UNL A   1      33.886  24.718  22.954  1.00  0.00     0.202 C 
BRANCH   3   4
ATOM      4  C   UNL A   1      32.519  25.151  22.038  1.00  0.00     0.261 C 
BRANCH   4   5
ATOM      5  O   UNL A   1      31.185  26.105  22.462  1.00  0.00    -0.460 OA
BRANCH   5   6
ATOM      6  C   UNL A   1      30.515  26.539  23.661  1.00  0.00     0.340 C 
ATOM      7  O   UNL A   1      29.334  26.382  23.966  1.00  0.00    -0.246 OA
BRANCH   6   8
ATOM      8  C   UNL A   1      31.099  27.327  24.765  1.00  0.00     0.086 A 
ATOM      9  C   UNL A   1      30.871  29.358  23.255  1.00  0.00     0.045 C 
ATOM     10  C   UNL A   1      31.266  28.700  24.547  1.00  0.00    -0.034 A 
ATOM     11  C   UNL A   1      31.599  29.504  25.642  1.00  0.00     0.004 A 
ATOM     12  C   UNL A   1      31.778  28.964  26.915  1.00  0.00     0.002 A 
ATOM     13  C   UNL A   1      31.145  26.779  26.134  1.00  0.00     0.056 A 
ATOM     14  C   UNL A   1      31.563  27.612  27.151  1.00  0.00     0.027 A 
BRANCH  13  15
ATOM     15  N   UNL A   1      30.560  25.518  26.485  1.00  0.00    -0.325 N 
ATOM     16  C   UNL A   1      30.897  24.195  26.571  1.00  0.00     0.231 C 
ATOM     17  H   UNL A   1      29.619  25.642  26.746  1.00  0.00     0.169 HD
ATOM     18  O   UNL A   1      30.120  23.500  27.251  1.00  0.00    -0.274 OA
BRANCH  16  19
ATOM     19  C   UNL A   1      32.060  23.421  25.916  1.00  0.00     0.107 C 
ATOM     20  C   UNL A   1      33.416  23.589  26.522  1.00  0.00    -0.012 C 
ATOM     21  C   UNL A   1      31.919  21.913  25.678  1.00  0.00     0.087 C 
ATOM     22  C   UNL A   1      34.103  22.442  26.509  1.00  0.00     0.033 C 
ATOM     23  C   UNL A   1      33.316  21.307  25.939  1.00  0.00     0.205 C 
BRANCH  23  24
ATOM     24  N   UNL A   1      33.280  20.183  26.862  1.00  0.00    -0.352 N 
ATOM     25  H   UNL A   1      33.558  19.333  26.373  1.00  0.00     0.345 HD
ATOM     26  H   UNL A   1      32.333  20.072  27.226  1.00  0.00     0.345 HD
ATOM     27  H   UNL A   1      33.924  20.357  27.635  1.00  0.00     0.345 HD
ENDBRANCH  23  24
ENDBRANCH  16  19
ENDBRANCH  13  15
ENDBRANCH   6   8
ENDBRANCH   5   6
ENDBRANCH   4   5
ENDBRANCH   3   4
ENDBRANCH   2   3
ENDBRANCH   1   2
BRANCH   1  28
ATOM     28  C   UNL A   1      36.396  21.932  24.018  1.00  0.00     0.188 C 
BRANCH  28  29
ATOM     29  O   UNL A   1      37.739  22.113  24.428  1.00  0.00    -0.376 OA
BRANCH  29  30
ATOM     30  C   UNL A   1      38.000  21.850  25.801  1.00  0.00     0.202 C 
BRANCH  30  31
ATOM     31  C   UNL A   1      39.490  21.574  26.112  1.00  0.00     0.261 C 
BRANCH  31  32
ATOM     32  O   UNL A   1      40.028  22.554  27.038  1.00  0.00    -0.460 OA
BRANCH  32  33
ATOM     33  C   UNL A   1      40.889  23.505  26.545  1.00  0.00     0.338 C 
ATOM     34  O   UNL A   1      42.040  23.288  26.197  1.00  0.00    -0.246 OA
BRANCH  33  35
ATOM     35  C   UNL A   1      40.299  24.878  26.722  1.00  0.00     0.060 A 
ATOM     36  C   UNL A   1      40.777  26.096  26.208  1.00  0.00     0.016 A 
ATOM     37  C   UNL A   1      39.443  24.991  27.756  1.00  0.00     0.016 A 
ATOM     38  C   UNL A   1      40.519  27.378  26.873  1.00  0.00     0.010 A 
ATOM     39  C   UNL A   1      39.518  26.176  28.474  1.00  0.00     0.010 A 
ATOM     40  C   UNL A   1      39.922  27.469  28.132  1.00  0.00    -0.014 A 
BRANCH  40  41
ATOM     41  C   UNL A   1      39.838  28.734  29.154  1.00  0.00     0.031 A 
ATOM     42  C   UNL A   1      38.808  30.071  29.321  1.00  0.00     0.074 A 
ATOM     43  C   UNL A   1      40.835  28.742  30.071  1.00  0.00     0.049 A 
ATOM     44  N   UNL A   1      39.166  31.197  29.914  1.00  0.00    -0.248 NA
ATOM     45  C   UNL A   1      37.388  30.321  28.853  1.00  0.00     0.031 C 
ATOM     46  C   UNL A   1      40.978  29.584  31.254  1.00  0.00     0.029 A 
ATOM     47  N   UNL A   1      42.057  28.056  30.001  1.00  0.00    -0.354 N 
ATOM     48  C   UNL A   1      38.048  32.030  30.030  1.00  0.00     0.074 A 
ATOM     49  C   UNL A   1      37.085  31.573  29.125  1.00  0.00     0.031 C 
ATOM     50  C   UNL A   1      42.278  29.645  31.577  1.00  0.00     0.029 A 
ATOM     51  C   UNL A   1      43.012  28.928  30.552  1.00  0.00     0.049 A 
ATOM     52  H   UNL A   1      42.213  27.153  29.642  1.00  0.00     0.167 HD
ATOM     53  C   UNL A   1      37.882  32.983  30.981  1.00  0.00     0.037 A 
ATOM     54  C   UNL A   1      44.032  29.407  29.790  1.00  0.00     0.037 A 
ATOM     55  C   UNL A   1      39.173  33.384  31.463  1.00  0.00     0.049 A 
ATOM     56  C   UNL A   1      44.039  30.919  29.684  1.00  0.00     0.074 A 
ATOM     57  C   UNL A   1      39.910  33.109  32.591  1.00  0.00     0.029 A 
ATOM     58  N   UNL A   1      40.052  33.887  30.513  1.00  0.00    -0.354 N 
ATOM     59  N   UNL A   1      43.154  31.712  30.228  1.00  0.00    -0.248 NA
ATOM     60  C   UNL A   1      45.042  31.658  28.922  1.00  0.00     0.031 C 
ATOM     61  C   UNL A   1      41.283  33.266  32.230  1.00  0.00     0.029 A 
ATOM     62  C   UNL A   1      41.358  33.709  30.917  1.00  0.00     0.049 A 
ATOM     63  H   UNL A   1      39.780  34.311  29.667  1.00  0.00     0.167 HD
ATOM     64  C   UNL A   1      43.344  32.991  29.770  1.00  0.00     0.074 A 
ATOM     65  C   UNL A   1      44.589  32.918  29.033  1.00  0.00     0.031 C 
ATOM     66  C   UNL A   1      42.432  33.992  29.967  1.00  0.00     0.037 A 
BRANCH  53  67
ATOM     67  C   UNL A   1      36.515  33.477  31.457  1.00  0.00     0.057 A 
ATOM     68  C   UNL A   1      36.021  33.128  32.723  1.00  0.00     0.134 A 
ATOM     69  C   UNL A   1      35.585  34.214  30.671  1.00  0.00     0.134 A 
ATOM     70  F   UNL A   1      36.745  32.370  33.557  1.00  0.00    -0.206 F 
ATOM     71  C   UNL A   1      34.747  33.519  33.183  1.00  0.00     0.040 A 
ATOM     72  C   UNL A   1      34.347  34.675  31.145  1.00  0.00     0.040 A 
ATOM     73  F   UNL A   1      35.788  34.475  29.371  1.00  0.00    -0.206 F 
ATOM     74  C   UNL A   1      33.916  34.320  32.407  1.00  0.00     0.006 A 
ENDBRANCH  53  67
BRANCH  54  75
ATOM     75  C   UNL A   1      44.507  28.424  28.767  1.00  0.00     0.057 A 
ATOM     76  C   UNL A   1      45.234  27.297  29.205  1.00  0.00     0.134 A 
ATOM     77  C   UNL A   1      44.002  28.364  27.467  1.00  0.00     0.134 A 
ATOM     78  F   UNL A   1      45.761  27.276  30.441  1.00  0.00    -0.206 F 
ATOM     79  C   UNL A   1      45.345  26.129  28.443  1.00  0.00     0.040 A 
ATOM     80  C   UNL A   1      44.122  27.202  26.682  1.00  0.00     0.040 A 
ATOM     81  F   UNL A   1      43.268  29.370  26.977  1.00  0.00    -0.206 F 
ATOM     82  C   UNL A   1      44.760  26.068  27.185  1.00  0.00     0.006 A 
ENDBRANCH  54  75
BRANCH  66  83
ATOM     83  C   UNL A   1      42.446  35.328  29.244  1.00  0.00     0.057 A 
ATOM     84  C   UNL A   1      41.527  35.709  28.253  1.00  0.00     0.134 A 
ATOM     85  C   UNL A   1      43.329  36.353  29.656  1.00  0.00     0.134 A 
ATOM     86  F   UNL A   1      40.544  34.893  27.850  1.00  0.00    -0.206 F 
ATOM     87  C   UNL A   1      41.535  36.980  27.661  1.00  0.00     0.040 A 
ATOM     88  C   UNL A   1      43.299  37.646  29.124  1.00  0.00     0.040 A 
ATOM     89  F   UNL A   1      44.239  36.147  30.619  1.00  0.00    -0.206 F 
ATOM     90  C   UNL A   1      42.415  37.959  28.105  1.00  0.00     0.006 A 
ENDBRANCH  66  83
ENDBRANCH  40  41
ENDBRANCH  33  35
ENDBRANCH  32  33
ENDBRANCH  31  32
ENDBRANCH  30  31
ENDBRANCH  29  30
ENDBRANCH  28  29
ENDBRANCH   1  28
TORSDOF 20
ENDMDL
