MODEL 1
REMARK VINA RESULT:     -10.5      0.000      0.000
REMARK SMILES CCCc1nn(-c2ccc(OC)cc2)c2sc(C(=O)OCCOCCOCCOC(=O)c3ccc(-c4c5nc(c(-c6c(F)cccc6F)c6ccc([nH]6)c(-c6c(F)cccc6F)c6nc(c(-c7c(F)cccc7F)c7ccc4[nH]7)C=C6)C=C5)cc3)cc12
REMARK SMILES IDX 24 1 23 2 22 3 21 4 20 5 18 6 19 7 17 8 4 9 5 10 87 11 6 12
REMARK SMILES IDX 15 13 86 14 16 15 3 16 2 17 1 18 7 19 8 20 14 21 9 22 13 23
REMARK SMILES IDX 10 24 11 25 12 26 25 27 26 28 27 29 28 30 29 31 30 32 31 33
REMARK SMILES IDX 32 34 33 35 85 36 34 37 84 38 35 39 36 40 37 41 78 42 38 43
REMARK SMILES IDX 83 44 77 45 79 46 39 47 82 48 76 49 75 50 40 52 66 53 49 54
REMARK SMILES IDX 65 55 50 56 53 57 64 58 80 59 51 60 52 61 63 63 81 64 54 65
REMARK SMILES IDX 41 66 42 67 47 68 43 69 44 70 46 71 48 72 45 73 67 74 68 75
REMARK SMILES IDX 73 76 69 77 70 78 72 79 74 80 71 81 55 82 56 83 61 84 57 85
REMARK SMILES IDX 58 86 60 87 62 88 59 89
REMARK H PARENT 79 51 53 62
REMARK Flexibility Score: inf
ROOT
ATOM      1  C   UNL A   1      31.986  27.156  26.689  1.00  0.00     0.188 C 
ENDROOT
BRANCH   1   2
ATOM      2  O   UNL A   1      30.700  26.552  26.731  1.00  0.00    -0.376 OA
BRANCH   2   3
ATOM      3  C   UNL A   1      30.219  25.790  25.632  1.00  0.00     0.202 C 
BRANCH   3   4
ATOM      4  C   UNL A   1      30.532  26.175  24.172  1.00  0.00     0.261 C 
BRANCH   4   5
ATOM      5  O   UNL A   1      30.598  25.100  23.233  1.00  0.00    -0.459 OA
BRANCH   5   6
ATOM      6  C   UNL A   1      31.729  25.002  22.486  1.00  0.00     0.348 C 
ATOM      7  O   UNL A   1      31.956  25.647  21.464  1.00  0.00    -0.245 OA
BRANCH   6   8
ATOM      8  C   UNL A   1      32.702  24.172  23.165  1.00  0.00     0.115 A 
ATOM      9  C   UNL A   1      35.620  23.209  25.159  1.00  0.00     0.072 A 
ATOM     10  N   UNL A   1      35.607  21.899  25.523  1.00  0.00    -0.171 NA
ATOM     11  C   UNL A   1      34.497  23.476  24.380  1.00  0.00     0.036 A 
ATOM     12  N   UNL A   1      34.549  21.347  24.832  1.00  0.00    -0.223 N 
ATOM     13  C   UNL A   1      33.868  22.320  24.163  1.00  0.00     0.128 A 
ATOM     14  C   UNL A   1      33.871  24.582  23.815  1.00  0.00     0.040 A 
ATOM     15  S   UNL A   1      32.449  22.463  23.303  1.00  0.00    -0.108 S 
BRANCH   9  16
ATOM     16  C   UNL A   1      36.700  24.117  25.661  1.00  0.00     0.058 C 
BRANCH  16  17
ATOM     17  C   UNL A   1      37.815  23.437  26.470  1.00  0.00     0.003 C 
ATOM     18  C   UNL A   1      38.833  24.391  27.076  1.00  0.00     0.004 C 
ENDBRANCH  16  17
ENDBRANCH   9  16
BRANCH  12  19
ATOM     19  C   UNL A   1      34.195  19.979  24.897  1.00  0.00     0.066 A 
ATOM     20  C   UNL A   1      35.140  19.020  24.514  1.00  0.00     0.032 A 
ATOM     21  C   UNL A   1      32.893  19.587  25.219  1.00  0.00     0.032 A 
ATOM     22  C   UNL A   1      34.765  17.689  24.366  1.00  0.00     0.048 A 
ATOM     23  C   UNL A   1      32.519  18.243  25.045  1.00  0.00     0.048 A 
ATOM     24  C   UNL A   1      33.451  17.297  24.602  1.00  0.00     0.119 A 
BRANCH  24  25
ATOM     25  O   UNL A   1      33.225  15.974  24.349  1.00  0.00    -0.497 OA
ATOM     26  C   UNL A   1      32.733  15.181  25.417  1.00  0.00     0.278 C 
ENDBRANCH  24  25
ENDBRANCH  12  19
ENDBRANCH   6   8
ENDBRANCH   5   6
ENDBRANCH   4   5
ENDBRANCH   3   4
ENDBRANCH   2   3
ENDBRANCH   1   2
BRANCH   1  27
ATOM     27  C   UNL A   1      32.265  28.514  27.379  1.00  0.00     0.188 C 
BRANCH  27  28
ATOM     28  O   UNL A   1      33.608  28.939  27.310  1.00  0.00    -0.376 OA
BRANCH  28  29
ATOM     29  C   UNL A   1      33.954  30.316  27.314  1.00  0.00     0.202 C 
BRANCH  29  30
ATOM     30  C   UNL A   1      34.987  30.923  28.265  1.00  0.00     0.261 C 
BRANCH  30  31
ATOM     31  O   UNL A   1      36.330  30.810  27.848  1.00  0.00    -0.460 OA
BRANCH  31  32
ATOM     32  C   UNL A   1      37.162  30.341  28.797  1.00  0.00     0.338 C 
ATOM     33  O   UNL A   1      37.319  30.784  29.923  1.00  0.00    -0.246 OA
BRANCH  32  34
ATOM     34  C   UNL A   1      37.947  29.243  28.227  1.00  0.00     0.060 A 
ATOM     35  C   UNL A   1      38.345  28.275  29.146  1.00  0.00     0.016 A 
ATOM     36  C   UNL A   1      38.616  29.466  27.014  1.00  0.00     0.016 A 
ATOM     37  C   UNL A   1      39.623  27.799  29.024  1.00  0.00     0.010 A 
ATOM     38  C   UNL A   1      39.896  28.997  26.900  1.00  0.00     0.010 A 
ATOM     39  C   UNL A   1      40.412  28.281  27.973  1.00  0.00    -0.014 A 
BRANCH  39  40
ATOM     40  C   UNL A   1      41.817  27.973  28.028  1.00  0.00     0.031 A 
ATOM     41  C   UNL A   1      42.112  26.677  27.402  1.00  0.00     0.074 A 
ATOM     42  C   UNL A   1      42.714  28.815  28.573  1.00  0.00     0.049 A 
ATOM     43  N   UNL A   1      42.430  25.576  27.989  1.00  0.00    -0.248 NA
ATOM     44  C   UNL A   1      41.794  26.540  25.972  1.00  0.00     0.031 C 
ATOM     45  C   UNL A   1      42.519  30.218  28.951  1.00  0.00     0.029 A 
ATOM     46  N   UNL A   1      44.037  28.610  28.812  1.00  0.00    -0.354 N 
ATOM     47  C   UNL A   1      42.588  24.658  26.959  1.00  0.00     0.074 A 
ATOM     48  C   UNL A   1      41.973  25.233  25.793  1.00  0.00     0.031 C 
ATOM     49  C   UNL A   1      43.727  30.797  29.143  1.00  0.00     0.029 A 
ATOM     50  C   UNL A   1      44.753  29.774  29.044  1.00  0.00     0.049 A 
ATOM     51  H   UNL A   1      44.449  27.716  28.819  1.00  0.00     0.167 HD
ATOM     52  C   UNL A   1      43.506  23.665  27.067  1.00  0.00     0.037 A 
ATOM     53  C   UNL A   1      46.103  29.878  29.061  1.00  0.00     0.037 A 
ATOM     54  C   UNL A   1      43.906  23.473  28.438  1.00  0.00     0.049 A 
ATOM     55  C   UNL A   1      46.657  28.521  29.288  1.00  0.00     0.074 A 
ATOM     56  C   UNL A   1      43.325  22.979  29.585  1.00  0.00     0.029 A 
ATOM     57  N   UNL A   1      44.993  24.217  28.819  1.00  0.00    -0.354 N 
ATOM     58  N   UNL A   1      46.514  27.858  30.402  1.00  0.00    -0.248 NA
ATOM     59  C   UNL A   1      47.062  27.719  28.139  1.00  0.00     0.031 C 
ATOM     60  C   UNL A   1      43.961  23.656  30.667  1.00  0.00     0.029 A 
ATOM     61  C   UNL A   1      44.928  24.520  30.151  1.00  0.00     0.049 A 
ATOM     62  H   UNL A   1      45.720  24.494  28.217  1.00  0.00     0.167 HD
ATOM     63  C   UNL A   1      46.393  26.536  30.012  1.00  0.00     0.074 A 
ATOM     64  C   UNL A   1      46.909  26.494  28.650  1.00  0.00     0.031 C 
ATOM     65  C   UNL A   1      45.604  25.670  30.715  1.00  0.00     0.037 A 
BRANCH  52  66
ATOM     66  C   UNL A   1      44.402  23.254  25.923  1.00  0.00     0.057 A 
ATOM     67  C   UNL A   1      44.502  21.892  25.599  1.00  0.00     0.134 A 
ATOM     68  C   UNL A   1      45.392  24.081  25.347  1.00  0.00     0.134 A 
ATOM     69  F   UNL A   1      43.639  21.000  26.110  1.00  0.00    -0.206 F 
ATOM     70  C   UNL A   1      45.541  21.385  24.810  1.00  0.00     0.040 A 
ATOM     71  C   UNL A   1      46.399  23.593  24.514  1.00  0.00     0.040 A 
ATOM     72  F   UNL A   1      45.512  25.381  25.640  1.00  0.00    -0.206 F 
ATOM     73  C   UNL A   1      46.496  22.236  24.266  1.00  0.00     0.006 A 
ENDBRANCH  52  66
BRANCH  53  74
ATOM     74  C   UNL A   1      46.922  31.003  28.561  1.00  0.00     0.057 A 
ATOM     75  C   UNL A   1      47.054  31.260  27.190  1.00  0.00     0.134 A 
ATOM     76  C   UNL A   1      47.377  32.013  29.428  1.00  0.00     0.134 A 
ATOM     77  F   UNL A   1      46.605  30.376  26.287  1.00  0.00    -0.206 F 
ATOM     78  C   UNL A   1      47.596  32.459  26.709  1.00  0.00     0.040 A 
ATOM     79  C   UNL A   1      47.925  33.211  28.961  1.00  0.00     0.040 A 
ATOM     80  F   UNL A   1      47.224  31.905  30.755  1.00  0.00    -0.206 F 
ATOM     81  C   UNL A   1      48.024  33.443  27.596  1.00  0.00     0.006 A 
ENDBRANCH  53  74
BRANCH  65  82
ATOM     82  C   UNL A   1      45.266  26.047  32.128  1.00  0.00     0.057 A 
ATOM     83  C   UNL A   1      44.116  26.753  32.509  1.00  0.00     0.134 A 
ATOM     84  C   UNL A   1      46.098  25.587  33.154  1.00  0.00     0.134 A 
ATOM     85  F   UNL A   1      43.219  27.158  31.600  1.00  0.00    -0.206 F 
ATOM     86  C   UNL A   1      43.833  27.025  33.851  1.00  0.00     0.040 A 
ATOM     87  C   UNL A   1      45.809  25.820  34.500  1.00  0.00     0.040 A 
ATOM     88  F   UNL A   1      47.192  24.863  32.865  1.00  0.00    -0.206 F 
ATOM     89  C   UNL A   1      44.679  26.552  34.851  1.00  0.00     0.006 A 
ENDBRANCH  65  82
ENDBRANCH  39  40
ENDBRANCH  32  34
ENDBRANCH  31  32
ENDBRANCH  30  31
ENDBRANCH  29  30
ENDBRANCH  28  29
ENDBRANCH  27  28
ENDBRANCH   1  27
TORSDOF 21
ENDMDL
MODEL 2
REMARK VINA RESULT:     -10.3      1.998      6.061
REMARK SMILES CCCc1nn(-c2ccc(OC)cc2)c2sc(C(=O)OCCOCCOCCOC(=O)c3ccc(-c4c5nc(c(-c6c(F)cccc6F)c6ccc([nH]6)c(-c6c(F)cccc6F)c6nc(c(-c7c(F)cccc7F)c7ccc4[nH]7)C=C6)C=C5)cc3)cc12
REMARK SMILES IDX 24 1 23 2 22 3 21 4 20 5 18 6 19 7 17 8 4 9 5 10 87 11 6 12
REMARK SMILES IDX 15 13 86 14 16 15 3 16 2 17 1 18 7 19 8 20 14 21 9 22 13 23
REMARK SMILES IDX 10 24 11 25 12 26 25 27 26 28 27 29 28 30 29 31 30 32 31 33
REMARK SMILES IDX 32 34 33 35 85 36 34 37 84 38 35 39 36 40 37 41 78 42 38 43
REMARK SMILES IDX 83 44 77 45 79 46 39 47 82 48 76 49 75 50 40 52 66 53 49 54
REMARK SMILES IDX 65 55 50 56 53 57 64 58 80 59 51 60 52 61 63 63 81 64 54 65
REMARK SMILES IDX 41 66 42 67 47 68 43 69 44 70 46 71 48 72 45 73 67 74 68 75
REMARK SMILES IDX 73 76 69 77 70 78 72 79 74 80 71 81 55 82 56 83 61 84 57 85
REMARK SMILES IDX 58 86 60 87 62 88 59 89
REMARK H PARENT 79 51 53 62
REMARK Flexibility Score: inf
ROOT
ATOM      1  C   UNL A   1      33.139  27.983  25.393  1.00  0.00     0.188 C 
ENDROOT
BRANCH   1   2
ATOM      2  O   UNL A   1      34.074  27.912  24.324  1.00  0.00    -0.376 OA
BRANCH   2   3
ATOM      3  C   UNL A   1      33.772  28.480  23.056  1.00  0.00     0.202 C 
BRANCH   3   4
ATOM      4  C   UNL A   1      33.431  27.608  21.831  1.00  0.00     0.261 C 
BRANCH   4   5
ATOM      5  O   UNL A   1      33.894  26.256  21.866  1.00  0.00    -0.459 OA
BRANCH   5   6
ATOM      6  C   UNL A   1      33.041  25.324  22.368  1.00  0.00     0.348 C 
ATOM      7  O   UNL A   1      31.860  25.207  22.047  1.00  0.00    -0.245 OA
BRANCH   6   8
ATOM      8  C   UNL A   1      33.766  24.377  23.188  1.00  0.00     0.115 A 
ATOM      9  C   UNL A   1      36.124  23.053  25.659  1.00  0.00     0.072 A 
ATOM     10  N   UNL A   1      35.891  21.750  25.971  1.00  0.00    -0.171 NA
ATOM     11  C   UNL A   1      35.206  23.459  24.694  1.00  0.00     0.036 A 
ATOM     12  N   UNL A   1      34.927  21.335  25.078  1.00  0.00    -0.223 N 
ATOM     13  C   UNL A   1      34.501  22.389  24.326  1.00  0.00     0.128 A 
ATOM     14  C   UNL A   1      34.830  24.638  24.058  1.00  0.00     0.040 A 
ATOM     15  S   UNL A   1      33.296  22.709  23.221  1.00  0.00    -0.108 S 
BRANCH   9  16
ATOM     16  C   UNL A   1      37.186  23.821  26.383  1.00  0.00     0.058 C 
BRANCH  16  17
ATOM     17  C   UNL A   1      38.622  23.311  26.186  1.00  0.00     0.003 C 
ATOM     18  C   UNL A   1      38.728  21.850  25.776  1.00  0.00     0.004 C 
ENDBRANCH  16  17
ENDBRANCH   9  16
BRANCH  12  19
ATOM     19  C   UNL A   1      34.412  20.018  25.031  1.00  0.00     0.066 A 
ATOM     20  C   UNL A   1      35.270  18.972  24.675  1.00  0.00     0.032 A 
ATOM     21  C   UNL A   1      33.049  19.772  25.216  1.00  0.00     0.032 A 
ATOM     22  C   UNL A   1      34.759  17.705  24.417  1.00  0.00     0.048 A 
ATOM     23  C   UNL A   1      32.539  18.493  24.931  1.00  0.00     0.048 A 
ATOM     24  C   UNL A   1      33.392  17.463  24.515  1.00  0.00     0.119 A 
BRANCH  24  25
ATOM     25  O   UNL A   1      33.038  16.191  24.165  1.00  0.00    -0.497 OA
ATOM     26  C   UNL A   1      32.849  15.256  25.214  1.00  0.00     0.278 C 
ENDBRANCH  24  25
ENDBRANCH  12  19
ENDBRANCH   6   8
ENDBRANCH   5   6
ENDBRANCH   4   5
ENDBRANCH   3   4
ENDBRANCH   2   3
ENDBRANCH   1   2
BRANCH   1  27
ATOM     27  C   UNL A   1      31.882  28.882  25.308  1.00  0.00     0.188 C 
BRANCH  27  28
ATOM     28  O   UNL A   1      32.053  30.177  25.842  1.00  0.00    -0.376 OA
BRANCH  28  29
ATOM     29  C   UNL A   1      32.696  30.388  27.090  1.00  0.00     0.202 C 
BRANCH  29  30
ATOM     30  C   UNL A   1      34.096  30.992  27.224  1.00  0.00     0.261 C 
BRANCH  30  31
ATOM     31  O   UNL A   1      34.623  31.004  28.532  1.00  0.00    -0.460 OA
BRANCH  31  32
ATOM     32  C   UNL A   1      35.772  31.696  28.655  1.00  0.00     0.338 C 
ATOM     33  O   UNL A   1      36.146  32.630  27.966  1.00  0.00    -0.246 OA
BRANCH  32  34
ATOM     34  C   UNL A   1      36.576  31.079  29.713  1.00  0.00     0.060 A 
ATOM     35  C   UNL A   1      37.725  31.787  30.058  1.00  0.00     0.016 A 
ATOM     36  C   UNL A   1      36.431  29.702  29.939  1.00  0.00     0.016 A 
ATOM     37  C   UNL A   1      38.860  31.052  30.274  1.00  0.00     0.010 A 
ATOM     38  C   UNL A   1      37.568  28.969  30.145  1.00  0.00     0.010 A 
ATOM     39  C   UNL A   1      38.774  29.658  30.178  1.00  0.00    -0.014 A 
BRANCH  39  40
ATOM     40  C   UNL A   1      40.020  28.937  30.142  1.00  0.00     0.031 A 
ATOM     41  C   UNL A   1      40.665  28.906  31.462  1.00  0.00     0.074 A 
ATOM     42  C   UNL A   1      40.480  28.357  29.019  1.00  0.00     0.049 A 
ATOM     43  N   UNL A   1      41.710  29.558  31.840  1.00  0.00    -0.248 NA
ATOM     44  C   UNL A   1      39.925  28.247  32.550  1.00  0.00     0.031 C 
ATOM     45  C   UNL A   1      39.756  28.118  27.766  1.00  0.00     0.029 A 
ATOM     46  N   UNL A   1      41.683  27.761  28.801  1.00  0.00    -0.354 N 
ATOM     47  C   UNL A   1      41.894  29.191  33.167  1.00  0.00     0.074 A 
ATOM     48  C   UNL A   1      40.667  28.582  33.604  1.00  0.00     0.031 C 
ATOM     49  C   UNL A   1      40.447  27.227  27.018  1.00  0.00     0.029 A 
ATOM     50  C   UNL A   1      41.715  26.955  27.673  1.00  0.00     0.049 A 
ATOM     51  H   UNL A   1      42.460  27.890  29.390  1.00  0.00     0.167 HD
ATOM     52  C   UNL A   1      43.147  29.108  33.682  1.00  0.00     0.037 A 
ATOM     53  C   UNL A   1      42.690  26.067  27.368  1.00  0.00     0.037 A 
ATOM     54  C   UNL A   1      44.095  29.819  32.862  1.00  0.00     0.049 A 
ATOM     55  C   UNL A   1      43.902  26.448  28.132  1.00  0.00     0.074 A 
ATOM     56  C   UNL A   1      44.367  31.137  32.571  1.00  0.00     0.029 A 
ATOM     57  N   UNL A   1      44.684  29.055  31.888  1.00  0.00    -0.354 N 
ATOM     58  N   UNL A   1      44.581  27.540  27.917  1.00  0.00    -0.248 NA
ATOM     59  C   UNL A   1      44.167  25.798  29.411  1.00  0.00     0.031 C 
ATOM     60  C   UNL A   1      44.929  31.139  31.260  1.00  0.00     0.029 A 
ATOM     61  C   UNL A   1      45.008  29.823  30.803  1.00  0.00     0.049 A 
ATOM     62  H   UNL A   1      44.852  28.088  31.960  1.00  0.00     0.167 HD
ATOM     63  C   UNL A   1      45.019  27.936  29.168  1.00  0.00     0.074 A 
ATOM     64  C   UNL A   1      44.889  26.752  30.007  1.00  0.00     0.031 C 
ATOM     65  C   UNL A   1      45.149  29.261  29.475  1.00  0.00     0.037 A 
BRANCH  52  66
ATOM     66  C   UNL A   1      43.582  27.982  34.589  1.00  0.00     0.057 A 
ATOM     67  C   UNL A   1      43.524  26.665  34.107  1.00  0.00     0.134 A 
ATOM     68  C   UNL A   1      43.748  28.101  35.987  1.00  0.00     0.134 A 
ATOM     69  F   UNL A   1      43.337  26.421  32.801  1.00  0.00    -0.206 F 
ATOM     70  C   UNL A   1      43.570  25.554  34.957  1.00  0.00     0.040 A 
ATOM     71  C   UNL A   1      43.849  26.999  36.837  1.00  0.00     0.040 A 
ATOM     72  F   UNL A   1      43.710  29.277  36.625  1.00  0.00    -0.206 F 
ATOM     73  C   UNL A   1      43.729  25.719  36.328  1.00  0.00     0.006 A 
ENDBRANCH  52  66
BRANCH  53  74
ATOM     74  C   UNL A   1      42.529  24.741  26.732  1.00  0.00     0.057 A 
ATOM     75  C   UNL A   1      43.072  24.464  25.471  1.00  0.00     0.134 A 
ATOM     76  C   UNL A   1      42.066  23.634  27.465  1.00  0.00     0.134 A 
ATOM     77  F   UNL A   1      43.582  25.451  24.719  1.00  0.00    -0.206 F 
ATOM     78  C   UNL A   1      43.162  23.157  24.973  1.00  0.00     0.040 A 
ATOM     79  C   UNL A   1      42.145  22.326  26.978  1.00  0.00     0.040 A 
ATOM     80  F   UNL A   1      41.603  23.777  28.715  1.00  0.00    -0.206 F 
ATOM     81  C   UNL A   1      42.706  22.083  25.732  1.00  0.00     0.006 A 
ENDBRANCH  53  74
BRANCH  65  82
ATOM     82  C   UNL A   1      45.260  30.221  28.327  1.00  0.00     0.057 A 
ATOM     83  C   UNL A   1      44.172  30.867  27.723  1.00  0.00     0.134 A 
ATOM     84  C   UNL A   1      46.538  30.577  27.881  1.00  0.00     0.134 A 
ATOM     85  F   UNL A   1      42.919  30.652  28.142  1.00  0.00    -0.206 F 
ATOM     86  C   UNL A   1      44.351  31.794  26.690  1.00  0.00     0.040 A 
ATOM     87  C   UNL A   1      46.732  31.527  26.877  1.00  0.00     0.040 A 
ATOM     88  F   UNL A   1      47.628  30.033  28.448  1.00  0.00    -0.206 F 
ATOM     89  C   UNL A   1      45.635  32.130  26.270  1.00  0.00     0.006 A 
ENDBRANCH  65  82
ENDBRANCH  39  40
ENDBRANCH  32  34
ENDBRANCH  31  32
ENDBRANCH  30  31
ENDBRANCH  29  30
ENDBRANCH  28  29
ENDBRANCH  27  28
ENDBRANCH   1  27
TORSDOF 21
ENDMDL
MODEL 3
REMARK VINA RESULT:     -10.1      1.532      2.849
REMARK SMILES CCCc1nn(-c2ccc(OC)cc2)c2sc(C(=O)OCCOCCOCCOC(=O)c3ccc(-c4c5nc(c(-c6c(F)cccc6F)c6ccc([nH]6)c(-c6c(F)cccc6F)c6nc(c(-c7c(F)cccc7F)c7ccc4[nH]7)C=C6)C=C5)cc3)cc12
REMARK SMILES IDX 24 1 23 2 22 3 21 4 20 5 18 6 19 7 17 8 4 9 5 10 87 11 6 12
REMARK SMILES IDX 15 13 86 14 16 15 3 16 2 17 1 18 7 19 8 20 14 21 9 22 13 23
REMARK SMILES IDX 10 24 11 25 12 26 25 27 26 28 27 29 28 30 29 31 30 32 31 33
REMARK SMILES IDX 32 34 33 35 85 36 34 37 84 38 35 39 36 40 37 41 78 42 38 43
REMARK SMILES IDX 83 44 77 45 79 46 39 47 82 48 76 49 75 50 40 52 66 53 49 54
REMARK SMILES IDX 65 55 50 56 53 57 64 58 80 59 51 60 52 61 63 63 81 64 54 65
REMARK SMILES IDX 41 66 42 67 47 68 43 69 44 70 46 71 48 72 45 73 67 74 68 75
REMARK SMILES IDX 73 76 69 77 70 78 72 79 74 80 71 81 55 82 56 83 61 84 57 85
REMARK SMILES IDX 58 86 60 87 62 88 59 89
REMARK H PARENT 79 51 53 62
REMARK Flexibility Score: inf
ROOT
ATOM      1  C   UNL A   1      31.781  28.401  25.077  1.00  0.00     0.188 C 
ENDROOT
BRANCH   1   2
ATOM      2  O   UNL A   1      30.674  28.750  24.257  1.00  0.00    -0.376 OA
BRANCH   2   3
ATOM      3  C   UNL A   1      30.209  27.863  23.248  1.00  0.00     0.202 C 
BRANCH   3   4
ATOM      4  C   UNL A   1      31.165  27.217  22.225  1.00  0.00     0.261 C 
BRANCH   4   5
ATOM      5  O   UNL A   1      31.501  25.846  22.448  1.00  0.00    -0.459 OA
BRANCH   5   6
ATOM      6  C   UNL A   1      32.723  25.432  22.020  1.00  0.00     0.348 C 
ATOM      7  O   UNL A   1      33.444  26.056  21.245  1.00  0.00    -0.245 OA
BRANCH   6   8
ATOM      8  C   UNL A   1      33.130  24.249  22.748  1.00  0.00     0.115 A 
ATOM      9  C   UNL A   1      33.126  20.817  24.029  1.00  0.00     0.072 A 
ATOM     10  N   UNL A   1      34.299  20.469  24.622  1.00  0.00    -0.171 NA
ATOM     11  C   UNL A   1      33.206  22.141  23.604  1.00  0.00     0.036 A 
ATOM     12  N   UNL A   1      35.028  21.638  24.686  1.00  0.00    -0.223 N 
ATOM     13  C   UNL A   1      34.364  22.638  24.041  1.00  0.00     0.128 A 
ATOM     14  C   UNL A   1      32.445  23.035  22.858  1.00  0.00     0.040 A 
ATOM     15  S   UNL A   1      34.662  24.204  23.557  1.00  0.00    -0.108 S 
BRANCH   9  16
ATOM     16  C   UNL A   1      32.038  19.801  23.863  1.00  0.00     0.058 C 
BRANCH  16  17
ATOM     17  C   UNL A   1      32.502  18.396  23.450  1.00  0.00     0.003 C 
ATOM     18  C   UNL A   1      32.299  18.066  21.978  1.00  0.00     0.004 C 
ENDBRANCH  16  17
ENDBRANCH   9  16
BRANCH  12  19
ATOM     19  C   UNL A   1      36.313  21.733  25.267  1.00  0.00     0.066 A 
ATOM     20  C   UNL A   1      36.679  22.925  25.902  1.00  0.00     0.032 A 
ATOM     21  C   UNL A   1      37.251  20.709  25.110  1.00  0.00     0.032 A 
ATOM     22  C   UNL A   1      37.995  23.131  26.299  1.00  0.00     0.048 A 
ATOM     23  C   UNL A   1      38.585  20.935  25.495  1.00  0.00     0.048 A 
ATOM     24  C   UNL A   1      38.961  22.153  26.074  1.00  0.00     0.119 A 
BRANCH  24  25
ATOM     25  O   UNL A   1      40.216  22.531  26.457  1.00  0.00    -0.497 OA
ATOM     26  C   UNL A   1      40.767  21.894  27.598  1.00  0.00     0.278 C 
ENDBRANCH  24  25
ENDBRANCH  12  19
ENDBRANCH   6   8
ENDBRANCH   5   6
ENDBRANCH   4   5
ENDBRANCH   3   4
ENDBRANCH   2   3
ENDBRANCH   1   2
BRANCH   1  27
ATOM     27  C   UNL A   1      32.186  29.263  26.298  1.00  0.00     0.188 C 
BRANCH  27  28
ATOM     28  O   UNL A   1      33.399  29.967  26.140  1.00  0.00    -0.376 OA
BRANCH  28  29
ATOM     29  C   UNL A   1      34.508  29.739  26.997  1.00  0.00     0.202 C 
BRANCH  29  30
ATOM     30  C   UNL A   1      34.969  30.737  28.061  1.00  0.00     0.261 C 
BRANCH  30  31
ATOM     31  O   UNL A   1      36.360  30.965  28.112  1.00  0.00    -0.460 OA
BRANCH  31  32
ATOM     32  C   UNL A   1      36.981  30.341  29.130  1.00  0.00     0.338 C 
ATOM     33  O   UNL A   1      36.958  30.652  30.309  1.00  0.00    -0.246 OA
BRANCH  32  34
ATOM     34  C   UNL A   1      37.795  29.253  28.582  1.00  0.00     0.060 A 
ATOM     35  C   UNL A   1      38.296  28.365  29.532  1.00  0.00     0.016 A 
ATOM     36  C   UNL A   1      38.384  29.435  27.322  1.00  0.00     0.016 A 
ATOM     37  C   UNL A   1      39.589  27.951  29.366  1.00  0.00     0.010 A 
ATOM     38  C   UNL A   1      39.681  29.028  27.163  1.00  0.00     0.010 A 
ATOM     39  C   UNL A   1      40.292  28.408  28.245  1.00  0.00    -0.014 A 
BRANCH  39  40
ATOM     40  C   UNL A   1      41.714  28.179  28.238  1.00  0.00     0.031 A 
ATOM     41  C   UNL A   1      42.053  26.904  27.590  1.00  0.00     0.074 A 
ATOM     42  C   UNL A   1      42.585  29.066  28.751  1.00  0.00     0.049 A 
ATOM     43  N   UNL A   1      42.457  25.819  28.155  1.00  0.00    -0.248 NA
ATOM     44  C   UNL A   1      41.682  26.757  26.174  1.00  0.00     0.031 C 
ATOM     45  C   UNL A   1      42.329  30.455  29.148  1.00  0.00     0.029 A 
ATOM     46  N   UNL A   1      43.926  28.934  28.932  1.00  0.00    -0.354 N 
ATOM     47  C   UNL A   1      42.621  24.917  27.112  1.00  0.00     0.074 A 
ATOM     48  C   UNL A   1      41.926  25.463  25.977  1.00  0.00     0.031 C 
ATOM     49  C   UNL A   1      43.510  31.099  29.292  1.00  0.00     0.029 A 
ATOM     50  C   UNL A   1      44.587  30.135  29.142  1.00  0.00     0.049 A 
ATOM     51  H   UNL A   1      44.388  28.065  28.914  1.00  0.00     0.167 HD
ATOM     52  C   UNL A   1      43.597  23.976  27.174  1.00  0.00     0.037 A 
ATOM     53  C   UNL A   1      45.928  30.314  29.102  1.00  0.00     0.037 A 
ATOM     54  C   UNL A   1      44.065  23.800  28.525  1.00  0.00     0.049 A 
ATOM     55  C   UNL A   1      46.565  28.989  29.296  1.00  0.00     0.074 A 
ATOM     56  C   UNL A   1      43.562  23.268  29.692  1.00  0.00     0.029 A 
ATOM     57  N   UNL A   1      45.124  24.601  28.864  1.00  0.00    -0.354 N 
ATOM     58  N   UNL A   1      46.507  28.313  30.409  1.00  0.00    -0.248 NA
ATOM     59  C   UNL A   1      46.965  28.217  28.125  1.00  0.00     0.031 C 
ATOM     60  C   UNL A   1      44.205  23.974  30.751  1.00  0.00     0.029 A 
ATOM     61  C   UNL A   1      45.099  24.893  30.201  1.00  0.00     0.049 A 
ATOM     62  H   UNL A   1      45.809  24.921  28.235  1.00  0.00     0.167 HD
ATOM     63  C   UNL A   1      46.443  26.988  30.015  1.00  0.00     0.074 A 
ATOM     64  C   UNL A   1      46.902  26.983  28.632  1.00  0.00     0.031 C 
ATOM     65  C   UNL A   1      45.734  26.076  30.744  1.00  0.00     0.037 A 
BRANCH  52  66
ATOM     66  C   UNL A   1      44.464  23.622  25.990  1.00  0.00     0.057 A 
ATOM     67  C   UNL A   1      44.554  22.277  25.596  1.00  0.00     0.134 A 
ATOM     68  C   UNL A   1      45.441  24.476  25.431  1.00  0.00     0.134 A 
ATOM     69  F   UNL A   1      43.702  21.362  26.083  1.00  0.00    -0.206 F 
ATOM     70  C   UNL A   1      45.572  21.809  24.758  1.00  0.00     0.040 A 
ATOM     71  C   UNL A   1      46.428  24.029  24.551  1.00  0.00     0.040 A 
ATOM     72  F   UNL A   1      45.571  25.760  25.785  1.00  0.00    -0.206 F 
ATOM     73  C   UNL A   1      46.516  22.686  24.235  1.00  0.00     0.006 A 
ENDBRANCH  52  66
BRANCH  53  74
ATOM     74  C   UNL A   1      46.661  31.486  28.576  1.00  0.00     0.057 A 
ATOM     75  C   UNL A   1      46.620  31.826  27.219  1.00  0.00     0.134 A 
ATOM     76  C   UNL A   1      47.203  32.453  29.442  1.00  0.00     0.134 A 
ATOM     77  F   UNL A   1      46.077  30.986  26.324  1.00  0.00    -0.206 F 
ATOM     78  C   UNL A   1      47.079  33.064  26.750  1.00  0.00     0.040 A 
ATOM     79  C   UNL A   1      47.670  33.689  28.987  1.00  0.00     0.040 A 
ATOM     80  F   UNL A   1      47.216  32.263  30.769  1.00  0.00    -0.206 F 
ATOM     81  C   UNL A   1      47.597  34.003  27.637  1.00  0.00     0.006 A 
ENDBRANCH  53  74
BRANCH  65  82
ATOM     82  C   UNL A   1      45.437  26.427  32.173  1.00  0.00     0.057 A 
ATOM     83  C   UNL A   1      44.275  27.083  32.605  1.00  0.00     0.134 A 
ATOM     84  C   UNL A   1      46.326  25.990  33.161  1.00  0.00     0.134 A 
ATOM     85  F   UNL A   1      43.329  27.461  31.736  1.00  0.00    -0.206 F 
ATOM     86  C   UNL A   1      44.034  27.330  33.961  1.00  0.00     0.040 A 
ATOM     87  C   UNL A   1      46.079  26.199  34.520  1.00  0.00     0.040 A 
ATOM     88  F   UNL A   1      47.435  25.313  32.823  1.00  0.00    -0.206 F 
ATOM     89  C   UNL A   1      44.936  26.882  34.922  1.00  0.00     0.006 A 
ENDBRANCH  65  82
ENDBRANCH  39  40
ENDBRANCH  32  34
ENDBRANCH  31  32
ENDBRANCH  30  31
ENDBRANCH  29  30
ENDBRANCH  28  29
ENDBRANCH  27  28
ENDBRANCH   1  27
TORSDOF 21
ENDMDL
