MODEL 1
REMARK VINA RESULT:      -9.0      0.000      0.000
REMARK SMILES CC[C@@](C)(NC(=O)N(C)CCO)C(=O)OCCOCCOCCOC(=O)c1ccc(-c2c3nc(c(-c4c(F)cccc4F)c4ccc([nH]4)c(-c4c(F)cccc4F)c4nc(c(-c5c(F)cccc5F)c5ccc2[nH]5)C=C4)C=C3)cc1
REMARK SMILES IDX 18 1 17 2 16 3 15 4 13 5 14 6 3 7 4 8 2 9 1 10 5 11 6 12
REMARK SMILES IDX 7 14 8 15 9 16 10 17 11 18 12 19 19 21 20 22 21 23 22 24
REMARK SMILES IDX 23 25 24 26 25 27 26 28 27 29 28 30 80 31 29 32 79 33 30 34
REMARK SMILES IDX 31 35 32 36 73 37 33 38 78 39 72 40 74 41 34 42 77 43 71 44
REMARK SMILES IDX 70 45 35 47 61 48 44 49 60 50 45 51 48 52 59 53 75 54 46 55
REMARK SMILES IDX 47 56 58 58 76 59 49 60 36 61 37 62 42 63 38 64 39 65 41 66
REMARK SMILES IDX 43 67 40 68 62 69 63 70 68 71 64 72 65 73 67 74 69 75 66 76
REMARK SMILES IDX 50 77 51 78 56 79 52 80 53 81 55 82 57 83 54 84
REMARK H PARENT 5 13 12 20 74 46 48 57
REMARK Flexibility Score: inf
ROOT
ATOM      1  O   UNL A   1      38.733  23.163  26.295  1.00  0.00    -0.376 OA
ENDROOT
BRANCH   1   2
ATOM      2  C   UNL A   1      37.570  23.978  26.098  1.00  0.00     0.202 C 
BRANCH   2   3
ATOM      3  C   UNL A   1      36.400  23.274  25.416  1.00  0.00     0.261 C 
BRANCH   3   4
ATOM      4  O   UNL A   1      35.205  23.499  26.196  1.00  0.00    -0.462 OA
BRANCH   4   5
ATOM      5  C   UNL A   1      34.274  24.291  25.625  1.00  0.00     0.331 C 
ATOM      6  O   UNL A   1      34.473  25.476  25.369  1.00  0.00    -0.249 OA
BRANCH   5   7
ATOM      7  C   UNL A   1      32.946  23.561  25.280  1.00  0.00     0.136 C 
ATOM      8  C   UNL A   1      32.349  23.102  26.620  1.00  0.00     0.047 C 
BRANCH   7   9
ATOM      9  C   UNL A   1      32.000  24.636  24.611  1.00  0.00     0.037 C 
ATOM     10  C   UNL A   1      30.596  24.252  24.173  1.00  0.00     0.007 C 
ENDBRANCH   7   9
BRANCH   7  11
ATOM     11  N   UNL A   1      32.825  22.420  24.303  1.00  0.00    -0.322 N 
ATOM     12  C   UNL A   1      32.867  21.106  24.100  1.00  0.00     0.318 C 
ATOM     13  H   UNL A   1      32.629  22.828  23.428  1.00  0.00     0.166 HD
ATOM     14  O   UNL A   1      32.256  20.746  23.085  1.00  0.00    -0.249 OA
BRANCH  12  15
ATOM     15  N   UNL A   1      33.587  20.217  24.815  1.00  0.00    -0.326 N 
ATOM     16  C   UNL A   1      35.020  20.178  24.973  1.00  0.00     0.148 C 
BRANCH  15  17
ATOM     17  C   UNL A   1      32.837  19.101  25.429  1.00  0.00     0.149 C 
BRANCH  17  18
ATOM     18  C   UNL A   1      33.349  17.710  25.043  1.00  0.00     0.177 C 
BRANCH  18  19
ATOM     19  O   UNL A   1      33.345  16.806  26.143  1.00  0.00    -0.395 OA
ATOM     20  H   UNL A   1      32.709  16.094  25.973  1.00  0.00     0.210 HD
ENDBRANCH  18  19
ENDBRANCH  17  18
ENDBRANCH  15  17
ENDBRANCH  12  15
ENDBRANCH   7  11
ENDBRANCH   5   7
ENDBRANCH   4   5
ENDBRANCH   3   4
ENDBRANCH   2   3
ENDBRANCH   1   2
BRANCH   1  21
ATOM     21  C   UNL A   1      38.650  21.825  25.817  1.00  0.00     0.188 C 
BRANCH  21  22
ATOM     22  C   UNL A   1      39.898  20.958  25.998  1.00  0.00     0.188 C 
BRANCH  22  23
ATOM     23  O   UNL A   1      40.482  20.947  27.298  1.00  0.00    -0.376 OA
BRANCH  23  24
ATOM     24  C   UNL A   1      41.865  20.565  27.300  1.00  0.00     0.202 C 
BRANCH  24  25
ATOM     25  C   UNL A   1      42.633  21.136  26.101  1.00  0.00     0.261 C 
BRANCH  25  26
ATOM     26  O   UNL A   1      43.485  22.206  26.539  1.00  0.00    -0.460 OA
BRANCH  26  27
ATOM     27  C   UNL A   1      43.398  23.356  25.825  1.00  0.00     0.338 C 
ATOM     28  O   UNL A   1      43.556  23.490  24.625  1.00  0.00    -0.246 OA
BRANCH  27  29
ATOM     29  C   UNL A   1      42.863  24.417  26.715  1.00  0.00     0.060 A 
ATOM     30  C   UNL A   1      43.504  25.664  26.716  1.00  0.00     0.016 A 
ATOM     31  C   UNL A   1      41.691  24.231  27.460  1.00  0.00     0.016 A 
ATOM     32  C   UNL A   1      42.998  26.712  27.488  1.00  0.00     0.010 A 
ATOM     33  C   UNL A   1      41.181  25.279  28.225  1.00  0.00     0.010 A 
ATOM     34  C   UNL A   1      41.851  26.513  28.269  1.00  0.00    -0.014 A 
BRANCH  34  35
ATOM     35  C   UNL A   1      41.468  27.498  29.306  1.00  0.00     0.031 A 
ATOM     36  C   UNL A   1      42.223  27.468  30.606  1.00  0.00     0.074 A 
ATOM     37  C   UNL A   1      40.465  28.370  29.116  1.00  0.00     0.049 A 
ATOM     38  N   UNL A   1      42.029  28.158  31.698  1.00  0.00    -0.248 NA
ATOM     39  C   UNL A   1      43.341  26.512  30.686  1.00  0.00     0.031 C 
ATOM     40  C   UNL A   1      39.673  28.503  27.895  1.00  0.00     0.029 A 
ATOM     41  N   UNL A   1      39.930  29.305  29.968  1.00  0.00    -0.354 N 
ATOM     42  C   UNL A   1      42.995  27.717  32.594  1.00  0.00     0.074 A 
ATOM     43  C   UNL A   1      43.747  26.673  31.934  1.00  0.00     0.031 C 
ATOM     44  C   UNL A   1      38.743  29.457  28.081  1.00  0.00     0.029 A 
ATOM     45  C   UNL A   1      38.858  29.981  29.441  1.00  0.00     0.049 A 
ATOM     46  H   UNL A   1      40.283  29.473  30.872  1.00  0.00     0.167 HD
ATOM     47  C   UNL A   1      43.244  28.151  33.851  1.00  0.00     0.037 A 
ATOM     48  C   UNL A   1      38.054  30.902  30.008  1.00  0.00     0.037 A 
ATOM     49  C   UNL A   1      42.489  29.184  34.506  1.00  0.00     0.049 A 
ATOM     50  C   UNL A   1      38.314  31.331  31.430  1.00  0.00     0.074 A 
ATOM     51  C   UNL A   1      42.664  29.709  35.773  1.00  0.00     0.029 A 
ATOM     52  N   UNL A   1      41.408  29.844  33.940  1.00  0.00    -0.354 N 
ATOM     53  N   UNL A   1      39.251  30.934  32.258  1.00  0.00    -0.248 NA
ATOM     54  C   UNL A   1      37.404  32.339  31.995  1.00  0.00     0.031 C 
ATOM     55  C   UNL A   1      41.659  30.659  35.992  1.00  0.00     0.029 A 
ATOM     56  C   UNL A   1      40.892  30.759  34.841  1.00  0.00     0.049 A 
ATOM     57  H   UNL A   1      41.060  29.684  33.034  1.00  0.00     0.167 HD
ATOM     58  C   UNL A   1      39.066  31.667  33.426  1.00  0.00     0.074 A 
ATOM     59  C   UNL A   1      37.931  32.537  33.195  1.00  0.00     0.031 C 
ATOM     60  C   UNL A   1      39.769  31.626  34.584  1.00  0.00     0.037 A 
BRANCH  47  61
ATOM     61  C   UNL A   1      44.363  27.487  34.595  1.00  0.00     0.057 A 
ATOM     62  C   UNL A   1      44.167  26.310  35.330  1.00  0.00     0.134 A 
ATOM     63  C   UNL A   1      45.653  28.033  34.581  1.00  0.00     0.134 A 
ATOM     64  F   UNL A   1      42.950  25.749  35.403  1.00  0.00    -0.206 F 
ATOM     65  C   UNL A   1      45.205  25.716  36.048  1.00  0.00     0.040 A 
ATOM     66  C   UNL A   1      46.707  27.432  35.272  1.00  0.00     0.040 A 
ATOM     67  F   UNL A   1      45.909  29.159  33.898  1.00  0.00    -0.206 F 
ATOM     68  C   UNL A   1      46.482  26.274  36.015  1.00  0.00     0.006 A 
ENDBRANCH  47  61
BRANCH  48  69
ATOM     69  C   UNL A   1      36.928  31.490  29.238  1.00  0.00     0.057 A 
ATOM     70  C   UNL A   1      37.015  32.777  28.695  1.00  0.00     0.134 A 
ATOM     71  C   UNL A   1      35.726  30.796  29.054  1.00  0.00     0.134 A 
ATOM     72  F   UNL A   1      38.131  33.504  28.858  1.00  0.00    -0.206 F 
ATOM     73  C   UNL A   1      35.944  33.360  28.014  1.00  0.00     0.040 A 
ATOM     74  C   UNL A   1      34.656  31.357  28.355  1.00  0.00     0.040 A 
ATOM     75  F   UNL A   1      35.576  29.559  29.550  1.00  0.00    -0.206 F 
ATOM     76  C   UNL A   1      34.761  32.647  27.839  1.00  0.00     0.006 A 
ENDBRANCH  48  69
BRANCH  60  77
ATOM     77  C   UNL A   1      39.365  32.578  35.671  1.00  0.00     0.057 A 
ATOM     78  C   UNL A   1      38.442  32.223  36.662  1.00  0.00     0.134 A 
ATOM     79  C   UNL A   1      39.947  33.850  35.752  1.00  0.00     0.134 A 
ATOM     80  F   UNL A   1      37.842  31.023  36.634  1.00  0.00    -0.206 F 
ATOM     81  C   UNL A   1      38.094  33.109  37.683  1.00  0.00     0.040 A 
ATOM     82  C   UNL A   1      39.628  34.734  36.782  1.00  0.00     0.040 A 
ATOM     83  F   UNL A   1      40.848  34.247  34.840  1.00  0.00    -0.206 F 
ATOM     84  C   UNL A   1      38.694  34.367  37.750  1.00  0.00     0.006 A 
ENDBRANCH  60  77
ENDBRANCH  34  35
ENDBRANCH  27  29
ENDBRANCH  26  27
ENDBRANCH  25  26
ENDBRANCH  24  25
ENDBRANCH  23  24
ENDBRANCH  22  23
ENDBRANCH  21  22
ENDBRANCH   1  21
TORSDOF 23
ENDMDL
MODEL 2
REMARK VINA RESULT:      -8.9      1.538      2.816
REMARK SMILES CC[C@@](C)(NC(=O)N(C)CCO)C(=O)OCCOCCOCCOC(=O)c1ccc(-c2c3nc(c(-c4c(F)cccc4F)c4ccc([nH]4)c(-c4c(F)cccc4F)c4nc(c(-c5c(F)cccc5F)c5ccc2[nH]5)C=C4)C=C3)cc1
REMARK SMILES IDX 18 1 17 2 16 3 15 4 13 5 14 6 3 7 4 8 2 9 1 10 5 11 6 12
REMARK SMILES IDX 7 14 8 15 9 16 10 17 11 18 12 19 19 21 20 22 21 23 22 24
REMARK SMILES IDX 23 25 24 26 25 27 26 28 27 29 28 30 80 31 29 32 79 33 30 34
REMARK SMILES IDX 31 35 32 36 73 37 33 38 78 39 72 40 74 41 34 42 77 43 71 44
REMARK SMILES IDX 70 45 35 47 61 48 44 49 60 50 45 51 48 52 59 53 75 54 46 55
REMARK SMILES IDX 47 56 58 58 76 59 49 60 36 61 37 62 42 63 38 64 39 65 41 66
REMARK SMILES IDX 43 67 40 68 62 69 63 70 68 71 64 72 65 73 67 74 69 75 66 76
REMARK SMILES IDX 50 77 51 78 56 79 52 80 53 81 55 82 57 83 54 84
REMARK H PARENT 5 13 12 20 74 46 48 57
REMARK Flexibility Score: inf
ROOT
ATOM      1  O   UNL A   1      38.665  23.260  26.524  1.00  0.00    -0.376 OA
ENDROOT
BRANCH   1   2
ATOM      2  C   UNL A   1      37.435  23.719  25.948  1.00  0.00     0.202 C 
BRANCH   2   3
ATOM      3  C   UNL A   1      37.060  23.058  24.624  1.00  0.00     0.261 C 
BRANCH   3   4
ATOM      4  O   UNL A   1      35.684  22.624  24.694  1.00  0.00    -0.462 OA
BRANCH   4   5
ATOM      5  C   UNL A   1      34.809  23.329  23.948  1.00  0.00     0.331 C 
ATOM      6  O   UNL A   1      34.874  23.389  22.722  1.00  0.00    -0.249 OA
BRANCH   5   7
ATOM      7  C   UNL A   1      33.687  24.020  24.772  1.00  0.00     0.136 C 
ATOM      8  C   UNL A   1      32.362  23.640  24.092  1.00  0.00     0.047 C 
BRANCH   7   9
ATOM      9  C   UNL A   1      33.743  23.396  26.223  1.00  0.00     0.037 C 
ATOM     10  C   UNL A   1      32.459  23.149  26.999  1.00  0.00     0.007 C 
ENDBRANCH   7   9
BRANCH   7  11
ATOM     11  N   UNL A   1      33.639  25.492  25.090  1.00  0.00    -0.322 N 
ATOM     12  C   UNL A   1      32.906  26.537  25.465  1.00  0.00     0.318 C 
ATOM     13  H   UNL A   1      34.556  25.829  24.965  1.00  0.00     0.166 HD
ATOM     14  O   UNL A   1      33.574  27.455  25.958  1.00  0.00    -0.249 OA
BRANCH  12  15
ATOM     15  N   UNL A   1      31.585  26.698  25.243  1.00  0.00    -0.326 N 
ATOM     16  C   UNL A   1      30.496  26.072  25.953  1.00  0.00     0.148 C 
BRANCH  15  17
ATOM     17  C   UNL A   1      31.206  27.536  24.086  1.00  0.00     0.149 C 
BRANCH  17  18
ATOM     18  C   UNL A   1      31.004  26.756  22.784  1.00  0.00     0.177 C 
BRANCH  18  19
ATOM     19  O   UNL A   1      30.880  27.612  21.653  1.00  0.00    -0.395 OA
ATOM     20  H   UNL A   1      31.542  27.366  20.988  1.00  0.00     0.210 HD
ENDBRANCH  18  19
ENDBRANCH  17  18
ENDBRANCH  15  17
ENDBRANCH  12  15
ENDBRANCH   7  11
ENDBRANCH   5   7
ENDBRANCH   4   5
ENDBRANCH   3   4
ENDBRANCH   2   3
ENDBRANCH   1   2
BRANCH   1  21
ATOM     21  C   UNL A   1      39.211  22.068  25.972  1.00  0.00     0.188 C 
BRANCH  21  22
ATOM     22  C   UNL A   1      40.289  21.365  26.800  1.00  0.00     0.188 C 
BRANCH  22  23
ATOM     23  O   UNL A   1      41.071  20.383  26.124  1.00  0.00    -0.376 OA
BRANCH  23  24
ATOM     24  C   UNL A   1      42.443  20.358  26.542  1.00  0.00     0.202 C 
BRANCH  24  25
ATOM     25  C   UNL A   1      43.335  21.264  25.684  1.00  0.00     0.261 C 
BRANCH  25  26
ATOM     26  O   UNL A   1      43.804  22.368  26.473  1.00  0.00    -0.460 OA
BRANCH  26  27
ATOM     27  C   UNL A   1      43.845  23.566  25.840  1.00  0.00     0.338 C 
ATOM     28  O   UNL A   1      44.146  23.774  24.678  1.00  0.00    -0.246 OA
BRANCH  27  29
ATOM     29  C   UNL A   1      43.254  24.590  26.738  1.00  0.00     0.060 A 
ATOM     30  C   UNL A   1      43.803  25.880  26.723  1.00  0.00     0.016 A 
ATOM     31  C   UNL A   1      42.116  24.322  27.510  1.00  0.00     0.016 A 
ATOM     32  C   UNL A   1      43.239  26.892  27.503  1.00  0.00     0.010 A 
ATOM     33  C   UNL A   1      41.548  25.334  28.283  1.00  0.00     0.010 A 
ATOM     34  C   UNL A   1      42.128  26.613  28.310  1.00  0.00    -0.014 A 
BRANCH  34  35
ATOM     35  C   UNL A   1      41.697  27.572  29.352  1.00  0.00     0.031 A 
ATOM     36  C   UNL A   1      42.423  27.540  30.669  1.00  0.00     0.074 A 
ATOM     37  C   UNL A   1      40.677  28.422  29.153  1.00  0.00     0.049 A 
ATOM     38  N   UNL A   1      42.188  28.208  31.767  1.00  0.00    -0.248 NA
ATOM     39  C   UNL A   1      43.563  26.611  30.759  1.00  0.00     0.031 C 
ATOM     40  C   UNL A   1      39.910  28.554  27.916  1.00  0.00     0.029 A 
ATOM     41  N   UNL A   1      40.100  29.330  30.007  1.00  0.00    -0.354 N 
ATOM     42  C   UNL A   1      43.144  27.777  32.677  1.00  0.00     0.074 A 
ATOM     43  C   UNL A   1      43.937  26.762  32.019  1.00  0.00     0.031 C 
ATOM     44  C   UNL A   1      38.951  29.482  28.096  1.00  0.00     0.029 A 
ATOM     45  C   UNL A   1      39.023  29.987  29.466  1.00  0.00     0.049 A 
ATOM     46  H   UNL A   1      40.429  29.492  30.921  1.00  0.00     0.167 HD
ATOM     47  C   UNL A   1      43.354  28.197  33.946  1.00  0.00     0.037 A 
ATOM     48  C   UNL A   1      38.184  30.879  30.028  1.00  0.00     0.037 A 
ATOM     49  C   UNL A   1      42.559  29.201  34.599  1.00  0.00     0.049 A 
ATOM     50  C   UNL A   1      38.401  31.292  31.462  1.00  0.00     0.074 A 
ATOM     51  C   UNL A   1      42.692  29.710  35.878  1.00  0.00     0.029 A 
ATOM     52  N   UNL A   1      41.475  29.843  34.019  1.00  0.00    -0.354 N 
ATOM     53  N   UNL A   1      39.330  30.906  32.305  1.00  0.00    -0.248 NA
ATOM     54  C   UNL A   1      37.454  32.268  32.022  1.00  0.00     0.031 C 
ATOM     55  C   UNL A   1      41.660  30.631  36.088  1.00  0.00     0.029 A 
ATOM     56  C   UNL A   1      40.916  30.731  34.922  1.00  0.00     0.049 A 
ATOM     57  H   UNL A   1      41.152  29.689  33.103  1.00  0.00     0.167 HD
ATOM     58  C   UNL A   1      39.100  31.615  33.479  1.00  0.00     0.074 A 
ATOM     59  C   UNL A   1      37.949  32.460  33.236  1.00  0.00     0.031 C 
ATOM     60  C   UNL A   1      39.778  31.573  34.652  1.00  0.00     0.037 A 
BRANCH  47  61
ATOM     61  C   UNL A   1      44.473  27.549  34.705  1.00  0.00     0.057 A 
ATOM     62  C   UNL A   1      45.768  28.084  34.713  1.00  0.00     0.134 A 
ATOM     63  C   UNL A   1      44.255  26.373  35.433  1.00  0.00     0.134 A 
ATOM     64  F   UNL A   1      46.048  29.196  34.017  1.00  0.00    -0.206 F 
ATOM     65  C   UNL A   1      46.813  27.457  35.393  1.00  0.00     0.040 A 
ATOM     66  C   UNL A   1      45.285  25.751  36.141  1.00  0.00     0.040 A 
ATOM     67  F   UNL A   1      43.038  25.806  35.465  1.00  0.00    -0.206 F 
ATOM     68  C   UNL A   1      46.571  26.290  36.115  1.00  0.00     0.006 A 
ENDBRANCH  47  61
BRANCH  48  69
ATOM     69  C   UNL A   1      37.061  31.451  29.242  1.00  0.00     0.057 A 
ATOM     70  C   UNL A   1      37.125  32.752  28.728  1.00  0.00     0.134 A 
ATOM     71  C   UNL A   1      35.884  30.727  29.013  1.00  0.00     0.134 A 
ATOM     72  F   UNL A   1      38.215  33.506  28.935  1.00  0.00    -0.206 F 
ATOM     73  C   UNL A   1      36.054  33.318  28.032  1.00  0.00     0.040 A 
ATOM     74  C   UNL A   1      34.816  31.272  28.299  1.00  0.00     0.040 A 
ATOM     75  F   UNL A   1      35.758  29.476  29.480  1.00  0.00    -0.206 F 
ATOM     76  C   UNL A   1      34.897  32.575  27.813  1.00  0.00     0.006 A 
ENDBRANCH  48  69
BRANCH  60  77
ATOM     77  C   UNL A   1      39.326  32.498  35.744  1.00  0.00     0.057 A 
ATOM     78  C   UNL A   1      38.395  32.103  36.712  1.00  0.00     0.134 A 
ATOM     79  C   UNL A   1      39.870  33.784  35.854  1.00  0.00     0.134 A 
ATOM     80  F   UNL A   1      37.830  30.887  36.656  1.00  0.00    -0.206 F 
ATOM     81  C   UNL A   1      38.002  32.964  37.738  1.00  0.00     0.040 A 
ATOM     82  C   UNL A   1      39.506  34.644  36.890  1.00  0.00     0.040 A 
ATOM     83  F   UNL A   1      40.776  34.220  34.966  1.00  0.00    -0.206 F 
ATOM     84  C   UNL A   1      38.564  34.237  37.834  1.00  0.00     0.006 A 
ENDBRANCH  60  77
ENDBRANCH  34  35
ENDBRANCH  27  29
ENDBRANCH  26  27
ENDBRANCH  25  26
ENDBRANCH  24  25
ENDBRANCH  23  24
ENDBRANCH  22  23
ENDBRANCH  21  22
ENDBRANCH   1  21
TORSDOF 23
ENDMDL
MODEL 3
REMARK VINA RESULT:      -8.9      1.240      2.764
REMARK SMILES CC[C@@](C)(NC(=O)N(C)CCO)C(=O)OCCOCCOCCOC(=O)c1ccc(-c2c3nc(c(-c4c(F)cccc4F)c4ccc([nH]4)c(-c4c(F)cccc4F)c4nc(c(-c5c(F)cccc5F)c5ccc2[nH]5)C=C4)C=C3)cc1
REMARK SMILES IDX 18 1 17 2 16 3 15 4 13 5 14 6 3 7 4 8 2 9 1 10 5 11 6 12
REMARK SMILES IDX 7 14 8 15 9 16 10 17 11 18 12 19 19 21 20 22 21 23 22 24
REMARK SMILES IDX 23 25 24 26 25 27 26 28 27 29 28 30 80 31 29 32 79 33 30 34
REMARK SMILES IDX 31 35 32 36 73 37 33 38 78 39 72 40 74 41 34 42 77 43 71 44
REMARK SMILES IDX 70 45 35 47 61 48 44 49 60 50 45 51 48 52 59 53 75 54 46 55
REMARK SMILES IDX 47 56 58 58 76 59 49 60 36 61 37 62 42 63 38 64 39 65 41 66
REMARK SMILES IDX 43 67 40 68 62 69 63 70 68 71 64 72 65 73 67 74 69 75 66 76
REMARK SMILES IDX 50 77 51 78 56 79 52 80 53 81 55 82 57 83 54 84
REMARK H PARENT 5 13 12 20 74 46 48 57
REMARK Flexibility Score: inf
ROOT
ATOM      1  O   UNL A   1      38.689  21.950  26.314  1.00  0.00    -0.376 OA
ENDROOT
BRANCH   1   2
ATOM      2  C   UNL A   1      37.771  21.888  25.216  1.00  0.00     0.202 C 
BRANCH   2   3
ATOM      3  C   UNL A   1      36.655  20.858  25.368  1.00  0.00     0.261 C 
BRANCH   3   4
ATOM      4  O   UNL A   1      35.559  21.227  24.502  1.00  0.00    -0.462 OA
BRANCH   4   5
ATOM      5  C   UNL A   1      34.515  21.832  25.106  1.00  0.00     0.331 C 
ATOM      6  O   UNL A   1      34.588  22.325  26.229  1.00  0.00    -0.249 OA
BRANCH   5   7
ATOM      7  C   UNL A   1      33.228  21.889  24.237  1.00  0.00     0.136 C 
ATOM      8  C   UNL A   1      32.793  20.431  24.020  1.00  0.00     0.047 C 
BRANCH   7   9
ATOM      9  C   UNL A   1      32.138  22.652  25.092  1.00  0.00     0.037 C 
ATOM     10  C   UNL A   1      30.949  23.305  24.407  1.00  0.00     0.007 C 
ENDBRANCH   7   9
BRANCH   7  11
ATOM     11  N   UNL A   1      33.116  22.608  22.917  1.00  0.00    -0.322 N 
ATOM     12  C   UNL A   1      33.393  23.696  22.205  1.00  0.00     0.318 C 
ATOM     13  H   UNL A   1      32.618  22.006  22.318  1.00  0.00     0.166 HD
ATOM     14  O   UNL A   1      33.369  23.503  20.982  1.00  0.00    -0.249 OA
BRANCH  12  15
ATOM     15  N   UNL A   1      33.564  24.942  22.694  1.00  0.00    -0.326 N 
ATOM     16  C   UNL A   1      34.185  25.313  23.943  1.00  0.00     0.148 C 
BRANCH  15  17
ATOM     17  C   UNL A   1      32.970  26.047  21.914  1.00  0.00     0.149 C 
BRANCH  17  18
ATOM     18  C   UNL A   1      33.345  27.444  22.416  1.00  0.00     0.177 C 
BRANCH  18  19
ATOM     19  O   UNL A   1      34.050  28.202  21.438  1.00  0.00    -0.395 OA
ATOM     20  H   UNL A   1      33.514  28.965  21.172  1.00  0.00     0.210 HD
ENDBRANCH  18  19
ENDBRANCH  17  18
ENDBRANCH  15  17
ENDBRANCH  12  15
ENDBRANCH   7  11
ENDBRANCH   5   7
ENDBRANCH   4   5
ENDBRANCH   3   4
ENDBRANCH   2   3
ENDBRANCH   1   2
BRANCH   1  21
ATOM     21  C   UNL A   1      40.068  21.825  25.988  1.00  0.00     0.188 C 
BRANCH  21  22
ATOM     22  C   UNL A   1      40.732  20.489  26.330  1.00  0.00     0.188 C 
BRANCH  22  23
ATOM     23  O   UNL A   1      41.804  20.077  25.485  1.00  0.00    -0.376 OA
BRANCH  23  24
ATOM     24  C   UNL A   1      43.090  20.159  26.113  1.00  0.00     0.202 C 
BRANCH  24  25
ATOM     25  C   UNL A   1      43.970  21.262  25.510  1.00  0.00     0.261 C 
BRANCH  25  26
ATOM     26  O   UNL A   1      43.894  22.440  26.328  1.00  0.00    -0.460 OA
BRANCH  26  27
ATOM     27  C   UNL A   1      43.766  23.612  25.657  1.00  0.00     0.338 C 
ATOM     28  O   UNL A   1      43.920  23.796  24.463  1.00  0.00    -0.246 OA
BRANCH  27  29
ATOM     29  C   UNL A   1      43.194  24.620  26.585  1.00  0.00     0.060 A 
ATOM     30  C   UNL A   1      43.789  25.889  26.631  1.00  0.00     0.016 A 
ATOM     31  C   UNL A   1      42.032  24.364  27.324  1.00  0.00     0.016 A 
ATOM     32  C   UNL A   1      43.247  26.890  27.440  1.00  0.00     0.010 A 
ATOM     33  C   UNL A   1      41.485  25.365  28.126  1.00  0.00     0.010 A 
ATOM     34  C   UNL A   1      42.110  26.620  28.214  1.00  0.00    -0.014 A 
BRANCH  34  35
ATOM     35  C   UNL A   1      41.693  27.552  29.286  1.00  0.00     0.031 A 
ATOM     36  C   UNL A   1      42.433  27.485  30.593  1.00  0.00     0.074 A 
ATOM     37  C   UNL A   1      40.672  28.410  29.119  1.00  0.00     0.049 A 
ATOM     38  N   UNL A   1      42.211  28.125  31.711  1.00  0.00    -0.248 NA
ATOM     39  C   UNL A   1      43.572  26.551  30.647  1.00  0.00     0.031 C 
ATOM     40  C   UNL A   1      39.893  28.576  27.895  1.00  0.00     0.029 A 
ATOM     41  N   UNL A   1      40.108  29.296  30.003  1.00  0.00    -0.354 N 
ATOM     42  C   UNL A   1      43.176  27.668  32.599  1.00  0.00     0.074 A 
ATOM     43  C   UNL A   1      43.959  26.669  31.906  1.00  0.00     0.031 C 
ATOM     44  C   UNL A   1      38.939  29.501  28.110  1.00  0.00     0.029 A 
ATOM     45  C   UNL A   1      39.026  29.970  29.492  1.00  0.00     0.049 A 
ATOM     46  H   UNL A   1      40.446  29.435  30.918  1.00  0.00     0.167 HD
ATOM     47  C   UNL A   1      43.400  28.054  33.876  1.00  0.00     0.037 A 
ATOM     48  C   UNL A   1      38.196  30.849  30.086  1.00  0.00     0.037 A 
ATOM     49  C   UNL A   1      42.615  29.042  34.564  1.00  0.00     0.049 A 
ATOM     50  C   UNL A   1      38.429  31.225  31.527  1.00  0.00     0.074 A 
ATOM     51  C   UNL A   1      42.764  29.517  35.854  1.00  0.00     0.029 A 
ATOM     52  N   UNL A   1      41.527  29.702  34.013  1.00  0.00    -0.354 N 
ATOM     53  N   UNL A   1      39.366  30.814  32.350  1.00  0.00    -0.248 NA
ATOM     54  C   UNL A   1      37.491  32.188  32.122  1.00  0.00     0.031 C 
ATOM     55  C   UNL A   1      41.736  30.435  36.099  1.00  0.00     0.029 A 
ATOM     56  C   UNL A   1      40.980  30.567  34.944  1.00  0.00     0.049 A 
ATOM     57  H   UNL A   1      41.193  29.572  33.096  1.00  0.00     0.167 HD
ATOM     58  C   UNL A   1      39.150  31.493  33.545  1.00  0.00     0.074 A 
ATOM     59  C   UNL A   1      38.000  32.347  33.336  1.00  0.00     0.031 C 
ATOM     60  C   UNL A   1      39.841  31.419  34.709  1.00  0.00     0.037 A 
BRANCH  47  61
ATOM     61  C   UNL A   1      44.526  27.384  34.606  1.00  0.00     0.057 A 
ATOM     62  C   UNL A   1      44.334  26.206  35.340  1.00  0.00     0.134 A 
ATOM     63  C   UNL A   1      45.817  27.926  34.579  1.00  0.00     0.134 A 
ATOM     64  F   UNL A   1      43.115  25.650  35.425  1.00  0.00    -0.206 F 
ATOM     65  C   UNL A   1      45.378  25.606  36.045  1.00  0.00     0.040 A 
ATOM     66  C   UNL A   1      46.877  27.319  35.257  1.00  0.00     0.040 A 
ATOM     67  F   UNL A   1      46.070  29.053  33.896  1.00  0.00    -0.206 F 
ATOM     68  C   UNL A   1      46.656  26.161  35.999  1.00  0.00     0.006 A 
ENDBRANCH  47  61
BRANCH  48  69
ATOM     69  C   UNL A   1      37.066  31.444  29.327  1.00  0.00     0.057 A 
ATOM     70  C   UNL A   1      35.917  30.699  29.036  1.00  0.00     0.134 A 
ATOM     71  C   UNL A   1      37.117  32.758  28.846  1.00  0.00     0.134 A 
ATOM     72  F   UNL A   1      35.817  29.426  29.447  1.00  0.00    -0.206 F 
ATOM     73  C   UNL A   1      34.871  31.230  28.278  1.00  0.00     0.040 A 
ATOM     74  C   UNL A   1      36.069  33.310  28.108  1.00  0.00     0.040 A 
ATOM     75  F   UNL A   1      38.190  33.526  29.089  1.00  0.00    -0.206 F 
ATOM     76  C   UNL A   1      34.944  32.542  27.816  1.00  0.00     0.006 A 
ENDBRANCH  48  69
BRANCH  60  77
ATOM     77  C   UNL A   1      39.404  32.316  35.829  1.00  0.00     0.057 A 
ATOM     78  C   UNL A   1      39.921  33.607  35.991  1.00  0.00     0.134 A 
ATOM     79  C   UNL A   1      38.414  31.897  36.728  1.00  0.00     0.134 A 
ATOM     80  F   UNL A   1      40.878  34.064  35.169  1.00  0.00    -0.206 F 
ATOM     81  C   UNL A   1      39.486  34.441  37.021  1.00  0.00     0.040 A 
ATOM     82  C   UNL A   1      37.952  32.731  37.746  1.00  0.00     0.040 A 
ATOM     83  F   UNL A   1      37.868  30.676  36.620  1.00  0.00    -0.206 F 
ATOM     84  C   UNL A   1      38.492  34.007  37.898  1.00  0.00     0.006 A 
ENDBRANCH  60  77
ENDBRANCH  34  35
ENDBRANCH  27  29
ENDBRANCH  26  27
ENDBRANCH  25  26
ENDBRANCH  24  25
ENDBRANCH  23  24
ENDBRANCH  22  23
ENDBRANCH  21  22
ENDBRANCH   1  21
TORSDOF 23
ENDMDL
