MODEL 1
REMARK VINA RESULT:     -10.5      0.000      0.000
REMARK SMILES C[C@@H]1CC([NH2+][C@@](C)(C(=O)OCCOCCOCCOC(=O)c2ccc(-c3c4nc(c(-c5c(F)cccc5F)c5ccc([nH]5)c(-c5c(F)cccc5F)c5nc(c(-c6c(F)cccc6F)c6ccc3[nH]6)C=C5)C=C4)cc2)C(F)(F)F)C[C@@H](C)C1
REMARK SMILES IDX 14 1 13 2 12 3 11 4 10 5 8 6 9 7 6 8 7 9 5 10 4 13 1 14 2 15
REMARK SMILES IDX 3 16 83 17 81 18 80 19 82 20 76 21 77 22 78 23 79 24 15 25
REMARK SMILES IDX 16 26 17 27 18 28 19 29 20 30 21 31 22 32 23 33 75 34 24 35
REMARK SMILES IDX 74 36 25 37 26 38 27 39 68 40 28 41 73 42 67 43 69 44 29 45
REMARK SMILES IDX 72 46 66 47 65 48 30 50 56 51 39 52 55 53 40 54 43 55 54 56
REMARK SMILES IDX 70 57 41 58 42 59 53 61 71 62 44 63 31 64 32 65 37 66 33 67
REMARK SMILES IDX 34 68 36 69 38 70 35 71 57 72 58 73 63 74 59 75 60 76 62 77
REMARK SMILES IDX 64 78 61 79 45 80 46 81 51 82 47 83 48 84 50 85 52 86 49 87
REMARK H PARENT 5 11 5 12 69 49 43 60
REMARK Flexibility Score: inf
ROOT
ATOM      1  C   UNL A   1      41.054  20.847  27.325  1.00  0.00     0.188 C 
ENDROOT
BRANCH   1   2
ATOM      2  O   UNL A   1      39.791  21.495  27.251  1.00  0.00    -0.376 OA
BRANCH   2   3
ATOM      3  C   UNL A   1      39.208  21.782  25.991  1.00  0.00     0.202 C 
BRANCH   3   4
ATOM      4  C   UNL A   1      37.844  22.489  25.890  1.00  0.00     0.261 C 
BRANCH   4   5
ATOM      5  O   UNL A   1      36.785  21.793  25.208  1.00  0.00    -0.458 OA
BRANCH   5   6
ATOM      6  C   UNL A   1      35.525  22.018  25.689  1.00  0.00     0.377 C 
ATOM      7  O   UNL A   1      35.165  21.645  26.800  1.00  0.00    -0.244 OA
BRANCH   6   8
ATOM      8  C   UNL A   1      34.579  22.671  24.651  1.00  0.00     0.287 C 
ATOM      9  C   UNL A   1      35.496  22.948  23.450  1.00  0.00     0.103 C 
BRANCH   8  10
ATOM     10  N   UNL A   1      33.960  23.936  25.207  1.00  0.00    -0.322 N 
ATOM     11  H   UNL A   1      33.186  23.647  25.806  1.00  0.00     0.347 HD
ATOM     12  H   UNL A   1      34.748  24.405  25.651  1.00  0.00     0.347 HD
BRANCH  10  13
ATOM     13  C   UNL A   1      33.429  24.958  24.296  1.00  0.00     0.184 C 
ATOM     14  C   UNL A   1      30.670  24.145  26.193  1.00  0.00     0.008 C 
ATOM     15  C   UNL A   1      30.958  25.255  25.182  1.00  0.00    -0.008 C 
ATOM     16  C   UNL A   1      31.905  24.781  24.055  1.00  0.00     0.068 C 
ATOM     17  C   UNL A   1      31.412  26.559  25.874  1.00  0.00     0.007 C 
ATOM     18  C   UNL A   1      32.924  26.616  26.118  1.00  0.00    -0.008 C 
ATOM     19  C   UNL A   1      33.640  26.393  24.782  1.00  0.00     0.068 C 
ATOM     20  C   UNL A   1      33.380  27.922  26.757  1.00  0.00     0.008 C 
ENDBRANCH  10  13
ENDBRANCH   8  10
BRANCH   8  21
ATOM     21  C   UNL A   1      33.562  21.553  24.312  1.00  0.00     0.455 C 
ATOM     22  F   UNL A   1      32.540  21.514  25.203  1.00  0.00    -0.164 F 
ATOM     23  F   UNL A   1      33.002  21.764  23.091  1.00  0.00    -0.164 F 
ATOM     24  F   UNL A   1      34.107  20.319  24.252  1.00  0.00    -0.164 F 
ENDBRANCH   8  21
ENDBRANCH   6   8
ENDBRANCH   5   6
ENDBRANCH   4   5
ENDBRANCH   3   4
ENDBRANCH   2   3
ENDBRANCH   1   2
BRANCH   1  25
ATOM     25  C   UNL A   1      41.324  19.574  26.500  1.00  0.00     0.188 C 
BRANCH  25  26
ATOM     26  O   UNL A   1      42.141  19.780  25.375  1.00  0.00    -0.376 OA
BRANCH  26  27
ATOM     27  C   UNL A   1      43.514  20.047  25.588  1.00  0.00     0.202 C 
BRANCH  27  28
ATOM     28  C   UNL A   1      44.079  21.482  25.681  1.00  0.00     0.261 C 
BRANCH  28  29
ATOM     29  O   UNL A   1      43.205  22.582  25.384  1.00  0.00    -0.460 OA
BRANCH  29  30
ATOM     30  C   UNL A   1      43.767  23.791  25.153  1.00  0.00     0.338 C 
ATOM     31  O   UNL A   1      44.534  24.083  24.247  1.00  0.00    -0.246 OA
BRANCH  30  32
ATOM     32  C   UNL A   1      43.141  24.777  26.064  1.00  0.00     0.060 A 
ATOM     33  C   UNL A   1      43.641  26.088  26.108  1.00  0.00     0.016 A 
ATOM     34  C   UNL A   1      42.058  24.414  26.866  1.00  0.00     0.016 A 
ATOM     35  C   UNL A   1      43.073  27.031  26.970  1.00  0.00     0.010 A 
ATOM     36  C   UNL A   1      41.509  25.352  27.750  1.00  0.00     0.010 A 
ATOM     37  C   UNL A   1      42.031  26.657  27.828  1.00  0.00    -0.014 A 
BRANCH  37  38
ATOM     38  C   UNL A   1      41.612  27.551  28.938  1.00  0.00     0.031 A 
ATOM     39  C   UNL A   1      42.347  27.453  30.248  1.00  0.00     0.074 A 
ATOM     40  C   UNL A   1      40.602  28.429  28.804  1.00  0.00     0.049 A 
ATOM     41  N   UNL A   1      42.104  28.044  31.390  1.00  0.00    -0.248 NA
ATOM     42  C   UNL A   1      43.515  26.558  30.271  1.00  0.00     0.031 C 
ATOM     43  C   UNL A   1      39.842  28.668  27.581  1.00  0.00     0.029 A 
ATOM     44  N   UNL A   1      40.032  29.275  29.727  1.00  0.00    -0.354 N 
ATOM     45  C   UNL A   1      43.077  27.584  32.268  1.00  0.00     0.074 A 
ATOM     46  C   UNL A   1      43.897  26.644  31.535  1.00  0.00     0.031 C 
ATOM     47  C   UNL A   1      38.887  29.583  27.833  1.00  0.00     0.029 A 
ATOM     48  C   UNL A   1      38.947  29.965  29.244  1.00  0.00     0.049 A 
ATOM     49  H   UNL A   1      40.370  29.375  30.646  1.00  0.00     0.167 HD
ATOM     50  C   UNL A   1      43.274  27.917  33.566  1.00  0.00     0.037 A 
ATOM     51  C   UNL A   1      38.083  30.785  29.877  1.00  0.00     0.037 A 
ATOM     52  C   UNL A   1      42.456  28.847  34.298  1.00  0.00     0.049 A 
ATOM     53  C   UNL A   1      38.268  31.071  31.347  1.00  0.00     0.074 A 
ATOM     54  C   UNL A   1      42.585  29.259  35.613  1.00  0.00     0.029 A 
ATOM     55  N   UNL A   1      41.348  29.501  33.781  1.00  0.00    -0.354 N 
ATOM     56  N   UNL A   1      39.200  30.647  32.166  1.00  0.00    -0.248 NA
ATOM     57  C   UNL A   1      37.276  31.953  31.982  1.00  0.00     0.031 C 
ATOM     58  C   UNL A   1      41.521  30.115  35.910  1.00  0.00     0.029 A 
ATOM     59  C   UNL A   1      40.767  30.292  34.760  1.00  0.00     0.049 A 
ATOM     60  H   UNL A   1      41.023  29.418  32.855  1.00  0.00     0.167 HD
ATOM     61  C   UNL A   1      38.929  31.237  33.396  1.00  0.00     0.074 A 
ATOM     62  C   UNL A   1      37.751  32.058  33.215  1.00  0.00     0.031 C 
ATOM     63  C   UNL A   1      39.600  31.115  34.569  1.00  0.00     0.037 A 
BRANCH  50  64
ATOM     64  C   UNL A   1      44.403  27.240  34.288  1.00  0.00     0.057 A 
ATOM     65  C   UNL A   1      44.254  25.985  34.891  1.00  0.00     0.134 A 
ATOM     66  C   UNL A   1      45.666  27.842  34.355  1.00  0.00     0.134 A 
ATOM     67  F   UNL A   1      43.067  25.360  34.877  1.00  0.00    -0.206 F 
ATOM     68  C   UNL A   1      45.312  25.365  35.559  1.00  0.00     0.040 A 
ATOM     69  C   UNL A   1      46.740  27.219  34.993  1.00  0.00     0.040 A 
ATOM     70  F   UNL A   1      45.880  29.042  33.794  1.00  0.00    -0.206 F 
ATOM     71  C   UNL A   1      46.562  25.980  35.604  1.00  0.00     0.006 A 
ENDBRANCH  50  64
BRANCH  51  72
ATOM     72  C   UNL A   1      36.943  31.386  29.137  1.00  0.00     0.057 A 
ATOM     73  C   UNL A   1      35.822  30.623  28.785  1.00  0.00     0.134 A 
ATOM     74  C   UNL A   1      36.963  32.725  28.726  1.00  0.00     0.134 A 
ATOM     75  F   UNL A   1      35.756  29.326  29.120  1.00  0.00    -0.206 F 
ATOM     76  C   UNL A   1      34.775  31.163  28.037  1.00  0.00     0.040 A 
ATOM     77  C   UNL A   1      35.909  33.286  28.003  1.00  0.00     0.040 A 
ATOM     78  F   UNL A   1      38.010  33.509  29.023  1.00  0.00    -0.206 F 
ATOM     79  C   UNL A   1      34.813  32.501  27.649  1.00  0.00     0.006 A 
ENDBRANCH  51  72
BRANCH  63  80
ATOM     80  C   UNL A   1      39.111  31.921  35.740  1.00  0.00     0.057 A 
ATOM     81  C   UNL A   1      39.498  33.252  35.945  1.00  0.00     0.134 A 
ATOM     82  C   UNL A   1      38.200  31.368  36.651  1.00  0.00     0.134 A 
ATOM     83  F   UNL A   1      40.375  33.840  35.117  1.00  0.00    -0.206 F 
ATOM     84  C   UNL A   1      39.017  33.994  37.026  1.00  0.00     0.040 A 
ATOM     85  C   UNL A   1      37.688  32.110  37.716  1.00  0.00     0.040 A 
ATOM     86  F   UNL A   1      37.777  30.103  36.509  1.00  0.00    -0.206 F 
ATOM     87  C   UNL A   1      38.102  33.425  37.911  1.00  0.00     0.006 A 
ENDBRANCH  63  80
ENDBRANCH  37  38
ENDBRANCH  30  32
ENDBRANCH  29  30
ENDBRANCH  28  29
ENDBRANCH  27  28
ENDBRANCH  26  27
ENDBRANCH  25  26
ENDBRANCH   1  25
TORSDOF 20
ENDMDL
MODEL 2
REMARK VINA RESULT:      -9.6      4.007      8.989
REMARK SMILES C[C@@H]1CC([NH2+][C@@](C)(C(=O)OCCOCCOCCOC(=O)c2ccc(-c3c4nc(c(-c5c(F)cccc5F)c5ccc([nH]5)c(-c5c(F)cccc5F)c5nc(c(-c6c(F)cccc6F)c6ccc3[nH]6)C=C5)C=C4)cc2)C(F)(F)F)C[C@@H](C)C1
REMARK SMILES IDX 14 1 13 2 12 3 11 4 10 5 8 6 9 7 6 8 7 9 5 10 4 13 1 14 2 15
REMARK SMILES IDX 3 16 83 17 81 18 80 19 82 20 76 21 77 22 78 23 79 24 15 25
REMARK SMILES IDX 16 26 17 27 18 28 19 29 20 30 21 31 22 32 23 33 75 34 24 35
REMARK SMILES IDX 74 36 25 37 26 38 27 39 68 40 28 41 73 42 67 43 69 44 29 45
REMARK SMILES IDX 72 46 66 47 65 48 30 50 56 51 39 52 55 53 40 54 43 55 54 56
REMARK SMILES IDX 70 57 41 58 42 59 53 61 71 62 44 63 31 64 32 65 37 66 33 67
REMARK SMILES IDX 34 68 36 69 38 70 35 71 57 72 58 73 63 74 59 75 60 76 62 77
REMARK SMILES IDX 64 78 61 79 45 80 46 81 51 82 47 83 48 84 50 85 52 86 49 87
REMARK H PARENT 5 11 5 12 69 49 43 60
REMARK Flexibility Score: inf
ROOT
ATOM      1  C   UNL A   1      33.769  31.245  27.983  1.00  0.00     0.188 C 
ENDROOT
BRANCH   1   2
ATOM      2  O   UNL A   1      33.537  30.671  26.704  1.00  0.00    -0.376 OA
BRANCH   2   3
ATOM      3  C   UNL A   1      32.219  30.591  26.184  1.00  0.00     0.202 C 
BRANCH   3   4
ATOM      4  C   UNL A   1      31.813  29.460  25.222  1.00  0.00     0.261 C 
BRANCH   4   5
ATOM      5  O   UNL A   1      32.535  28.219  25.316  1.00  0.00    -0.458 OA
BRANCH   5   6
ATOM      6  C   UNL A   1      32.182  27.260  24.407  1.00  0.00     0.377 C 
ATOM      7  O   UNL A   1      32.244  27.443  23.196  1.00  0.00    -0.244 OA
BRANCH   6   8
ATOM      8  C   UNL A   1      31.588  25.986  25.057  1.00  0.00     0.287 C 
ATOM      9  C   UNL A   1      31.679  26.273  26.563  1.00  0.00     0.103 C 
BRANCH   8  10
ATOM     10  N   UNL A   1      32.376  24.758  24.655  1.00  0.00    -0.322 N 
ATOM     11  H   UNL A   1      31.810  24.254  23.973  1.00  0.00     0.347 HD
ATOM     12  H   UNL A   1      33.264  25.145  24.335  1.00  0.00     0.347 HD
BRANCH  10  13
ATOM     13  C   UNL A   1      32.784  23.780  25.672  1.00  0.00     0.184 C 
ATOM     14  C   UNL A   1      32.347  21.813  22.876  1.00  0.00     0.008 C 
ATOM     15  C   UNL A   1      32.947  21.553  24.258  1.00  0.00    -0.008 C 
ATOM     16  C   UNL A   1      32.229  22.362  25.363  1.00  0.00     0.068 C 
ATOM     17  C   UNL A   1      34.483  21.721  24.257  1.00  0.00     0.007 C 
ATOM     18  C   UNL A   1      34.931  23.163  24.516  1.00  0.00    -0.008 C 
ATOM     19  C   UNL A   1      34.299  23.641  25.828  1.00  0.00     0.068 C 
ATOM     20  C   UNL A   1      36.445  23.322  24.564  1.00  0.00     0.008 C 
ENDBRANCH  10  13
ENDBRANCH   8  10
BRANCH   8  21
ATOM     21  C   UNL A   1      30.110  25.981  24.593  1.00  0.00     0.455 C 
ATOM     22  F   UNL A   1      29.907  25.115  23.569  1.00  0.00    -0.164 F 
ATOM     23  F   UNL A   1      29.288  25.586  25.601  1.00  0.00    -0.164 F 
ATOM     24  F   UNL A   1      29.654  27.192  24.208  1.00  0.00    -0.164 F 
ENDBRANCH   8  21
ENDBRANCH   6   8
ENDBRANCH   5   6
ENDBRANCH   4   5
ENDBRANCH   3   4
ENDBRANCH   2   3
ENDBRANCH   1   2
BRANCH   1  25
ATOM     25  C   UNL A   1      34.381  32.653  28.104  1.00  0.00     0.188 C 
BRANCH  25  26
ATOM     26  O   UNL A   1      33.437  33.695  28.075  1.00  0.00    -0.376 OA
BRANCH  26  27
ATOM     27  C   UNL A   1      33.837  34.969  28.543  1.00  0.00     0.202 C 
BRANCH  27  28
ATOM     28  C   UNL A   1      32.936  35.848  29.439  1.00  0.00     0.261 C 
BRANCH  28  29
ATOM     29  O   UNL A   1      32.376  35.266  30.627  1.00  0.00    -0.460 OA
BRANCH  29  30
ATOM     30  C   UNL A   1      32.705  35.819  31.817  1.00  0.00     0.338 C 
ATOM     31  O   UNL A   1      32.083  36.677  32.424  1.00  0.00    -0.246 OA
BRANCH  30  32
ATOM     32  C   UNL A   1      33.849  35.065  32.380  1.00  0.00     0.060 A 
ATOM     33  C   UNL A   1      35.126  35.645  32.372  1.00  0.00     0.016 A 
ATOM     34  C   UNL A   1      33.662  33.792  32.921  1.00  0.00     0.016 A 
ATOM     35  C   UNL A   1      36.223  34.946  32.887  1.00  0.00     0.010 A 
ATOM     36  C   UNL A   1      34.766  33.081  33.409  1.00  0.00     0.010 A 
ATOM     37  C   UNL A   1      36.057  33.641  33.369  1.00  0.00    -0.014 A 
BRANCH  37  38
ATOM     38  C   UNL A   1      37.239  32.787  33.649  1.00  0.00     0.031 A 
ATOM     39  C   UNL A   1      38.025  33.046  34.907  1.00  0.00     0.074 A 
ATOM     40  C   UNL A   1      37.624  31.806  32.814  1.00  0.00     0.049 A 
ATOM     41  N   UNL A   1      39.146  32.512  35.319  1.00  0.00    -0.248 NA
ATOM     42  C   UNL A   1      37.465  34.054  35.824  1.00  0.00     0.031 C 
ATOM     43  C   UNL A   1      36.929  31.410  31.592  1.00  0.00     0.029 A 
ATOM     44  N   UNL A   1      38.717  30.972  32.866  1.00  0.00    -0.354 N 
ATOM     45  C   UNL A   1      39.433  33.126  36.532  1.00  0.00     0.074 A 
ATOM     46  C   UNL A   1      38.384  34.092  36.776  1.00  0.00     0.031 C 
ATOM     47  C   UNL A   1      37.625  30.424  30.996  1.00  0.00     0.029 A 
ATOM     48  C   UNL A   1      38.831  30.146  31.775  1.00  0.00     0.049 A 
ATOM     49  H   UNL A   1      39.356  30.968  33.616  1.00  0.00     0.167 HD
ATOM     50  C   UNL A   1      40.474  32.903  37.369  1.00  0.00     0.037 A 
ATOM     51  C   UNL A   1      39.813  29.289  31.430  1.00  0.00     0.037 A 
ATOM     52  C   UNL A   1      41.522  31.947  37.124  1.00  0.00     0.049 A 
ATOM     53  C   UNL A   1      41.010  29.123  32.334  1.00  0.00     0.074 A 
ATOM     54  C   UNL A   1      42.611  31.641  37.921  1.00  0.00     0.029 A 
ATOM     55  N   UNL A   1      41.617  31.153  35.993  1.00  0.00    -0.354 N 
ATOM     56  N   UNL A   1      41.266  29.692  33.487  1.00  0.00    -0.248 NA
ATOM     57  C   UNL A   1      42.058  28.191  31.886  1.00  0.00     0.031 C 
ATOM     58  C   UNL A   1      43.398  30.705  37.244  1.00  0.00     0.029 A 
ATOM     59  C   UNL A   1      42.764  30.377  36.056  1.00  0.00     0.049 A 
ATOM     60  H   UNL A   1      40.967  31.140  35.254  1.00  0.00     0.167 HD
ATOM     61  C   UNL A   1      42.478  29.162  33.917  1.00  0.00     0.074 A 
ATOM     62  C   UNL A   1      42.903  28.218  32.906  1.00  0.00     0.031 C 
ATOM     63  C   UNL A   1      43.174  29.430  35.051  1.00  0.00     0.037 A 
BRANCH  50  64
ATOM     64  C   UNL A   1      40.547  33.737  38.616  1.00  0.00     0.057 A 
ATOM     65  C   UNL A   1      39.842  33.399  39.779  1.00  0.00     0.134 A 
ATOM     66  C   UNL A   1      41.356  34.879  38.661  1.00  0.00     0.134 A 
ATOM     67  F   UNL A   1      39.038  32.326  39.799  1.00  0.00    -0.206 F 
ATOM     68  C   UNL A   1      39.919  34.183  40.932  1.00  0.00     0.040 A 
ATOM     69  C   UNL A   1      41.465  35.653  39.817  1.00  0.00     0.040 A 
ATOM     70  F   UNL A   1      42.061  35.258  37.584  1.00  0.00    -0.206 F 
ATOM     71  C   UNL A   1      40.739  35.309  40.955  1.00  0.00     0.006 A 
ENDBRANCH  50  64
BRANCH  51  72
ATOM     72  C   UNL A   1      39.730  28.528  30.155  1.00  0.00     0.057 A 
ATOM     73  C   UNL A   1      39.092  27.284  30.091  1.00  0.00     0.134 A 
ATOM     74  C   UNL A   1      40.322  29.007  28.979  1.00  0.00     0.134 A 
ATOM     75  F   UNL A   1      38.533  26.755  31.190  1.00  0.00    -0.206 F 
ATOM     76  C   UNL A   1      39.064  26.535  28.914  1.00  0.00     0.040 A 
ATOM     77  C   UNL A   1      40.276  28.283  27.788  1.00  0.00     0.040 A 
ATOM     78  F   UNL A   1      40.957  30.189  28.973  1.00  0.00    -0.206 F 
ATOM     79  C   UNL A   1      39.651  27.037  27.755  1.00  0.00     0.006 A 
ENDBRANCH  51  72
BRANCH  63  80
ATOM     80  C   UNL A   1      44.443  28.660  35.289  1.00  0.00     0.057 A 
ATOM     81  C   UNL A   1      44.456  27.427  35.953  1.00  0.00     0.134 A 
ATOM     82  C   UNL A   1      45.667  29.142  34.801  1.00  0.00     0.134 A 
ATOM     83  F   UNL A   1      43.323  26.913  36.455  1.00  0.00    -0.206 F 
ATOM     84  C   UNL A   1      45.641  26.714  36.147  1.00  0.00     0.040 A 
ATOM     85  C   UNL A   1      46.852  28.422  34.960  1.00  0.00     0.040 A 
ATOM     86  F   UNL A   1      45.727  30.309  34.144  1.00  0.00    -0.206 F 
ATOM     87  C   UNL A   1      46.844  27.208  35.642  1.00  0.00     0.006 A 
ENDBRANCH  63  80
ENDBRANCH  37  38
ENDBRANCH  30  32
ENDBRANCH  29  30
ENDBRANCH  28  29
ENDBRANCH  27  28
ENDBRANCH  26  27
ENDBRANCH  25  26
ENDBRANCH   1  25
TORSDOF 20
ENDMDL
MODEL 3
REMARK VINA RESULT:      -9.3      1.363      2.107
REMARK SMILES C[C@@H]1CC([NH2+][C@@](C)(C(=O)OCCOCCOCCOC(=O)c2ccc(-c3c4nc(c(-c5c(F)cccc5F)c5ccc([nH]5)c(-c5c(F)cccc5F)c5nc(c(-c6c(F)cccc6F)c6ccc3[nH]6)C=C5)C=C4)cc2)C(F)(F)F)C[C@@H](C)C1
REMARK SMILES IDX 14 1 13 2 12 3 11 4 10 5 8 6 9 7 6 8 7 9 5 10 4 13 1 14 2 15
REMARK SMILES IDX 3 16 83 17 81 18 80 19 82 20 76 21 77 22 78 23 79 24 15 25
REMARK SMILES IDX 16 26 17 27 18 28 19 29 20 30 21 31 22 32 23 33 75 34 24 35
REMARK SMILES IDX 74 36 25 37 26 38 27 39 68 40 28 41 73 42 67 43 69 44 29 45
REMARK SMILES IDX 72 46 66 47 65 48 30 50 56 51 39 52 55 53 40 54 43 55 54 56
REMARK SMILES IDX 70 57 41 58 42 59 53 61 71 62 44 63 31 64 32 65 37 66 33 67
REMARK SMILES IDX 34 68 36 69 38 70 35 71 57 72 58 73 63 74 59 75 60 76 62 77
REMARK SMILES IDX 64 78 61 79 45 80 46 81 51 82 47 83 48 84 50 85 52 86 49 87
REMARK H PARENT 5 11 5 12 69 49 43 60
REMARK Flexibility Score: inf
ROOT
ATOM      1  C   UNL A   1      39.542  23.674  27.207  1.00  0.00     0.188 C 
ENDROOT
BRANCH   1   2
ATOM      2  O   UNL A   1      38.285  24.035  26.650  1.00  0.00    -0.376 OA
BRANCH   2   3
ATOM      3  C   UNL A   1      37.602  23.142  25.786  1.00  0.00     0.202 C 
BRANCH   3   4
ATOM      4  C   UNL A   1      36.592  23.660  24.747  1.00  0.00     0.261 C 
BRANCH   4   5
ATOM      5  O   UNL A   1      35.199  23.636  25.106  1.00  0.00    -0.458 OA
BRANCH   5   6
ATOM      6  C   UNL A   1      34.439  22.700  24.462  1.00  0.00     0.377 C 
ATOM      7  O   UNL A   1      34.825  21.551  24.273  1.00  0.00    -0.244 OA
BRANCH   6   8
ATOM      8  C   UNL A   1      33.115  23.268  23.895  1.00  0.00     0.287 C 
ATOM      9  C   UNL A   1      33.297  23.157  22.373  1.00  0.00     0.103 C 
BRANCH   8  10
ATOM     10  N   UNL A   1      32.903  24.697  24.348  1.00  0.00    -0.322 N 
ATOM     11  H   UNL A   1      32.189  24.673  25.075  1.00  0.00     0.347 HD
ATOM     12  H   UNL A   1      33.840  24.997  24.617  1.00  0.00     0.347 HD
BRANCH  10  13
ATOM     13  C   UNL A   1      32.488  25.722  23.381  1.00  0.00     0.184 C 
ATOM     14  C   UNL A   1      29.982  25.862  25.742  1.00  0.00     0.008 C 
ATOM     15  C   UNL A   1      30.352  26.747  24.550  1.00  0.00    -0.008 C 
ATOM     16  C   UNL A   1      30.949  25.926  23.383  1.00  0.00     0.068 C 
ATOM     17  C   UNL A   1      31.220  27.951  24.978  1.00  0.00     0.007 C 
ATOM     18  C   UNL A   1      32.719  27.635  24.997  1.00  0.00    -0.008 C 
ATOM     19  C   UNL A   1      33.120  27.094  23.621  1.00  0.00     0.068 C 
ATOM     20  C   UNL A   1      33.581  28.834  25.371  1.00  0.00     0.008 C 
ENDBRANCH  10  13
ENDBRANCH   8  10
BRANCH   8  21
ATOM     21  C   UNL A   1      32.036  22.271  24.386  1.00  0.00     0.455 C 
ATOM     22  F   UNL A   1      32.326  21.781  25.617  1.00  0.00    -0.164 F 
ATOM     23  F   UNL A   1      30.825  22.883  24.491  1.00  0.00    -0.164 F 
ATOM     24  F   UNL A   1      31.841  21.223  23.557  1.00  0.00    -0.164 F 
ENDBRANCH   8  21
ENDBRANCH   6   8
ENDBRANCH   5   6
ENDBRANCH   4   5
ENDBRANCH   3   4
ENDBRANCH   2   3
ENDBRANCH   1   2
BRANCH   1  25
ATOM     25  C   UNL A   1      40.187  22.319  26.857  1.00  0.00     0.188 C 
BRANCH  25  26
ATOM     26  O   UNL A   1      41.267  22.410  25.962  1.00  0.00    -0.376 OA
BRANCH  26  27
ATOM     27  C   UNL A   1      42.217  21.361  25.956  1.00  0.00     0.202 C 
BRANCH  27  28
ATOM     28  C   UNL A   1      43.721  21.601  25.697  1.00  0.00     0.261 C 
BRANCH  28  29
ATOM     29  O   UNL A   1      44.362  22.705  26.356  1.00  0.00    -0.460 OA
BRANCH  29  30
ATOM     30  C   UNL A   1      44.159  23.945  25.853  1.00  0.00     0.338 C 
ATOM     31  O   UNL A   1      44.066  24.251  24.674  1.00  0.00    -0.246 OA
BRANCH  30  32
ATOM     32  C   UNL A   1      43.860  24.860  26.978  1.00  0.00     0.060 A 
ATOM     33  C   UNL A   1      43.094  24.396  28.058  1.00  0.00     0.016 A 
ATOM     34  C   UNL A   1      44.340  26.171  26.973  1.00  0.00     0.016 A 
ATOM     35  C   UNL A   1      42.789  25.247  29.125  1.00  0.00     0.010 A 
ATOM     36  C   UNL A   1      44.009  27.030  28.028  1.00  0.00     0.010 A 
ATOM     37  C   UNL A   1      43.209  26.583  29.096  1.00  0.00    -0.014 A 
BRANCH  37  38
ATOM     38  C   UNL A   1      42.659  27.565  30.066  1.00  0.00     0.031 A 
ATOM     39  C   UNL A   1      43.316  27.677  31.416  1.00  0.00     0.074 A 
ATOM     40  C   UNL A   1      41.599  28.339  29.774  1.00  0.00     0.049 A 
ATOM     41  N   UNL A   1      42.961  28.377  32.463  1.00  0.00    -0.248 NA
ATOM     42  C   UNL A   1      44.542  26.885  31.609  1.00  0.00     0.031 C 
ATOM     43  C   UNL A   1      40.901  28.374  28.492  1.00  0.00     0.029 A 
ATOM     44  N   UNL A   1      40.914  29.239  30.556  1.00  0.00    -0.354 N 
ATOM     45  C   UNL A   1      43.908  28.099  33.441  1.00  0.00     0.074 A 
ATOM     46  C   UNL A   1      44.837  27.147  32.872  1.00  0.00     0.031 C 
ATOM     47  C   UNL A   1      39.870  29.234  28.581  1.00  0.00     0.029 A 
ATOM     48  C   UNL A   1      39.814  29.781  29.936  1.00  0.00     0.049 A 
ATOM     49  H   UNL A   1      41.186  29.472  31.473  1.00  0.00     0.167 HD
ATOM     50  C   UNL A   1      44.000  28.595  34.698  1.00  0.00     0.037 A 
ATOM     51  C   UNL A   1      38.857  30.599  30.419  1.00  0.00     0.037 A 
ATOM     52  C   UNL A   1      43.073  29.538  35.268  1.00  0.00     0.049 A 
ATOM     53  C   UNL A   1      38.929  31.068  31.852  1.00  0.00     0.074 A 
ATOM     54  C   UNL A   1      43.091  30.108  36.529  1.00  0.00     0.029 A 
ATOM     55  N   UNL A   1      41.956  30.038  34.617  1.00  0.00    -0.354 N 
ATOM     56  N   UNL A   1      39.836  30.817  32.764  1.00  0.00    -0.248 NA
ATOM     57  C   UNL A   1      37.839  31.938  32.322  1.00  0.00     0.031 C 
ATOM     58  C   UNL A   1      41.952  30.907  36.663  1.00  0.00     0.029 A 
ATOM     59  C   UNL A   1      41.260  30.889  35.462  1.00  0.00     0.049 A 
ATOM     60  H   UNL A   1      41.695  29.823  33.693  1.00  0.00     0.167 HD
ATOM     61  C   UNL A   1      39.448  31.523  33.897  1.00  0.00     0.074 A 
ATOM     62  C   UNL A   1      38.228  32.222  33.556  1.00  0.00     0.031 C 
ATOM     63  C   UNL A   1      40.052  31.591  35.111  1.00  0.00     0.037 A 
BRANCH  50  64
ATOM     64  C   UNL A   1      45.128  28.097  35.556  1.00  0.00     0.057 A 
ATOM     65  C   UNL A   1      46.348  28.777  35.648  1.00  0.00     0.134 A 
ATOM     66  C   UNL A   1      44.977  26.934  36.321  1.00  0.00     0.134 A 
ATOM     67  F   UNL A   1      46.563  29.890  34.930  1.00  0.00    -0.206 F 
ATOM     68  C   UNL A   1      47.389  28.304  36.449  1.00  0.00     0.040 A 
ATOM     69  C   UNL A   1      45.999  26.467  37.150  1.00  0.00     0.040 A 
ATOM     70  F   UNL A   1      43.833  26.235  36.283  1.00  0.00    -0.206 F 
ATOM     71  C   UNL A   1      47.212  27.149  37.210  1.00  0.00     0.006 A 
ENDBRANCH  50  64
BRANCH  51  72
ATOM     72  C   UNL A   1      37.724  31.019  29.552  1.00  0.00     0.057 A 
ATOM     73  C   UNL A   1      37.675  32.301  28.990  1.00  0.00     0.134 A 
ATOM     74  C   UNL A   1      36.644  30.164  29.298  1.00  0.00     0.134 A 
ATOM     75  F   UNL A   1      38.663  33.178  29.222  1.00  0.00    -0.206 F 
ATOM     76  C   UNL A   1      36.585  32.724  28.227  1.00  0.00     0.040 A 
ATOM     77  C   UNL A   1      35.562  30.564  28.513  1.00  0.00     0.040 A 
ATOM     78  F   UNL A   1      36.624  28.925  29.813  1.00  0.00    -0.206 F 
ATOM     79  C   UNL A   1      35.527  31.852  27.981  1.00  0.00     0.006 A 
ENDBRANCH  51  72
BRANCH  63  80
ATOM     80  C   UNL A   1      39.435  32.487  36.148  1.00  0.00     0.057 A 
ATOM     81  C   UNL A   1      39.847  33.814  36.330  1.00  0.00     0.134 A 
ATOM     82  C   UNL A   1      38.377  32.026  36.945  1.00  0.00     0.134 A 
ATOM     83  F   UNL A   1      40.860  34.317  35.608  1.00  0.00    -0.206 F 
ATOM     84  C   UNL A   1      39.248  34.640  37.284  1.00  0.00     0.040 A 
ATOM     85  C   UNL A   1      37.750  32.852  37.878  1.00  0.00     0.040 A 
ATOM     86  F   UNL A   1      37.923  30.771  36.816  1.00  0.00    -0.206 F 
ATOM     87  C   UNL A   1      38.190  34.162  38.056  1.00  0.00     0.006 A 
ENDBRANCH  63  80
ENDBRANCH  37  38
ENDBRANCH  30  32
ENDBRANCH  29  30
ENDBRANCH  28  29
ENDBRANCH  27  28
ENDBRANCH  26  27
ENDBRANCH  25  26
ENDBRANCH   1  25
TORSDOF 20
ENDMDL
