MODEL 1
REMARK VINA RESULT:     -10.9      0.000      0.000
REMARK SMILES CC(=O)NS(=O)(=O)c1cc(-c2ccn(C(F)F)c(=O)c2)ccc1C(=O)OCCOCCOCCOC(=O)c1ccc(-c2c3nc(c(-c4c(F)cccc4F)c4ccc([nH]4)c(-c4c(F)cccc4F)c4nc(c(-c5c(F)cccc5F)c5ccc2[nH]5)C=C4)C=C3)cc1
REMARK SMILES IDX 30 1 29 2 28 3 27 4 26 5 24 6 25 7 23 8 8 9 9 10 10 11 22 12
REMARK SMILES IDX 21 13 5 14 6 15 7 16 4 17 1 18 2 19 3 20 11 22 12 23 20 24
REMARK SMILES IDX 13 25 18 26 14 27 19 28 15 29 16 30 17 31 31 32 32 33 33 34
REMARK SMILES IDX 34 35 35 36 36 37 37 38 38 39 39 40 91 41 40 42 90 43 41 44
REMARK SMILES IDX 42 45 43 46 84 47 44 48 89 49 83 50 85 51 45 52 88 53 82 54
REMARK SMILES IDX 81 55 46 57 72 58 55 59 71 60 56 61 59 62 70 63 86 64 57 65
REMARK SMILES IDX 58 66 69 68 87 69 60 70 47 71 48 72 53 73 49 74 50 75 52 76
REMARK SMILES IDX 54 77 51 78 73 79 74 80 79 81 75 82 76 83 78 84 80 85 77 86
REMARK SMILES IDX 61 87 62 88 67 89 63 90 64 91 66 92 68 93 65 94
REMARK H PARENT 4 21 85 56 59 67
REMARK Flexibility Score: inf
ROOT
ATOM      1  C   UNL A   1      39.415  21.589  26.440  1.00  0.00     0.188 C 
ENDROOT
BRANCH   1   2
ATOM      2  O   UNL A   1      39.449  22.869  25.824  1.00  0.00    -0.376 OA
BRANCH   2   3
ATOM      3  C   UNL A   1      38.399  23.763  26.177  1.00  0.00     0.202 C 
BRANCH   3   4
ATOM      4  C   UNL A   1      37.093  23.040  26.504  1.00  0.00     0.261 C 
BRANCH   4   5
ATOM      5  O   UNL A   1      36.014  23.423  25.637  1.00  0.00    -0.460 OA
BRANCH   5   6
ATOM      6  C   UNL A   1      34.764  23.264  26.093  1.00  0.00     0.339 C 
ATOM      7  O   UNL A   1      34.412  22.501  26.977  1.00  0.00    -0.246 OA
BRANCH   6   8
ATOM      8  C   UNL A   1      33.868  24.298  25.519  1.00  0.00     0.080 A 
ATOM      9  C   UNL A   1      32.811  24.071  24.628  1.00  0.00     0.103 A 
ATOM     10  C   UNL A   1      31.934  25.120  24.317  1.00  0.00     0.032 A 
ATOM     11  C   UNL A   1      32.194  26.430  24.732  1.00  0.00    -0.017 A 
ATOM     12  C   UNL A   1      34.107  25.614  25.964  1.00  0.00     0.018 A 
ATOM     13  C   UNL A   1      33.303  26.677  25.539  1.00  0.00     0.010 A 
BRANCH   9  14
ATOM     14  S   UNL A   1      32.626  22.538  23.757  1.00  0.00     0.264 S 
ATOM     15  O   UNL A   1      33.945  22.142  23.318  1.00  0.00    -0.201 OA
ATOM     16  O   UNL A   1      31.497  22.639  22.866  1.00  0.00    -0.201 OA
BRANCH  14  17
ATOM     17  N   UNL A   1      32.170  21.415  24.925  1.00  0.00    -0.249 N 
ATOM     18  C   UNL A   1      32.291  19.205  23.764  1.00  0.00     0.115 C 
ATOM     19  C   UNL A   1      32.669  20.090  24.925  1.00  0.00     0.230 C 
ATOM     20  O   UNL A   1      33.187  19.646  25.940  1.00  0.00    -0.274 OA
ATOM     21  H   UNL A   1      31.538  21.688  25.629  1.00  0.00     0.183 HD
ENDBRANCH  14  17
ENDBRANCH   9  14
BRANCH  11  22
ATOM     22  C   UNL A   1      31.346  27.521  24.219  1.00  0.00    -0.011 A 
ATOM     23  C   UNL A   1      30.337  27.306  23.199  1.00  0.00     0.027 A 
ATOM     24  C   UNL A   1      31.455  28.735  24.784  1.00  0.00     0.080 A 
ATOM     25  C   UNL A   1      29.516  28.299  22.836  1.00  0.00     0.095 A 
ATOM     26  C   UNL A   1      30.552  29.851  24.387  1.00  0.00     0.255 A 
ATOM     27  N   UNL A   1      29.613  29.551  23.414  1.00  0.00    -0.258 N 
ATOM     28  O   UNL A   1      30.684  30.933  24.948  1.00  0.00    -0.269 OA
BRANCH  27  29
ATOM     29  C   UNL A   1      28.721  30.612  23.021  1.00  0.00     0.451 C 
ATOM     30  F   UNL A   1      28.612  30.679  21.672  1.00  0.00    -0.185 F 
ATOM     31  F   UNL A   1      27.483  30.419  23.535  1.00  0.00    -0.185 F 
ENDBRANCH  27  29
ENDBRANCH  11  22
ENDBRANCH   6   8
ENDBRANCH   5   6
ENDBRANCH   4   5
ENDBRANCH   3   4
ENDBRANCH   2   3
ENDBRANCH   1   2
BRANCH   1  32
ATOM     32  C   UNL A   1      40.749  20.817  26.447  1.00  0.00     0.188 C 
BRANCH  32  33
ATOM     33  O   UNL A   1      42.009  21.466  26.517  1.00  0.00    -0.376 OA
BRANCH  33  34
ATOM     34  C   UNL A   1      43.121  20.955  25.805  1.00  0.00     0.202 C 
BRANCH  34  35
ATOM     35  C   UNL A   1      43.987  21.988  25.084  1.00  0.00     0.261 C 
BRANCH  35  36
ATOM     36  O   UNL A   1      43.306  23.230  24.846  1.00  0.00    -0.460 OA
BRANCH  36  37
ATOM     37  C   UNL A   1      44.034  24.338  25.115  1.00  0.00     0.338 C 
ATOM     38  O   UNL A   1      45.107  24.662  24.636  1.00  0.00    -0.246 OA
BRANCH  37  39
ATOM     39  C   UNL A   1      43.262  25.236  25.998  1.00  0.00     0.060 A 
ATOM     40  C   UNL A   1      43.769  26.524  26.216  1.00  0.00     0.016 A 
ATOM     41  C   UNL A   1      42.099  24.813  26.644  1.00  0.00     0.016 A 
ATOM     42  C   UNL A   1      43.136  27.382  27.111  1.00  0.00     0.010 A 
ATOM     43  C   UNL A   1      41.476  25.666  27.561  1.00  0.00     0.010 A 
ATOM     44  C   UNL A   1      42.013  26.938  27.822  1.00  0.00    -0.014 A 
BRANCH  44  45
ATOM     45  C   UNL A   1      41.533  27.736  28.973  1.00  0.00     0.031 A 
ATOM     46  C   UNL A   1      42.266  27.617  30.280  1.00  0.00     0.074 A 
ATOM     47  C   UNL A   1      40.496  28.580  28.851  1.00  0.00     0.049 A 
ATOM     48  N   UNL A   1      42.042  28.225  31.416  1.00  0.00    -0.248 NA
ATOM     49  C   UNL A   1      43.410  26.690  30.306  1.00  0.00     0.031 C 
ATOM     50  C   UNL A   1      39.729  28.809  27.628  1.00  0.00     0.029 A 
ATOM     51  N   UNL A   1      39.908  29.402  29.778  1.00  0.00    -0.354 N 
ATOM     52  C   UNL A   1      43.016  27.760  32.289  1.00  0.00     0.074 A 
ATOM     53  C   UNL A   1      43.819  26.802  31.561  1.00  0.00     0.031 C 
ATOM     54  C   UNL A   1      38.760  29.706  27.885  1.00  0.00     0.029 A 
ATOM     55  C   UNL A   1      38.828  30.095  29.292  1.00  0.00     0.049 A 
ATOM     56  H   UNL A   1      40.231  29.487  30.704  1.00  0.00     0.167 HD
ATOM     57  C   UNL A   1      43.229  28.107  33.580  1.00  0.00     0.037 A 
ATOM     58  C   UNL A   1      37.983  30.934  29.922  1.00  0.00     0.037 A 
ATOM     59  C   UNL A   1      42.423  29.045  34.311  1.00  0.00     0.049 A 
ATOM     60  C   UNL A   1      38.194  31.244  31.381  1.00  0.00     0.074 A 
ATOM     61  C   UNL A   1      42.563  29.467  35.622  1.00  0.00     0.029 A 
ATOM     62  N   UNL A   1      41.315  29.698  33.795  1.00  0.00    -0.354 N 
ATOM     63  N   UNL A   1      39.140  30.827  32.187  1.00  0.00    -0.248 NA
ATOM     64  C   UNL A   1      37.220  32.146  32.014  1.00  0.00     0.031 C 
ATOM     65  C   UNL A   1      41.515  30.347  35.911  1.00  0.00     0.029 A 
ATOM     66  C   UNL A   1      40.747  30.504  34.768  1.00  0.00     0.049 A 
ATOM     67  H   UNL A   1      40.981  29.603  32.874  1.00  0.00     0.167 HD
ATOM     68  C   UNL A   1      38.890  31.433  33.412  1.00  0.00     0.074 A 
ATOM     69  C   UNL A   1      37.711  32.256  33.241  1.00  0.00     0.031 C 
ATOM     70  C   UNL A   1      39.577  31.322  34.575  1.00  0.00     0.037 A 
BRANCH  57  71
ATOM     71  C   UNL A   1      44.371  27.441  34.285  1.00  0.00     0.057 A 
ATOM     72  C   UNL A   1      45.658  27.995  34.289  1.00  0.00     0.134 A 
ATOM     73  C   UNL A   1      44.179  26.241  34.979  1.00  0.00     0.134 A 
ATOM     74  F   UNL A   1      45.910  29.134  33.626  1.00  0.00    -0.206 F 
ATOM     75  C   UNL A   1      46.718  27.369  34.944  1.00  0.00     0.040 A 
ATOM     76  C   UNL A   1      45.227  25.614  35.654  1.00  0.00     0.040 A 
ATOM     77  F   UNL A   1      42.971  25.658  35.011  1.00  0.00    -0.206 F 
ATOM     78  C   UNL A   1      46.503  26.177  35.634  1.00  0.00     0.006 A 
ENDBRANCH  57  71
BRANCH  58  79
ATOM     79  C   UNL A   1      36.846  31.537  29.183  1.00  0.00     0.057 A 
ATOM     80  C   UNL A   1      35.708  30.788  28.865  1.00  0.00     0.134 A 
ATOM     81  C   UNL A   1      36.886  32.868  28.751  1.00  0.00     0.134 A 
ATOM     82  F   UNL A   1      35.624  29.500  29.232  1.00  0.00    -0.206 F 
ATOM     83  C   UNL A   1      34.655  31.335  28.130  1.00  0.00     0.040 A 
ATOM     84  C   UNL A   1      35.831  33.435  28.033  1.00  0.00     0.040 A 
ATOM     85  F   UNL A   1      37.951  33.637  29.023  1.00  0.00    -0.206 F 
ATOM     86  C   UNL A   1      34.714  32.664  27.715  1.00  0.00     0.006 A 
ENDBRANCH  58  79
BRANCH  70  87
ATOM     87  C   UNL A   1      39.093  32.130  35.742  1.00  0.00     0.057 A 
ATOM     88  C   UNL A   1      38.250  31.586  36.719  1.00  0.00     0.134 A 
ATOM     89  C   UNL A   1      39.511  33.457  35.913  1.00  0.00     0.134 A 
ATOM     90  F   UNL A   1      37.805  30.325  36.606  1.00  0.00    -0.206 F 
ATOM     91  C   UNL A   1      37.826  32.338  37.816  1.00  0.00     0.040 A 
ATOM     92  C   UNL A   1      39.112  34.210  37.017  1.00  0.00     0.040 A 
ATOM     93  F   UNL A   1      40.326  34.033  35.017  1.00  0.00    -0.206 F 
ATOM     94  C   UNL A   1      38.262  33.652  37.970  1.00  0.00     0.006 A 
ENDBRANCH  70  87
ENDBRANCH  44  45
ENDBRANCH  37  39
ENDBRANCH  36  37
ENDBRANCH  35  36
ENDBRANCH  34  35
ENDBRANCH  33  34
ENDBRANCH  32  33
ENDBRANCH   1  32
TORSDOF 21
ENDMDL
MODEL 2
REMARK VINA RESULT:     -10.9      1.104      5.902
REMARK SMILES CC(=O)NS(=O)(=O)c1cc(-c2ccn(C(F)F)c(=O)c2)ccc1C(=O)OCCOCCOCCOC(=O)c1ccc(-c2c3nc(c(-c4c(F)cccc4F)c4ccc([nH]4)c(-c4c(F)cccc4F)c4nc(c(-c5c(F)cccc5F)c5ccc2[nH]5)C=C4)C=C3)cc1
REMARK SMILES IDX 30 1 29 2 28 3 27 4 26 5 24 6 25 7 23 8 8 9 9 10 10 11 22 12
REMARK SMILES IDX 21 13 5 14 6 15 7 16 4 17 1 18 2 19 3 20 11 22 12 23 20 24
REMARK SMILES IDX 13 25 18 26 14 27 19 28 15 29 16 30 17 31 31 32 32 33 33 34
REMARK SMILES IDX 34 35 35 36 36 37 37 38 38 39 39 40 91 41 40 42 90 43 41 44
REMARK SMILES IDX 42 45 43 46 84 47 44 48 89 49 83 50 85 51 45 52 88 53 82 54
REMARK SMILES IDX 81 55 46 57 72 58 55 59 71 60 56 61 59 62 70 63 86 64 57 65
REMARK SMILES IDX 58 66 69 68 87 69 60 70 47 71 48 72 53 73 49 74 50 75 52 76
REMARK SMILES IDX 54 77 51 78 73 79 74 80 79 81 75 82 76 83 78 84 80 85 77 86
REMARK SMILES IDX 61 87 62 88 67 89 63 90 64 91 66 92 68 93 65 94
REMARK H PARENT 4 21 85 56 59 67
REMARK Flexibility Score: inf
ROOT
ATOM      1  C   UNL A   1      39.698  21.389  26.256  1.00  0.00     0.188 C 
ENDROOT
BRANCH   1   2
ATOM      2  O   UNL A   1      39.555  22.792  26.080  1.00  0.00    -0.376 OA
BRANCH   2   3
ATOM      3  C   UNL A   1      38.276  23.335  26.387  1.00  0.00     0.202 C 
BRANCH   3   4
ATOM      4  C   UNL A   1      37.145  22.652  25.619  1.00  0.00     0.261 C 
BRANCH   4   5
ATOM      5  O   UNL A   1      36.184  23.586  25.099  1.00  0.00    -0.460 OA
BRANCH   5   6
ATOM      6  C   UNL A   1      35.594  23.286  23.934  1.00  0.00     0.339 C 
ATOM      7  O   UNL A   1      35.954  22.430  23.144  1.00  0.00    -0.246 OA
BRANCH   6   8
ATOM      8  C   UNL A   1      34.298  24.000  23.811  1.00  0.00     0.080 A 
ATOM      9  C   UNL A   1      33.121  23.696  24.506  1.00  0.00     0.103 A 
ATOM     10  C   UNL A   1      32.029  24.573  24.428  1.00  0.00     0.032 A 
ATOM     11  C   UNL A   1      32.023  25.648  23.531  1.00  0.00    -0.017 A 
ATOM     12  C   UNL A   1      34.302  25.104  22.935  1.00  0.00     0.018 A 
ATOM     13  C   UNL A   1      33.161  25.894  22.763  1.00  0.00     0.010 A 
BRANCH   9  14
ATOM     14  S   UNL A   1      32.903  22.162  25.367  1.00  0.00     0.264 S 
ATOM     15  O   UNL A   1      31.482  21.994  25.573  1.00  0.00    -0.201 OA
ATOM     16  O   UNL A   1      33.868  22.085  26.436  1.00  0.00    -0.201 OA
BRANCH  14  17
ATOM     17  N   UNL A   1      33.357  20.968  24.272  1.00  0.00    -0.249 N 
ATOM     18  C   UNL A   1      32.769  18.816  25.395  1.00  0.00     0.115 C 
ATOM     19  C   UNL A   1      32.684  19.725  24.196  1.00  0.00     0.230 C 
ATOM     20  O   UNL A   1      32.257  19.341  23.116  1.00  0.00    -0.274 OA
ATOM     21  H   UNL A   1      34.115  21.139  23.665  1.00  0.00     0.183 HD
ENDBRANCH  14  17
ENDBRANCH   9  14
BRANCH  11  22
ATOM     22  C   UNL A   1      30.781  26.420  23.354  1.00  0.00    -0.011 A 
ATOM     23  C   UNL A   1      29.531  26.036  23.982  1.00  0.00     0.027 A 
ATOM     24  C   UNL A   1      30.837  27.568  22.658  1.00  0.00     0.080 A 
ATOM     25  C   UNL A   1      28.451  26.821  23.882  1.00  0.00     0.095 A 
ATOM     26  C   UNL A   1      29.643  28.449  22.534  1.00  0.00     0.255 A 
ATOM     27  N   UNL A   1      28.497  28.007  23.175  1.00  0.00    -0.258 N 
ATOM     28  O   UNL A   1      29.755  29.494  21.902  1.00  0.00    -0.269 OA
BRANCH  27  29
ATOM     29  C   UNL A   1      27.331  28.849  23.078  1.00  0.00     0.451 C 
ATOM     30  F   UNL A   1      26.275  28.289  23.716  1.00  0.00    -0.185 F 
ATOM     31  F   UNL A   1      27.563  30.063  23.632  1.00  0.00    -0.185 F 
ENDBRANCH  27  29
ENDBRANCH  11  22
ENDBRANCH   6   8
ENDBRANCH   5   6
ENDBRANCH   4   5
ENDBRANCH   3   4
ENDBRANCH   2   3
ENDBRANCH   1   2
BRANCH   1  32
ATOM     32  C   UNL A   1      41.126  20.898  26.564  1.00  0.00     0.188 C 
BRANCH  32  33
ATOM     33  O   UNL A   1      42.241  21.774  26.624  1.00  0.00    -0.376 OA
BRANCH  33  34
ATOM     34  C   UNL A   1      43.420  21.488  25.894  1.00  0.00     0.202 C 
BRANCH  34  35
ATOM     35  C   UNL A   1      43.743  22.441  24.743  1.00  0.00     0.261 C 
BRANCH  35  36
ATOM     36  O   UNL A   1      43.106  23.721  24.872  1.00  0.00    -0.460 OA
BRANCH  36  37
ATOM     37  C   UNL A   1      43.922  24.725  25.269  1.00  0.00     0.338 C 
ATOM     38  O   UNL A   1      45.029  25.002  24.840  1.00  0.00    -0.246 OA
BRANCH  37  39
ATOM     39  C   UNL A   1      43.213  25.586  26.237  1.00  0.00     0.060 A 
ATOM     40  C   UNL A   1      43.739  26.863  26.474  1.00  0.00     0.016 A 
ATOM     41  C   UNL A   1      42.093  25.139  26.940  1.00  0.00     0.016 A 
ATOM     42  C   UNL A   1      43.171  27.684  27.444  1.00  0.00     0.010 A 
ATOM     43  C   UNL A   1      41.536  25.954  27.930  1.00  0.00     0.010 A 
ATOM     44  C   UNL A   1      42.095  27.213  28.208  1.00  0.00    -0.014 A 
BRANCH  44  45
ATOM     45  C   UNL A   1      41.695  27.964  29.420  1.00  0.00     0.031 A 
ATOM     46  C   UNL A   1      40.483  28.851  29.344  1.00  0.00     0.074 A 
ATOM     47  C   UNL A   1      42.367  27.831  30.575  1.00  0.00     0.049 A 
ATOM     48  N   UNL A   1      39.935  29.589  30.273  1.00  0.00    -0.248 NA
ATOM     49  C   UNL A   1      39.794  28.907  28.043  1.00  0.00     0.031 C 
ATOM     50  C   UNL A   1      43.533  26.975  30.783  1.00  0.00     0.029 A 
ATOM     51  N   UNL A   1      42.159  28.422  31.795  1.00  0.00    -0.354 N 
ATOM     52  C   UNL A   1      38.838  30.192  29.674  1.00  0.00     0.074 A 
ATOM     53  C   UNL A   1      38.810  29.755  28.296  1.00  0.00     0.031 C 
ATOM     54  C   UNL A   1      43.948  27.108  32.056  1.00  0.00     0.029 A 
ATOM     55  C   UNL A   1      43.088  28.071  32.741  1.00  0.00     0.049 A 
ATOM     56  H   UNL A   1      41.414  29.040  31.974  1.00  0.00     0.167 HD
ATOM     57  C   UNL A   1      37.928  31.030  30.226  1.00  0.00     0.037 A 
ATOM     58  C   UNL A   1      43.233  28.496  34.011  1.00  0.00     0.037 A 
ATOM     59  C   UNL A   1      37.963  31.481  31.590  1.00  0.00     0.049 A 
ATOM     60  C   UNL A   1      42.253  29.490  34.579  1.00  0.00     0.074 A 
ATOM     61  C   UNL A   1      37.083  32.326  32.242  1.00  0.00     0.029 A 
ATOM     62  N   UNL A   1      38.942  31.133  32.507  1.00  0.00    -0.354 N 
ATOM     63  N   UNL A   1      41.198  30.026  34.015  1.00  0.00    -0.248 NA
ATOM     64  C   UNL A   1      42.485  29.933  35.962  1.00  0.00     0.031 C 
ATOM     65  C   UNL A   1      37.551  32.519  33.547  1.00  0.00     0.029 A 
ATOM     66  C   UNL A   1      38.700  31.762  33.717  1.00  0.00     0.049 A 
ATOM     67  H   UNL A   1      39.697  30.527  32.326  1.00  0.00     0.167 HD
ATOM     68  C   UNL A   1      40.628  30.848  34.979  1.00  0.00     0.074 A 
ATOM     69  C   UNL A   1      41.447  30.731  36.168  1.00  0.00     0.031 C 
ATOM     70  C   UNL A   1      39.522  31.627  34.891  1.00  0.00     0.037 A 
BRANCH  57  71
ATOM     71  C   UNL A   1      36.833  31.529  29.333  1.00  0.00     0.057 A 
ATOM     72  C   UNL A   1      36.864  32.815  28.777  1.00  0.00     0.134 A 
ATOM     73  C   UNL A   1      35.743  30.711  29.016  1.00  0.00     0.134 A 
ATOM     74  F   UNL A   1      37.873  33.653  29.059  1.00  0.00    -0.206 F 
ATOM     75  C   UNL A   1      35.839  33.276  27.951  1.00  0.00     0.040 A 
ATOM     76  C   UNL A   1      34.721  31.154  28.175  1.00  0.00     0.040 A 
ATOM     77  F   UNL A   1      35.653  29.471  29.518  1.00  0.00    -0.206 F 
ATOM     78  C   UNL A   1      34.766  32.442  27.644  1.00  0.00     0.006 A 
ENDBRANCH  57  71
BRANCH  58  79
ATOM     79  C   UNL A   1      44.359  27.996  34.839  1.00  0.00     0.057 A 
ATOM     80  C   UNL A   1      44.258  26.796  35.551  1.00  0.00     0.134 A 
ATOM     81  C   UNL A   1      45.549  28.722  34.961  1.00  0.00     0.134 A 
ATOM     82  F   UNL A   1      43.133  26.069  35.492  1.00  0.00    -0.206 F 
ATOM     83  C   UNL A   1      45.295  26.343  36.368  1.00  0.00     0.040 A 
ATOM     84  C   UNL A   1      46.603  28.271  35.757  1.00  0.00     0.040 A 
ATOM     85  F   UNL A   1      45.705  29.882  34.303  1.00  0.00    -0.206 F 
ATOM     86  C   UNL A   1      46.473  27.080  36.470  1.00  0.00     0.006 A 
ENDBRANCH  58  79
BRANCH  70  87
ATOM     87  C   UNL A   1      39.116  32.388  36.117  1.00  0.00     0.057 A 
ATOM     88  C   UNL A   1      38.276  31.830  37.089  1.00  0.00     0.134 A 
ATOM     89  C   UNL A   1      39.609  33.680  36.350  1.00  0.00     0.134 A 
ATOM     90  F   UNL A   1      37.762  30.603  36.918  1.00  0.00    -0.206 F 
ATOM     91  C   UNL A   1      37.925  32.537  38.241  1.00  0.00     0.040 A 
ATOM     92  C   UNL A   1      39.284  34.386  37.508  1.00  0.00     0.040 A 
ATOM     93  F   UNL A   1      40.426  34.266  35.463  1.00  0.00    -0.206 F 
ATOM     94  C   UNL A   1      38.435  33.816  38.456  1.00  0.00     0.006 A 
ENDBRANCH  70  87
ENDBRANCH  44  45
ENDBRANCH  37  39
ENDBRANCH  36  37
ENDBRANCH  35  36
ENDBRANCH  34  35
ENDBRANCH  33  34
ENDBRANCH  32  33
ENDBRANCH   1  32
TORSDOF 21
ENDMDL
MODEL 3
REMARK VINA RESULT:     -10.9      3.178      8.879
REMARK SMILES CC(=O)NS(=O)(=O)c1cc(-c2ccn(C(F)F)c(=O)c2)ccc1C(=O)OCCOCCOCCOC(=O)c1ccc(-c2c3nc(c(-c4c(F)cccc4F)c4ccc([nH]4)c(-c4c(F)cccc4F)c4nc(c(-c5c(F)cccc5F)c5ccc2[nH]5)C=C4)C=C3)cc1
REMARK SMILES IDX 30 1 29 2 28 3 27 4 26 5 24 6 25 7 23 8 8 9 9 10 10 11 22 12
REMARK SMILES IDX 21 13 5 14 6 15 7 16 4 17 1 18 2 19 3 20 11 22 12 23 20 24
REMARK SMILES IDX 13 25 18 26 14 27 19 28 15 29 16 30 17 31 31 32 32 33 33 34
REMARK SMILES IDX 34 35 35 36 36 37 37 38 38 39 39 40 91 41 40 42 90 43 41 44
REMARK SMILES IDX 42 45 43 46 84 47 44 48 89 49 83 50 85 51 45 52 88 53 82 54
REMARK SMILES IDX 81 55 46 57 72 58 55 59 71 60 56 61 59 62 70 63 86 64 57 65
REMARK SMILES IDX 58 66 69 68 87 69 60 70 47 71 48 72 53 73 49 74 50 75 52 76
REMARK SMILES IDX 54 77 51 78 73 79 74 80 79 81 75 82 76 83 78 84 80 85 77 86
REMARK SMILES IDX 61 87 62 88 67 89 63 90 64 91 66 92 68 93 65 94
REMARK H PARENT 4 21 85 56 59 67
REMARK Flexibility Score: inf
ROOT
ATOM      1  C   UNL A   1      31.933  28.116  24.440  1.00  0.00     0.188 C 
ENDROOT
BRANCH   1   2
ATOM      2  O   UNL A   1      31.059  27.005  24.303  1.00  0.00    -0.376 OA
BRANCH   2   3
ATOM      3  C   UNL A   1      31.074  26.059  25.367  1.00  0.00     0.202 C 
BRANCH   3   4
ATOM      4  C   UNL A   1      31.150  24.615  24.871  1.00  0.00     0.261 C 
BRANCH   4   5
ATOM      5  O   UNL A   1      32.419  24.000  25.147  1.00  0.00    -0.460 OA
BRANCH   5   6
ATOM      6  C   UNL A   1      33.157  23.603  24.101  1.00  0.00     0.339 C 
ATOM      7  O   UNL A   1      32.900  23.794  22.924  1.00  0.00    -0.246 OA
BRANCH   6   8
ATOM      8  C   UNL A   1      34.462  23.065  24.563  1.00  0.00     0.080 A 
ATOM      9  C   UNL A   1      34.776  21.713  24.747  1.00  0.00     0.103 A 
ATOM     10  C   UNL A   1      36.104  21.344  25.006  1.00  0.00     0.032 A 
ATOM     11  C   UNL A   1      37.088  22.305  25.265  1.00  0.00    -0.017 A 
ATOM     12  C   UNL A   1      35.463  24.030  24.789  1.00  0.00     0.018 A 
ATOM     13  C   UNL A   1      36.753  23.656  25.180  1.00  0.00     0.010 A 
BRANCH   9  14
ATOM     14  S   UNL A   1      33.530  20.455  24.812  1.00  0.00     0.264 S 
ATOM     15  O   UNL A   1      32.877  20.443  23.522  1.00  0.00    -0.201 OA
ATOM     16  O   UNL A   1      32.811  20.572  26.057  1.00  0.00    -0.201 OA
BRANCH  14  17
ATOM     17  N   UNL A   1      34.369  19.000  24.919  1.00  0.00    -0.249 N 
ATOM     18  C   UNL A   1      32.595  17.257  25.159  1.00  0.00     0.115 C 
ATOM     19  C   UNL A   1      33.820  17.782  24.453  1.00  0.00     0.230 C 
ATOM     20  O   UNL A   1      34.461  17.098  23.667  1.00  0.00    -0.274 OA
ATOM     21  H   UNL A   1      35.269  18.996  25.319  1.00  0.00     0.183 HD
ENDBRANCH  14  17
ENDBRANCH   9  14
BRANCH  11  22
ATOM     22  C   UNL A   1      38.417  21.859  25.718  1.00  0.00    -0.011 A 
ATOM     23  C   UNL A   1      39.282  22.696  26.529  1.00  0.00     0.027 A 
ATOM     24  C   UNL A   1      38.796  20.599  25.444  1.00  0.00     0.080 A 
ATOM     25  C   UNL A   1      40.436  22.216  27.009  1.00  0.00     0.095 A 
ATOM     26  C   UNL A   1      40.079  20.053  25.968  1.00  0.00     0.255 A 
ATOM     27  N   UNL A   1      40.834  20.920  26.740  1.00  0.00    -0.258 N 
ATOM     28  O   UNL A   1      40.367  18.891  25.701  1.00  0.00    -0.269 OA
BRANCH  27  29
ATOM     29  C   UNL A   1      42.075  20.410  27.266  1.00  0.00     0.451 C 
ATOM     30  F   UNL A   1      42.987  20.241  26.280  1.00  0.00    -0.185 F 
ATOM     31  F   UNL A   1      42.598  21.259  28.184  1.00  0.00    -0.185 F 
ENDBRANCH  27  29
ENDBRANCH  11  22
ENDBRANCH   6   8
ENDBRANCH   5   6
ENDBRANCH   4   5
ENDBRANCH   3   4
ENDBRANCH   2   3
ENDBRANCH   1   2
BRANCH   1  32
ATOM     32  C   UNL A   1      31.736  28.966  25.710  1.00  0.00     0.188 C 
BRANCH  32  33
ATOM     33  O   UNL A   1      31.865  30.379  25.714  1.00  0.00    -0.376 OA
BRANCH  33  34
ATOM     34  C   UNL A   1      32.164  31.072  26.913  1.00  0.00     0.202 C 
BRANCH  34  35
ATOM     35  C   UNL A   1      31.867  32.571  26.911  1.00  0.00     0.261 C 
BRANCH  35  36
ATOM     36  O   UNL A   1      33.050  33.383  26.946  1.00  0.00    -0.460 OA
BRANCH  36  37
ATOM     37  C   UNL A   1      33.183  34.148  28.054  1.00  0.00     0.338 C 
ATOM     38  O   UNL A   1      32.462  35.060  28.423  1.00  0.00    -0.246 OA
BRANCH  37  39
ATOM     39  C   UNL A   1      34.281  33.624  28.891  1.00  0.00     0.060 A 
ATOM     40  C   UNL A   1      35.578  34.077  28.617  1.00  0.00     0.016 A 
ATOM     41  C   UNL A   1      34.058  32.667  29.884  1.00  0.00     0.016 A 
ATOM     42  C   UNL A   1      36.664  33.547  29.309  1.00  0.00     0.010 A 
ATOM     43  C   UNL A   1      35.151  32.119  30.562  1.00  0.00     0.010 A 
ATOM     44  C   UNL A   1      36.458  32.532  30.252  1.00  0.00    -0.014 A 
BRANCH  44  45
ATOM     45  C   UNL A   1      37.626  31.777  30.758  1.00  0.00     0.031 A 
ATOM     46  C   UNL A   1      38.057  31.997  32.181  1.00  0.00     0.074 A 
ATOM     47  C   UNL A   1      38.267  30.885  29.985  1.00  0.00     0.049 A 
ATOM     48  N   UNL A   1      39.036  31.442  32.848  1.00  0.00    -0.248 NA
ATOM     49  C   UNL A   1      37.272  32.971  32.959  1.00  0.00     0.031 C 
ATOM     50  C   UNL A   1      37.922  30.559  28.603  1.00  0.00     0.029 A 
ATOM     51  N   UNL A   1      39.351  30.090  30.260  1.00  0.00    -0.354 N 
ATOM     52  C   UNL A   1      38.983  31.994  34.121  1.00  0.00     0.074 A 
ATOM     53  C   UNL A   1      37.893  32.944  34.129  1.00  0.00     0.031 C 
ATOM     54  C   UNL A   1      38.789  29.638  28.145  1.00  0.00     0.029 A 
ATOM     55  C   UNL A   1      39.758  29.328  29.195  1.00  0.00     0.049 A 
ATOM     56  H   UNL A   1      39.794  30.069  31.139  1.00  0.00     0.167 HD
ATOM     57  C   UNL A   1      39.768  31.726  35.191  1.00  0.00     0.037 A 
ATOM     58  C   UNL A   1      40.806  28.489  29.080  1.00  0.00     0.037 A 
ATOM     59  C   UNL A   1      40.863  30.796  35.181  1.00  0.00     0.049 A 
ATOM     60  C   UNL A   1      41.712  28.267  30.263  1.00  0.00     0.074 A 
ATOM     61  C   UNL A   1      41.712  30.452  36.218  1.00  0.00     0.029 A 
ATOM     62  N   UNL A   1      41.267  30.070  34.072  1.00  0.00    -0.354 N 
ATOM     63  N   UNL A   1      41.631  28.767  31.472  1.00  0.00    -0.248 NA
ATOM     64  C   UNL A   1      42.853  27.361  30.063  1.00  0.00     0.031 C 
ATOM     65  C   UNL A   1      42.657  29.546  35.725  1.00  0.00     0.029 A 
ATOM     66  C   UNL A   1      42.369  29.295  34.392  1.00  0.00     0.049 A 
ATOM     67  H   UNL A   1      40.835  30.101  33.188  1.00  0.00     0.167 HD
ATOM     68  C   UNL A   1      42.692  28.218  32.182  1.00  0.00     0.074 A 
ATOM     69  C   UNL A   1      43.396  27.338  31.272  1.00  0.00     0.031 C 
ATOM     70  C   UNL A   1      43.051  28.420  33.474  1.00  0.00     0.037 A 
BRANCH  57  71
ATOM     71  C   UNL A   1      39.475  32.476  36.455  1.00  0.00     0.057 A 
ATOM     72  C   UNL A   1      40.160  33.652  36.788  1.00  0.00     0.134 A 
ATOM     73  C   UNL A   1      38.490  32.026  37.340  1.00  0.00     0.134 A 
ATOM     74  F   UNL A   1      41.130  34.124  35.990  1.00  0.00    -0.206 F 
ATOM     75  C   UNL A   1      39.887  34.344  37.968  1.00  0.00     0.040 A 
ATOM     76  C   UNL A   1      38.193  32.720  38.514  1.00  0.00     0.040 A 
ATOM     77  F   UNL A   1      37.799  30.906  37.079  1.00  0.00    -0.206 F 
ATOM     78  C   UNL A   1      38.897  33.881  38.832  1.00  0.00     0.006 A 
ENDBRANCH  57  71
BRANCH  58  79
ATOM     79  C   UNL A   1      41.070  27.800  27.793  1.00  0.00     0.057 A 
ATOM     80  C   UNL A   1      40.579  26.514  27.545  1.00  0.00     0.134 A 
ATOM     81  C   UNL A   1      41.845  28.400  26.794  1.00  0.00     0.134 A 
ATOM     82  F   UNL A   1      39.850  25.879  28.475  1.00  0.00    -0.206 F 
ATOM     83  C   UNL A   1      40.863  25.841  26.355  1.00  0.00     0.040 A 
ATOM     84  C   UNL A   1      42.119  27.748  25.591  1.00  0.00     0.040 A 
ATOM     85  F   UNL A   1      42.345  29.632  26.974  1.00  0.00    -0.206 F 
ATOM     86  C   UNL A   1      41.632  26.460  25.373  1.00  0.00     0.006 A 
ENDBRANCH  58  79
BRANCH  70  87
ATOM     87  C   UNL A   1      44.235  27.656  33.988  1.00  0.00     0.057 A 
ATOM     88  C   UNL A   1      45.533  28.178  33.928  1.00  0.00     0.134 A 
ATOM     89  C   UNL A   1      44.067  26.402  34.590  1.00  0.00     0.134 A 
ATOM     90  F   UNL A   1      45.761  29.368  33.353  1.00  0.00    -0.206 F 
ATOM     91  C   UNL A   1      46.625  27.471  34.434  1.00  0.00     0.040 A 
ATOM     92  C   UNL A   1      45.148  25.697  35.119  1.00  0.00     0.040 A 
ATOM     93  F   UNL A   1      42.847  25.852  34.686  1.00  0.00    -0.206 F 
ATOM     94  C   UNL A   1      46.433  26.229  35.037  1.00  0.00     0.006 A 
ENDBRANCH  70  87
ENDBRANCH  44  45
ENDBRANCH  37  39
ENDBRANCH  36  37
ENDBRANCH  35  36
ENDBRANCH  34  35
ENDBRANCH  33  34
ENDBRANCH  32  33
ENDBRANCH   1  32
TORSDOF 21
ENDMDL
