MODEL 1
REMARK VINA RESULT:     -11.3      0.000      0.000
REMARK SMILES NC(=O)c1cc(NC(=O)/C=C\C(=O)OCCOCCOCCOC(=O)c2ccc(-c3c4nc(c(-c5c(F)cccc5F)c5ccc([nH]5)c(-c5c(F)cccc5F)c5nc(c(-c6c(F)cccc6F)c6ccc3[nH]6)C=C5)C=C4)cc2)ccc1N1CCOCC1
REMARK SMILES IDX 18 1 17 2 16 3 15 4 14 5 12 6 13 7 11 8 10 9 8 10 7 11 9 13
REMARK SMILES IDX 6 14 4 15 5 16 82 17 81 18 80 19 2 20 1 21 3 24 83 25 84 26
REMARK SMILES IDX 88 27 85 28 87 29 86 30 19 31 20 32 21 33 22 34 23 35 24 36
REMARK SMILES IDX 25 37 26 38 27 39 79 40 28 41 78 42 29 43 30 44 31 45 72 46
REMARK SMILES IDX 32 47 77 48 71 49 73 50 33 51 76 52 70 53 69 54 34 56 60 57
REMARK SMILES IDX 43 58 59 59 44 60 47 61 58 62 74 63 45 64 46 65 57 67 75 68
REMARK SMILES IDX 48 69 35 70 36 71 41 72 37 73 38 74 40 75 42 76 39 77 61 78
REMARK SMILES IDX 62 79 67 80 63 81 64 82 66 83 68 84 65 85 49 86 50 87 55 88
REMARK SMILES IDX 51 89 52 90 54 91 56 92 53 93
REMARK H PARENT 7 12 1 22 1 23 73 55 47 66
REMARK Flexibility Score: inf
ROOT
ATOM      1  C   UNL A   1      31.894  28.454  27.507  1.00  0.00     0.188 C 
ENDROOT
BRANCH   1   2
ATOM      2  O   UNL A   1      31.115  27.294  27.304  1.00  0.00    -0.376 OA
BRANCH   2   3
ATOM      3  C   UNL A   1      31.561  26.410  26.292  1.00  0.00     0.202 C 
BRANCH   3   4
ATOM      4  C   UNL A   1      31.585  24.903  26.557  1.00  0.00     0.261 C 
BRANCH   4   5
ATOM      5  O   UNL A   1      31.787  23.890  25.537  1.00  0.00    -0.460 OA
BRANCH   5   6
ATOM      6  C   UNL A   1      32.914  23.275  25.169  1.00  0.00     0.331 C 
ATOM      7  O   UNL A   1      33.130  22.073  25.066  1.00  0.00    -0.247 OA
BRANCH   6   8
ATOM      8  C   UNL A   1      33.942  24.246  24.780  1.00  0.00     0.099 C 
ATOM      9  C   UNL A   1      34.013  24.797  23.561  1.00  0.00     0.079 C 
BRANCH   9  10
ATOM     10  C   UNL A   1      33.159  24.467  22.399  1.00  0.00     0.248 C 
ATOM     11  N   UNL A   1      32.042  25.176  22.048  1.00  0.00    -0.322 N 
ATOM     12  H   UNL A   1      31.564  24.801  21.274  1.00  0.00     0.170 HD
ATOM     13  O   UNL A   1      33.459  23.463  21.748  1.00  0.00    -0.270 OA
BRANCH  11  14
ATOM     14  C   UNL A   1      31.438  26.338  22.573  1.00  0.00     0.042 A 
ATOM     15  C   UNL A   1      29.461  27.613  23.168  1.00  0.00     0.064 A 
ATOM     16  C   UNL A   1      30.156  26.383  23.107  1.00  0.00     0.042 A 
ATOM     17  C   UNL A   1      30.073  28.829  22.772  1.00  0.00     0.050 A 
ATOM     18  C   UNL A   1      31.441  28.768  22.467  1.00  0.00     0.029 A 
ATOM     19  C   UNL A   1      32.121  27.542  22.380  1.00  0.00     0.028 A 
BRANCH  15  20
ATOM     20  C   UNL A   1      27.998  27.479  23.429  1.00  0.00     0.250 C 
ATOM     21  N   UNL A   1      27.596  26.365  24.109  1.00  0.00    -0.366 N 
ATOM     22  H   UNL A   1      26.641  26.228  24.308  1.00  0.00     0.159 HD
ATOM     23  H   UNL A   1      28.260  25.700  24.402  1.00  0.00     0.159 HD
ATOM     24  O   UNL A   1      27.207  28.360  23.122  1.00  0.00    -0.269 OA
ENDBRANCH  15  20
BRANCH  17  25
ATOM     25  N   UNL A   1      29.363  30.017  22.644  1.00  0.00    -0.366 N 
ATOM     26  C   UNL A   1      29.297  30.891  23.824  1.00  0.00     0.145 C 
ATOM     27  C   UNL A   1      29.184  30.728  21.366  1.00  0.00     0.145 C 
ATOM     28  C   UNL A   1      28.001  31.716  23.772  1.00  0.00     0.181 C 
ATOM     29  C   UNL A   1      27.905  31.585  21.420  1.00  0.00     0.181 C 
ATOM     30  O   UNL A   1      27.906  32.469  22.550  1.00  0.00    -0.378 OA
ENDBRANCH  17  25
ENDBRANCH  11  14
ENDBRANCH   9  10
ENDBRANCH   6   8
ENDBRANCH   5   6
ENDBRANCH   4   5
ENDBRANCH   3   4
ENDBRANCH   2   3
ENDBRANCH   1   2
BRANCH   1  31
ATOM     31  C   UNL A   1      31.770  29.497  26.376  1.00  0.00     0.188 C 
BRANCH  31  32
ATOM     32  O   UNL A   1      32.298  30.799  26.571  1.00  0.00    -0.376 OA
BRANCH  32  33
ATOM     33  C   UNL A   1      31.386  31.885  26.586  1.00  0.00     0.202 C 
BRANCH  33  34
ATOM     34  C   UNL A   1      31.896  33.293  26.954  1.00  0.00     0.261 C 
BRANCH  34  35
ATOM     35  O   UNL A   1      32.401  33.470  28.296  1.00  0.00    -0.460 OA
BRANCH  35  36
ATOM     36  C   UNL A   1      33.525  34.225  28.430  1.00  0.00     0.338 C 
ATOM     37  O   UNL A   1      33.571  35.427  28.628  1.00  0.00    -0.246 OA
BRANCH  36  38
ATOM     38  C   UNL A   1      34.728  33.351  28.561  1.00  0.00     0.060 A 
ATOM     39  C   UNL A   1      34.542  31.976  28.802  1.00  0.00     0.016 A 
ATOM     40  C   UNL A   1      36.021  33.868  28.492  1.00  0.00     0.016 A 
ATOM     41  C   UNL A   1      35.631  31.129  29.021  1.00  0.00     0.010 A 
ATOM     42  C   UNL A   1      37.113  33.030  28.764  1.00  0.00     0.010 A 
ATOM     43  C   UNL A   1      36.918  31.670  29.081  1.00  0.00    -0.014 A 
BRANCH  43  44
ATOM     44  C   UNL A   1      37.990  30.907  29.773  1.00  0.00     0.031 A 
ATOM     45  C   UNL A   1      38.212  31.191  31.238  1.00  0.00     0.074 A 
ATOM     46  C   UNL A   1      38.740  29.980  29.153  1.00  0.00     0.049 A 
ATOM     47  N   UNL A   1      39.135  30.742  32.048  1.00  0.00    -0.248 NA
ATOM     48  C   UNL A   1      37.258  32.120  31.868  1.00  0.00     0.031 C 
ATOM     49  C   UNL A   1      38.596  29.563  27.761  1.00  0.00     0.029 A 
ATOM     50  N   UNL A   1      39.792  29.232  29.625  1.00  0.00    -0.354 N 
ATOM     51  C   UNL A   1      38.890  31.355  33.271  1.00  0.00     0.074 A 
ATOM     52  C   UNL A   1      37.748  32.223  33.092  1.00  0.00     0.031 C 
ATOM     53  C   UNL A   1      39.546  28.653  27.481  1.00  0.00     0.029 A 
ATOM     54  C   UNL A   1      40.386  28.452  28.663  1.00  0.00     0.049 A 
ATOM     55  H   UNL A   1      40.090  29.252  30.562  1.00  0.00     0.167 HD
ATOM     56  C   UNL A   1      39.557  31.212  34.441  1.00  0.00     0.037 A 
ATOM     57  C   UNL A   1      41.501  27.694  28.724  1.00  0.00     0.037 A 
ATOM     58  C   UNL A   1      40.692  30.348  34.622  1.00  0.00     0.049 A 
ATOM     59  C   UNL A   1      42.270  27.597  30.018  1.00  0.00     0.074 A 
ATOM     60  C   UNL A   1      41.417  30.108  35.777  1.00  0.00     0.029 A 
ATOM     61  N   UNL A   1      41.275  29.589  33.618  1.00  0.00    -0.354 N 
ATOM     62  N   UNL A   1      42.022  28.163  31.176  1.00  0.00    -0.248 NA
ATOM     63  C   UNL A   1      43.475  26.753  30.014  1.00  0.00     0.031 C 
ATOM     64  C   UNL A   1      42.480  29.259  35.455  1.00  0.00     0.029 A 
ATOM     65  C   UNL A   1      42.375  28.911  34.118  1.00  0.00     0.049 A 
ATOM     66  H   UNL A   1      40.955  29.542  32.688  1.00  0.00     0.167 HD
ATOM     67  C   UNL A   1      43.020  27.723  32.041  1.00  0.00     0.074 A 
ATOM     68  C   UNL A   1      43.869  26.832  31.277  1.00  0.00     0.031 C 
ATOM     69  C   UNL A   1      43.215  28.028  33.348  1.00  0.00     0.037 A 
BRANCH  56  70
ATOM     70  C   UNL A   1      39.102  32.051  35.601  1.00  0.00     0.057 A 
ATOM     71  C   UNL A   1      38.256  31.553  36.601  1.00  0.00     0.134 A 
ATOM     72  C   UNL A   1      39.527  33.381  35.721  1.00  0.00     0.134 A 
ATOM     73  F   UNL A   1      37.795  30.295  36.539  1.00  0.00    -0.206 F 
ATOM     74  C   UNL A   1      37.824  32.357  37.658  1.00  0.00     0.040 A 
ATOM     75  C   UNL A   1      39.129  34.183  36.790  1.00  0.00     0.040 A 
ATOM     76  F   UNL A   1      40.340  33.922  34.800  1.00  0.00    -0.206 F 
ATOM     77  C   UNL A   1      38.266  33.673  37.759  1.00  0.00     0.006 A 
ENDBRANCH  56  70
BRANCH  57  78
ATOM     78  C   UNL A   1      41.981  26.988  27.507  1.00  0.00     0.057 A 
ATOM     79  C   UNL A   1      41.665  25.646  27.267  1.00  0.00     0.134 A 
ATOM     80  C   UNL A   1      42.788  27.636  26.563  1.00  0.00     0.134 A 
ATOM     81  F   UNL A   1      40.924  24.959  28.149  1.00  0.00    -0.206 F 
ATOM     82  C   UNL A   1      42.141  24.972  26.140  1.00  0.00     0.040 A 
ATOM     83  C   UNL A   1      43.247  26.983  25.418  1.00  0.00     0.040 A 
ATOM     84  F   UNL A   1      43.134  28.920  26.735  1.00  0.00    -0.206 F 
ATOM     85  C   UNL A   1      42.928  25.643  25.207  1.00  0.00     0.006 A 
ENDBRANCH  57  78
BRANCH  69  86
ATOM     86  C   UNL A   1      44.370  27.369  34.052  1.00  0.00     0.057 A 
ATOM     87  C   UNL A   1      45.632  27.969  34.139  1.00  0.00     0.134 A 
ATOM     88  C   UNL A   1      44.200  26.131  34.691  1.00  0.00     0.134 A 
ATOM     89  F   UNL A   1      45.866  29.150  33.546  1.00  0.00    -0.206 F 
ATOM     90  C   UNL A   1      46.691  27.352  34.809  1.00  0.00     0.040 A 
ATOM     91  C   UNL A   1      45.242  25.520  35.390  1.00  0.00     0.040 A 
ATOM     92  F   UNL A   1      43.015  25.505  34.660  1.00  0.00    -0.206 F 
ATOM     93  C   UNL A   1      46.495  26.127  35.443  1.00  0.00     0.006 A 
ENDBRANCH  69  86
ENDBRANCH  43  44
ENDBRANCH  36  38
ENDBRANCH  35  36
ENDBRANCH  34  35
ENDBRANCH  33  34
ENDBRANCH  32  33
ENDBRANCH  31  32
ENDBRANCH   1  31
TORSDOF 21
ENDMDL
MODEL 2
REMARK VINA RESULT:     -11.0      3.072      8.163
REMARK SMILES NC(=O)c1cc(NC(=O)/C=C\C(=O)OCCOCCOCCOC(=O)c2ccc(-c3c4nc(c(-c5c(F)cccc5F)c5ccc([nH]5)c(-c5c(F)cccc5F)c5nc(c(-c6c(F)cccc6F)c6ccc3[nH]6)C=C5)C=C4)cc2)ccc1N1CCOCC1
REMARK SMILES IDX 18 1 17 2 16 3 15 4 14 5 12 6 13 7 11 8 10 9 8 10 7 11 9 13
REMARK SMILES IDX 6 14 4 15 5 16 82 17 81 18 80 19 2 20 1 21 3 24 83 25 84 26
REMARK SMILES IDX 88 27 85 28 87 29 86 30 19 31 20 32 21 33 22 34 23 35 24 36
REMARK SMILES IDX 25 37 26 38 27 39 79 40 28 41 78 42 29 43 30 44 31 45 72 46
REMARK SMILES IDX 32 47 77 48 71 49 73 50 33 51 76 52 70 53 69 54 34 56 60 57
REMARK SMILES IDX 43 58 59 59 44 60 47 61 58 62 74 63 45 64 46 65 57 67 75 68
REMARK SMILES IDX 48 69 35 70 36 71 41 72 37 73 38 74 40 75 42 76 39 77 61 78
REMARK SMILES IDX 62 79 67 80 63 81 64 82 66 83 68 84 65 85 49 86 50 87 55 88
REMARK SMILES IDX 51 89 52 90 54 91 56 92 53 93
REMARK H PARENT 7 12 1 22 1 23 73 55 47 66
REMARK Flexibility Score: inf
ROOT
ATOM      1  C   UNL A   1      41.260  21.721  26.695  1.00  0.00     0.188 C 
ENDROOT
BRANCH   1   2
ATOM      2  O   UNL A   1      40.587  22.963  26.666  1.00  0.00    -0.376 OA
BRANCH   2   3
ATOM      3  C   UNL A   1      39.183  22.909  26.495  1.00  0.00     0.202 C 
BRANCH   3   4
ATOM      4  C   UNL A   1      38.553  21.728  25.756  1.00  0.00     0.261 C 
BRANCH   4   5
ATOM      5  O   UNL A   1      37.749  21.841  24.552  1.00  0.00    -0.460 OA
BRANCH   5   6
ATOM      6  C   UNL A   1      36.800  22.732  24.252  1.00  0.00     0.331 C 
ATOM      7  O   UNL A   1      36.562  23.260  23.172  1.00  0.00    -0.247 OA
BRANCH   6   8
ATOM      8  C   UNL A   1      35.931  22.987  25.406  1.00  0.00     0.099 C 
ATOM      9  C   UNL A   1      34.817  22.288  25.660  1.00  0.00     0.079 C 
BRANCH   9  10
ATOM     10  C   UNL A   1      34.228  21.235  24.802  1.00  0.00     0.248 C 
ATOM     11  N   UNL A   1      33.168  21.443  23.961  1.00  0.00    -0.322 N 
ATOM     12  H   UNL A   1      32.872  20.630  23.492  1.00  0.00     0.170 HD
ATOM     13  O   UNL A   1      34.700  20.100  24.900  1.00  0.00    -0.270 OA
BRANCH  11  14
ATOM     14  C   UNL A   1      32.414  22.589  23.631  1.00  0.00     0.042 A 
ATOM     15  C   UNL A   1      32.196  24.730  22.509  1.00  0.00     0.064 A 
ATOM     16  C   UNL A   1      32.652  23.392  22.521  1.00  0.00     0.042 A 
ATOM     17  C   UNL A   1      31.422  25.258  23.574  1.00  0.00     0.050 A 
ATOM     18  C   UNL A   1      31.007  24.344  24.555  1.00  0.00     0.029 A 
ATOM     19  C   UNL A   1      31.484  23.023  24.579  1.00  0.00     0.028 A 
BRANCH  15  20
ATOM     20  C   UNL A   1      32.803  25.576  21.440  1.00  0.00     0.250 C 
ATOM     21  N   UNL A   1      32.118  25.659  20.261  1.00  0.00    -0.366 N 
ATOM     22  H   UNL A   1      32.475  26.203  19.523  1.00  0.00     0.159 HD
ATOM     23  H   UNL A   1      31.268  25.175  20.150  1.00  0.00     0.159 HD
ATOM     24  O   UNL A   1      33.820  26.227  21.636  1.00  0.00    -0.269 OA
ENDBRANCH  15  20
BRANCH  17  25
ATOM     25  N   UNL A   1      31.119  26.609  23.680  1.00  0.00    -0.366 N 
ATOM     26  C   UNL A   1      29.774  27.032  23.266  1.00  0.00     0.145 C 
ATOM     27  C   UNL A   1      31.753  27.514  24.656  1.00  0.00     0.145 C 
ATOM     28  C   UNL A   1      29.826  28.491  22.786  1.00  0.00     0.181 C 
ATOM     29  C   UNL A   1      31.702  28.963  24.134  1.00  0.00     0.181 C 
ATOM     30  O   UNL A   1      30.364  29.359  23.799  1.00  0.00    -0.378 OA
ENDBRANCH  17  25
ENDBRANCH  11  14
ENDBRANCH   9  10
ENDBRANCH   6   8
ENDBRANCH   5   6
ENDBRANCH   4   5
ENDBRANCH   3   4
ENDBRANCH   2   3
ENDBRANCH   1   2
BRANCH   1  31
ATOM     31  C   UNL A   1      42.492  21.656  25.768  1.00  0.00     0.188 C 
BRANCH  31  32
ATOM     32  O   UNL A   1      42.680  22.666  24.790  1.00  0.00    -0.376 OA
BRANCH  32  33
ATOM     33  C   UNL A   1      43.979  22.823  24.245  1.00  0.00     0.202 C 
BRANCH  33  34
ATOM     34  C   UNL A   1      45.204  22.744  25.179  1.00  0.00     0.261 C 
BRANCH  34  35
ATOM     35  O   UNL A   1      45.308  23.761  26.200  1.00  0.00    -0.460 OA
BRANCH  35  36
ATOM     36  C   UNL A   1      45.163  25.051  25.793  1.00  0.00     0.338 C 
ATOM     37  O   UNL A   1      45.578  25.534  24.753  1.00  0.00    -0.246 OA
BRANCH  36  38
ATOM     38  C   UNL A   1      44.195  25.771  26.673  1.00  0.00     0.060 A 
ATOM     39  C   UNL A   1      44.323  27.166  26.820  1.00  0.00     0.016 A 
ATOM     40  C   UNL A   1      43.202  25.093  27.379  1.00  0.00     0.016 A 
ATOM     41  C   UNL A   1      43.502  27.876  27.698  1.00  0.00     0.010 A 
ATOM     42  C   UNL A   1      42.412  25.797  28.301  1.00  0.00     0.010 A 
ATOM     43  C   UNL A   1      42.594  27.181  28.501  1.00  0.00    -0.014 A 
BRANCH  43  44
ATOM     44  C   UNL A   1      42.085  27.825  29.740  1.00  0.00     0.031 A 
ATOM     45  C   UNL A   1      40.818  28.637  29.631  1.00  0.00     0.074 A 
ATOM     46  C   UNL A   1      42.692  27.695  30.931  1.00  0.00     0.049 A 
ATOM     47  N   UNL A   1      40.217  29.376  30.527  1.00  0.00    -0.248 NA
ATOM     48  C   UNL A   1      40.145  28.615  28.321  1.00  0.00     0.031 C 
ATOM     49  C   UNL A   1      43.886  26.895  31.193  1.00  0.00     0.029 A 
ATOM     50  N   UNL A   1      42.387  28.258  32.147  1.00  0.00    -0.354 N 
ATOM     51  C   UNL A   1      39.116  29.927  29.882  1.00  0.00     0.074 A 
ATOM     52  C   UNL A   1      39.143  29.456  28.515  1.00  0.00     0.031 C 
ATOM     53  C   UNL A   1      44.230  27.042  32.485  1.00  0.00     0.029 A 
ATOM     54  C   UNL A   1      43.303  27.974  33.130  1.00  0.00     0.049 A 
ATOM     55  H   UNL A   1      41.588  28.811  32.299  1.00  0.00     0.167 HD
ATOM     56  C   UNL A   1      38.165  30.753  30.379  1.00  0.00     0.037 A 
ATOM     57  C   UNL A   1      43.402  28.444  34.391  1.00  0.00     0.037 A 
ATOM     58  C   UNL A   1      38.134  31.220  31.739  1.00  0.00     0.049 A 
ATOM     59  C   UNL A   1      42.370  29.415  34.909  1.00  0.00     0.074 A 
ATOM     60  C   UNL A   1      37.195  32.034  32.348  1.00  0.00     0.029 A 
ATOM     61  N   UNL A   1      39.092  30.926  32.697  1.00  0.00    -0.354 N 
ATOM     62  N   UNL A   1      41.321  29.916  34.301  1.00  0.00    -0.248 NA
ATOM     63  C   UNL A   1      42.536  29.886  36.293  1.00  0.00     0.031 C 
ATOM     64  C   UNL A   1      37.622  32.288  33.656  1.00  0.00     0.029 A 
ATOM     65  C   UNL A   1      38.787  31.573  33.883  1.00  0.00     0.049 A 
ATOM     66  H   UNL A   1      39.873  30.344  32.555  1.00  0.00     0.167 HD
ATOM     67  C   UNL A   1      40.690  30.735  35.232  1.00  0.00     0.074 A 
ATOM     68  C   UNL A   1      41.467  30.654  36.451  1.00  0.00     0.031 C 
ATOM     69  C   UNL A   1      39.569  31.487  35.091  1.00  0.00     0.037 A 
BRANCH  56  70
ATOM     70  C   UNL A   1      37.111  31.243  29.428  1.00  0.00     0.057 A 
ATOM     71  C   UNL A   1      37.142  32.526  28.869  1.00  0.00     0.134 A 
ATOM     72  C   UNL A   1      36.047  30.407  29.062  1.00  0.00     0.134 A 
ATOM     73  F   UNL A   1      38.122  33.385  29.191  1.00  0.00    -0.206 F 
ATOM     74  C   UNL A   1      36.138  32.972  28.007  1.00  0.00     0.040 A 
ATOM     75  C   UNL A   1      35.056  30.829  28.176  1.00  0.00     0.040 A 
ATOM     76  F   UNL A   1      35.955  29.163  29.558  1.00  0.00    -0.206 F 
ATOM     77  C   UNL A   1      35.095  32.120  27.653  1.00  0.00     0.006 A 
ENDBRANCH  56  70
BRANCH  57  78
ATOM     78  C   UNL A   1      44.542  28.027  35.249  1.00  0.00     0.057 A 
ATOM     79  C   UNL A   1      44.451  26.921  36.101  1.00  0.00     0.134 A 
ATOM     80  C   UNL A   1      45.748  28.741  35.249  1.00  0.00     0.134 A 
ATOM     81  F   UNL A   1      43.312  26.215  36.171  1.00  0.00    -0.206 F 
ATOM     82  C   UNL A   1      45.510  26.546  36.930  1.00  0.00     0.040 A 
ATOM     83  C   UNL A   1      46.825  28.360  36.052  1.00  0.00     0.040 A 
ATOM     84  F   UNL A   1      45.900  29.814  34.461  1.00  0.00    -0.206 F 
ATOM     85  C   UNL A   1      46.705  27.262  36.901  1.00  0.00     0.006 A 
ENDBRANCH  57  78
BRANCH  69  86
ATOM     86  C   UNL A   1      39.090  32.255  36.293  1.00  0.00     0.057 A 
ATOM     87  C   UNL A   1      39.499  33.569  36.551  1.00  0.00     0.134 A 
ATOM     88  C   UNL A   1      38.169  31.682  37.182  1.00  0.00     0.134 A 
ATOM     89  F   UNL A   1      40.384  34.176  35.745  1.00  0.00    -0.206 F 
ATOM     90  C   UNL A   1      39.035  34.275  37.662  1.00  0.00     0.040 A 
ATOM     91  C   UNL A   1      37.674  32.389  38.279  1.00  0.00     0.040 A 
ATOM     92  F   UNL A   1      37.723  30.431  36.990  1.00  0.00    -0.206 F 
ATOM     93  C   UNL A   1      38.113  33.687  38.526  1.00  0.00     0.006 A 
ENDBRANCH  69  86
ENDBRANCH  43  44
ENDBRANCH  36  38
ENDBRANCH  35  36
ENDBRANCH  34  35
ENDBRANCH  33  34
ENDBRANCH  32  33
ENDBRANCH  31  32
ENDBRANCH   1  31
TORSDOF 21
ENDMDL
MODEL 3
REMARK VINA RESULT:     -10.7      0.582      5.895
REMARK SMILES NC(=O)c1cc(NC(=O)/C=C\C(=O)OCCOCCOCCOC(=O)c2ccc(-c3c4nc(c(-c5c(F)cccc5F)c5ccc([nH]5)c(-c5c(F)cccc5F)c5nc(c(-c6c(F)cccc6F)c6ccc3[nH]6)C=C5)C=C4)cc2)ccc1N1CCOCC1
REMARK SMILES IDX 18 1 17 2 16 3 15 4 14 5 12 6 13 7 11 8 10 9 8 10 7 11 9 13
REMARK SMILES IDX 6 14 4 15 5 16 82 17 81 18 80 19 2 20 1 21 3 24 83 25 84 26
REMARK SMILES IDX 88 27 85 28 87 29 86 30 19 31 20 32 21 33 22 34 23 35 24 36
REMARK SMILES IDX 25 37 26 38 27 39 79 40 28 41 78 42 29 43 30 44 31 45 72 46
REMARK SMILES IDX 32 47 77 48 71 49 73 50 33 51 76 52 70 53 69 54 34 56 60 57
REMARK SMILES IDX 43 58 59 59 44 60 47 61 58 62 74 63 45 64 46 65 57 67 75 68
REMARK SMILES IDX 48 69 35 70 36 71 41 72 37 73 38 74 40 75 42 76 39 77 61 78
REMARK SMILES IDX 62 79 67 80 63 81 64 82 66 83 68 84 65 85 49 86 50 87 55 88
REMARK SMILES IDX 51 89 52 90 54 91 56 92 53 93
REMARK H PARENT 7 12 1 22 1 23 73 55 47 66
REMARK Flexibility Score: inf
ROOT
ATOM      1  C   UNL A   1      32.329  27.537  27.013  1.00  0.00     0.188 C 
ENDROOT
BRANCH   1   2
ATOM      2  O   UNL A   1      31.009  27.034  27.013  1.00  0.00    -0.376 OA
BRANCH   2   3
ATOM      3  C   UNL A   1      30.762  25.927  26.166  1.00  0.00     0.202 C 
BRANCH   3   4
ATOM      4  C   UNL A   1      31.423  24.580  26.464  1.00  0.00     0.261 C 
BRANCH   4   5
ATOM      5  O   UNL A   1      31.812  23.611  25.455  1.00  0.00    -0.460 OA
BRANCH   5   6
ATOM      6  C   UNL A   1      33.034  23.277  25.032  1.00  0.00     0.331 C 
ATOM      7  O   UNL A   1      33.445  22.179  24.676  1.00  0.00    -0.247 OA
BRANCH   6   8
ATOM      8  C   UNL A   1      33.901  24.456  24.937  1.00  0.00     0.099 C 
ATOM      9  C   UNL A   1      33.995  25.217  23.838  1.00  0.00     0.079 C 
BRANCH   9  10
ATOM     10  C   UNL A   1      33.342  24.960  22.535  1.00  0.00     0.248 C 
ATOM     11  N   UNL A   1      32.297  25.698  22.049  1.00  0.00    -0.322 N 
ATOM     12  H   UNL A   1      31.951  25.370  21.187  1.00  0.00     0.170 HD
ATOM     13  O   UNL A   1      33.743  23.990  21.886  1.00  0.00    -0.270 OA
BRANCH  11  14
ATOM     14  C   UNL A   1      31.616  26.834  22.532  1.00  0.00     0.042 A 
ATOM     15  C   UNL A   1      29.556  27.999  23.072  1.00  0.00     0.064 A 
ATOM     16  C   UNL A   1      30.327  26.814  23.054  1.00  0.00     0.042 A 
ATOM     17  C   UNL A   1      30.094  29.239  22.644  1.00  0.00     0.050 A 
ATOM     18  C   UNL A   1      31.467  29.255  22.353  1.00  0.00     0.029 A 
ATOM     19  C   UNL A   1      32.224  28.072  22.309  1.00  0.00     0.028 A 
BRANCH  15  20
ATOM     20  C   UNL A   1      28.101  27.781  23.324  1.00  0.00     0.250 C 
ATOM     21  N   UNL A   1      27.747  26.580  23.870  1.00  0.00    -0.366 N 
ATOM     22  H   UNL A   1      26.801  26.385  24.057  1.00  0.00     0.159 HD
ATOM     23  H   UNL A   1      28.438  25.910  24.078  1.00  0.00     0.159 HD
ATOM     24  O   UNL A   1      27.276  28.663  23.129  1.00  0.00    -0.269 OA
ENDBRANCH  15  20
BRANCH  17  25
ATOM     25  N   UNL A   1      29.313  30.376  22.474  1.00  0.00    -0.366 N 
ATOM     26  C   UNL A   1      28.455  30.430  21.283  1.00  0.00     0.145 C 
ATOM     27  C   UNL A   1      28.838  31.213  23.589  1.00  0.00     0.145 C 
ATOM     28  C   UNL A   1      28.237  31.898  20.880  1.00  0.00     0.181 C 
ATOM     29  C   UNL A   1      28.576  32.648  23.090  1.00  0.00     0.181 C 
ATOM     30  O   UNL A   1      27.685  32.663  21.965  1.00  0.00    -0.378 OA
ENDBRANCH  17  25
ENDBRANCH  11  14
ENDBRANCH   9  10
ENDBRANCH   6   8
ENDBRANCH   5   6
ENDBRANCH   4   5
ENDBRANCH   3   4
ENDBRANCH   2   3
ENDBRANCH   1   2
BRANCH   1  31
ATOM     31  C   UNL A   1      32.668  28.404  25.782  1.00  0.00     0.188 C 
BRANCH  31  32
ATOM     32  O   UNL A   1      32.778  29.810  25.932  1.00  0.00    -0.376 OA
BRANCH  32  33
ATOM     33  C   UNL A   1      31.578  30.564  25.978  1.00  0.00     0.202 C 
BRANCH  33  34
ATOM     34  C   UNL A   1      31.640  32.060  26.350  1.00  0.00     0.261 C 
BRANCH  34  35
ATOM     35  O   UNL A   1      32.063  32.377  27.694  1.00  0.00    -0.460 OA
BRANCH  35  36
ATOM     36  C   UNL A   1      33.007  33.348  27.824  1.00  0.00     0.338 C 
ATOM     37  O   UNL A   1      32.807  34.549  27.890  1.00  0.00    -0.246 OA
BRANCH  36  38
ATOM     38  C   UNL A   1      34.337  32.745  28.136  1.00  0.00     0.060 A 
ATOM     39  C   UNL A   1      34.392  31.391  28.521  1.00  0.00     0.016 A 
ATOM     40  C   UNL A   1      35.510  33.497  28.097  1.00  0.00     0.016 A 
ATOM     41  C   UNL A   1      35.596  30.802  28.910  1.00  0.00     0.010 A 
ATOM     42  C   UNL A   1      36.711  32.922  28.539  1.00  0.00     0.010 A 
ATOM     43  C   UNL A   1      36.748  31.588  28.996  1.00  0.00    -0.014 A 
BRANCH  43  44
ATOM     44  C   UNL A   1      37.878  31.124  29.843  1.00  0.00     0.031 A 
ATOM     45  C   UNL A   1      38.844  30.138  29.235  1.00  0.00     0.074 A 
ATOM     46  C   UNL A   1      38.074  31.561  31.098  1.00  0.00     0.049 A 
ATOM     47  N   UNL A   1      39.850  29.505  29.782  1.00  0.00    -0.248 NA
ATOM     48  C   UNL A   1      38.634  29.818  27.813  1.00  0.00     0.031 C 
ATOM     49  C   UNL A   1      37.256  32.556  31.789  1.00  0.00     0.029 A 
ATOM     50  N   UNL A   1      39.024  31.201  32.024  1.00  0.00    -0.354 N 
ATOM     51  C   UNL A   1      40.371  28.693  28.781  1.00  0.00     0.074 A 
ATOM     52  C   UNL A   1      39.559  28.897  27.602  1.00  0.00     0.031 C 
ATOM     53  C   UNL A   1      37.723  32.705  33.041  1.00  0.00     0.029 A 
ATOM     54  C   UNL A   1      38.848  31.792  33.251  1.00  0.00     0.049 A 
ATOM     55  H   UNL A   1      39.761  30.581  31.825  1.00  0.00     0.167 HD
ATOM     56  C   UNL A   1      41.430  27.852  28.834  1.00  0.00     0.037 A 
ATOM     57  C   UNL A   1      39.496  31.587  34.416  1.00  0.00     0.037 A 
ATOM     58  C   UNL A   1      42.241  27.650  30.005  1.00  0.00     0.049 A 
ATOM     59  C   UNL A   1      40.632  30.597  34.476  1.00  0.00     0.074 A 
ATOM     60  C   UNL A   1      43.355  26.843  30.152  1.00  0.00     0.029 A 
ATOM     61  N   UNL A   1      42.016  28.252  31.235  1.00  0.00    -0.354 N 
ATOM     62  N   UNL A   1      41.133  29.848  33.521  1.00  0.00    -0.248 NA
ATOM     63  C   UNL A   1      41.296  30.423  35.777  1.00  0.00     0.031 C 
ATOM     64  C   UNL A   1      43.764  26.903  31.489  1.00  0.00     0.029 A 
ATOM     65  C   UNL A   1      42.949  27.804  32.156  1.00  0.00     0.049 A 
ATOM     66  H   UNL A   1      41.300  28.900  31.424  1.00  0.00     0.167 HD
ATOM     67  C   UNL A   1      42.183  29.139  34.098  1.00  0.00     0.074 A 
ATOM     68  C   UNL A   1      42.256  29.558  35.483  1.00  0.00     0.031 C 
ATOM     69  C   UNL A   1      43.011  28.226  33.533  1.00  0.00     0.037 A 
BRANCH  56  70
ATOM     70  C   UNL A   1      41.736  27.049  27.603  1.00  0.00     0.057 A 
ATOM     71  C   UNL A   1      41.240  25.753  27.409  1.00  0.00     0.134 A 
ATOM     72  C   UNL A   1      42.540  27.588  26.590  1.00  0.00     0.134 A 
ATOM     73  F   UNL A   1      40.481  25.167  28.348  1.00  0.00    -0.206 F 
ATOM     74  C   UNL A   1      41.558  25.013  26.269  1.00  0.00     0.040 A 
ATOM     75  C   UNL A   1      42.837  26.871  25.431  1.00  0.00     0.040 A 
ATOM     76  F   UNL A   1      43.048  28.826  26.709  1.00  0.00    -0.206 F 
ATOM     77  C   UNL A   1      42.353  25.574  25.273  1.00  0.00     0.006 A 
ENDBRANCH  56  70
BRANCH  57  78
ATOM     78  C   UNL A   1      39.065  32.314  35.640  1.00  0.00     0.057 A 
ATOM     79  C   UNL A   1      38.234  31.714  36.592  1.00  0.00     0.134 A 
ATOM     80  C   UNL A   1      39.460  33.637  35.874  1.00  0.00     0.134 A 
ATOM     81  F   UNL A   1      37.794  30.460  36.410  1.00  0.00    -0.206 F 
ATOM     82  C   UNL A   1      37.802  32.405  37.727  1.00  0.00     0.040 A 
ATOM     83  C   UNL A   1      39.059  34.330  37.018  1.00  0.00     0.040 A 
ATOM     84  F   UNL A   1      40.251  34.274  34.998  1.00  0.00    -0.206 F 
ATOM     85  C   UNL A   1      38.222  33.716  37.946  1.00  0.00     0.006 A 
ENDBRANCH  57  78
BRANCH  69  86
ATOM     86  C   UNL A   1      44.095  27.640  34.397  1.00  0.00     0.057 A 
ATOM     87  C   UNL A   1      45.339  28.263  34.559  1.00  0.00     0.134 A 
ATOM     88  C   UNL A   1      43.871  26.454  35.112  1.00  0.00     0.134 A 
ATOM     89  F   UNL A   1      45.623  29.397  33.900  1.00  0.00    -0.206 F 
ATOM     90  C   UNL A   1      46.330  27.715  35.375  1.00  0.00     0.040 A 
ATOM     91  C   UNL A   1      44.843  25.914  35.955  1.00  0.00     0.040 A 
ATOM     92  F   UNL A   1      42.698  25.810  35.015  1.00  0.00    -0.206 F 
ATOM     93  C   UNL A   1      46.081  26.540  36.083  1.00  0.00     0.006 A 
ENDBRANCH  69  86
ENDBRANCH  43  44
ENDBRANCH  36  38
ENDBRANCH  35  36
ENDBRANCH  34  35
ENDBRANCH  33  34
ENDBRANCH  32  33
ENDBRANCH  31  32
ENDBRANCH   1  31
TORSDOF 21
ENDMDL
