MODEL 1
REMARK VINA RESULT:     -10.6      0.000      0.000
REMARK SMILES O=C(C[C@@H]1CN(c2nc3ccccc3s2)CCO1)OCCOCCOCCOC(=O)c1ccc(-c2c3nc(c(-c4c(F)cccc4F)c4ccc([nH]4)c(-c4c(F)cccc4F)c4nc(c(-c5c(F)cccc5F)c5ccc2[nH]5)C=C4)C=C3)cc1
REMARK SMILES IDX 23 1 22 2 21 3 20 4 19 5 2 6 1 7 3 8 4 9 5 10 18 11 6 12
REMARK SMILES IDX 17 13 16 14 7 15 8 16 15 17 9 18 14 19 10 20 13 21 11 22
REMARK SMILES IDX 12 23 24 24 25 25 26 26 27 27 28 28 29 29 30 30 31 31 32 32
REMARK SMILES IDX 84 33 33 34 83 35 34 36 35 37 36 38 77 39 37 40 82 41 76 42
REMARK SMILES IDX 78 43 38 44 81 45 75 46 74 47 39 49 65 50 48 51 64 52 49 53
REMARK SMILES IDX 52 54 63 55 79 56 50 57 51 58 62 60 80 61 53 62 40 63 41 64
REMARK SMILES IDX 46 65 42 66 43 67 45 68 47 69 44 70 66 71 67 72 72 73 68 74
REMARK SMILES IDX 69 75 71 76 73 77 70 78 54 79 55 80 60 81 56 82 57 83 59 84
REMARK SMILES IDX 61 85 58 86
REMARK H PARENT 78 48 52 59
REMARK Flexibility Score: inf
ROOT
ATOM      1  C   UNL A   1      34.381  28.656  26.751  1.00  0.00     0.188 C 
ENDROOT
BRANCH   1   2
ATOM      2  O   UNL A   1      33.551  27.950  25.853  1.00  0.00    -0.376 OA
BRANCH   2   3
ATOM      3  C   UNL A   1      33.660  28.299  24.490  1.00  0.00     0.202 C 
BRANCH   3   4
ATOM      4  C   UNL A   1      32.331  28.375  23.748  1.00  0.00     0.261 C 
BRANCH   4   5
ATOM      5  O   UNL A   1      32.166  27.556  22.561  1.00  0.00    -0.463 OA
BRANCH   5   6
ATOM      6  C   UNL A   1      32.603  26.348  22.176  1.00  0.00     0.308 C 
ATOM      7  O   UNL A   1      33.595  26.283  21.450  1.00  0.00    -0.252 OA
BRANCH   6   8
ATOM      8  C   UNL A   1      31.858  25.085  22.510  1.00  0.00     0.156 C 
BRANCH   8   9
ATOM      9  C   UNL A   1      32.367  24.262  23.667  1.00  0.00     0.148 C 
ATOM     10  C   UNL A   1      31.610  22.937  23.833  1.00  0.00     0.151 C 
ATOM     11  O   UNL A   1      32.235  25.083  24.856  1.00  0.00    -0.374 OA
ATOM     12  N   UNL A   1      32.165  22.288  24.999  1.00  0.00    -0.343 N 
ATOM     13  C   UNL A   1      32.740  24.407  26.025  1.00  0.00     0.182 C 
ATOM     14  C   UNL A   1      32.066  23.038  26.237  1.00  0.00     0.147 C 
BRANCH  12  15
ATOM     15  C   UNL A   1      32.696  21.054  24.936  1.00  0.00     0.186 A 
ATOM     16  N   UNL A   1      31.983  19.962  25.007  1.00  0.00    -0.220 NA
ATOM     17  S   UNL A   1      34.390  20.816  24.711  1.00  0.00    -0.097 S 
ATOM     18  C   UNL A   1      32.787  18.855  24.831  1.00  0.00     0.084 A 
ATOM     19  C   UNL A   1      34.149  19.116  24.672  1.00  0.00     0.056 A 
ATOM     20  C   UNL A   1      32.342  17.520  24.804  1.00  0.00     0.030 A 
ATOM     21  C   UNL A   1      35.088  18.084  24.509  1.00  0.00     0.021 A 
ATOM     22  C   UNL A   1      33.265  16.485  24.640  1.00  0.00     0.002 A 
ATOM     23  C   UNL A   1      34.621  16.765  24.502  1.00  0.00     0.002 A 
ENDBRANCH  12  15
ENDBRANCH   8   9
ENDBRANCH   6   8
ENDBRANCH   5   6
ENDBRANCH   4   5
ENDBRANCH   3   4
ENDBRANCH   2   3
ENDBRANCH   1   2
BRANCH   1  24
ATOM     24  C   UNL A   1      33.791  29.969  27.288  1.00  0.00     0.188 C 
BRANCH  24  25
ATOM     25  O   UNL A   1      32.385  30.149  27.332  1.00  0.00    -0.376 OA
BRANCH  25  26
ATOM     26  C   UNL A   1      31.787  31.165  26.541  1.00  0.00     0.202 C 
BRANCH  26  27
ATOM     27  C   UNL A   1      31.755  32.610  27.078  1.00  0.00     0.261 C 
BRANCH  27  28
ATOM     28  O   UNL A   1      33.024  33.296  27.151  1.00  0.00    -0.460 OA
BRANCH  28  29
ATOM     29  C   UNL A   1      33.198  34.137  28.205  1.00  0.00     0.338 C 
ATOM     30  O   UNL A   1      32.472  35.056  28.536  1.00  0.00    -0.246 OA
BRANCH  29  31
ATOM     31  C   UNL A   1      34.343  33.693  29.045  1.00  0.00     0.060 A 
ATOM     32  C   UNL A   1      35.607  34.263  28.819  1.00  0.00     0.016 A 
ATOM     33  C   UNL A   1      34.198  32.696  30.009  1.00  0.00     0.016 A 
ATOM     34  C   UNL A   1      36.725  33.830  29.542  1.00  0.00     0.010 A 
ATOM     35  C   UNL A   1      35.326  32.240  30.711  1.00  0.00     0.010 A 
ATOM     36  C   UNL A   1      36.602  32.786  30.468  1.00  0.00    -0.014 A 
BRANCH  36  37
ATOM     37  C   UNL A   1      37.815  32.165  31.071  1.00  0.00     0.031 A 
ATOM     38  C   UNL A   1      38.537  31.084  30.307  1.00  0.00     0.074 A 
ATOM     39  C   UNL A   1      38.277  32.540  32.279  1.00  0.00     0.049 A 
ATOM     40  N   UNL A   1      39.547  30.336  30.676  1.00  0.00    -0.248 NA
ATOM     41  C   UNL A   1      38.053  30.811  28.945  1.00  0.00     0.031 C 
ATOM     42  C   UNL A   1      37.717  33.603  33.109  1.00  0.00     0.029 A 
ATOM     43  N   UNL A   1      39.323  32.048  33.026  1.00  0.00    -0.354 N 
ATOM     44  C   UNL A   1      39.810  29.497  29.599  1.00  0.00     0.074 A 
ATOM     45  C   UNL A   1      38.844  29.816  28.570  1.00  0.00     0.031 C 
ATOM     46  C   UNL A   1      38.405  33.665  34.262  1.00  0.00     0.029 A 
ATOM     47  C   UNL A   1      39.432  32.623  34.270  1.00  0.00     0.049 A 
ATOM     48  H   UNL A   1      39.935  31.349  32.701  1.00  0.00     0.167 HD
ATOM     49  C   UNL A   1      40.770  28.549  29.476  1.00  0.00     0.037 A 
ATOM     50  C   UNL A   1      40.239  32.321  35.308  1.00  0.00     0.037 A 
ATOM     51  C   UNL A   1      41.740  28.230  30.493  1.00  0.00     0.049 A 
ATOM     52  C   UNL A   1      41.242  31.200  35.177  1.00  0.00     0.074 A 
ATOM     53  C   UNL A   1      42.769  27.304  30.439  1.00  0.00     0.029 A 
ATOM     54  N   UNL A   1      41.794  28.813  31.748  1.00  0.00    -0.354 N 
ATOM     55  N   UNL A   1      41.503  30.437  34.143  1.00  0.00    -0.248 NA
ATOM     56  C   UNL A   1      42.061  30.897  36.362  1.00  0.00     0.031 C 
ATOM     57  C   UNL A   1      43.406  27.283  31.683  1.00  0.00     0.029 A 
ATOM     58  C   UNL A   1      42.814  28.240  32.491  1.00  0.00     0.049 A 
ATOM     59  H   UNL A   1      41.197  29.529  32.065  1.00  0.00     0.167 HD
ATOM     60  C   UNL A   1      42.531  29.589  34.544  1.00  0.00     0.074 A 
ATOM     61  C   UNL A   1      42.861  29.943  35.907  1.00  0.00     0.031 C 
ATOM     62  C   UNL A   1      43.145  28.602  33.845  1.00  0.00     0.037 A 
BRANCH  49  63
ATOM     63  C   UNL A   1      40.814  27.756  28.202  1.00  0.00     0.057 A 
ATOM     64  C   UNL A   1      41.556  28.177  27.092  1.00  0.00     0.134 A 
ATOM     65  C   UNL A   1      40.166  26.517  28.116  1.00  0.00     0.134 A 
ATOM     66  F   UNL A   1      42.192  29.358  27.106  1.00  0.00    -0.206 F 
ATOM     67  C   UNL A   1      41.642  27.397  25.937  1.00  0.00     0.040 A 
ATOM     68  C   UNL A   1      40.267  25.716  26.978  1.00  0.00     0.040 A 
ATOM     69  F   UNL A   1      39.445  26.051  29.148  1.00  0.00    -0.206 F 
ATOM     70  C   UNL A   1      41.006  26.158  25.882  1.00  0.00     0.006 A 
ENDBRANCH  49  63
BRANCH  50  71
ATOM     71  C   UNL A   1      40.117  33.054  36.598  1.00  0.00     0.057 A 
ATOM     72  C   UNL A   1      39.138  32.715  37.540  1.00  0.00     0.134 A 
ATOM     73  C   UNL A   1      40.929  34.159  36.887  1.00  0.00     0.134 A 
ATOM     74  F   UNL A   1      38.305  31.689  37.308  1.00  0.00    -0.206 F 
ATOM     75  C   UNL A   1      38.950  33.463  38.705  1.00  0.00     0.040 A 
ATOM     76  C   UNL A   1      40.773  34.896  38.062  1.00  0.00     0.040 A 
ATOM     77  F   UNL A   1      41.882  34.543  36.025  1.00  0.00    -0.206 F 
ATOM     78  C   UNL A   1      39.773  34.556  38.970  1.00  0.00     0.006 A 
ENDBRANCH  50  71
BRANCH  62  79
ATOM     79  C   UNL A   1      44.259  27.855  34.524  1.00  0.00     0.057 A 
ATOM     80  C   UNL A   1      44.038  26.653  35.208  1.00  0.00     0.134 A 
ATOM     81  C   UNL A   1      45.579  28.324  34.456  1.00  0.00     0.134 A 
ATOM     82  F   UNL A   1      42.799  26.153  35.320  1.00  0.00    -0.206 F 
ATOM     83  C   UNL A   1      45.083  25.959  35.823  1.00  0.00     0.040 A 
ATOM     84  C   UNL A   1      46.635  27.624  35.040  1.00  0.00     0.040 A 
ATOM     85  F   UNL A   1      45.865  29.463  33.807  1.00  0.00    -0.206 F 
ATOM     86  C   UNL A   1      46.388  26.441  35.733  1.00  0.00     0.006 A 
ENDBRANCH  62  79
ENDBRANCH  36  37
ENDBRANCH  29  31
ENDBRANCH  28  29
ENDBRANCH  27  28
ENDBRANCH  26  27
ENDBRANCH  25  26
ENDBRANCH  24  25
ENDBRANCH   1  24
TORSDOF 19
ENDMDL
MODEL 2
REMARK VINA RESULT:     -10.5      5.121      8.208
REMARK SMILES O=C(C[C@@H]1CN(c2nc3ccccc3s2)CCO1)OCCOCCOCCOC(=O)c1ccc(-c2c3nc(c(-c4c(F)cccc4F)c4ccc([nH]4)c(-c4c(F)cccc4F)c4nc(c(-c5c(F)cccc5F)c5ccc2[nH]5)C=C4)C=C3)cc1
REMARK SMILES IDX 23 1 22 2 21 3 20 4 19 5 2 6 1 7 3 8 4 9 5 10 18 11 6 12
REMARK SMILES IDX 17 13 16 14 7 15 8 16 15 17 9 18 14 19 10 20 13 21 11 22
REMARK SMILES IDX 12 23 24 24 25 25 26 26 27 27 28 28 29 29 30 30 31 31 32 32
REMARK SMILES IDX 84 33 33 34 83 35 34 36 35 37 36 38 77 39 37 40 82 41 76 42
REMARK SMILES IDX 78 43 38 44 81 45 75 46 74 47 39 49 65 50 48 51 64 52 49 53
REMARK SMILES IDX 52 54 63 55 79 56 50 57 51 58 62 60 80 61 53 62 40 63 41 64
REMARK SMILES IDX 46 65 42 66 43 67 45 68 47 69 44 70 66 71 67 72 72 73 68 74
REMARK SMILES IDX 69 75 71 76 73 77 70 78 54 79 55 80 60 81 56 82 57 83 59 84
REMARK SMILES IDX 61 85 58 86
REMARK H PARENT 78 48 52 59
REMARK Flexibility Score: inf
ROOT
ATOM      1  C   UNL A   1      33.897  35.789  32.882  1.00  0.00     0.188 C 
ENDROOT
BRANCH   1   2
ATOM      2  O   UNL A   1      35.057  35.657  33.676  1.00  0.00    -0.376 OA
BRANCH   2   3
ATOM      3  C   UNL A   1      35.427  34.342  34.032  1.00  0.00     0.202 C 
BRANCH   3   4
ATOM      4  C   UNL A   1      35.913  34.189  35.468  1.00  0.00     0.261 C 
BRANCH   4   5
ATOM      5  O   UNL A   1      36.608  32.967  35.826  1.00  0.00    -0.463 OA
BRANCH   5   6
ATOM      6  C   UNL A   1      37.859  32.510  35.672  1.00  0.00     0.308 C 
ATOM      7  O   UNL A   1      38.604  32.490  36.652  1.00  0.00    -0.252 OA
BRANCH   6   8
ATOM      8  C   UNL A   1      38.411  32.129  34.326  1.00  0.00     0.156 C 
BRANCH   8   9
ATOM      9  C   UNL A   1      38.743  30.676  34.095  1.00  0.00     0.148 C 
ATOM     10  C   UNL A   1      40.253  30.413  34.032  1.00  0.00     0.151 C 
ATOM     11  O   UNL A   1      38.101  30.293  32.850  1.00  0.00    -0.374 OA
ATOM     12  N   UNL A   1      40.415  29.004  33.756  1.00  0.00    -0.343 N 
ATOM     13  C   UNL A   1      38.314  28.899  32.553  1.00  0.00     0.182 C 
ATOM     14  C   UNL A   1      39.811  28.537  32.522  1.00  0.00     0.147 C 
BRANCH  12  15
ATOM     15  C   UNL A   1      41.119  28.200  34.572  1.00  0.00     0.186 A 
ATOM     16  N   UNL A   1      41.192  26.905  34.415  1.00  0.00    -0.220 NA
ATOM     17  S   UNL A   1      42.029  28.836  35.893  1.00  0.00    -0.097 S 
ATOM     18  C   UNL A   1      42.046  26.359  35.351  1.00  0.00     0.084 A 
ATOM     19  C   UNL A   1      42.595  27.257  36.267  1.00  0.00     0.056 A 
ATOM     20  C   UNL A   1      42.392  24.998  35.442  1.00  0.00     0.030 A 
ATOM     21  C   UNL A   1      43.461  26.838  37.290  1.00  0.00     0.021 A 
ATOM     22  C   UNL A   1      43.255  24.568  36.453  1.00  0.00     0.002 A 
ATOM     23  C   UNL A   1      43.776  25.477  37.369  1.00  0.00     0.002 A 
ENDBRANCH  12  15
ENDBRANCH   8   9
ENDBRANCH   6   8
ENDBRANCH   5   6
ENDBRANCH   4   5
ENDBRANCH   3   4
ENDBRANCH   2   3
ENDBRANCH   1   2
BRANCH   1  24
ATOM     24  C   UNL A   1      33.537  37.232  32.493  1.00  0.00     0.188 C 
BRANCH  24  25
ATOM     25  O   UNL A   1      32.713  37.479  31.366  1.00  0.00    -0.376 OA
BRANCH  25  26
ATOM     26  C   UNL A   1      33.304  37.598  30.081  1.00  0.00     0.202 C 
BRANCH  26  27
ATOM     27  C   UNL A   1      33.045  36.498  29.033  1.00  0.00     0.261 C 
BRANCH  27  28
ATOM     28  O   UNL A   1      32.868  35.157  29.539  1.00  0.00    -0.460 OA
BRANCH  28  29
ATOM     29  C   UNL A   1      33.026  34.145  28.644  1.00  0.00     0.338 C 
ATOM     30  O   UNL A   1      32.285  33.862  27.722  1.00  0.00    -0.246 OA
BRANCH  29  31
ATOM     31  C   UNL A   1      34.349  33.488  28.824  1.00  0.00     0.060 A 
ATOM     32  C   UNL A   1      34.573  32.728  29.983  1.00  0.00     0.016 A 
ATOM     33  C   UNL A   1      35.378  33.653  27.897  1.00  0.00     0.016 A 
ATOM     34  C   UNL A   1      35.823  32.145  30.225  1.00  0.00     0.010 A 
ATOM     35  C   UNL A   1      36.641  33.095  28.156  1.00  0.00     0.010 A 
ATOM     36  C   UNL A   1      36.881  32.356  29.332  1.00  0.00    -0.014 A 
BRANCH  36  37
ATOM     37  C   UNL A   1      38.266  31.939  29.689  1.00  0.00     0.031 A 
ATOM     38  C   UNL A   1      38.776  30.607  29.201  1.00  0.00     0.074 A 
ATOM     39  C   UNL A   1      39.069  32.717  30.439  1.00  0.00     0.049 A 
ATOM     40  N   UNL A   1      39.903  29.996  29.471  1.00  0.00    -0.248 NA
ATOM     41  C   UNL A   1      37.895  29.865  28.285  1.00  0.00     0.031 C 
ATOM     42  C   UNL A   1      38.734  34.049  30.939  1.00  0.00     0.029 A 
ATOM     43  N   UNL A   1      40.334  32.485  30.928  1.00  0.00    -0.354 N 
ATOM     44  C   UNL A   1      39.861  28.796  28.771  1.00  0.00     0.074 A 
ATOM     45  C   UNL A   1      38.591  28.757  28.078  1.00  0.00     0.031 C 
ATOM     46  C   UNL A   1      39.755  34.504  31.686  1.00  0.00     0.029 A 
ATOM     47  C   UNL A   1      40.801  33.483  31.751  1.00  0.00     0.049 A 
ATOM     48  H   UNL A   1      40.856  31.680  30.711  1.00  0.00     0.167 HD
ATOM     49  C   UNL A   1      40.795  27.816  28.707  1.00  0.00     0.037 A 
ATOM     50  C   UNL A   1      41.923  33.552  32.496  1.00  0.00     0.037 A 
ATOM     51  C   UNL A   1      42.063  27.851  29.389  1.00  0.00     0.049 A 
ATOM     52  C   UNL A   1      42.907  32.407  32.478  1.00  0.00     0.074 A 
ATOM     53  C   UNL A   1      43.083  26.914  29.354  1.00  0.00     0.029 A 
ATOM     54  N   UNL A   1      42.482  28.864  30.235  1.00  0.00    -0.354 N 
ATOM     55  N   UNL A   1      42.871  31.293  31.788  1.00  0.00    -0.248 NA
ATOM     56  C   UNL A   1      44.088  32.529  33.348  1.00  0.00     0.031 C 
ATOM     57  C   UNL A   1      44.092  27.330  30.228  1.00  0.00     0.029 A 
ATOM     58  C   UNL A   1      43.728  28.557  30.759  1.00  0.00     0.049 A 
ATOM     59  H   UNL A   1      41.971  29.682  30.435  1.00  0.00     0.167 HD
ATOM     60  C   UNL A   1      44.033  30.601  32.116  1.00  0.00     0.074 A 
ATOM     61  C   UNL A   1      44.763  31.427  33.052  1.00  0.00     0.031 C 
ATOM     62  C   UNL A   1      44.455  29.387  31.684  1.00  0.00     0.037 A 
BRANCH  49  63
ATOM     63  C   UNL A   1      40.478  26.597  27.892  1.00  0.00     0.057 A 
ATOM     64  C   UNL A   1      41.053  26.375  26.635  1.00  0.00     0.134 A 
ATOM     65  C   UNL A   1      39.645  25.596  28.408  1.00  0.00     0.134 A 
ATOM     66  F   UNL A   1      41.852  27.299  26.079  1.00  0.00    -0.206 F 
ATOM     67  C   UNL A   1      40.802  25.205  25.916  1.00  0.00     0.040 A 
ATOM     68  C   UNL A   1      39.408  24.410  27.711  1.00  0.00     0.040 A 
ATOM     69  F   UNL A   1      39.069  25.741  29.612  1.00  0.00    -0.206 F 
ATOM     70  C   UNL A   1      39.986  24.214  26.459  1.00  0.00     0.006 A 
ENDBRANCH  49  63
BRANCH  50  71
ATOM     71  C   UNL A   1      42.176  34.727  33.374  1.00  0.00     0.057 A 
ATOM     72  C   UNL A   1      41.717  34.762  34.698  1.00  0.00     0.134 A 
ATOM     73  C   UNL A   1      42.818  35.873  32.889  1.00  0.00     0.134 A 
ATOM     74  F   UNL A   1      41.063  33.710  35.213  1.00  0.00    -0.206 F 
ATOM     75  C   UNL A   1      41.859  35.900  35.493  1.00  0.00     0.040 A 
ATOM     76  C   UNL A   1      42.996  37.007  33.683  1.00  0.00     0.040 A 
ATOM     77  F   UNL A   1      43.277  35.910  31.629  1.00  0.00    -0.206 F 
ATOM     78  C   UNL A   1      42.505  37.027  34.987  1.00  0.00     0.006 A 
ENDBRANCH  50  71
BRANCH  62  79
ATOM     79  C   UNL A   1      45.782  28.890  32.187  1.00  0.00     0.057 A 
ATOM     80  C   UNL A   1      46.988  29.226  31.560  1.00  0.00     0.134 A 
ATOM     81  C   UNL A   1      45.856  28.096  33.341  1.00  0.00     0.134 A 
ATOM     82  F   UNL A   1      46.989  29.973  30.446  1.00  0.00    -0.206 F 
ATOM     83  C   UNL A   1      48.216  28.771  32.044  1.00  0.00     0.040 A 
ATOM     84  C   UNL A   1      47.079  27.660  33.852  1.00  0.00     0.040 A 
ATOM     85  F   UNL A   1      44.741  27.745  33.999  1.00  0.00    -0.206 F 
ATOM     86  C   UNL A   1      48.265  27.991  33.199  1.00  0.00     0.006 A 
ENDBRANCH  62  79
ENDBRANCH  36  37
ENDBRANCH  29  31
ENDBRANCH  28  29
ENDBRANCH  27  28
ENDBRANCH  26  27
ENDBRANCH  25  26
ENDBRANCH  24  25
ENDBRANCH   1  24
TORSDOF 19
ENDMDL
MODEL 3
REMARK VINA RESULT:     -10.3      4.441      6.992
REMARK SMILES O=C(C[C@@H]1CN(c2nc3ccccc3s2)CCO1)OCCOCCOCCOC(=O)c1ccc(-c2c3nc(c(-c4c(F)cccc4F)c4ccc([nH]4)c(-c4c(F)cccc4F)c4nc(c(-c5c(F)cccc5F)c5ccc2[nH]5)C=C4)C=C3)cc1
REMARK SMILES IDX 23 1 22 2 21 3 20 4 19 5 2 6 1 7 3 8 4 9 5 10 18 11 6 12
REMARK SMILES IDX 17 13 16 14 7 15 8 16 15 17 9 18 14 19 10 20 13 21 11 22
REMARK SMILES IDX 12 23 24 24 25 25 26 26 27 27 28 28 29 29 30 30 31 31 32 32
REMARK SMILES IDX 84 33 33 34 83 35 34 36 35 37 36 38 77 39 37 40 82 41 76 42
REMARK SMILES IDX 78 43 38 44 81 45 75 46 74 47 39 49 65 50 48 51 64 52 49 53
REMARK SMILES IDX 52 54 63 55 79 56 50 57 51 58 62 60 80 61 53 62 40 63 41 64
REMARK SMILES IDX 46 65 42 66 43 67 45 68 47 69 44 70 66 71 67 72 72 73 68 74
REMARK SMILES IDX 69 75 71 76 73 77 70 78 54 79 55 80 60 81 56 82 57 83 59 84
REMARK SMILES IDX 61 85 58 86
REMARK H PARENT 78 48 52 59
REMARK Flexibility Score: inf
ROOT
ATOM      1  C   UNL A   1      34.392  32.276  28.141  1.00  0.00     0.188 C 
ENDROOT
BRANCH   1   2
ATOM      2  O   UNL A   1      35.452  31.466  27.678  1.00  0.00    -0.376 OA
BRANCH   2   3
ATOM      3  C   UNL A   1      35.365  30.088  27.969  1.00  0.00     0.202 C 
BRANCH   3   4
ATOM      4  C   UNL A   1      34.444  29.303  27.043  1.00  0.00     0.261 C 
BRANCH   4   5
ATOM      5  O   UNL A   1      33.350  28.560  27.639  1.00  0.00    -0.463 OA
BRANCH   5   6
ATOM      6  C   UNL A   1      32.091  28.274  27.274  1.00  0.00     0.308 C 
ATOM      7  O   UNL A   1      31.299  27.896  28.137  1.00  0.00    -0.252 OA
BRANCH   6   8
ATOM      8  C   UNL A   1      31.652  28.293  25.836  1.00  0.00     0.156 C 
BRANCH   8   9
ATOM      9  C   UNL A   1      31.656  26.982  25.090  1.00  0.00     0.148 C 
ATOM     10  C   UNL A   1      33.010  26.673  24.437  1.00  0.00     0.151 C 
ATOM     11  O   UNL A   1      30.609  27.067  24.087  1.00  0.00    -0.374 OA
ATOM     12  N   UNL A   1      32.849  25.429  23.721  1.00  0.00    -0.343 N 
ATOM     13  C   UNL A   1      30.491  25.841  23.340  1.00  0.00     0.182 C 
ATOM     14  C   UNL A   1      31.826  25.429  22.691  1.00  0.00     0.147 C 
BRANCH  12  15
ATOM     15  C   UNL A   1      33.629  24.362  23.972  1.00  0.00     0.186 A 
ATOM     16  N   UNL A   1      34.876  24.281  23.593  1.00  0.00    -0.220 NA
ATOM     17  S   UNL A   1      33.040  23.010  24.868  1.00  0.00    -0.097 S 
ATOM     18  C   UNL A   1      35.442  23.113  24.061  1.00  0.00     0.084 A 
ATOM     19  C   UNL A   1      34.587  22.269  24.771  1.00  0.00     0.056 A 
ATOM     20  C   UNL A   1      36.782  22.725  23.876  1.00  0.00     0.030 A 
ATOM     21  C   UNL A   1      35.020  21.035  25.284  1.00  0.00     0.021 A 
ATOM     22  C   UNL A   1      37.226  21.502  24.384  1.00  0.00     0.002 A 
ATOM     23  C   UNL A   1      36.353  20.666  25.073  1.00  0.00     0.002 A 
ENDBRANCH  12  15
ENDBRANCH   8   9
ENDBRANCH   6   8
ENDBRANCH   5   6
ENDBRANCH   4   5
ENDBRANCH   3   4
ENDBRANCH   2   3
ENDBRANCH   1   2
BRANCH   1  24
ATOM     24  C   UNL A   1      34.704  33.099  29.400  1.00  0.00     0.188 C 
BRANCH  24  25
ATOM     25  O   UNL A   1      34.450  32.555  30.685  1.00  0.00    -0.376 OA
BRANCH  25  26
ATOM     26  C   UNL A   1      34.265  33.428  31.789  1.00  0.00     0.202 C 
BRANCH  26  27
ATOM     27  C   UNL A   1      35.027  33.147  33.099  1.00  0.00     0.261 C 
BRANCH  27  28
ATOM     28  O   UNL A   1      36.465  33.279  33.048  1.00  0.00    -0.460 OA
BRANCH  28  29
ATOM     29  C   UNL A   1      37.186  32.288  33.639  1.00  0.00     0.338 C 
ATOM     30  O   UNL A   1      37.040  31.851  34.765  1.00  0.00    -0.246 OA
BRANCH  29  31
ATOM     31  C   UNL A   1      38.111  31.658  32.660  1.00  0.00     0.060 A 
ATOM     32  C   UNL A   1      39.218  30.941  33.142  1.00  0.00     0.016 A 
ATOM     33  C   UNL A   1      37.930  31.805  31.285  1.00  0.00     0.016 A 
ATOM     34  C   UNL A   1      40.150  30.386  32.257  1.00  0.00     0.010 A 
ATOM     35  C   UNL A   1      38.882  31.275  30.399  1.00  0.00     0.010 A 
ATOM     36  C   UNL A   1      40.012  30.581  30.877  1.00  0.00    -0.014 A 
BRANCH  36  37
ATOM     37  C   UNL A   1      41.109  30.196  29.946  1.00  0.00     0.031 A 
ATOM     38  C   UNL A   1      41.126  28.802  29.373  1.00  0.00     0.074 A 
ATOM     39  C   UNL A   1      42.087  31.059  29.609  1.00  0.00     0.049 A 
ATOM     40  N   UNL A   1      42.031  28.217  28.628  1.00  0.00    -0.248 NA
ATOM     41  C   UNL A   1      39.964  27.954  29.683  1.00  0.00     0.031 C 
ATOM     42  C   UNL A   1      42.176  32.451  30.041  1.00  0.00     0.029 A 
ATOM     43  N   UNL A   1      43.208  30.877  28.832  1.00  0.00    -0.354 N 
ATOM     44  C   UNL A   1      41.555  26.933  28.392  1.00  0.00     0.074 A 
ATOM     45  C   UNL A   1      40.291  26.817  29.086  1.00  0.00     0.031 C 
ATOM     46  C   UNL A   1      43.304  32.990  29.547  1.00  0.00     0.029 A 
ATOM     47  C   UNL A   1      44.039  31.972  28.796  1.00  0.00     0.049 A 
ATOM     48  H   UNL A   1      43.399  30.042  28.348  1.00  0.00     0.167 HD
ATOM     49  C   UNL A   1      42.118  25.940  27.661  1.00  0.00     0.037 A 
ATOM     50  C   UNL A   1      45.263  32.127  28.251  1.00  0.00     0.037 A 
ATOM     51  C   UNL A   1      43.372  26.049  26.962  1.00  0.00     0.049 A 
ATOM     52  C   UNL A   1      45.908  30.975  27.517  1.00  0.00     0.074 A 
ATOM     53  C   UNL A   1      44.001  25.102  26.171  1.00  0.00     0.029 A 
ATOM     54  N   UNL A   1      44.195  27.164  26.978  1.00  0.00    -0.354 N 
ATOM     55  N   UNL A   1      45.435  29.777  27.274  1.00  0.00    -0.248 NA
ATOM     56  C   UNL A   1      47.262  31.199  26.986  1.00  0.00     0.031 C 
ATOM     57  C   UNL A   1      45.232  25.619  25.760  1.00  0.00     0.029 A 
ATOM     58  C   UNL A   1      45.343  26.913  26.243  1.00  0.00     0.049 A 
ATOM     59  H   UNL A   1      43.994  28.008  27.442  1.00  0.00     0.167 HD
ATOM     60  C   UNL A   1      46.417  29.120  26.538  1.00  0.00     0.074 A 
ATOM     61  C   UNL A   1      47.504  30.057  26.358  1.00  0.00     0.031 C 
ATOM     62  C   UNL A   1      46.419  27.852  26.058  1.00  0.00     0.037 A 
BRANCH  49  63
ATOM     63  C   UNL A   1      41.399  24.624  27.595  1.00  0.00     0.057 A 
ATOM     64  C   UNL A   1      40.314  24.413  26.734  1.00  0.00     0.134 A 
ATOM     65  C   UNL A   1      41.849  23.532  28.349  1.00  0.00     0.134 A 
ATOM     66  F   UNL A   1      39.829  25.420  25.994  1.00  0.00    -0.206 F 
ATOM     67  C   UNL A   1      39.697  23.165  26.634  1.00  0.00     0.040 A 
ATOM     68  C   UNL A   1      41.257  22.273  28.236  1.00  0.00     0.040 A 
ATOM     69  F   UNL A   1      42.889  23.663  29.187  1.00  0.00    -0.206 F 
ATOM     70  C   UNL A   1      40.175  22.088  27.378  1.00  0.00     0.006 A 
ENDBRANCH  49  63
BRANCH  50  71
ATOM     71  C   UNL A   1      46.004  33.408  28.408  1.00  0.00     0.057 A 
ATOM     72  C   UNL A   1      46.918  33.600  29.453  1.00  0.00     0.134 A 
ATOM     73  C   UNL A   1      45.761  34.498  27.562  1.00  0.00     0.134 A 
ATOM     74  F   UNL A   1      47.169  32.607  30.320  1.00  0.00    -0.206 F 
ATOM     75  C   UNL A   1      47.538  34.833  29.668  1.00  0.00     0.040 A 
ATOM     76  C   UNL A   1      46.398  35.726  27.746  1.00  0.00     0.040 A 
ATOM     77  F   UNL A   1      44.894  34.386  26.545  1.00  0.00    -0.206 F 
ATOM     78  C   UNL A   1      47.281  35.900  28.809  1.00  0.00     0.006 A 
ENDBRANCH  50  71
BRANCH  62  79
ATOM     79  C   UNL A   1      47.614  27.409  25.262  1.00  0.00     0.057 A 
ATOM     80  C   UNL A   1      47.704  27.616  23.879  1.00  0.00     0.134 A 
ATOM     81  C   UNL A   1      48.710  26.804  25.894  1.00  0.00     0.134 A 
ATOM     82  F   UNL A   1      46.688  28.180  23.210  1.00  0.00    -0.206 F 
ATOM     83  C   UNL A   1      48.826  27.214  23.151  1.00  0.00     0.040 A 
ATOM     84  C   UNL A   1      49.849  26.425  25.182  1.00  0.00     0.040 A 
ATOM     85  F   UNL A   1      48.697  26.585  27.218  1.00  0.00    -0.206 F 
ATOM     86  C   UNL A   1      49.906  26.623  23.804  1.00  0.00     0.006 A 
ENDBRANCH  62  79
ENDBRANCH  36  37
ENDBRANCH  29  31
ENDBRANCH  28  29
ENDBRANCH  27  28
ENDBRANCH  26  27
ENDBRANCH  25  26
ENDBRANCH  24  25
ENDBRANCH   1  24
TORSDOF 19
ENDMDL
