MODEL 1
REMARK VINA RESULT:     -12.2      0.000      0.000
REMARK SMILES CO[C@H]1C[C@@H](C(=O)OCCOCCOCCOC(=O)c2ccc(-c3c4nc(c(-c5c(F)cccc5F)c5ccc([nH]5)c(-c5c(F)cccc5F)c5nc(c(-c6c(F)cccc6F)c6ccc3[nH]6)C=C5)C=C4)cc2)N(C(=O)Nc2cc(C)cc(F)c2)C1
REMARK SMILES IDX 12 1 11 2 10 3 9 4 8 5 6 6 7 7 5 8 3 9 4 10 86 11 74 12 2 13
REMARK SMILES IDX 1 14 75 15 76 16 77 17 78 19 79 20 85 21 80 22 83 23 81 24
REMARK SMILES IDX 82 25 84 26 13 27 14 28 15 29 16 30 17 31 18 32 19 33 20 34
REMARK SMILES IDX 21 35 73 36 22 37 72 38 23 39 24 40 25 41 66 42 26 43 71 44
REMARK SMILES IDX 65 45 67 46 27 47 70 48 64 49 63 50 28 52 54 53 37 54 53 55
REMARK SMILES IDX 38 56 41 57 52 58 68 59 39 60 40 61 51 63 69 64 42 65 29 66
REMARK SMILES IDX 30 67 35 68 31 69 32 70 34 71 36 72 33 73 55 74 56 75 61 76
REMARK SMILES IDX 57 77 58 78 60 79 62 80 59 81 43 82 44 83 49 84 45 85 46 86
REMARK SMILES IDX 48 87 50 88 47 89
REMARK H PARENT 77 18 67 51 41 62
REMARK Flexibility Score: inf
ROOT
ATOM      1  C   UNL A   1      31.976  28.595  27.478  1.00  0.00     0.188 C 
ENDROOT
BRANCH   1   2
ATOM      2  O   UNL A   1      30.902  26.951  27.056  1.00  0.00    -0.376 OA
BRANCH   2   3
ATOM      3  C   UNL A   1      30.430  25.899  25.974  1.00  0.00     0.202 C 
BRANCH   3   4
ATOM      4  C   UNL A   1      31.251  24.633  25.429  1.00  0.00     0.261 C 
BRANCH   4   5
ATOM      5  O   UNL A   1      32.674  24.601  25.692  1.00  0.00    -0.462 OA
BRANCH   5   6
ATOM      6  C   UNL A   1      33.710  25.373  25.268  1.00  0.00     0.329 C 
ATOM      7  O   UNL A   1      34.802  25.127  25.800  1.00  0.00    -0.250 OA
BRANCH   6   8
ATOM      8  C   UNL A   1      33.693  26.258  23.912  1.00  0.00     0.199 C 
ATOM      9  C   UNL A   1      32.871  28.416  23.130  1.00  0.00     0.140 C 
ATOM     10  C   UNL A   1      33.246  27.653  24.379  1.00  0.00     0.071 C 
ATOM     11  C   UNL A   1      32.633  27.343  22.066  1.00  0.00     0.154 C 
ATOM     12  N   UNL A   1      33.065  26.027  22.574  1.00  0.00    -0.308 N 
BRANCH   9  13
ATOM     13  O   UNL A   1      31.768  29.313  23.236  1.00  0.00    -0.380 OA
ATOM     14  C   UNL A   1      30.486  28.727  23.409  1.00  0.00     0.195 C 
ENDBRANCH   9  13
BRANCH  12  15
ATOM     15  C   UNL A   1      33.025  25.066  21.585  1.00  0.00     0.322 C 
ATOM     16  O   UNL A   1      32.996  25.435  20.398  1.00  0.00    -0.248 OA
ATOM     17  N   UNL A   1      33.025  23.715  21.712  1.00  0.00    -0.308 N 
ATOM     18  H   UNL A   1      32.599  23.257  20.950  1.00  0.00     0.171 HD
BRANCH  17  19
ATOM     19  C   UNL A   1      33.499  22.826  22.694  1.00  0.00     0.046 A 
ATOM     20  C   UNL A   1      32.486  21.520  23.518  1.00  0.00     0.029 A 
ATOM     21  C   UNL A   1      35.244  22.894  23.120  1.00  0.00     0.065 A 
ATOM     22  C   UNL A   1      33.293  20.411  24.716  1.00  0.00    -0.046 A 
ATOM     23  C   UNL A   1      35.977  21.844  24.331  1.00  0.00     0.125 A 
ATOM     24  C   UNL A   1      32.766  19.099  25.211  1.00  0.00     0.044 C 
ATOM     25  C   UNL A   1      35.037  20.598  25.088  1.00  0.00     0.042 A 
ATOM     26  F   UNL A   1      37.174  22.205  24.812  1.00  0.00    -0.207 F 
ENDBRANCH  17  19
ENDBRANCH  12  15
ENDBRANCH   6   8
ENDBRANCH   5   6
ENDBRANCH   4   5
ENDBRANCH   3   4
ENDBRANCH   2   3
ENDBRANCH   1   2
BRANCH   1  27
ATOM     27  C   UNL A   1      32.150  30.102  26.657  1.00  0.00     0.188 C 
BRANCH  27  28
ATOM     28  O   UNL A   1      32.552  31.325  27.258  1.00  0.00    -0.376 OA
BRANCH  28  29
ATOM     29  C   UNL A   1      31.973  32.609  27.125  1.00  0.00     0.202 C 
BRANCH  29  30
ATOM     30  C   UNL A   1      32.608  33.937  27.551  1.00  0.00     0.261 C 
BRANCH  30  31
ATOM     31  O   UNL A   1      32.537  34.249  28.932  1.00  0.00    -0.460 OA
BRANCH  31  32
ATOM     32  C   UNL A   1      33.613  34.931  29.400  1.00  0.00     0.338 C 
ATOM     33  O   UNL A   1      33.641  36.025  29.897  1.00  0.00    -0.246 OA
BRANCH  32  34
ATOM     34  C   UNL A   1      34.731  33.966  29.406  1.00  0.00     0.060 A 
ATOM     35  C   UNL A   1      34.475  32.685  29.913  1.00  0.00     0.016 A 
ATOM     36  C   UNL A   1      35.986  34.317  28.909  1.00  0.00     0.016 A 
ATOM     37  C   UNL A   1      35.490  31.747  29.952  1.00  0.00     0.010 A 
ATOM     38  C   UNL A   1      37.026  33.399  29.014  1.00  0.00     0.010 A 
ATOM     39  C   UNL A   1      36.782  32.138  29.589  1.00  0.00    -0.014 A 
BRANCH  39  40
ATOM     40  C   UNL A   1      37.893  31.381  30.190  1.00  0.00     0.031 A 
ATOM     41  C   UNL A   1      38.176  31.641  31.644  1.00  0.00     0.074 A 
ATOM     42  C   UNL A   1      38.544  30.427  29.509  1.00  0.00     0.049 A 
ATOM     43  N   UNL A   1      39.108  31.147  32.413  1.00  0.00    -0.248 NA
ATOM     44  C   UNL A   1      37.274  32.588  32.327  1.00  0.00     0.031 C 
ATOM     45  C   UNL A   1      38.268  30.026  28.132  1.00  0.00     0.029 A 
ATOM     46  N   UNL A   1      39.577  29.620  29.902  1.00  0.00    -0.354 N 
ATOM     47  C   UNL A   1      38.910  31.733  33.658  1.00  0.00     0.074 A 
ATOM     48  C   UNL A   1      37.789  32.634  33.542  1.00  0.00     0.031 C 
ATOM     49  C   UNL A   1      39.129  29.052  27.786  1.00  0.00     0.029 A 
ATOM     50  C   UNL A   1      40.035  28.798  28.905  1.00  0.00     0.049 A 
ATOM     51  H   UNL A   1      39.953  29.628  30.812  1.00  0.00     0.167 HD
ATOM     52  C   UNL A   1      39.605  31.532  34.799  1.00  0.00     0.037 A 
ATOM     53  C   UNL A   1      41.092  27.965  28.902  1.00  0.00     0.037 A 
ATOM     54  C   UNL A   1      40.719  30.632  34.897  1.00  0.00     0.049 A 
ATOM     55  C   UNL A   1      41.919  27.836  30.156  1.00  0.00     0.074 A 
ATOM     56  C   UNL A   1      41.514  30.361  35.993  1.00  0.00     0.029 A 
ATOM     57  N   UNL A   1      41.195  29.858  33.848  1.00  0.00    -0.354 N 
ATOM     58  N   UNL A   1      41.751  28.411  31.325  1.00  0.00    -0.248 NA
ATOM     59  C   UNL A   1      43.081  26.941  30.093  1.00  0.00     0.031 C 
ATOM     60  C   UNL A   1      42.510  29.466  35.592  1.00  0.00     0.029 A 
ATOM     61  C   UNL A   1      42.291  29.125  34.266  1.00  0.00     0.049 A 
ATOM     62  H   UNL A   1      40.810  29.834  32.942  1.00  0.00     0.167 HD
ATOM     63  C   UNL A   1      42.760  27.918  32.143  1.00  0.00     0.074 A 
ATOM     64  C   UNL A   1      43.530  26.992  31.338  1.00  0.00     0.031 C 
ATOM     65  C   UNL A   1      43.027  28.199  33.444  1.00  0.00     0.037 A 
BRANCH  52  66
ATOM     66  C   UNL A   1      39.211  32.343  35.997  1.00  0.00     0.057 A 
ATOM     67  C   UNL A   1      38.320  31.863  36.968  1.00  0.00     0.134 A 
ATOM     68  C   UNL A   1      39.728  33.631  36.176  1.00  0.00     0.134 A 
ATOM     69  F   UNL A   1      37.764  30.650  36.840  1.00  0.00    -0.206 F 
ATOM     70  C   UNL A   1      37.943  32.646  38.061  1.00  0.00     0.040 A 
ATOM     71  C   UNL A   1      39.383  34.410  37.281  1.00  0.00     0.040 A 
ATOM     72  F   UNL A   1      40.578  34.155  35.280  1.00  0.00    -0.206 F 
ATOM     73  C   UNL A   1      38.482  33.921  38.223  1.00  0.00     0.006 A 
ENDBRANCH  52  66
BRANCH  53  74
ATOM     74  C   UNL A   1      41.451  27.219  27.669  1.00  0.00     0.057 A 
ATOM     75  C   UNL A   1      41.040  25.897  27.471  1.00  0.00     0.134 A 
ATOM     76  C   UNL A   1      42.243  27.805  26.672  1.00  0.00     0.134 A 
ATOM     77  F   UNL A   1      40.300  25.273  28.398  1.00  0.00    -0.206 F 
ATOM     78  C   UNL A   1      41.423  25.176  26.338  1.00  0.00     0.040 A 
ATOM     79  C   UNL A   1      42.607  27.106  25.521  1.00  0.00     0.040 A 
ATOM     80  F   UNL A   1      42.670  29.069  26.801  1.00  0.00    -0.206 F 
ATOM     81  C   UNL A   1      42.205  25.782  25.356  1.00  0.00     0.006 A 
ENDBRANCH  53  74
BRANCH  65  82
ATOM     82  C   UNL A   1      44.159  27.453  34.092  1.00  0.00     0.057 A 
ATOM     83  C   UNL A   1      45.464  27.959  34.129  1.00  0.00     0.134 A 
ATOM     84  C   UNL A   1      43.921  26.229  34.732  1.00  0.00     0.134 A 
ATOM     85  F   UNL A   1      45.760  29.122  33.529  1.00  0.00    -0.206 F 
ATOM     86  C   UNL A   1      46.497  27.260  34.754  1.00  0.00     0.040 A 
ATOM     87  C   UNL A   1      44.938  25.538  35.390  1.00  0.00     0.040 A 
ATOM     88  F   UNL A   1      42.690  25.695  34.748  1.00  0.00    -0.206 F 
ATOM     89  C   UNL A   1      46.233  26.049  35.394  1.00  0.00     0.006 A 
ENDBRANCH  65  82
ENDBRANCH  39  40
ENDBRANCH  32  34
ENDBRANCH  31  32
ENDBRANCH  30  31
ENDBRANCH  29  30
ENDBRANCH  28  29
ENDBRANCH  27  28
ENDBRANCH   1  27
TORSDOF 20
ENDMDL
MODEL 2
REMARK VINA RESULT:     -12.1      3.565      5.806
REMARK SMILES CO[C@H]1C[C@@H](C(=O)OCCOCCOCCOC(=O)c2ccc(-c3c4nc(c(-c5c(F)cccc5F)c5ccc([nH]5)c(-c5c(F)cccc5F)c5nc(c(-c6c(F)cccc6F)c6ccc3[nH]6)C=C5)C=C4)cc2)N(C(=O)Nc2cc(C)cc(F)c2)C1
REMARK SMILES IDX 12 1 11 2 10 3 9 4 8 5 6 6 7 7 5 8 3 9 4 10 86 11 74 12 2 13
REMARK SMILES IDX 1 14 75 15 76 16 77 17 78 19 79 20 85 21 80 22 83 23 81 24
REMARK SMILES IDX 82 25 84 26 13 27 14 28 15 29 16 30 17 31 18 32 19 33 20 34
REMARK SMILES IDX 21 35 73 36 22 37 72 38 23 39 24 40 25 41 66 42 26 43 71 44
REMARK SMILES IDX 65 45 67 46 27 47 70 48 64 49 63 50 28 52 54 53 37 54 53 55
REMARK SMILES IDX 38 56 41 57 52 58 68 59 39 60 40 61 51 63 69 64 42 65 29 66
REMARK SMILES IDX 30 67 35 68 31 69 32 70 34 71 36 72 33 73 55 74 56 75 61 76
REMARK SMILES IDX 57 77 58 78 60 79 62 80 59 81 43 82 44 83 49 84 45 85 46 86
REMARK SMILES IDX 48 87 50 88 47 89
REMARK H PARENT 77 18 67 51 41 62
REMARK Flexibility Score: inf
ROOT
ATOM      1  C   UNL A   1      34.539  33.177  28.057  1.00  0.00     0.188 C 
ENDROOT
BRANCH   1   2
ATOM      2  O   UNL A   1      34.009  31.379  27.336  1.00  0.00    -0.376 OA
BRANCH   2   3
ATOM      3  C   UNL A   1      34.409  29.873  27.063  1.00  0.00     0.202 C 
BRANCH   3   4
ATOM      4  C   UNL A   1      33.487  28.574  27.251  1.00  0.00     0.261 C 
BRANCH   4   5
ATOM      5  O   UNL A   1      33.816  27.407  26.461  1.00  0.00    -0.462 OA
BRANCH   5   6
ATOM      6  C   UNL A   1      33.091  26.629  25.614  1.00  0.00     0.329 C 
ATOM      7  O   UNL A   1      32.621  25.598  26.117  1.00  0.00    -0.250 OA
BRANCH   6   8
ATOM      8  C   UNL A   1      32.503  27.131  24.191  1.00  0.00     0.199 C 
ATOM      9  C   UNL A   1      30.429  28.017  23.264  1.00  0.00     0.140 C 
ATOM     10  C   UNL A   1      31.190  27.843  24.558  1.00  0.00     0.071 C 
ATOM     11  C   UNL A   1      31.048  27.003  22.300  1.00  0.00     0.154 C 
ATOM     12  N   UNL A   1      32.262  26.417  22.899  1.00  0.00    -0.308 N 
BRANCH   9  13
ATOM     13  O   UNL A   1      29.011  27.885  23.335  1.00  0.00    -0.380 OA
ATOM     14  C   UNL A   1      28.511  26.671  23.875  1.00  0.00     0.195 C 
ENDBRANCH   9  13
BRANCH  12  15
ATOM     15  C   UNL A   1      32.942  25.628  21.994  1.00  0.00     0.322 C 
ATOM     16  O   UNL A   1      33.278  26.126  20.906  1.00  0.00    -0.248 OA
ATOM     17  N   UNL A   1      33.329  24.333  22.117  1.00  0.00    -0.308 N 
ATOM     18  H   UNL A   1      33.423  23.876  21.250  1.00  0.00     0.171 HD
BRANCH  17  19
ATOM     19  C   UNL A   1      33.625  23.502  23.213  1.00  0.00     0.046 A 
ATOM     20  C   UNL A   1      32.697  21.970  23.662  1.00  0.00     0.029 A 
ATOM     21  C   UNL A   1      35.071  23.900  24.204  1.00  0.00     0.065 A 
ATOM     22  C   UNL A   1      33.272  20.980  25.077  1.00  0.00    -0.046 A 
ATOM     23  C   UNL A   1      35.562  22.951  25.606  1.00  0.00     0.125 A 
ATOM     24  C   UNL A   1      32.902  19.561  25.381  1.00  0.00     0.044 C 
ATOM     25  C   UNL A   1      34.710  21.496  26.016  1.00  0.00     0.042 A 
ATOM     26  F   UNL A   1      36.424  23.519  26.460  1.00  0.00    -0.207 F 
ENDBRANCH  17  19
ENDBRANCH  12  15
ENDBRANCH   6   8
ENDBRANCH   5   6
ENDBRANCH   4   5
ENDBRANCH   3   4
ENDBRANCH   2   3
ENDBRANCH   1   2
BRANCH   1  27
ATOM     27  C   UNL A   1      33.642  34.404  28.873  1.00  0.00     0.188 C 
BRANCH  27  28
ATOM     28  O   UNL A   1      33.300  34.395  30.251  1.00  0.00    -0.376 OA
BRANCH  28  29
ATOM     29  C   UNL A   1      33.865  35.146  31.308  1.00  0.00     0.202 C 
BRANCH  29  30
ATOM     30  C   UNL A   1      35.060  34.733  32.176  1.00  0.00     0.261 C 
BRANCH  30  31
ATOM     31  O   UNL A   1      35.885  33.705  31.655  1.00  0.00    -0.460 OA
BRANCH  31  32
ATOM     32  C   UNL A   1      36.085  32.671  32.511  1.00  0.00     0.338 C 
ATOM     33  O   UNL A   1      35.552  32.470  33.569  1.00  0.00    -0.246 OA
BRANCH  32  34
ATOM     34  C   UNL A   1      36.917  31.696  31.780  1.00  0.00     0.060 A 
ATOM     35  C   UNL A   1      37.842  30.950  32.523  1.00  0.00     0.016 A 
ATOM     36  C   UNL A   1      36.772  31.516  30.404  1.00  0.00     0.016 A 
ATOM     37  C   UNL A   1      38.654  30.032  31.885  1.00  0.00     0.010 A 
ATOM     38  C   UNL A   1      37.638  30.645  29.749  1.00  0.00     0.010 A 
ATOM     39  C   UNL A   1      38.613  29.951  30.490  1.00  0.00    -0.014 A 
BRANCH  39  40
ATOM     40  C   UNL A   1      39.834  29.469  29.821  1.00  0.00     0.031 A 
ATOM     41  C   UNL A   1      40.963  30.453  29.691  1.00  0.00     0.074 A 
ATOM     42  C   UNL A   1      39.973  28.189  29.450  1.00  0.00     0.049 A 
ATOM     43  N   UNL A   1      42.129  30.314  29.120  1.00  0.00    -0.248 NA
ATOM     44  C   UNL A   1      40.747  31.782  30.296  1.00  0.00     0.031 C 
ATOM     45  C   UNL A   1      38.978  27.135  29.636  1.00  0.00     0.029 A 
ATOM     46  N   UNL A   1      41.027  27.563  28.840  1.00  0.00    -0.354 N 
ATOM     47  C   UNL A   1      42.772  31.534  29.287  1.00  0.00     0.074 A 
ATOM     48  C   UNL A   1      41.866  32.411  29.989  1.00  0.00     0.031 C 
ATOM     49  C   UNL A   1      39.466  25.989  29.130  1.00  0.00     0.029 A 
ATOM     50  C   UNL A   1      40.784  26.245  28.553  1.00  0.00     0.049 A 
ATOM     51  H   UNL A   1      41.875  28.016  28.628  1.00  0.00     0.167 HD
ATOM     52  C   UNL A   1      44.014  31.888  28.890  1.00  0.00     0.037 A 
ATOM     53  C   UNL A   1      41.539  25.366  27.868  1.00  0.00     0.037 A 
ATOM     54  C   UNL A   1      44.902  31.003  28.192  1.00  0.00     0.049 A 
ATOM     55  C   UNL A   1      42.879  25.816  27.341  1.00  0.00     0.074 A 
ATOM     56  C   UNL A   1      46.175  31.256  27.719  1.00  0.00     0.029 A 
ATOM     57  N   UNL A   1      44.600  29.689  27.863  1.00  0.00    -0.354 N 
ATOM     58  N   UNL A   1      43.476  26.978  27.473  1.00  0.00    -0.248 NA
ATOM     59  C   UNL A   1      43.651  24.831  26.572  1.00  0.00     0.031 C 
ATOM     60  C   UNL A   1      46.622  30.112  27.052  1.00  0.00     0.029 A 
ATOM     61  C   UNL A   1      45.656  29.124  27.172  1.00  0.00     0.049 A 
ATOM     62  H   UNL A   1      43.760  29.228  28.089  1.00  0.00     0.167 HD
ATOM     63  C   UNL A   1      44.706  26.851  26.838  1.00  0.00     0.074 A 
ATOM     64  C   UNL A   1      44.771  25.496  26.329  1.00  0.00     0.031 C 
ATOM     65  C   UNL A   1      45.697  27.766  26.691  1.00  0.00     0.037 A 
BRANCH  52  66
ATOM     66  C   UNL A   1      44.443  33.301  29.152  1.00  0.00     0.057 A 
ATOM     67  C   UNL A   1      44.150  34.350  28.271  1.00  0.00     0.134 A 
ATOM     68  C   UNL A   1      45.171  33.613  30.307  1.00  0.00     0.134 A 
ATOM     69  F   UNL A   1      43.484  34.114  27.130  1.00  0.00    -0.206 F 
ATOM     70  C   UNL A   1      44.586  35.654  28.518  1.00  0.00     0.040 A 
ATOM     71  C   UNL A   1      45.584  34.917  30.581  1.00  0.00     0.040 A 
ATOM     72  F   UNL A   1      45.493  32.654  31.189  1.00  0.00    -0.206 F 
ATOM     73  C   UNL A   1      45.298  35.940  29.682  1.00  0.00     0.006 A 
ENDBRANCH  52  66
BRANCH  53  74
ATOM     74  C   UNL A   1      41.038  23.993  27.610  1.00  0.00     0.057 A 
ATOM     75  C   UNL A   1      41.568  22.885  28.279  1.00  0.00     0.134 A 
ATOM     76  C   UNL A   1      40.035  23.754  26.661  1.00  0.00     0.134 A 
ATOM     77  F   UNL A   1      42.546  23.045  29.182  1.00  0.00    -0.206 F 
ATOM     78  C   UNL A   1      41.136  21.587  27.999  1.00  0.00     0.040 A 
ATOM     79  C   UNL A   1      39.573  22.465  26.392  1.00  0.00     0.040 A 
ATOM     80  F   UNL A   1      39.485  24.772  25.985  1.00  0.00    -0.206 F 
ATOM     81  C   UNL A   1      40.132  21.375  27.055  1.00  0.00     0.006 A 
ENDBRANCH  53  74
BRANCH  65  82
ATOM     82  C   UNL A   1      46.956  27.316  26.007  1.00  0.00     0.057 A 
ATOM     83  C   UNL A   1      48.034  26.766  26.711  1.00  0.00     0.134 A 
ATOM     84  C   UNL A   1      47.066  27.391  24.612  1.00  0.00     0.134 A 
ATOM     85  F   UNL A   1      47.995  26.672  28.049  1.00  0.00    -0.206 F 
ATOM     86  C   UNL A   1      49.188  26.335  26.055  1.00  0.00     0.040 A 
ATOM     87  C   UNL A   1      48.199  26.933  23.942  1.00  0.00     0.040 A 
ATOM     88  F   UNL A   1      46.063  27.893  23.875  1.00  0.00    -0.206 F 
ATOM     89  C   UNL A   1      49.269  26.410  24.665  1.00  0.00     0.006 A 
ENDBRANCH  65  82
ENDBRANCH  39  40
ENDBRANCH  32  34
ENDBRANCH  31  32
ENDBRANCH  30  31
ENDBRANCH  29  30
ENDBRANCH  28  29
ENDBRANCH  27  28
ENDBRANCH   1  27
TORSDOF 20
ENDMDL
MODEL 3
REMARK VINA RESULT:     -11.9      3.148      8.554
REMARK SMILES CO[C@H]1C[C@@H](C(=O)OCCOCCOCCOC(=O)c2ccc(-c3c4nc(c(-c5c(F)cccc5F)c5ccc([nH]5)c(-c5c(F)cccc5F)c5nc(c(-c6c(F)cccc6F)c6ccc3[nH]6)C=C5)C=C4)cc2)N(C(=O)Nc2cc(C)cc(F)c2)C1
REMARK SMILES IDX 12 1 11 2 10 3 9 4 8 5 6 6 7 7 5 8 3 9 4 10 86 11 74 12 2 13
REMARK SMILES IDX 1 14 75 15 76 16 77 17 78 19 79 20 85 21 80 22 83 23 81 24
REMARK SMILES IDX 82 25 84 26 13 27 14 28 15 29 16 30 17 31 18 32 19 33 20 34
REMARK SMILES IDX 21 35 73 36 22 37 72 38 23 39 24 40 25 41 66 42 26 43 71 44
REMARK SMILES IDX 65 45 67 46 27 47 70 48 64 49 63 50 28 52 54 53 37 54 53 55
REMARK SMILES IDX 38 56 41 57 52 58 68 59 39 60 40 61 51 63 69 64 42 65 29 66
REMARK SMILES IDX 30 67 35 68 31 69 32 70 34 71 36 72 33 73 55 74 56 75 61 76
REMARK SMILES IDX 57 77 58 78 60 79 62 80 59 81 43 82 44 83 49 84 45 85 46 86
REMARK SMILES IDX 48 87 50 88 47 89
REMARK H PARENT 77 18 67 51 41 62
REMARK Flexibility Score: inf
ROOT
ATOM      1  C   UNL A   1      41.130  21.054  27.030  1.00  0.00     0.188 C 
ENDROOT
BRANCH   1   2
ATOM      2  O   UNL A   1      39.522  22.214  26.709  1.00  0.00    -0.376 OA
BRANCH   2   3
ATOM      3  C   UNL A   1      38.900  23.667  26.692  1.00  0.00     0.202 C 
BRANCH   3   4
ATOM      4  C   UNL A   1      37.473  24.106  26.105  1.00  0.00     0.261 C 
BRANCH   4   5
ATOM      5  O   UNL A   1      37.132  23.643  24.776  1.00  0.00    -0.462 OA
BRANCH   5   6
ATOM      6  C   UNL A   1      36.572  22.494  24.312  1.00  0.00     0.329 C 
ATOM      7  O   UNL A   1      37.370  21.574  24.084  1.00  0.00    -0.250 OA
BRANCH   6   8
ATOM      8  C   UNL A   1      34.995  22.140  24.417  1.00  0.00     0.199 C 
ATOM      9  C   UNL A   1      33.563  20.210  24.826  1.00  0.00     0.140 C 
ATOM     10  C   UNL A   1      34.966  20.731  25.032  1.00  0.00     0.071 C 
ATOM     11  C   UNL A   1      32.979  21.073  23.706  1.00  0.00     0.154 C 
ATOM     12  N   UNL A   1      33.888  22.198  23.413  1.00  0.00    -0.308 N 
BRANCH   9  13
ATOM     13  O   UNL A   1      33.432  18.818  24.548  1.00  0.00    -0.380 OA
ATOM     14  C   UNL A   1      32.274  18.419  23.830  1.00  0.00     0.195 C 
ENDBRANCH   9  13
BRANCH  12  15
ATOM     15  C   UNL A   1      33.317  23.092  22.530  1.00  0.00     0.322 C 
ATOM     16  O   UNL A   1      33.043  22.699  21.382  1.00  0.00    -0.248 OA
ATOM     17  N   UNL A   1      32.982  24.390  22.732  1.00  0.00    -0.308 N 
ATOM     18  H   UNL A   1      32.976  24.920  21.901  1.00  0.00     0.171 HD
BRANCH  17  19
ATOM     19  C   UNL A   1      32.640  25.146  23.869  1.00  0.00     0.046 A 
ATOM     20  C   UNL A   1      33.798  26.246  24.796  1.00  0.00     0.029 A 
ATOM     21  C   UNL A   1      30.929  25.118  24.415  1.00  0.00     0.065 A 
ATOM     22  C   UNL A   1      33.157  27.205  26.205  1.00  0.00    -0.046 A 
ATOM     23  C   UNL A   1      30.357  26.012  25.822  1.00  0.00     0.125 A 
ATOM     24  C   UNL A   1      33.808  28.391  26.847  1.00  0.00     0.044 C 
ATOM     25  C   UNL A   1      31.433  27.068  26.680  1.00  0.00     0.042 A 
ATOM     26  F   UNL A   1      29.173  25.655  26.337  1.00  0.00    -0.207 F 
ENDBRANCH  17  19
ENDBRANCH  12  15
ENDBRANCH   6   8
ENDBRANCH   5   6
ENDBRANCH   4   5
ENDBRANCH   3   4
ENDBRANCH   2   3
ENDBRANCH   1   2
BRANCH   1  27
ATOM     27  C   UNL A   1      41.828  19.769  26.116  1.00  0.00     0.188 C 
BRANCH  27  28
ATOM     28  O   UNL A   1      42.893  19.904  25.186  1.00  0.00    -0.376 OA
BRANCH  28  29
ATOM     29  C   UNL A   1      44.195  20.414  25.400  1.00  0.00     0.202 C 
BRANCH  29  30
ATOM     30  C   UNL A   1      44.646  21.864  25.190  1.00  0.00     0.261 C 
BRANCH  30  31
ATOM     31  O   UNL A   1      44.094  22.825  26.074  1.00  0.00    -0.460 OA
BRANCH  31  32
ATOM     32  C   UNL A   1      44.569  24.083  25.889  1.00  0.00     0.338 C 
ATOM     33  O   UNL A   1      45.448  24.443  25.154  1.00  0.00    -0.246 OA
BRANCH  32  34
ATOM     34  C   UNL A   1      43.629  24.977  26.594  1.00  0.00     0.060 A 
ATOM     35  C   UNL A   1      43.873  26.354  26.523  1.00  0.00     0.016 A 
ATOM     36  C   UNL A   1      42.532  24.465  27.287  1.00  0.00     0.016 A 
ATOM     37  C   UNL A   1      43.030  27.236  27.175  1.00  0.00     0.010 A 
ATOM     38  C   UNL A   1      41.724  25.344  28.003  1.00  0.00     0.010 A 
ATOM     39  C   UNL A   1      42.016  26.720  27.987  1.00  0.00    -0.014 A 
BRANCH  39  40
ATOM     40  C   UNL A   1      41.559  27.577  29.095  1.00  0.00     0.031 A 
ATOM     41  C   UNL A   1      42.338  27.489  30.379  1.00  0.00     0.074 A 
ATOM     42  C   UNL A   1      40.573  28.470  28.933  1.00  0.00     0.049 A 
ATOM     43  N   UNL A   1      42.140  28.097  31.517  1.00  0.00    -0.248 NA
ATOM     44  C   UNL A   1      43.511  26.593  30.373  1.00  0.00     0.031 C 
ATOM     45  C   UNL A   1      39.834  28.707  27.695  1.00  0.00     0.029 A 
ATOM     46  N   UNL A   1      40.033  29.351  29.830  1.00  0.00    -0.354 N 
ATOM     47  C   UNL A   1      43.150  27.646  32.358  1.00  0.00     0.074 A 
ATOM     48  C   UNL A   1      43.946  26.700  31.615  1.00  0.00     0.031 C 
ATOM     49  C   UNL A   1      38.917  29.665  27.918  1.00  0.00     0.029 A 
ATOM     50  C   UNL A   1      38.984  30.072  29.321  1.00  0.00     0.049 A 
ATOM     51  H   UNL A   1      40.365  29.456  30.751  1.00  0.00     0.167 HD
ATOM     52  C   UNL A   1      43.391  27.996  33.641  1.00  0.00     0.037 A 
ATOM     53  C   UNL A   1      38.158  30.935  29.941  1.00  0.00     0.037 A 
ATOM     54  C   UNL A   1      42.588  28.939  34.367  1.00  0.00     0.049 A 
ATOM     55  C   UNL A   1      38.382  31.231  31.403  1.00  0.00     0.074 A 
ATOM     56  C   UNL A   1      42.721  29.356  35.676  1.00  0.00     0.029 A 
ATOM     57  N   UNL A   1      41.493  29.607  33.836  1.00  0.00    -0.354 N 
ATOM     58  N   UNL A   1      39.318  30.784  32.207  1.00  0.00    -0.248 NA
ATOM     59  C   UNL A   1      37.434  32.152  32.043  1.00  0.00     0.031 C 
ATOM     60  C   UNL A   1      41.670  30.234  35.957  1.00  0.00     0.029 A 
ATOM     61  C   UNL A   1      40.926  30.418  34.802  1.00  0.00     0.049 A 
ATOM     62  H   UNL A   1      41.169  29.517  32.911  1.00  0.00     0.167 HD
ATOM     63  C   UNL A   1      39.095  31.398  33.434  1.00  0.00     0.074 A 
ATOM     64  C   UNL A   1      37.940  32.255  33.263  1.00  0.00     0.031 C 
ATOM     65  C   UNL A   1      39.784  31.272  34.596  1.00  0.00     0.037 A 
BRANCH  52  66
ATOM     66  C   UNL A   1      44.526  27.310  34.340  1.00  0.00     0.057 A 
ATOM     67  C   UNL A   1      45.823  27.842  34.365  1.00  0.00     0.134 A 
ATOM     68  C   UNL A   1      44.317  26.090  34.993  1.00  0.00     0.134 A 
ATOM     69  F   UNL A   1      46.099  28.992  33.731  1.00  0.00    -0.206 F 
ATOM     70  C   UNL A   1      46.874  27.173  34.996  1.00  0.00     0.040 A 
ATOM     71  C   UNL A   1      45.352  25.427  35.654  1.00  0.00     0.040 A 
ATOM     72  F   UNL A   1      43.102  25.520  34.999  1.00  0.00    -0.206 F 
ATOM     73  C   UNL A   1      46.636  25.965  35.650  1.00  0.00     0.006 A 
ENDBRANCH  52  66
BRANCH  53  74
ATOM     74  C   UNL A   1      37.029  31.551  29.200  1.00  0.00     0.057 A 
ATOM     75  C   UNL A   1      37.098  32.865  28.725  1.00  0.00     0.134 A 
ATOM     76  C   UNL A   1      35.838  30.847  28.977  1.00  0.00     0.134 A 
ATOM     77  F   UNL A   1      38.202  33.599  28.927  1.00  0.00    -0.206 F 
ATOM     78  C   UNL A   1      36.017  33.465  28.077  1.00  0.00     0.040 A 
ATOM     79  C   UNL A   1      34.761  31.424  28.303  1.00  0.00     0.040 A 
ATOM     80  F   UNL A   1      35.707  29.584  29.406  1.00  0.00    -0.206 F 
ATOM     81  C   UNL A   1      34.845  32.742  27.859  1.00  0.00     0.006 A 
ENDBRANCH  53  74
BRANCH  65  82
ATOM     82  C   UNL A   1      39.345  32.124  35.753  1.00  0.00     0.057 A 
ATOM     83  C   UNL A   1      39.827  33.423  35.951  1.00  0.00     0.134 A 
ATOM     84  C   UNL A   1      38.384  31.646  36.655  1.00  0.00     0.134 A 
ATOM     85  F   UNL A   1      40.753  33.937  35.128  1.00  0.00    -0.206 F 
ATOM     86  C   UNL A   1      39.392  34.206  37.021  1.00  0.00     0.040 A 
ATOM     87  C   UNL A   1      37.915  32.431  37.708  1.00  0.00     0.040 A 
ATOM     88  F   UNL A   1      37.868  30.416  36.514  1.00  0.00    -0.206 F 
ATOM     89  C   UNL A   1      38.426  33.713  37.898  1.00  0.00     0.006 A 
ENDBRANCH  65  82
ENDBRANCH  39  40
ENDBRANCH  32  34
ENDBRANCH  31  32
ENDBRANCH  30  31
ENDBRANCH  29  30
ENDBRANCH  28  29
ENDBRANCH  27  28
ENDBRANCH   1  27
TORSDOF 20
ENDMDL
