MODEL 1
REMARK VINA RESULT:     -11.3      0.000      0.000
REMARK SMILES Cc1cccc(C(=O)OCCOCCOCCOC(=O)c2ccc(-c3c4nc(c(-c5c(F)cccc5F)c5ccc([nH]5)c(-c5c(F)cccc5F)c5nc(c(-c6c(F)cccc6F)c6ccc3[nH]6)C=C5)C=C4)cc2)c1OC[C@@H]1C[C@H]2CC[C@@H]1C2
REMARK SMILES IDX 13 1 12 2 11 3 10 4 9 5 7 6 8 7 6 8 1 9 2 10 3 11 75 12 4 13
REMARK SMILES IDX 5 14 76 15 77 16 78 17 79 18 83 19 80 20 82 21 84 22 81 23
REMARK SMILES IDX 14 24 15 25 16 26 17 27 18 28 19 29 20 30 21 31 22 32 74 33
REMARK SMILES IDX 23 34 73 35 24 36 25 37 26 38 67 39 27 40 72 41 66 42 68 43
REMARK SMILES IDX 28 44 71 45 65 46 64 47 29 49 55 50 38 51 54 52 39 53 42 54
REMARK SMILES IDX 53 55 69 56 40 57 41 58 52 60 70 61 43 62 30 63 31 64 36 65
REMARK SMILES IDX 32 66 33 67 35 68 37 69 34 70 56 71 57 72 62 73 58 74 59 75
REMARK SMILES IDX 61 76 63 77 60 78 44 79 45 80 50 81 46 82 47 83 49 84 51 85
REMARK SMILES IDX 48 86
REMARK H PARENT 68 48 42 59
REMARK Flexibility Score: inf
ROOT
ATOM      1  C   UNL A   1      40.917  20.020  26.227  1.00  0.00     0.188 C 
ENDROOT
BRANCH   1   2
ATOM      2  O   UNL A   1      39.723  20.684  26.618  1.00  0.00    -0.376 OA
BRANCH   2   3
ATOM      3  C   UNL A   1      38.724  21.157  25.730  1.00  0.00     0.202 C 
BRANCH   3   4
ATOM      4  C   UNL A   1      38.140  22.691  25.929  1.00  0.00     0.261 C 
BRANCH   4   5
ATOM      5  O   UNL A   1      36.575  23.062  26.164  1.00  0.00    -0.460 OA
BRANCH   5   6
ATOM      6  C   UNL A   1      35.238  23.289  25.822  1.00  0.00     0.342 C 
ATOM      7  O   UNL A   1      34.452  23.450  26.757  1.00  0.00    -0.246 OA
BRANCH   6   8
ATOM      8  C   UNL A   1      34.494  23.381  24.488  1.00  0.00     0.102 A 
ATOM      9  C   UNL A   1      32.041  21.275  22.393  1.00  0.00     0.048 C 
ATOM     10  C   UNL A   1      32.917  22.408  22.861  1.00  0.00    -0.008 A 
ATOM     11  C   UNL A   1      32.898  23.600  22.129  1.00  0.00     0.007 A 
ATOM     12  C   UNL A   1      33.678  22.327  24.058  1.00  0.00     0.136 A 
ATOM     13  C   UNL A   1      33.595  24.705  22.598  1.00  0.00     0.001 A 
ATOM     14  C   UNL A   1      34.349  24.607  23.784  1.00  0.00     0.019 A 
BRANCH  12  15
ATOM     15  O   UNL A   1      33.471  21.204  24.812  1.00  0.00    -0.492 OA
BRANCH  15  16
ATOM     16  C   UNL A   1      34.433  20.156  24.610  1.00  0.00     0.233 C 
BRANCH  16  17
ATOM     17  C   UNL A   1      34.041  18.705  25.000  1.00  0.00     0.030 C 
ATOM     18  C   UNL A   1      34.979  17.703  24.298  1.00  0.00     0.011 C 
ATOM     19  C   UNL A   1      32.645  18.233  24.560  1.00  0.00    -0.004 C 
ATOM     20  C   UNL A   1      34.005  16.815  23.514  1.00  0.00    -0.010 C 
ATOM     21  C   UNL A   1      32.355  16.879  25.255  1.00  0.00     0.004 C 
ATOM     22  C   UNL A   1      32.903  17.799  23.125  1.00  0.00     0.007 C 
ATOM     23  C   UNL A   1      33.283  15.903  24.517  1.00  0.00     0.004 C 
ENDBRANCH  16  17
ENDBRANCH  15  16
ENDBRANCH  12  15
ENDBRANCH   6   8
ENDBRANCH   5   6
ENDBRANCH   4   5
ENDBRANCH   3   4
ENDBRANCH   2   3
ENDBRANCH   1   2
BRANCH   1  24
ATOM     24  C   UNL A   1      42.027  19.902  27.254  1.00  0.00     0.188 C 
BRANCH  24  25
ATOM     25  O   UNL A   1      42.980  18.967  26.783  1.00  0.00    -0.376 OA
BRANCH  25  26
ATOM     26  C   UNL A   1      43.050  18.839  25.376  1.00  0.00     0.202 C 
BRANCH  26  27
ATOM     27  C   UNL A   1      44.505  18.770  24.897  1.00  0.00     0.261 C 
BRANCH  27  28
ATOM     28  O   UNL A   1      45.267  19.833  25.513  1.00  0.00    -0.460 OA
BRANCH  28  29
ATOM     29  C   UNL A   1      46.080  20.569  24.678  1.00  0.00     0.338 C 
ATOM     30  O   UNL A   1      47.145  20.217  24.251  1.00  0.00    -0.246 OA
BRANCH  29  31
ATOM     31  C   UNL A   1      45.571  21.982  24.625  1.00  0.00     0.060 A 
ATOM     32  C   UNL A   1      46.370  23.108  24.797  1.00  0.00     0.016 A 
ATOM     33  C   UNL A   1      44.236  22.199  24.718  1.00  0.00     0.016 A 
ATOM     34  C   UNL A   1      45.832  24.336  25.345  1.00  0.00     0.010 A 
ATOM     35  C   UNL A   1      43.799  23.375  25.354  1.00  0.00     0.010 A 
ATOM     36  C   UNL A   1      44.523  24.481  25.841  1.00  0.00    -0.014 A 
BRANCH  36  37
ATOM     37  C   UNL A   1      44.088  25.627  26.963  1.00  0.00     0.031 A 
ATOM     38  C   UNL A   1      42.731  26.324  27.450  1.00  0.00     0.074 A 
ATOM     39  C   UNL A   1      45.064  26.109  27.775  1.00  0.00     0.049 A 
ATOM     40  N   UNL A   1      42.391  27.589  27.254  1.00  0.00    -0.248 NA
ATOM     41  C   UNL A   1      41.732  25.711  28.375  1.00  0.00     0.031 C 
ATOM     42  C   UNL A   1      44.927  26.988  28.942  1.00  0.00     0.029 A 
ATOM     43  N   UNL A   1      46.444  25.968  27.637  1.00  0.00    -0.354 N 
ATOM     44  C   UNL A   1      41.145  27.813  27.888  1.00  0.00     0.074 A 
ATOM     45  C   UNL A   1      40.708  26.556  28.399  1.00  0.00     0.031 C 
ATOM     46  C   UNL A   1      46.125  27.536  29.205  1.00  0.00     0.029 A 
ATOM     47  C   UNL A   1      47.026  27.130  28.144  1.00  0.00     0.049 A 
ATOM     48  H   UNL A   1      46.919  25.195  27.255  1.00  0.00     0.167 HD
ATOM     49  C   UNL A   1      40.632  28.969  28.415  1.00  0.00     0.037 A 
ATOM     50  C   UNL A   1      47.735  27.958  27.326  1.00  0.00     0.037 A 
ATOM     51  C   UNL A   1      41.714  29.820  28.817  1.00  0.00     0.049 A 
ATOM     52  C   UNL A   1      47.189  29.362  27.281  1.00  0.00     0.074 A 
ATOM     53  C   UNL A   1      42.390  29.889  30.023  1.00  0.00     0.029 A 
ATOM     54  N   UNL A   1      42.473  30.471  27.874  1.00  0.00    -0.354 N 
ATOM     55  N   UNL A   1      45.989  29.697  27.669  1.00  0.00    -0.248 NA
ATOM     56  C   UNL A   1      47.949  30.500  26.773  1.00  0.00     0.031 C 
ATOM     57  C   UNL A   1      43.630  30.512  29.778  1.00  0.00     0.029 A 
ATOM     58  C   UNL A   1      43.654  30.890  28.447  1.00  0.00     0.049 A 
ATOM     59  H   UNL A   1      42.214  30.616  26.936  1.00  0.00     0.167 HD
ATOM     60  C   UNL A   1      45.794  31.033  27.431  1.00  0.00     0.074 A 
ATOM     61  C   UNL A   1      47.059  31.497  26.902  1.00  0.00     0.031 C 
ATOM     62  C   UNL A   1      44.601  31.646  27.664  1.00  0.00     0.037 A 
BRANCH  49  63
ATOM     63  C   UNL A   1      39.223  29.025  29.018  1.00  0.00     0.057 A 
ATOM     64  C   UNL A   1      38.075  29.430  28.315  1.00  0.00     0.134 A 
ATOM     65  C   UNL A   1      38.976  28.665  30.361  1.00  0.00     0.134 A 
ATOM     66  F   UNL A   1      38.116  29.704  27.005  1.00  0.00    -0.206 F 
ATOM     67  C   UNL A   1      36.819  29.590  28.932  1.00  0.00     0.040 A 
ATOM     68  C   UNL A   1      37.735  28.838  30.997  1.00  0.00     0.040 A 
ATOM     69  F   UNL A   1      39.959  28.172  31.124  1.00  0.00    -0.206 F 
ATOM     70  C   UNL A   1      36.651  29.326  30.286  1.00  0.00     0.006 A 
ENDBRANCH  49  63
BRANCH  50  71
ATOM     71  C   UNL A   1      48.434  27.259  26.207  1.00  0.00     0.057 A 
ATOM     72  C   UNL A   1      47.836  27.270  24.931  1.00  0.00     0.134 A 
ATOM     73  C   UNL A   1      49.781  26.883  26.264  1.00  0.00     0.134 A 
ATOM     74  F   UNL A   1      46.552  27.639  24.792  1.00  0.00    -0.206 F 
ATOM     75  C   UNL A   1      48.559  27.017  23.762  1.00  0.00     0.040 A 
ATOM     76  C   UNL A   1      50.516  26.611  25.098  1.00  0.00     0.040 A 
ATOM     77  F   UNL A   1      50.444  26.888  27.429  1.00  0.00    -0.206 F 
ATOM     78  C   UNL A   1      49.912  26.704  23.842  1.00  0.00     0.006 A 
ENDBRANCH  50  71
BRANCH  62  79
ATOM     79  C   UNL A   1      44.199  33.027  27.225  1.00  0.00     0.057 A 
ATOM     80  C   UNL A   1      43.940  33.370  25.893  1.00  0.00     0.134 A 
ATOM     81  C   UNL A   1      43.873  34.018  28.182  1.00  0.00     0.134 A 
ATOM     82  F   UNL A   1      44.108  32.488  24.898  1.00  0.00    -0.206 F 
ATOM     83  C   UNL A   1      43.434  34.624  25.532  1.00  0.00     0.040 A 
ATOM     84  C   UNL A   1      43.313  35.248  27.836  1.00  0.00     0.040 A 
ATOM     85  F   UNL A   1      44.056  33.817  29.496  1.00  0.00    -0.206 F 
ATOM     86  C   UNL A   1      43.104  35.561  26.503  1.00  0.00     0.006 A 
ENDBRANCH  62  79
ENDBRANCH  36  37
ENDBRANCH  29  31
ENDBRANCH  28  29
ENDBRANCH  27  28
ENDBRANCH  26  27
ENDBRANCH  25  26
ENDBRANCH  24  25
ENDBRANCH   1  24
TORSDOF 20
ENDMDL
MODEL 2
REMARK VINA RESULT:     -10.8      3.716      6.498
REMARK SMILES Cc1cccc(C(=O)OCCOCCOCCOC(=O)c2ccc(-c3c4nc(c(-c5c(F)cccc5F)c5ccc([nH]5)c(-c5c(F)cccc5F)c5nc(c(-c6c(F)cccc6F)c6ccc3[nH]6)C=C5)C=C4)cc2)c1OC[C@@H]1C[C@H]2CC[C@@H]1C2
REMARK SMILES IDX 13 1 12 2 11 3 10 4 9 5 7 6 8 7 6 8 1 9 2 10 3 11 75 12 4 13
REMARK SMILES IDX 5 14 76 15 77 16 78 17 79 18 83 19 80 20 82 21 84 22 81 23
REMARK SMILES IDX 14 24 15 25 16 26 17 27 18 28 19 29 20 30 21 31 22 32 74 33
REMARK SMILES IDX 23 34 73 35 24 36 25 37 26 38 67 39 27 40 72 41 66 42 68 43
REMARK SMILES IDX 28 44 71 45 65 46 64 47 29 49 55 50 38 51 54 52 39 53 42 54
REMARK SMILES IDX 53 55 69 56 40 57 41 58 52 60 70 61 43 62 30 63 31 64 36 65
REMARK SMILES IDX 32 66 33 67 35 68 37 69 34 70 56 71 57 72 62 73 58 74 59 75
REMARK SMILES IDX 61 76 63 77 60 78 44 79 45 80 50 81 46 82 47 83 49 84 51 85
REMARK SMILES IDX 48 86
REMARK H PARENT 68 48 42 59
REMARK Flexibility Score: inf
ROOT
ATOM      1  C   UNL A   1      40.162  22.024  26.813  1.00  0.00     0.188 C 
ENDROOT
BRANCH   1   2
ATOM      2  O   UNL A   1      39.275  21.198  26.072  1.00  0.00    -0.376 OA
BRANCH   2   3
ATOM      3  C   UNL A   1      38.123  21.652  25.379  1.00  0.00     0.202 C 
BRANCH   3   4
ATOM      4  C   UNL A   1      37.354  23.013  25.916  1.00  0.00     0.261 C 
BRANCH   4   5
ATOM      5  O   UNL A   1      35.784  23.084  26.334  1.00  0.00    -0.460 OA
BRANCH   5   6
ATOM      6  C   UNL A   1      34.434  22.720  26.342  1.00  0.00     0.342 C 
ATOM      7  O   UNL A   1      34.032  22.125  27.344  1.00  0.00    -0.246 OA
BRANCH   6   8
ATOM      8  C   UNL A   1      33.291  22.895  25.340  1.00  0.00     0.102 A 
ATOM      9  C   UNL A   1      30.554  25.471  24.496  1.00  0.00     0.048 C 
ATOM     10  C   UNL A   1      31.445  24.258  24.437  1.00  0.00    -0.008 A 
ATOM     11  C   UNL A   1      31.303  23.390  23.349  1.00  0.00     0.007 A 
ATOM     12  C   UNL A   1      32.467  24.027  25.396  1.00  0.00     0.136 A 
ATOM     13  C   UNL A   1      32.187  22.331  23.196  1.00  0.00     0.001 A 
ATOM     14  C   UNL A   1      33.193  22.112  24.157  1.00  0.00     0.019 A 
BRANCH  12  15
ATOM     15  O   UNL A   1      32.665  25.034  26.300  1.00  0.00    -0.492 OA
BRANCH  15  16
ATOM     16  C   UNL A   1      33.593  26.048  25.880  1.00  0.00     0.233 C 
BRANCH  16  17
ATOM     17  C   UNL A   1      33.512  27.449  26.545  1.00  0.00     0.030 C 
ATOM     18  C   UNL A   1      32.089  27.688  27.090  1.00  0.00     0.011 C 
ATOM     19  C   UNL A   1      33.731  28.658  25.620  1.00  0.00    -0.004 C 
ATOM     20  C   UNL A   1      31.663  28.976  26.376  1.00  0.00    -0.010 C 
ATOM     21  C   UNL A   1      33.864  29.921  26.506  1.00  0.00     0.004 C 
ATOM     22  C   UNL A   1      32.347  28.843  25.017  1.00  0.00     0.007 C 
ATOM     23  C   UNL A   1      32.431  30.146  27.010  1.00  0.00     0.004 C 
ENDBRANCH  16  17
ENDBRANCH  15  16
ENDBRANCH  12  15
ENDBRANCH   6   8
ENDBRANCH   5   6
ENDBRANCH   4   5
ENDBRANCH   3   4
ENDBRANCH   2   3
ENDBRANCH   1   2
BRANCH   1  24
ATOM     24  C   UNL A   1      41.277  21.345  27.585  1.00  0.00     0.188 C 
BRANCH  24  25
ATOM     25  O   UNL A   1      42.515  21.876  27.150  1.00  0.00    -0.376 OA
BRANCH  25  26
ATOM     26  C   UNL A   1      42.731  21.828  25.753  1.00  0.00     0.202 C 
BRANCH  26  27
ATOM     27  C   UNL A   1      43.351  23.133  25.242  1.00  0.00     0.261 C 
BRANCH  27  28
ATOM     28  O   UNL A   1      42.707  24.258  25.884  1.00  0.00    -0.460 OA
BRANCH  28  29
ATOM     29  C   UNL A   1      43.024  25.507  25.397  1.00  0.00     0.338 C 
ATOM     30  O   UNL A   1      44.117  25.869  25.058  1.00  0.00    -0.246 OA
BRANCH  29  31
ATOM     31  C   UNL A   1      41.861  26.430  25.630  1.00  0.00     0.060 A 
ATOM     32  C   UNL A   1      41.959  27.818  25.673  1.00  0.00     0.016 A 
ATOM     33  C   UNL A   1      40.708  25.915  26.123  1.00  0.00     0.016 A 
ATOM     34  C   UNL A   1      41.047  28.611  26.470  1.00  0.00     0.010 A 
ATOM     35  C   UNL A   1      39.930  26.726  26.969  1.00  0.00     0.010 A 
ATOM     36  C   UNL A   1      40.071  28.079  27.332  1.00  0.00    -0.014 A 
BRANCH  36  37
ATOM     37  C   UNL A   1      39.453  28.901  28.638  1.00  0.00     0.031 A 
ATOM     38  C   UNL A   1      38.413  30.096  28.876  1.00  0.00     0.074 A 
ATOM     39  C   UNL A   1      39.816  28.474  29.874  1.00  0.00     0.049 A 
ATOM     40  N   UNL A   1      38.711  31.313  29.305  1.00  0.00    -0.248 NA
ATOM     41  C   UNL A   1      36.927  29.963  28.845  1.00  0.00     0.031 C 
ATOM     42  C   UNL A   1      39.295  28.906  31.177  1.00  0.00     0.029 A 
ATOM     43  N   UNL A   1      40.842  27.594  30.213  1.00  0.00    -0.354 N 
ATOM     44  C   UNL A   1      37.504  32.042  29.432  1.00  0.00     0.074 A 
ATOM     45  C   UNL A   1      36.459  31.201  28.947  1.00  0.00     0.031 C 
ATOM     46  C   UNL A   1      40.175  28.549  32.127  1.00  0.00     0.029 A 
ATOM     47  C   UNL A   1      41.336  28.000  31.453  1.00  0.00     0.049 A 
ATOM     48  H   UNL A   1      41.159  26.830  29.679  1.00  0.00     0.167 HD
ATOM     49  C   UNL A   1      37.197  33.080  30.271  1.00  0.00     0.037 A 
ATOM     50  C   UNL A   1      42.621  28.439  31.573  1.00  0.00     0.037 A 
ATOM     51  C   UNL A   1      38.011  32.985  31.449  1.00  0.00     0.049 A 
ATOM     52  C   UNL A   1      42.724  29.841  32.114  1.00  0.00     0.074 A 
ATOM     53  C   UNL A   1      37.779  32.311  32.635  1.00  0.00     0.029 A 
ATOM     54  N   UNL A   1      39.349  33.293  31.396  1.00  0.00    -0.354 N 
ATOM     55  N   UNL A   1      41.737  30.695  32.136  1.00  0.00    -0.248 NA
ATOM     56  C   UNL A   1      43.959  30.400  32.655  1.00  0.00     0.031 C 
ATOM     57  C   UNL A   1      39.026  32.125  33.266  1.00  0.00     0.029 A 
ATOM     58  C   UNL A   1      39.984  32.762  32.498  1.00  0.00     0.049 A 
ATOM     59  H   UNL A   1      39.786  33.811  30.683  1.00  0.00     0.167 HD
ATOM     60  C   UNL A   1      42.188  31.892  32.628  1.00  0.00     0.074 A 
ATOM     61  C   UNL A   1      43.573  31.648  32.969  1.00  0.00     0.031 C 
ATOM     62  C   UNL A   1      41.394  32.997  32.693  1.00  0.00     0.037 A 
BRANCH  49  63
ATOM     63  C   UNL A   1      35.836  33.786  30.219  1.00  0.00     0.057 A 
ATOM     64  C   UNL A   1      35.224  34.242  29.038  1.00  0.00     0.134 A 
ATOM     65  C   UNL A   1      35.086  34.035  31.389  1.00  0.00     0.134 A 
ATOM     66  F   UNL A   1      35.752  33.994  27.834  1.00  0.00    -0.206 F 
ATOM     67  C   UNL A   1      34.034  34.996  29.039  1.00  0.00     0.040 A 
ATOM     68  C   UNL A   1      33.909  34.802  31.409  1.00  0.00     0.040 A 
ATOM     69  F   UNL A   1      35.503  33.574  32.574  1.00  0.00    -0.206 F 
ATOM     70  C   UNL A   1      33.389  35.309  30.229  1.00  0.00     0.006 A 
ENDBRANCH  49  63
BRANCH  50  71
ATOM     71  C   UNL A   1      43.575  27.801  30.618  1.00  0.00     0.057 A 
ATOM     72  C   UNL A   1      44.128  26.549  30.957  1.00  0.00     0.134 A 
ATOM     73  C   UNL A   1      43.700  28.200  29.282  1.00  0.00     0.134 A 
ATOM     74  F   UNL A   1      44.030  26.089  32.214  1.00  0.00    -0.206 F 
ATOM     75  C   UNL A   1      44.689  25.695  30.003  1.00  0.00     0.040 A 
ATOM     76  C   UNL A   1      44.276  27.357  28.316  1.00  0.00     0.040 A 
ATOM     77  F   UNL A   1      43.166  29.354  28.859  1.00  0.00    -0.206 F 
ATOM     78  C   UNL A   1      44.746  26.091  28.671  1.00  0.00     0.006 A 
ENDBRANCH  50  71
BRANCH  62  79
ATOM     79  C   UNL A   1      41.834  34.405  32.983  1.00  0.00     0.057 A 
ATOM     80  C   UNL A   1      41.573  35.063  34.190  1.00  0.00     0.134 A 
ATOM     81  C   UNL A   1      42.716  35.076  32.102  1.00  0.00     0.134 A 
ATOM     82  F   UNL A   1      40.837  34.492  35.153  1.00  0.00    -0.206 F 
ATOM     83  C   UNL A   1      42.114  36.320  34.485  1.00  0.00     0.040 A 
ATOM     84  C   UNL A   1      43.306  36.302  32.412  1.00  0.00     0.040 A 
ATOM     85  F   UNL A   1      43.064  34.552  30.917  1.00  0.00    -0.206 F 
ATOM     86  C   UNL A   1      42.995  36.937  33.604  1.00  0.00     0.006 A 
ENDBRANCH  62  79
ENDBRANCH  36  37
ENDBRANCH  29  31
ENDBRANCH  28  29
ENDBRANCH  27  28
ENDBRANCH  26  27
ENDBRANCH  25  26
ENDBRANCH  24  25
ENDBRANCH   1  24
TORSDOF 20
ENDMDL
MODEL 3
REMARK VINA RESULT:     -10.6      2.786      4.561
REMARK SMILES Cc1cccc(C(=O)OCCOCCOCCOC(=O)c2ccc(-c3c4nc(c(-c5c(F)cccc5F)c5ccc([nH]5)c(-c5c(F)cccc5F)c5nc(c(-c6c(F)cccc6F)c6ccc3[nH]6)C=C5)C=C4)cc2)c1OC[C@@H]1C[C@H]2CC[C@@H]1C2
REMARK SMILES IDX 13 1 12 2 11 3 10 4 9 5 7 6 8 7 6 8 1 9 2 10 3 11 75 12 4 13
REMARK SMILES IDX 5 14 76 15 77 16 78 17 79 18 83 19 80 20 82 21 84 22 81 23
REMARK SMILES IDX 14 24 15 25 16 26 17 27 18 28 19 29 20 30 21 31 22 32 74 33
REMARK SMILES IDX 23 34 73 35 24 36 25 37 26 38 67 39 27 40 72 41 66 42 68 43
REMARK SMILES IDX 28 44 71 45 65 46 64 47 29 49 55 50 38 51 54 52 39 53 42 54
REMARK SMILES IDX 53 55 69 56 40 57 41 58 52 60 70 61 43 62 30 63 31 64 36 65
REMARK SMILES IDX 32 66 33 67 35 68 37 69 34 70 56 71 57 72 62 73 58 74 59 75
REMARK SMILES IDX 61 76 63 77 60 78 44 79 45 80 50 81 46 82 47 83 49 84 51 85
REMARK SMILES IDX 48 86
REMARK H PARENT 68 48 42 59
REMARK Flexibility Score: inf
ROOT
ATOM      1  C   UNL A   1      40.289  21.060  26.604  1.00  0.00     0.188 C 
ENDROOT
BRANCH   1   2
ATOM      2  O   UNL A   1      39.304  20.944  25.586  1.00  0.00    -0.376 OA
BRANCH   2   3
ATOM      3  C   UNL A   1      37.937  21.295  25.728  1.00  0.00     0.202 C 
BRANCH   3   4
ATOM      4  C   UNL A   1      37.549  22.861  26.092  1.00  0.00     0.261 C 
BRANCH   4   5
ATOM      5  O   UNL A   1      36.036  23.456  26.119  1.00  0.00    -0.460 OA
BRANCH   5   6
ATOM      6  C   UNL A   1      34.746  23.720  25.649  1.00  0.00     0.342 C 
ATOM      7  O   UNL A   1      33.913  24.056  26.492  1.00  0.00    -0.246 OA
BRANCH   6   8
ATOM      8  C   UNL A   1      34.103  23.677  24.261  1.00  0.00     0.102 A 
ATOM      9  C   UNL A   1      31.982  21.269  22.129  1.00  0.00     0.048 C 
ATOM     10  C   UNL A   1      32.732  22.492  22.589  1.00  0.00    -0.008 A 
ATOM     11  C   UNL A   1      32.681  23.635  21.784  1.00  0.00     0.007 A 
ATOM     12  C   UNL A   1      33.403  22.539  23.840  1.00  0.00     0.136 A 
ATOM     13  C   UNL A   1      33.256  24.816  22.232  1.00  0.00     0.001 A 
ATOM     14  C   UNL A   1      33.921  24.846  23.473  1.00  0.00     0.019 A 
BRANCH  12  15
ATOM     15  O   UNL A   1      33.222  21.448  24.645  1.00  0.00    -0.492 OA
BRANCH  15  16
ATOM     16  C   UNL A   1      34.277  20.474  24.588  1.00  0.00     0.233 C 
BRANCH  16  17
ATOM     17  C   UNL A   1      33.959  19.010  24.997  1.00  0.00     0.030 C 
ATOM     18  C   UNL A   1      34.964  18.050  24.331  1.00  0.00     0.011 C 
ATOM     19  C   UNL A   1      32.600  18.454  24.541  1.00  0.00    -0.004 C 
ATOM     20  C   UNL A   1      34.056  17.096  23.546  1.00  0.00    -0.010 C 
ATOM     21  C   UNL A   1      32.372  17.099  25.255  1.00  0.00     0.004 C 
ATOM     22  C   UNL A   1      32.908  18.010  23.119  1.00  0.00     0.007 C 
ATOM     23  C   UNL A   1      33.367  16.163  24.553  1.00  0.00     0.004 C 
ENDBRANCH  16  17
ENDBRANCH  15  16
ENDBRANCH  12  15
ENDBRANCH   6   8
ENDBRANCH   5   6
ENDBRANCH   4   5
ENDBRANCH   3   4
ENDBRANCH   2   3
ENDBRANCH   1   2
BRANCH   1  24
ATOM     24  C   UNL A   1      41.400  20.028  26.631  1.00  0.00     0.188 C 
BRANCH  24  25
ATOM     25  O   UNL A   1      42.606  20.653  26.234  1.00  0.00    -0.376 OA
BRANCH  25  26
ATOM     26  C   UNL A   1      42.492  22.024  25.905  1.00  0.00     0.202 C 
BRANCH  26  27
ATOM     27  C   UNL A   1      43.807  22.768  26.163  1.00  0.00     0.261 C 
BRANCH  27  28
ATOM     28  O   UNL A   1      43.525  24.046  26.778  1.00  0.00    -0.460 OA
BRANCH  28  29
ATOM     29  C   UNL A   1      43.033  25.032  25.950  1.00  0.00     0.338 C 
ATOM     30  O   UNL A   1      43.593  25.480  24.988  1.00  0.00    -0.246 OA
BRANCH  29  31
ATOM     31  C   UNL A   1      41.832  25.659  26.600  1.00  0.00     0.060 A 
ATOM     32  C   UNL A   1      41.107  26.713  26.052  1.00  0.00     0.016 A 
ATOM     33  C   UNL A   1      41.599  25.416  27.913  1.00  0.00     0.016 A 
ATOM     34  C   UNL A   1      40.411  27.664  26.894  1.00  0.00     0.010 A 
ATOM     35  C   UNL A   1      41.005  26.434  28.679  1.00  0.00     0.010 A 
ATOM     36  C   UNL A   1      40.478  27.684  28.299  1.00  0.00    -0.014 A 
BRANCH  36  37
ATOM     37  C   UNL A   1      40.199  29.045  29.212  1.00  0.00     0.031 A 
ATOM     38  C   UNL A   1      39.031  30.130  29.356  1.00  0.00     0.074 A 
ATOM     39  C   UNL A   1      41.118  29.360  30.160  1.00  0.00     0.049 A 
ATOM     40  N   UNL A   1      39.100  31.402  28.991  1.00  0.00    -0.248 NA
ATOM     41  C   UNL A   1      37.758  29.930  30.109  1.00  0.00     0.031 C 
ATOM     42  C   UNL A   1      41.037  30.394  31.199  1.00  0.00     0.029 A 
ATOM     43  N   UNL A   1      42.405  28.847  30.316  1.00  0.00    -0.354 N 
ATOM     44  C   UNL A   1      37.878  32.026  29.341  1.00  0.00     0.074 A 
ATOM     45  C   UNL A   1      37.024  31.007  29.856  1.00  0.00     0.031 C 
ATOM     46  C   UNL A   1      42.277  30.642  31.651  1.00  0.00     0.029 A 
ATOM     47  C   UNL A   1      43.195  29.875  30.831  1.00  0.00     0.049 A 
ATOM     48  H   UNL A   1      42.700  27.933  30.103  1.00  0.00     0.167 HD
ATOM     49  C   UNL A   1      37.629  33.336  29.656  1.00  0.00     0.037 A 
ATOM     50  C   UNL A   1      44.237  30.372  30.106  1.00  0.00     0.037 A 
ATOM     51  C   UNL A   1      38.822  33.922  30.195  1.00  0.00     0.049 A 
ATOM     52  C   UNL A   1      44.124  31.850  29.836  1.00  0.00     0.074 A 
ATOM     53  C   UNL A   1      39.274  33.975  31.502  1.00  0.00     0.029 A 
ATOM     54  N   UNL A   1      39.883  34.219  29.373  1.00  0.00    -0.354 N 
ATOM     55  N   UNL A   1      43.019  32.535  29.945  1.00  0.00    -0.248 NA
ATOM     56  C   UNL A   1      45.250  32.670  29.399  1.00  0.00     0.031 C 
ATOM     57  C   UNL A   1      40.662  34.214  31.461  1.00  0.00     0.029 A 
ATOM     58  C   UNL A   1      41.018  34.389  30.136  1.00  0.00     0.049 A 
ATOM     59  H   UNL A   1      39.839  34.298  28.393  1.00  0.00     0.167 HD
ATOM     60  C   UNL A   1      43.252  33.831  29.563  1.00  0.00     0.074 A 
ATOM     61  C   UNL A   1      44.668  33.873  29.262  1.00  0.00     0.031 C 
ATOM     62  C   UNL A   1      42.259  34.759  29.499  1.00  0.00     0.037 A 
BRANCH  49  63
ATOM     63  C   UNL A   1      36.211  33.838  29.956  1.00  0.00     0.057 A 
ATOM     64  C   UNL A   1      35.288  34.241  28.975  1.00  0.00     0.134 A 
ATOM     65  C   UNL A   1      35.724  33.936  31.278  1.00  0.00     0.134 A 
ATOM     66  F   UNL A   1      35.553  34.113  27.669  1.00  0.00    -0.206 F 
ATOM     67  C   UNL A   1      34.041  34.815  29.291  1.00  0.00     0.040 A 
ATOM     68  C   UNL A   1      34.492  34.524  31.611  1.00  0.00     0.040 A 
ATOM     69  F   UNL A   1      36.460  33.500  32.307  1.00  0.00    -0.206 F 
ATOM     70  C   UNL A   1      33.652  34.990  30.613  1.00  0.00     0.006 A 
ENDBRANCH  49  63
BRANCH  50  71
ATOM     71  C   UNL A   1      44.892  29.370  29.213  1.00  0.00     0.057 A 
ATOM     72  C   UNL A   1      45.846  28.496  29.771  1.00  0.00     0.134 A 
ATOM     73  C   UNL A   1      44.389  29.026  27.952  1.00  0.00     0.134 A 
ATOM     74  F   UNL A   1      46.360  28.747  30.986  1.00  0.00    -0.206 F 
ATOM     75  C   UNL A   1      46.211  27.294  29.157  1.00  0.00     0.040 A 
ATOM     76  C   UNL A   1      44.759  27.829  27.317  1.00  0.00     0.040 A 
ATOM     77  F   UNL A   1      43.444  29.775  27.365  1.00  0.00    -0.206 F 
ATOM     78  C   UNL A   1      45.651  26.947  27.932  1.00  0.00     0.006 A 
ENDBRANCH  50  71
BRANCH  62  79
ATOM     79  C   UNL A   1      42.343  36.125  28.874  1.00  0.00     0.057 A 
ATOM     80  C   UNL A   1      42.987  37.212  29.477  1.00  0.00     0.134 A 
ATOM     81  C   UNL A   1      41.932  36.328  27.535  1.00  0.00     0.134 A 
ATOM     82  F   UNL A   1      43.515  37.119  30.705  1.00  0.00    -0.206 F 
ATOM     83  C   UNL A   1      43.170  38.430  28.813  1.00  0.00     0.040 A 
ATOM     84  C   UNL A   1      42.162  37.519  26.846  1.00  0.00     0.040 A 
ATOM     85  F   UNL A   1      41.316  35.364  26.833  1.00  0.00    -0.206 F 
ATOM     86  C   UNL A   1      42.773  38.582  27.489  1.00  0.00     0.006 A 
ENDBRANCH  62  79
ENDBRANCH  36  37
ENDBRANCH  29  31
ENDBRANCH  28  29
ENDBRANCH  27  28
ENDBRANCH  26  27
ENDBRANCH  25  26
ENDBRANCH  24  25
ENDBRANCH   1  24
TORSDOF 20
ENDMDL
