MODEL 1
REMARK VINA RESULT:     -10.9      0.000      0.000
REMARK SMILES Cc1cc(Br)cc2c1O[C@H](C(F)(F)F)C(C(=O)OCCOCCOCCOC(=O)c1ccc(-c3c4nc(c(-c5c(F)cccc5F)c5ccc([nH]5)c(-c5c(F)cccc5F)c5nc(c(-c6c(F)cccc6F)c6ccc3[nH]6)C=C5)C=C4)cc1)=C2
REMARK SMILES IDX 23 1 22 2 21 3 20 4 19 5 18 6 16 7 17 8 15 9 1 10 2 11 3 12
REMARK SMILES IDX 8 13 4 14 7 15 9 16 5 17 6 18 84 19 10 20 11 21 12 22 13 23
REMARK SMILES IDX 14 24 24 25 25 26 26 27 27 28 28 29 29 30 30 31 31 32 83 33
REMARK SMILES IDX 32 34 82 35 33 36 34 37 35 38 76 39 36 40 81 41 75 42 77 43
REMARK SMILES IDX 37 44 80 45 74 46 73 47 38 49 64 50 47 51 63 52 48 53 51 54
REMARK SMILES IDX 62 55 78 56 49 57 50 58 61 60 79 61 52 62 39 63 40 64 45 65
REMARK SMILES IDX 41 66 42 67 44 68 46 69 43 70 65 71 66 72 71 73 67 74 68 75
REMARK SMILES IDX 70 76 72 77 69 78 53 79 54 80 59 81 55 82 56 83 58 84 60 85
REMARK SMILES IDX 57 86
REMARK H PARENT 77 48 51 59
REMARK Flexibility Score: inf
ROOT
ATOM      1  C   UNL A   1      42.228  19.654  26.537  1.00  0.00     0.188 C 
ENDROOT
BRANCH   1   2
ATOM      2  C   UNL A   1      41.222  20.704  27.056  1.00  0.00     0.188 C 
BRANCH   2   3
ATOM      3  O   UNL A   1      40.916  21.852  26.279  1.00  0.00    -0.376 OA
BRANCH   3   4
ATOM      4  C   UNL A   1      39.692  22.547  26.470  1.00  0.00     0.202 C 
BRANCH   4   5
ATOM      5  C   UNL A   1      38.416  22.120  25.726  1.00  0.00     0.261 C 
BRANCH   5   6
ATOM      6  O   UNL A   1      37.476  23.175  25.472  1.00  0.00    -0.460 OA
BRANCH   6   7
ATOM      7  C   UNL A   1      36.665  22.989  24.404  1.00  0.00     0.338 C 
ATOM      8  O   UNL A   1      36.960  22.465  23.343  1.00  0.00    -0.246 OA
BRANCH   7   9
ATOM      9  C   UNL A   1      35.284  23.381  24.754  1.00  0.00     0.087 C 
ATOM     10  C   UNL A   1      30.394  23.490  26.283  1.00  0.00     0.048 C 
ATOM     11  C   UNL A   1      31.490  24.504  26.105  1.00  0.00    -0.007 A 
ATOM     12  C   UNL A   1      31.296  25.816  26.564  1.00  0.00     0.023 A 
ATOM     13  C   UNL A   1      32.741  24.141  25.577  1.00  0.00     0.130 A 
ATOM     14  C   UNL A   1      32.322  26.753  26.463  1.00  0.00     0.019 A 
ATOM     15  C   UNL A   1      33.779  25.077  25.518  1.00  0.00     0.019 A 
ATOM     16  O   UNL A   1      32.879  22.851  25.145  1.00  0.00    -0.475 OA
ATOM     17  Br  UNL A   1      32.047  28.517  27.086  1.00  0.00    -0.051 Br
ATOM     18  C   UNL A   1      33.560  26.393  25.940  1.00  0.00     0.027 A 
ATOM     19  C   UNL A   1      35.104  24.664  25.093  1.00  0.00     0.027 C 
ATOM     20  C   UNL A   1      34.178  22.363  24.715  1.00  0.00     0.316 C 
BRANCH  20  21
ATOM     21  C   UNL A   1      34.507  21.107  25.533  1.00  0.00     0.430 C 
ATOM     22  F   UNL A   1      35.168  20.192  24.784  1.00  0.00    -0.167 F 
ATOM     23  F   UNL A   1      35.302  21.390  26.591  1.00  0.00    -0.167 F 
ATOM     24  F   UNL A   1      33.392  20.512  26.013  1.00  0.00    -0.167 F 
ENDBRANCH  20  21
ENDBRANCH   7   9
ENDBRANCH   6   7
ENDBRANCH   5   6
ENDBRANCH   4   5
ENDBRANCH   3   4
ENDBRANCH   2   3
ENDBRANCH   1   2
BRANCH   1  25
ATOM     25  O   UNL A   1      42.855  19.983  25.324  1.00  0.00    -0.376 OA
BRANCH  25  26
ATOM     26  C   UNL A   1      44.070  20.714  25.331  1.00  0.00     0.202 C 
BRANCH  26  27
ATOM     27  C   UNL A   1      44.220  22.211  24.980  1.00  0.00     0.261 C 
BRANCH  27  28
ATOM     28  O   UNL A   1      44.049  23.181  26.016  1.00  0.00    -0.460 OA
BRANCH  28  29
ATOM     29  C   UNL A   1      44.263  24.475  25.676  1.00  0.00     0.338 C 
ATOM     30  O   UNL A   1      44.798  24.895  24.670  1.00  0.00    -0.246 OA
BRANCH  29  31
ATOM     31  C   UNL A   1      43.563  25.328  26.659  1.00  0.00     0.060 A 
ATOM     32  C   UNL A   1      43.993  26.650  26.835  1.00  0.00     0.016 A 
ATOM     33  C   UNL A   1      42.504  24.818  27.411  1.00  0.00     0.016 A 
ATOM     34  C   UNL A   1      43.376  27.463  27.787  1.00  0.00     0.010 A 
ATOM     35  C   UNL A   1      41.906  25.625  28.383  1.00  0.00     0.010 A 
ATOM     36  C   UNL A   1      42.358  26.941  28.594  1.00  0.00    -0.014 A 
BRANCH  36  37
ATOM     37  C   UNL A   1      41.882  27.692  29.778  1.00  0.00     0.031 A 
ATOM     38  C   UNL A   1      40.687  28.591  29.623  1.00  0.00     0.074 A 
ATOM     39  C   UNL A   1      42.499  27.588  30.968  1.00  0.00     0.049 A 
ATOM     40  N   UNL A   1      40.165  29.436  30.473  1.00  0.00    -0.248 NA
ATOM     41  C   UNL A   1      39.985  28.522  28.330  1.00  0.00     0.031 C 
ATOM     42  C   UNL A   1      43.623  26.704  31.264  1.00  0.00     0.029 A 
ATOM     43  N   UNL A   1      42.268  28.250  32.149  1.00  0.00    -0.354 N 
ATOM     44  C   UNL A   1      39.079  30.003  29.819  1.00  0.00     0.074 A 
ATOM     45  C   UNL A   1      39.030  29.426  28.494  1.00  0.00     0.031 C 
ATOM     46  C   UNL A   1      43.997  26.891  32.542  1.00  0.00     0.029 A 
ATOM     47  C   UNL A   1      43.167  27.937  33.138  1.00  0.00     0.049 A 
ATOM     48  H   UNL A   1      41.528  28.887  32.274  1.00  0.00     0.167 HD
ATOM     49  C   UNL A   1      38.199  30.921  30.285  1.00  0.00     0.037 A 
ATOM     50  C   UNL A   1      43.320  28.461  34.371  1.00  0.00     0.037 A 
ATOM     51  C   UNL A   1      38.261  31.504  31.600  1.00  0.00     0.049 A 
ATOM     52  C   UNL A   1      42.391  29.555  34.832  1.00  0.00     0.074 A 
ATOM     53  C   UNL A   1      37.428  32.458  32.158  1.00  0.00     0.029 A 
ATOM     54  N   UNL A   1      39.211  31.191  32.561  1.00  0.00    -0.354 N 
ATOM     55  N   UNL A   1      41.381  30.105  34.202  1.00  0.00    -0.248 NA
ATOM     56  C   UNL A   1      42.626  30.101  36.177  1.00  0.00     0.031 C 
ATOM     57  C   UNL A   1      37.903  32.757  33.439  1.00  0.00     0.029 A 
ATOM     58  C   UNL A   1      38.993  31.943  33.703  1.00  0.00     0.049 A 
ATOM     59  H   UNL A   1      39.933  30.530  32.447  1.00  0.00     0.167 HD
ATOM     60  C   UNL A   1      40.838  31.032  35.085  1.00  0.00     0.074 A 
ATOM     61  C   UNL A   1      41.628  30.964  36.297  1.00  0.00     0.031 C 
ATOM     62  C   UNL A   1      39.779  31.859  34.908  1.00  0.00     0.037 A 
BRANCH  49  63
ATOM     63  C   UNL A   1      37.106  31.369  29.362  1.00  0.00     0.057 A 
ATOM     64  C   UNL A   1      35.989  30.566  29.095  1.00  0.00     0.134 A 
ATOM     65  C   UNL A   1      37.141  32.643  28.780  1.00  0.00     0.134 A 
ATOM     66  F   UNL A   1      35.903  29.329  29.605  1.00  0.00    -0.206 F 
ATOM     67  C   UNL A   1      34.951  31.012  28.275  1.00  0.00     0.040 A 
ATOM     68  C   UNL A   1      36.095  33.110  27.981  1.00  0.00     0.040 A 
ATOM     69  F   UNL A   1      38.181  33.462  28.995  1.00  0.00    -0.206 F 
ATOM     70  C   UNL A   1      34.997  32.292  27.724  1.00  0.00     0.006 A 
ENDBRANCH  49  63
BRANCH  50  71
ATOM     71  C   UNL A   1      44.400  27.960  35.259  1.00  0.00     0.057 A 
ATOM     72  C   UNL A   1      45.679  28.527  35.233  1.00  0.00     0.134 A 
ATOM     73  C   UNL A   1      44.184  26.903  36.153  1.00  0.00     0.134 A 
ATOM     74  F   UNL A   1      45.956  29.525  34.379  1.00  0.00    -0.206 F 
ATOM     75  C   UNL A   1      46.706  28.059  36.054  1.00  0.00     0.040 A 
ATOM     76  C   UNL A   1      45.193  26.442  36.998  1.00  0.00     0.040 A 
ATOM     77  F   UNL A   1      42.982  26.312  36.224  1.00  0.00    -0.206 F 
ATOM     78  C   UNL A   1      46.461  27.018  36.948  1.00  0.00     0.006 A 
ENDBRANCH  50  71
BRANCH  62  79
ATOM     79  C   UNL A   1      39.370  32.725  36.068  1.00  0.00     0.057 A 
ATOM     80  C   UNL A   1      38.410  32.315  37.001  1.00  0.00     0.134 A 
ATOM     81  C   UNL A   1      39.987  33.966  36.278  1.00  0.00     0.134 A 
ATOM     82  F   UNL A   1      37.776  31.142  36.855  1.00  0.00    -0.206 F 
ATOM     83  C   UNL A   1      38.059  33.120  38.086  1.00  0.00     0.040 A 
ATOM     84  C   UNL A   1      39.667  34.765  37.377  1.00  0.00     0.040 A 
ATOM     85  F   UNL A   1      40.927  34.413  35.431  1.00  0.00    -0.206 F 
ATOM     86  C   UNL A   1      38.693  34.346  38.280  1.00  0.00     0.006 A 
ENDBRANCH  62  79
ENDBRANCH  36  37
ENDBRANCH  29  31
ENDBRANCH  28  29
ENDBRANCH  27  28
ENDBRANCH  26  27
ENDBRANCH  25  26
ENDBRANCH   1  25
TORSDOF 18
ENDMDL
MODEL 2
REMARK VINA RESULT:     -10.8      1.648      6.421
REMARK SMILES Cc1cc(Br)cc2c1O[C@H](C(F)(F)F)C(C(=O)OCCOCCOCCOC(=O)c1ccc(-c3c4nc(c(-c5c(F)cccc5F)c5ccc([nH]5)c(-c5c(F)cccc5F)c5nc(c(-c6c(F)cccc6F)c6ccc3[nH]6)C=C5)C=C4)cc1)=C2
REMARK SMILES IDX 23 1 22 2 21 3 20 4 19 5 18 6 16 7 17 8 15 9 1 10 2 11 3 12
REMARK SMILES IDX 8 13 4 14 7 15 9 16 5 17 6 18 84 19 10 20 11 21 12 22 13 23
REMARK SMILES IDX 14 24 24 25 25 26 26 27 27 28 28 29 29 30 30 31 31 32 83 33
REMARK SMILES IDX 32 34 82 35 33 36 34 37 35 38 76 39 36 40 81 41 75 42 77 43
REMARK SMILES IDX 37 44 80 45 74 46 73 47 38 49 64 50 47 51 63 52 48 53 51 54
REMARK SMILES IDX 62 55 78 56 49 57 50 58 61 60 79 61 52 62 39 63 40 64 45 65
REMARK SMILES IDX 41 66 42 67 44 68 46 69 43 70 65 71 66 72 71 73 67 74 68 75
REMARK SMILES IDX 70 76 72 77 69 78 53 79 54 80 59 81 55 82 56 83 58 84 60 85
REMARK SMILES IDX 57 86
REMARK H PARENT 77 48 51 59
REMARK Flexibility Score: inf
ROOT
ATOM      1  C   UNL A   1      40.605  20.209  26.152  1.00  0.00     0.188 C 
ENDROOT
BRANCH   1   2
ATOM      2  C   UNL A   1      39.615  21.358  26.436  1.00  0.00     0.188 C 
BRANCH   2   3
ATOM      3  O   UNL A   1      38.377  21.428  25.745  1.00  0.00    -0.376 OA
BRANCH   3   4
ATOM      4  C   UNL A   1      37.817  22.686  25.394  1.00  0.00     0.202 C 
BRANCH   4   5
ATOM      5  C   UNL A   1      36.450  22.775  24.696  1.00  0.00     0.261 C 
BRANCH   5   6
ATOM      6  O   UNL A   1      35.852  24.081  24.691  1.00  0.00    -0.460 OA
BRANCH   6   7
ATOM      7  C   UNL A   1      34.743  24.217  25.456  1.00  0.00     0.338 C 
ATOM      8  O   UNL A   1      34.516  23.668  26.521  1.00  0.00    -0.246 OA
BRANCH   7   9
ATOM      9  C   UNL A   1      33.876  25.271  24.890  1.00  0.00     0.087 C 
ATOM     10  C   UNL A   1      30.278  27.916  22.376  1.00  0.00     0.048 C 
ATOM     11  C   UNL A   1      31.174  28.169  23.556  1.00  0.00    -0.007 A 
ATOM     12  C   UNL A   1      30.982  29.324  24.331  1.00  0.00     0.023 A 
ATOM     13  C   UNL A   1      32.138  27.227  23.957  1.00  0.00     0.130 A 
ATOM     14  C   UNL A   1      31.762  29.546  25.464  1.00  0.00     0.019 A 
ATOM     15  C   UNL A   1      32.888  27.439  25.119  1.00  0.00     0.019 A 
ATOM     16  O   UNL A   1      32.284  26.120  23.168  1.00  0.00    -0.475 OA
ATOM     17  Br  UNL A   1      31.493  31.104  26.500  1.00  0.00    -0.051 Br
ATOM     18  C   UNL A   1      32.716  28.612  25.860  1.00  0.00     0.027 A 
ATOM     19  C   UNL A   1      33.787  26.404  25.598  1.00  0.00     0.027 C 
ATOM     20  C   UNL A   1      33.160  25.039  23.589  1.00  0.00     0.316 C 
BRANCH  20  21
ATOM     21  C   UNL A   1      32.340  23.742  23.593  1.00  0.00     0.430 C 
ATOM     22  F   UNL A   1      33.070  22.698  23.130  1.00  0.00    -0.167 F 
ATOM     23  F   UNL A   1      31.935  23.407  24.840  1.00  0.00    -0.167 F 
ATOM     24  F   UNL A   1      31.235  23.841  22.821  1.00  0.00    -0.167 F 
ENDBRANCH  20  21
ENDBRANCH   7   9
ENDBRANCH   6   7
ENDBRANCH   5   6
ENDBRANCH   4   5
ENDBRANCH   3   4
ENDBRANCH   2   3
ENDBRANCH   1   2
BRANCH   1  25
ATOM     25  O   UNL A   1      41.697  20.136  27.032  1.00  0.00    -0.376 OA
BRANCH  25  26
ATOM     26  C   UNL A   1      42.901  20.819  26.723  1.00  0.00     0.202 C 
BRANCH  26  27
ATOM     27  C   UNL A   1      43.252  21.446  25.355  1.00  0.00     0.261 C 
BRANCH  27  28
ATOM     28  O   UNL A   1      42.661  22.699  25.002  1.00  0.00    -0.460 OA
BRANCH  28  29
ATOM     29  C   UNL A   1      43.474  23.782  25.032  1.00  0.00     0.338 C 
ATOM     30  O   UNL A   1      44.446  23.996  24.335  1.00  0.00    -0.246 OA
BRANCH  29  31
ATOM     31  C   UNL A   1      42.875  24.779  25.944  1.00  0.00     0.060 A 
ATOM     32  C   UNL A   1      43.411  26.074  25.977  1.00  0.00     0.016 A 
ATOM     33  C   UNL A   1      41.806  24.431  26.770  1.00  0.00     0.016 A 
ATOM     34  C   UNL A   1      42.891  27.022  26.859  1.00  0.00     0.010 A 
ATOM     35  C   UNL A   1      41.305  25.373  27.673  1.00  0.00     0.010 A 
ATOM     36  C   UNL A   1      41.863  26.662  27.740  1.00  0.00    -0.014 A 
BRANCH  36  37
ATOM     37  C   UNL A   1      41.487  27.560  28.857  1.00  0.00     0.031 A 
ATOM     38  C   UNL A   1      42.245  27.449  30.151  1.00  0.00     0.074 A 
ATOM     39  C   UNL A   1      40.490  28.453  28.732  1.00  0.00     0.049 A 
ATOM     40  N   UNL A   1      42.021  28.032  31.299  1.00  0.00    -0.248 NA
ATOM     41  C   UNL A   1      43.416  26.557  30.144  1.00  0.00     0.031 C 
ATOM     42  C   UNL A   1      39.726  28.703  27.513  1.00  0.00     0.029 A 
ATOM     43  N   UNL A   1      39.942  29.306  29.657  1.00  0.00    -0.354 N 
ATOM     44  C   UNL A   1      43.018  27.576  32.152  1.00  0.00     0.074 A 
ATOM     45  C   UNL A   1      43.833  26.650  31.399  1.00  0.00     0.031 C 
ATOM     46  C   UNL A   1      38.793  29.637  27.770  1.00  0.00     0.029 A 
ATOM     47  C   UNL A   1      38.869  30.017  29.181  1.00  0.00     0.049 A 
ATOM     48  H   UNL A   1      40.287  29.401  30.574  1.00  0.00     0.167 HD
ATOM     49  C   UNL A   1      43.234  27.906  33.447  1.00  0.00     0.037 A 
ATOM     50  C   UNL A   1      38.025  30.851  29.820  1.00  0.00     0.037 A 
ATOM     51  C   UNL A   1      42.411  28.817  34.197  1.00  0.00     0.049 A 
ATOM     52  C   UNL A   1      38.225  31.125  31.290  1.00  0.00     0.074 A 
ATOM     53  C   UNL A   1      42.537  29.199  35.522  1.00  0.00     0.029 A 
ATOM     54  N   UNL A   1      41.307  29.487  33.691  1.00  0.00    -0.354 N 
ATOM     55  N   UNL A   1      39.154  30.673  32.097  1.00  0.00    -0.248 NA
ATOM     56  C   UNL A   1      37.257  32.024  31.934  1.00  0.00     0.031 C 
ATOM     57  C   UNL A   1      41.480  30.063  35.829  1.00  0.00     0.029 A 
ATOM     58  C   UNL A   1      40.735  30.269  34.680  1.00  0.00     0.049 A 
ATOM     59  H   UNL A   1      40.981  29.417  32.765  1.00  0.00     0.167 HD
ATOM     60  C   UNL A   1      38.906  31.261  33.333  1.00  0.00     0.074 A 
ATOM     61  C   UNL A   1      37.742  32.107  33.165  1.00  0.00     0.031 C 
ATOM     62  C   UNL A   1      39.583  31.117  34.498  1.00  0.00     0.037 A 
BRANCH  49  63
ATOM     63  C   UNL A   1      44.395  27.261  34.144  1.00  0.00     0.057 A 
ATOM     64  C   UNL A   1      45.650  27.880  34.216  1.00  0.00     0.134 A 
ATOM     65  C   UNL A   1      44.240  26.035  34.804  1.00  0.00     0.134 A 
ATOM     66  F   UNL A   1      45.871  29.045  33.591  1.00  0.00    -0.206 F 
ATOM     67  C   UNL A   1      46.711  27.297  34.912  1.00  0.00     0.040 A 
ATOM     68  C   UNL A   1      45.286  25.456  35.525  1.00  0.00     0.040 A 
ATOM     69  F   UNL A   1      43.065  25.389  34.775  1.00  0.00    -0.206 F 
ATOM     70  C   UNL A   1      46.527  26.087  35.578  1.00  0.00     0.006 A 
ENDBRANCH  49  63
BRANCH  50  71
ATOM     71  C   UNL A   1      36.909  31.489  29.077  1.00  0.00     0.057 A 
ATOM     72  C   UNL A   1      35.761  30.766  28.736  1.00  0.00     0.134 A 
ATOM     73  C   UNL A   1      36.961  32.833  28.686  1.00  0.00     0.134 A 
ATOM     74  F   UNL A   1      35.662  29.467  29.058  1.00  0.00    -0.206 F 
ATOM     75  C   UNL A   1      34.709  31.350  28.028  1.00  0.00     0.040 A 
ATOM     76  C   UNL A   1      35.907  33.438  28.001  1.00  0.00     0.040 A 
ATOM     77  F   UNL A   1      38.036  33.582  28.978  1.00  0.00    -0.206 F 
ATOM     78  C   UNL A   1      34.777  32.694  27.667  1.00  0.00     0.006 A 
ENDBRANCH  50  71
BRANCH  62  79
ATOM     79  C   UNL A   1      39.123  31.929  35.677  1.00  0.00     0.057 A 
ATOM     80  C   UNL A   1      38.265  31.407  36.652  1.00  0.00     0.134 A 
ATOM     81  C   UNL A   1      39.589  33.238  35.861  1.00  0.00     0.134 A 
ATOM     82  F   UNL A   1      37.776  30.163  36.533  1.00  0.00    -0.206 F 
ATOM     83  C   UNL A   1      37.866  32.166  37.754  1.00  0.00     0.040 A 
ATOM     84  C   UNL A   1      39.223  33.996  36.975  1.00  0.00     0.040 A 
ATOM     85  F   UNL A   1      40.427  33.796  34.973  1.00  0.00    -0.206 F 
ATOM     86  C   UNL A   1      38.352  33.462  37.921  1.00  0.00     0.006 A 
ENDBRANCH  62  79
ENDBRANCH  36  37
ENDBRANCH  29  31
ENDBRANCH  28  29
ENDBRANCH  27  28
ENDBRANCH  26  27
ENDBRANCH  25  26
ENDBRANCH   1  25
TORSDOF 18
ENDMDL
MODEL 3
REMARK VINA RESULT:     -10.7      5.304     11.542
REMARK SMILES Cc1cc(Br)cc2c1O[C@H](C(F)(F)F)C(C(=O)OCCOCCOCCOC(=O)c1ccc(-c3c4nc(c(-c5c(F)cccc5F)c5ccc([nH]5)c(-c5c(F)cccc5F)c5nc(c(-c6c(F)cccc6F)c6ccc3[nH]6)C=C5)C=C4)cc1)=C2
REMARK SMILES IDX 23 1 22 2 21 3 20 4 19 5 18 6 16 7 17 8 15 9 1 10 2 11 3 12
REMARK SMILES IDX 8 13 4 14 7 15 9 16 5 17 6 18 84 19 10 20 11 21 12 22 13 23
REMARK SMILES IDX 14 24 24 25 25 26 26 27 27 28 28 29 29 30 30 31 31 32 83 33
REMARK SMILES IDX 32 34 82 35 33 36 34 37 35 38 76 39 36 40 81 41 75 42 77 43
REMARK SMILES IDX 37 44 80 45 74 46 73 47 38 49 64 50 47 51 63 52 48 53 51 54
REMARK SMILES IDX 62 55 78 56 49 57 50 58 61 60 79 61 52 62 39 63 40 64 45 65
REMARK SMILES IDX 41 66 42 67 44 68 46 69 43 70 65 71 66 72 71 73 67 74 68 75
REMARK SMILES IDX 70 76 72 77 69 78 53 79 54 80 59 81 55 82 56 83 58 84 60 85
REMARK SMILES IDX 57 86
REMARK H PARENT 77 48 51 59
REMARK Flexibility Score: inf
ROOT
ATOM      1  C   UNL A   1      32.662  35.923  30.266  1.00  0.00     0.188 C 
ENDROOT
BRANCH   1   2
ATOM      2  C   UNL A   1      32.135  36.099  31.706  1.00  0.00     0.188 C 
BRANCH   2   3
ATOM      3  O   UNL A   1      32.556  37.201  32.495  1.00  0.00    -0.376 OA
BRANCH   3   4
ATOM      4  C   UNL A   1      33.918  37.336  32.877  1.00  0.00     0.202 C 
BRANCH   4   5
ATOM      5  C   UNL A   1      34.838  36.107  32.970  1.00  0.00     0.261 C 
BRANCH   5   6
ATOM      6  O   UNL A   1      34.595  35.248  34.094  1.00  0.00    -0.460 OA
BRANCH   6   7
ATOM      7  C   UNL A   1      34.491  33.928  33.808  1.00  0.00     0.338 C 
ATOM      8  O   UNL A   1      33.556  33.371  33.259  1.00  0.00    -0.246 OA
BRANCH   7   9
ATOM      9  C   UNL A   1      35.765  33.250  34.121  1.00  0.00     0.087 C 
ATOM     10  C   UNL A   1      40.176  30.648  33.937  1.00  0.00     0.048 C 
ATOM     11  C   UNL A   1      39.547  31.637  34.879  1.00  0.00    -0.007 A 
ATOM     12  C   UNL A   1      40.308  32.162  35.935  1.00  0.00     0.023 A 
ATOM     13  C   UNL A   1      38.244  32.120  34.666  1.00  0.00     0.130 A 
ATOM     14  C   UNL A   1      39.762  33.125  36.781  1.00  0.00     0.019 A 
ATOM     15  C   UNL A   1      37.720  33.117  35.496  1.00  0.00     0.019 A 
ATOM     16  O   UNL A   1      37.546  31.576  33.624  1.00  0.00    -0.475 OA
ATOM     17  Br  UNL A   1      40.798  33.824  38.199  1.00  0.00    -0.051 Br
ATOM     18  C   UNL A   1      38.472  33.603  36.570  1.00  0.00     0.027 A 
ATOM     19  C   UNL A   1      36.426  33.703  35.193  1.00  0.00     0.027 C 
ATOM     20  C   UNL A   1      36.248  32.118  33.257  1.00  0.00     0.316 C 
BRANCH  20  21
ATOM     21  C   UNL A   1      36.297  32.494  31.770  1.00  0.00     0.430 C 
ATOM     22  F   UNL A   1      35.159  32.125  31.132  1.00  0.00    -0.167 F 
ATOM     23  F   UNL A   1      36.423  33.830  31.593  1.00  0.00    -0.167 F 
ATOM     24  F   UNL A   1      37.331  31.901  31.133  1.00  0.00    -0.167 F 
ENDBRANCH  20  21
ENDBRANCH   7   9
ENDBRANCH   6   7
ENDBRANCH   5   6
ENDBRANCH   4   5
ENDBRANCH   3   4
ENDBRANCH   2   3
ENDBRANCH   1   2
BRANCH   1  25
ATOM     25  O   UNL A   1      33.231  34.668  29.993  1.00  0.00    -0.376 OA
BRANCH  25  26
ATOM     26  C   UNL A   1      33.787  34.407  28.715  1.00  0.00     0.202 C 
BRANCH  26  27
ATOM     27  C   UNL A   1      33.797  33.035  28.004  1.00  0.00     0.261 C 
BRANCH  27  28
ATOM     28  O   UNL A   1      34.937  32.187  28.161  1.00  0.00    -0.460 OA
BRANCH  28  29
ATOM     29  C   UNL A   1      34.734  30.859  27.986  1.00  0.00     0.338 C 
ATOM     30  O   UNL A   1      33.725  30.313  27.588  1.00  0.00    -0.246 OA
BRANCH  29  31
ATOM     31  C   UNL A   1      36.026  30.169  28.183  1.00  0.00     0.060 A 
ATOM     32  C   UNL A   1      36.278  29.545  29.412  1.00  0.00     0.016 A 
ATOM     33  C   UNL A   1      36.984  30.156  27.169  1.00  0.00     0.016 A 
ATOM     34  C   UNL A   1      37.507  28.922  29.639  1.00  0.00     0.010 A 
ATOM     35  C   UNL A   1      38.224  29.557  27.407  1.00  0.00     0.010 A 
ATOM     36  C   UNL A   1      38.500  28.963  28.652  1.00  0.00    -0.014 A 
BRANCH  36  37
ATOM     37  C   UNL A   1      39.887  28.552  28.970  1.00  0.00     0.031 A 
ATOM     38  C   UNL A   1      40.778  29.530  29.684  1.00  0.00     0.074 A 
ATOM     39  C   UNL A   1      40.354  27.338  28.629  1.00  0.00     0.049 A 
ATOM     40  N   UNL A   1      42.054  29.449  29.956  1.00  0.00    -0.248 NA
ATOM     41  C   UNL A   1      40.137  30.770  30.154  1.00  0.00     0.031 C 
ATOM     42  C   UNL A   1      39.573  26.279  27.995  1.00  0.00     0.029 A 
ATOM     43  N   UNL A   1      41.611  26.802  28.758  1.00  0.00    -0.354 N 
ATOM     44  C   UNL A   1      42.371  30.625  30.624  1.00  0.00     0.074 A 
ATOM     45  C   UNL A   1      41.161  31.414  30.695  1.00  0.00     0.031 C 
ATOM     46  C   UNL A   1      40.375  25.222  27.774  1.00  0.00     0.029 A 
ATOM     47  C   UNL A   1      41.732  25.549  28.211  1.00  0.00     0.049 A 
ATOM     48  H   UNL A   1      42.354  27.271  29.201  1.00  0.00     0.167 HD
ATOM     49  C   UNL A   1      43.564  31.008  31.136  1.00  0.00     0.037 A 
ATOM     50  C   UNL A   1      42.821  24.770  28.053  1.00  0.00     0.037 A 
ATOM     51  C   UNL A   1      44.768  30.225  31.051  1.00  0.00     0.049 A 
ATOM     52  C   UNL A   1      44.161  25.262  28.541  1.00  0.00     0.074 A 
ATOM     53  C   UNL A   1      46.033  30.538  31.520  1.00  0.00     0.029 A 
ATOM     54  N   UNL A   1      44.860  28.977  30.453  1.00  0.00    -0.354 N 
ATOM     55  N   UNL A   1      44.460  26.384  29.150  1.00  0.00    -0.248 NA
ATOM     56  C   UNL A   1      45.313  24.377  28.317  1.00  0.00     0.031 C 
ATOM     57  C   UNL A   1      46.899  29.499  31.164  1.00  0.00     0.029 A 
ATOM     58  C   UNL A   1      46.163  28.512  30.530  1.00  0.00     0.049 A 
ATOM     59  H   UNL A   1      44.110  28.494  30.038  1.00  0.00     0.167 HD
ATOM     60  C   UNL A   1      45.823  26.324  29.416  1.00  0.00     0.074 A 
ATOM     61  C   UNL A   1      46.291  25.052  28.906  1.00  0.00     0.031 C 
ATOM     62  C   UNL A   1      46.614  27.238  30.030  1.00  0.00     0.037 A 
BRANCH  49  63
ATOM     63  C   UNL A   1      43.633  32.342  31.817  1.00  0.00     0.057 A 
ATOM     64  C   UNL A   1      43.843  33.528  31.099  1.00  0.00     0.134 A 
ATOM     65  C   UNL A   1      43.426  32.451  33.198  1.00  0.00     0.134 A 
ATOM     66  F   UNL A   1      44.066  33.492  29.778  1.00  0.00    -0.206 F 
ATOM     67  C   UNL A   1      43.854  34.772  31.733  1.00  0.00     0.040 A 
ATOM     68  C   UNL A   1      43.408  33.692  33.839  1.00  0.00     0.040 A 
ATOM     69  F   UNL A   1      43.219  31.356  33.944  1.00  0.00    -0.206 F 
ATOM     70  C   UNL A   1      43.625  34.856  33.106  1.00  0.00     0.006 A 
ENDBRANCH  49  63
BRANCH  50  71
ATOM     71  C   UNL A   1      42.695  23.443  27.400  1.00  0.00     0.057 A 
ATOM     72  C   UNL A   1      42.361  22.302  28.138  1.00  0.00     0.134 A 
ATOM     73  C   UNL A   1      42.908  23.279  26.025  1.00  0.00     0.134 A 
ATOM     74  F   UNL A   1      42.172  22.389  29.464  1.00  0.00    -0.206 F 
ATOM     75  C   UNL A   1      42.251  21.047  27.539  1.00  0.00     0.040 A 
ATOM     76  C   UNL A   1      42.775  22.035  25.407  1.00  0.00     0.040 A 
ATOM     77  F   UNL A   1      43.236  24.331  25.260  1.00  0.00    -0.206 F 
ATOM     78  C   UNL A   1      42.449  20.912  26.166  1.00  0.00     0.006 A 
ENDBRANCH  50  71
BRANCH  62  79
ATOM     79  C   UNL A   1      48.060  26.880  30.238  1.00  0.00     0.057 A 
ATOM     80  C   UNL A   1      49.066  27.306  29.363  1.00  0.00     0.134 A 
ATOM     81  C   UNL A   1      48.452  26.140  31.362  1.00  0.00     0.134 A 
ATOM     82  F   UNL A   1      48.759  28.012  28.264  1.00  0.00    -0.206 F 
ATOM     83  C   UNL A   1      50.407  26.986  29.584  1.00  0.00     0.040 A 
ATOM     84  C   UNL A   1      49.792  25.841  31.610  1.00  0.00     0.040 A 
ATOM     85  F   UNL A   1      47.541  25.713  32.250  1.00  0.00    -0.206 F 
ATOM     86  C   UNL A   1      50.774  26.258  30.714  1.00  0.00     0.006 A 
ENDBRANCH  62  79
ENDBRANCH  36  37
ENDBRANCH  29  31
ENDBRANCH  28  29
ENDBRANCH  27  28
ENDBRANCH  26  27
ENDBRANCH  25  26
ENDBRANCH   1  25
TORSDOF 18
ENDMDL
