MODEL 1
REMARK VINA RESULT:      -8.4      0.000      0.000
REMARK SMILES COc1ccc(/C=C2\SC(=O)N(CC(=O)N[C@H](C)C(=O)OCCOCCOCCOC(=O)c3ccc(-c4c5nc(c(-c6c(F)cccc6F)c6ccc([nH]6)c(-c6c(F)cccc6F)c6nc(c(-c7c(F)cccc7F)c7ccc4[nH]7)C=C6)C=C5)cc3)C2=O)cc1OC
REMARK SMILES IDX 24 1 23 2 22 3 21 4 19 5 20 6 17 7 18 8 16 9 14 10 15 11
REMARK SMILES IDX 13 13 12 14 7 15 8 16 9 17 87 18 10 19 88 20 11 21 6 22 3 23
REMARK SMILES IDX 4 24 90 25 5 26 89 27 2 28 1 29 91 30 92 31 25 32 26 33
REMARK SMILES IDX 27 34 28 35 29 36 30 37 31 38 32 39 33 40 34 41 86 42 35 43
REMARK SMILES IDX 85 44 36 45 37 46 38 47 79 48 39 49 84 50 78 51 80 52 40 53
REMARK SMILES IDX 83 54 77 55 76 56 41 58 67 59 50 60 66 61 51 62 54 63 65 64
REMARK SMILES IDX 81 65 52 66 53 67 64 69 82 70 55 71 42 72 43 73 48 74 44 75
REMARK SMILES IDX 45 76 47 77 49 78 46 79 68 80 69 81 74 82 70 83 71 84 73 85
REMARK SMILES IDX 75 86 72 87 56 88 57 89 62 90 58 91 59 92 61 93 63 94 60 95
REMARK H PARENT 16 12 80 57 54 68
REMARK Flexibility Score: inf
ROOT
ATOM      1  O   UNL A   1      39.731  28.845  27.804  1.00  0.00    -0.376 OA
ENDROOT
BRANCH   1   2
ATOM      2  C   UNL A   1      40.662  27.908  27.299  1.00  0.00     0.202 C 
BRANCH   2   3
ATOM      3  C   UNL A   1      41.454  27.090  28.329  1.00  0.00     0.261 C 
BRANCH   3   4
ATOM      4  O   UNL A   1      41.816  25.744  27.947  1.00  0.00    -0.462 OA
BRANCH   4   5
ATOM      5  C   UNL A   1      42.861  25.196  28.624  1.00  0.00     0.328 C 
ATOM      6  O   UNL A   1      43.445  25.736  29.558  1.00  0.00    -0.250 OA
BRANCH   5   7
ATOM      7  C   UNL A   1      43.283  23.812  28.085  1.00  0.00     0.189 C 
ATOM      8  C   UNL A   1      44.755  23.467  28.207  1.00  0.00     0.043 C 
BRANCH   7   9
ATOM      9  N   UNL A   1      42.343  22.733  28.398  1.00  0.00    -0.341 N 
ATOM     10  C   UNL A   1      41.352  22.063  27.764  1.00  0.00     0.240 C 
ATOM     11  O   UNL A   1      40.966  21.032  28.327  1.00  0.00    -0.273 OA
ATOM     12  H   UNL A   1      42.465  22.405  29.318  1.00  0.00     0.164 HD
BRANCH  10  13
ATOM     13  C   UNL A   1      40.783  22.421  26.394  1.00  0.00     0.229 C 
BRANCH  13  14
ATOM     14  N   UNL A   1      39.340  22.525  26.269  1.00  0.00    -0.259 N 
ATOM     15  C   UNL A   1      36.122  21.110  25.378  1.00  0.00     0.029 C 
ATOM     16  C   UNL A   1      37.127  21.942  25.704  1.00  0.00     0.083 C 
ATOM     17  S   UNL A   1      37.030  23.612  26.117  1.00  0.00    -0.022 SA
ATOM     18  C   UNL A   1      38.553  21.497  25.801  1.00  0.00     0.268 C 
ATOM     19  C   UNL A   1      38.760  23.761  26.257  1.00  0.00     0.294 C 
ATOM     20  O   UNL A   1      38.933  20.375  25.505  1.00  0.00    -0.268 OA
ATOM     21  O   UNL A   1      39.326  24.844  26.310  1.00  0.00    -0.261 OA
BRANCH  15  22
ATOM     22  C   UNL A   1      34.681  21.433  25.317  1.00  0.00    -0.020 A 
ATOM     23  C   UNL A   1      31.965  22.205  25.236  1.00  0.00     0.160 A 
ATOM     24  C   UNL A   1      32.607  21.977  26.461  1.00  0.00     0.051 A 
ATOM     25  C   UNL A   1      32.665  22.019  24.041  1.00  0.00     0.161 A 
ATOM     26  C   UNL A   1      33.954  21.589  26.501  1.00  0.00     0.012 A 
ATOM     27  C   UNL A   1      34.001  21.595  24.102  1.00  0.00     0.058 A 
BRANCH  23  28
ATOM     28  O   UNL A   1      30.704  22.734  25.275  1.00  0.00    -0.493 OA
ATOM     29  C   UNL A   1      30.242  22.926  26.611  1.00  0.00     0.278 C 
ENDBRANCH  23  28
BRANCH  25  30
ATOM     30  O   UNL A   1      32.256  22.230  22.754  1.00  0.00    -0.493 OA
ATOM     31  C   UNL A   1      31.800  21.138  21.977  1.00  0.00     0.278 C 
ENDBRANCH  25  30
ENDBRANCH  15  22
ENDBRANCH  13  14
ENDBRANCH  10  13
ENDBRANCH   7   9
ENDBRANCH   5   7
ENDBRANCH   4   5
ENDBRANCH   3   4
ENDBRANCH   2   3
ENDBRANCH   1   2
BRANCH   1  32
ATOM     32  C   UNL A   1      38.996  28.538  28.984  1.00  0.00     0.188 C 
BRANCH  32  33
ATOM     33  C   UNL A   1      37.749  29.346  29.386  1.00  0.00     0.188 C 
BRANCH  33  34
ATOM     34  O   UNL A   1      37.453  30.413  28.504  1.00  0.00    -0.376 OA
BRANCH  34  35
ATOM     35  C   UNL A   1      36.187  30.334  27.869  1.00  0.00     0.202 C 
BRANCH  35  36
ATOM     36  C   UNL A   1      35.153  31.179  28.617  1.00  0.00     0.261 C 
BRANCH  36  37
ATOM     37  O   UNL A   1      35.698  32.330  29.293  1.00  0.00    -0.460 OA
BRANCH  37  38
ATOM     38  C   UNL A   1      35.349  32.505  30.587  1.00  0.00     0.338 C 
ATOM     39  O   UNL A   1      34.264  32.851  31.016  1.00  0.00    -0.246 OA
BRANCH  38  40
ATOM     40  C   UNL A   1      36.465  32.026  31.434  1.00  0.00     0.060 A 
ATOM     41  C   UNL A   1      36.222  31.034  32.395  1.00  0.00     0.016 A 
ATOM     42  C   UNL A   1      37.746  32.561  31.284  1.00  0.00     0.016 A 
ATOM     43  C   UNL A   1      37.259  30.595  33.229  1.00  0.00     0.010 A 
ATOM     44  C   UNL A   1      38.774  32.134  32.129  1.00  0.00     0.010 A 
ATOM     45  C   UNL A   1      38.534  31.171  33.126  1.00  0.00    -0.014 A 
BRANCH  45  46
ATOM     46  C   UNL A   1      39.570  30.928  34.166  1.00  0.00     0.031 A 
ATOM     47  C   UNL A   1      39.719  31.935  35.275  1.00  0.00     0.074 A 
ATOM     48  C   UNL A   1      40.387  29.858  34.126  1.00  0.00     0.049 A 
ATOM     49  N   UNL A   1      40.633  32.021  36.208  1.00  0.00    -0.248 NA
ATOM     50  C   UNL A   1      38.699  32.995  35.331  1.00  0.00     0.031 C 
ATOM     51  C   UNL A   1      40.334  28.784  33.137  1.00  0.00     0.029 A 
ATOM     52  N   UNL A   1      41.446  29.518  34.936  1.00  0.00    -0.354 N 
ATOM     53  C   UNL A   1      40.303  33.145  36.956  1.00  0.00     0.074 A 
ATOM     54  C   UNL A   1      39.126  33.728  36.348  1.00  0.00     0.031 C 
ATOM     55  C   UNL A   1      41.336  27.919  33.381  1.00  0.00     0.029 A 
ATOM     56  C   UNL A   1      42.124  28.399  34.516  1.00  0.00     0.049 A 
ATOM     57  H   UNL A   1      41.695  30.029  35.741  1.00  0.00     0.167 HD
ATOM     58  C   UNL A   1      40.915  33.644  38.056  1.00  0.00     0.037 A 
ATOM     59  C   UNL A   1      43.268  27.847  34.971  1.00  0.00     0.037 A 
ATOM     60  C   UNL A   1      42.091  33.075  38.661  1.00  0.00     0.049 A 
ATOM     61  C   UNL A   1      43.985  28.471  36.146  1.00  0.00     0.074 A 
ATOM     62  C   UNL A   1      42.784  33.514  39.775  1.00  0.00     0.029 A 
ATOM     63  N   UNL A   1      42.748  31.945  38.201  1.00  0.00    -0.354 N 
ATOM     64  N   UNL A   1      43.659  29.526  36.853  1.00  0.00    -0.248 NA
ATOM     65  C   UNL A   1      45.232  27.824  36.586  1.00  0.00     0.031 C 
ATOM     66  C   UNL A   1      43.891  32.680  39.960  1.00  0.00     0.029 A 
ATOM     67  C   UNL A   1      43.849  31.684  38.999  1.00  0.00     0.049 A 
ATOM     68  H   UNL A   1      42.473  31.409  37.421  1.00  0.00     0.167 HD
ATOM     69  C   UNL A   1      44.633  29.643  37.840  1.00  0.00     0.074 A 
ATOM     70  C   UNL A   1      45.557  28.547  37.649  1.00  0.00     0.031 C 
ATOM     71  C   UNL A   1      44.750  30.574  38.818  1.00  0.00     0.037 A 
BRANCH  58  72
ATOM     72  C   UNL A   1      40.334  34.884  38.671  1.00  0.00     0.057 A 
ATOM     73  C   UNL A   1      39.367  34.821  39.683  1.00  0.00     0.134 A 
ATOM     74  C   UNL A   1      40.778  36.154  38.280  1.00  0.00     0.134 A 
ATOM     75  F   UNL A   1      38.889  33.636  40.094  1.00  0.00    -0.206 F 
ATOM     76  C   UNL A   1      38.848  35.976  40.270  1.00  0.00     0.040 A 
ATOM     77  C   UNL A   1      40.290  37.314  38.881  1.00  0.00     0.040 A 
ATOM     78  F   UNL A   1      41.707  36.285  37.322  1.00  0.00    -0.206 F 
ATOM     79  C   UNL A   1      39.317  37.227  39.875  1.00  0.00     0.006 A 
ENDBRANCH  58  72
BRANCH  59  80
ATOM     80  C   UNL A   1      43.848  26.651  34.301  1.00  0.00     0.057 A 
ATOM     81  C   UNL A   1      44.735  26.775  33.225  1.00  0.00     0.134 A 
ATOM     82  C   UNL A   1      43.477  25.355  34.681  1.00  0.00     0.134 A 
ATOM     83  F   UNL A   1      45.106  27.989  32.792  1.00  0.00    -0.206 F 
ATOM     84  C   UNL A   1      45.208  25.658  32.532  1.00  0.00     0.040 A 
ATOM     85  C   UNL A   1      43.968  24.228  34.018  1.00  0.00     0.040 A 
ATOM     86  F   UNL A   1      42.629  25.163  35.701  1.00  0.00    -0.206 F 
ATOM     87  C   UNL A   1      44.826  24.379  32.931  1.00  0.00     0.006 A 
ENDBRANCH  59  80
BRANCH  71  88
ATOM     88  C   UNL A   1      45.875  30.420  39.803  1.00  0.00     0.057 A 
ATOM     89  C   UNL A   1      47.159  30.924  39.558  1.00  0.00     0.134 A 
ATOM     90  C   UNL A   1      45.651  29.805  41.043  1.00  0.00     0.134 A 
ATOM     91  F   UNL A   1      47.445  31.515  38.390  1.00  0.00    -0.206 F 
ATOM     92  C   UNL A   1      48.183  30.801  40.500  1.00  0.00     0.040 A 
ATOM     93  C   UNL A   1      46.658  29.703  42.004  1.00  0.00     0.040 A 
ATOM     94  F   UNL A   1      44.442  29.311  41.350  1.00  0.00    -0.206 F 
ATOM     95  C   UNL A   1      47.932  30.196  41.730  1.00  0.00     0.006 A 
ENDBRANCH  71  88
ENDBRANCH  45  46
ENDBRANCH  38  40
ENDBRANCH  37  38
ENDBRANCH  36  37
ENDBRANCH  35  36
ENDBRANCH  34  35
ENDBRANCH  33  34
ENDBRANCH  32  33
ENDBRANCH   1  32
TORSDOF 23
ENDMDL
MODEL 2
REMARK VINA RESULT:      -8.2      6.139     11.568
REMARK SMILES COc1ccc(/C=C2\SC(=O)N(CC(=O)N[C@H](C)C(=O)OCCOCCOCCOC(=O)c3ccc(-c4c5nc(c(-c6c(F)cccc6F)c6ccc([nH]6)c(-c6c(F)cccc6F)c6nc(c(-c7c(F)cccc7F)c7ccc4[nH]7)C=C6)C=C5)cc3)C2=O)cc1OC
REMARK SMILES IDX 24 1 23 2 22 3 21 4 19 5 20 6 17 7 18 8 16 9 14 10 15 11
REMARK SMILES IDX 13 13 12 14 7 15 8 16 9 17 87 18 10 19 88 20 11 21 6 22 3 23
REMARK SMILES IDX 4 24 90 25 5 26 89 27 2 28 1 29 91 30 92 31 25 32 26 33
REMARK SMILES IDX 27 34 28 35 29 36 30 37 31 38 32 39 33 40 34 41 86 42 35 43
REMARK SMILES IDX 85 44 36 45 37 46 38 47 79 48 39 49 84 50 78 51 80 52 40 53
REMARK SMILES IDX 83 54 77 55 76 56 41 58 67 59 50 60 66 61 51 62 54 63 65 64
REMARK SMILES IDX 81 65 52 66 53 67 64 69 82 70 55 71 42 72 43 73 48 74 44 75
REMARK SMILES IDX 45 76 47 77 49 78 46 79 68 80 69 81 74 82 70 83 71 84 73 85
REMARK SMILES IDX 75 86 72 87 56 88 57 89 62 90 58 91 59 92 61 93 63 94 60 95
REMARK H PARENT 16 12 80 57 54 68
REMARK Flexibility Score: inf
ROOT
ATOM      1  O   UNL A   1      42.404  24.215  25.801  1.00  0.00    -0.376 OA
ENDROOT
BRANCH   1   2
ATOM      2  C   UNL A   1      42.868  22.879  25.848  1.00  0.00     0.202 C 
BRANCH   2   3
ATOM      3  C   UNL A   1      42.636  22.108  27.155  1.00  0.00     0.261 C 
BRANCH   3   4
ATOM      4  O   UNL A   1      42.167  22.877  28.286  1.00  0.00    -0.462 OA
BRANCH   4   5
ATOM      5  C   UNL A   1      43.131  23.475  29.038  1.00  0.00     0.328 C 
ATOM      6  O   UNL A   1      44.023  22.875  29.630  1.00  0.00    -0.250 OA
BRANCH   5   7
ATOM      7  C   UNL A   1      42.988  25.010  29.112  1.00  0.00     0.189 C 
ATOM      8  C   UNL A   1      44.272  25.808  28.988  1.00  0.00     0.043 C 
BRANCH   7   9
ATOM      9  N   UNL A   1      41.830  25.542  28.390  1.00  0.00    -0.341 N 
ATOM     10  C   UNL A   1      40.995  26.601  28.494  1.00  0.00     0.240 C 
ATOM     11  O   UNL A   1      40.282  26.812  27.505  1.00  0.00    -0.273 OA
ATOM     12  H   UNL A   1      41.596  24.976  27.619  1.00  0.00     0.164 HD
BRANCH  10  13
ATOM     13  C   UNL A   1      40.960  27.585  29.660  1.00  0.00     0.229 C 
BRANCH  13  14
ATOM     14  N   UNL A   1      39.836  28.501  29.738  1.00  0.00    -0.259 N 
ATOM     15  C   UNL A   1      38.464  31.856  29.614  1.00  0.00     0.029 C 
ATOM     16  C   UNL A   1      38.652  30.538  29.807  1.00  0.00     0.083 C 
ATOM     17  S   UNL A   1      37.488  29.359  30.281  1.00  0.00    -0.022 SA
ATOM     18  C   UNL A   1      39.969  29.863  29.582  1.00  0.00     0.268 C 
ATOM     19  C   UNL A   1      38.679  28.088  30.334  1.00  0.00     0.294 C 
ATOM     20  O   UNL A   1      40.995  30.460  29.298  1.00  0.00    -0.268 OA
ATOM     21  O   UNL A   1      38.466  27.006  30.863  1.00  0.00    -0.261 OA
BRANCH  15  22
ATOM     22  C   UNL A   1      37.196  32.605  29.746  1.00  0.00    -0.020 A 
ATOM     23  C   UNL A   1      34.695  33.892  29.994  1.00  0.00     0.160 A 
ATOM     24  C   UNL A   1      35.146  33.441  28.745  1.00  0.00     0.051 A 
ATOM     25  C   UNL A   1      35.502  33.731  31.122  1.00  0.00     0.161 A 
ATOM     26  C   UNL A   1      36.390  32.807  28.622  1.00  0.00     0.012 A 
ATOM     27  C   UNL A   1      36.759  33.126  30.970  1.00  0.00     0.058 A 
BRANCH  23  28
ATOM     28  O   UNL A   1      33.409  34.355  30.069  1.00  0.00    -0.493 OA
ATOM     29  C   UNL A   1      33.356  35.771  30.232  1.00  0.00     0.278 C 
ENDBRANCH  23  28
BRANCH  25  30
ATOM     30  O   UNL A   1      35.243  34.046  32.427  1.00  0.00    -0.493 OA
ATOM     31  C   UNL A   1      34.437  33.184  33.208  1.00  0.00     0.278 C 
ENDBRANCH  25  30
ENDBRANCH  15  22
ENDBRANCH  13  14
ENDBRANCH  10  13
ENDBRANCH   7   9
ENDBRANCH   5   7
ENDBRANCH   4   5
ENDBRANCH   3   4
ENDBRANCH   2   3
ENDBRANCH   1   2
BRANCH   1  32
ATOM     32  C   UNL A   1      43.237  25.228  25.250  1.00  0.00     0.188 C 
BRANCH  32  33
ATOM     33  C   UNL A   1      42.744  26.679  25.099  1.00  0.00     0.188 C 
BRANCH  33  34
ATOM     34  O   UNL A   1      43.789  27.626  24.984  1.00  0.00    -0.376 OA
BRANCH  34  35
ATOM     35  C   UNL A   1      45.002  27.264  25.626  1.00  0.00     0.202 C 
BRANCH  35  36
ATOM     36  C   UNL A   1      46.098  28.290  25.328  1.00  0.00     0.261 C 
BRANCH  36  37
ATOM     37  O   UNL A   1      47.423  27.881  25.723  1.00  0.00    -0.460 OA
BRANCH  37  38
ATOM     38  C   UNL A   1      48.152  28.767  26.438  1.00  0.00     0.338 C 
ATOM     39  O   UNL A   1      48.304  29.953  26.206  1.00  0.00    -0.246 OA
BRANCH  38  40
ATOM     40  C   UNL A   1      48.603  28.097  27.679  1.00  0.00     0.060 A 
ATOM     41  C   UNL A   1      48.828  26.713  27.669  1.00  0.00     0.016 A 
ATOM     42  C   UNL A   1      48.793  28.831  28.850  1.00  0.00     0.016 A 
ATOM     43  C   UNL A   1      49.220  26.057  28.843  1.00  0.00     0.010 A 
ATOM     44  C   UNL A   1      49.167  28.172  30.025  1.00  0.00     0.010 A 
ATOM     45  C   UNL A   1      49.355  26.777  30.039  1.00  0.00    -0.014 A 
BRANCH  45  46
ATOM     46  C   UNL A   1      49.499  26.077  31.343  1.00  0.00     0.031 A 
ATOM     47  C   UNL A   1      50.877  25.656  31.780  1.00  0.00     0.074 A 
ATOM     48  C   UNL A   1      48.439  25.789  32.122  1.00  0.00     0.049 A 
ATOM     49  N   UNL A   1      51.241  24.914  32.795  1.00  0.00    -0.248 NA
ATOM     50  C   UNL A   1      51.995  26.133  30.950  1.00  0.00     0.031 C 
ATOM     51  C   UNL A   1      47.054  26.167  31.847  1.00  0.00     0.029 A 
ATOM     52  N   UNL A   1      48.367  25.082  33.299  1.00  0.00    -0.354 N 
ATOM     53  C   UNL A   1      52.626  24.829  32.721  1.00  0.00     0.074 A 
ATOM     54  C   UNL A   1      53.034  25.567  31.544  1.00  0.00     0.031 C 
ATOM     55  C   UNL A   1      46.266  25.661  32.814  1.00  0.00     0.029 A 
ATOM     56  C   UNL A   1      47.083  24.892  33.752  1.00  0.00     0.049 A 
ATOM     57  H   UNL A   1      49.161  24.742  33.774  1.00  0.00     0.167 HD
ATOM     58  C   UNL A   1      53.486  24.205  33.561  1.00  0.00     0.037 A 
ATOM     59  C   UNL A   1      46.618  24.152  34.781  1.00  0.00     0.037 A 
ATOM     60  C   UNL A   1      53.087  23.464  34.729  1.00  0.00     0.049 A 
ATOM     61  C   UNL A   1      47.588  23.391  35.654  1.00  0.00     0.074 A 
ATOM     62  C   UNL A   1      53.888  22.794  35.638  1.00  0.00     0.029 A 
ATOM     63  N   UNL A   1      51.778  23.293  35.147  1.00  0.00    -0.354 N 
ATOM     64  N   UNL A   1      48.895  23.327  35.583  1.00  0.00    -0.248 NA
ATOM     65  C   UNL A   1      47.013  22.598  36.753  1.00  0.00     0.031 C 
ATOM     66  C   UNL A   1      53.059  22.174  36.578  1.00  0.00     0.029 A 
ATOM     67  C   UNL A   1      51.747  22.512  36.291  1.00  0.00     0.049 A 
ATOM     68  H   UNL A   1      50.986  23.669  34.697  1.00  0.00     0.167 HD
ATOM     69  C   UNL A   1      49.298  22.525  36.647  1.00  0.00     0.074 A 
ATOM     70  C   UNL A   1      48.099  22.133  37.354  1.00  0.00     0.031 C 
ATOM     71  C   UNL A   1      50.551  22.148  37.005  1.00  0.00     0.037 A 
BRANCH  58  72
ATOM     72  C   UNL A   1      54.950  24.282  33.238  1.00  0.00     0.057 A 
ATOM     73  C   UNL A   1      55.562  23.370  32.368  1.00  0.00     0.134 A 
ATOM     74  C   UNL A   1      55.747  25.306  33.765  1.00  0.00     0.134 A 
ATOM     75  F   UNL A   1      54.857  22.357  31.839  1.00  0.00    -0.206 F 
ATOM     76  C   UNL A   1      56.918  23.461  32.050  1.00  0.00     0.040 A 
ATOM     77  C   UNL A   1      57.096  25.426  33.431  1.00  0.00     0.040 A 
ATOM     78  F   UNL A   1      55.223  26.216  34.599  1.00  0.00    -0.206 F 
ATOM     79  C   UNL A   1      57.686  24.498  32.575  1.00  0.00     0.006 A 
ENDBRANCH  58  72
BRANCH  59  80
ATOM     80  C   UNL A   1      45.155  24.053  35.037  1.00  0.00     0.057 A 
ATOM     81  C   UNL A   1      44.356  23.124  34.360  1.00  0.00     0.134 A 
ATOM     82  C   UNL A   1      44.512  24.930  35.920  1.00  0.00     0.134 A 
ATOM     83  F   UNL A   1      44.906  22.275  33.479  1.00  0.00    -0.206 F 
ATOM     84  C   UNL A   1      42.970  23.089  34.527  1.00  0.00     0.040 A 
ATOM     85  C   UNL A   1      43.130  24.884  36.121  1.00  0.00     0.040 A 
ATOM     86  F   UNL A   1      45.215  25.847  36.598  1.00  0.00    -0.206 F 
ATOM     87  C   UNL A   1      42.353  23.970  35.413  1.00  0.00     0.006 A 
ENDBRANCH  59  80
BRANCH  71  88
ATOM     88  C   UNL A   1      50.705  21.324  38.253  1.00  0.00     0.057 A 
ATOM     89  C   UNL A   1      50.894  21.904  39.514  1.00  0.00     0.134 A 
ATOM     90  C   UNL A   1      50.604  19.927  38.196  1.00  0.00     0.134 A 
ATOM     91  F   UNL A   1      51.008  23.233  39.641  1.00  0.00    -0.206 F 
ATOM     92  C   UNL A   1      51.001  21.123  40.668  1.00  0.00     0.040 A 
ATOM     93  C   UNL A   1      50.679  19.138  39.345  1.00  0.00     0.040 A 
ATOM     94  F   UNL A   1      50.410  19.306  37.022  1.00  0.00    -0.206 F 
ATOM     95  C   UNL A   1      50.885  19.736  40.586  1.00  0.00     0.006 A 
ENDBRANCH  71  88
ENDBRANCH  45  46
ENDBRANCH  38  40
ENDBRANCH  37  38
ENDBRANCH  36  37
ENDBRANCH  35  36
ENDBRANCH  34  35
ENDBRANCH  33  34
ENDBRANCH  32  33
ENDBRANCH   1  32
TORSDOF 23
ENDMDL
MODEL 3
REMARK VINA RESULT:      -8.1      7.814     12.794
REMARK SMILES COc1ccc(/C=C2\SC(=O)N(CC(=O)N[C@H](C)C(=O)OCCOCCOCCOC(=O)c3ccc(-c4c5nc(c(-c6c(F)cccc6F)c6ccc([nH]6)c(-c6c(F)cccc6F)c6nc(c(-c7c(F)cccc7F)c7ccc4[nH]7)C=C6)C=C5)cc3)C2=O)cc1OC
REMARK SMILES IDX 24 1 23 2 22 3 21 4 19 5 20 6 17 7 18 8 16 9 14 10 15 11
REMARK SMILES IDX 13 13 12 14 7 15 8 16 9 17 87 18 10 19 88 20 11 21 6 22 3 23
REMARK SMILES IDX 4 24 90 25 5 26 89 27 2 28 1 29 91 30 92 31 25 32 26 33
REMARK SMILES IDX 27 34 28 35 29 36 30 37 31 38 32 39 33 40 34 41 86 42 35 43
REMARK SMILES IDX 85 44 36 45 37 46 38 47 79 48 39 49 84 50 78 51 80 52 40 53
REMARK SMILES IDX 83 54 77 55 76 56 41 58 67 59 50 60 66 61 51 62 54 63 65 64
REMARK SMILES IDX 81 65 52 66 53 67 64 69 82 70 55 71 42 72 43 73 48 74 44 75
REMARK SMILES IDX 45 76 47 77 49 78 46 79 68 80 69 81 74 82 70 83 71 84 73 85
REMARK SMILES IDX 75 86 72 87 56 88 57 89 62 90 58 91 59 92 61 93 63 94 60 95
REMARK H PARENT 16 12 80 57 54 68
REMARK Flexibility Score: inf
ROOT
ATOM      1  O   UNL A   1      38.839  29.183  28.376  1.00  0.00    -0.376 OA
ENDROOT
BRANCH   1   2
ATOM      2  C   UNL A   1      38.927  29.678  29.698  1.00  0.00     0.202 C 
BRANCH   2   3
ATOM      3  C   UNL A   1      39.173  31.185  29.860  1.00  0.00     0.261 C 
BRANCH   3   4
ATOM      4  O   UNL A   1      38.632  31.805  31.048  1.00  0.00    -0.462 OA
BRANCH   4   5
ATOM      5  C   UNL A   1      37.359  32.274  30.946  1.00  0.00     0.328 C 
ATOM      6  O   UNL A   1      36.354  31.623  31.213  1.00  0.00    -0.250 OA
BRANCH   5   7
ATOM      7  C   UNL A   1      37.279  33.724  30.422  1.00  0.00     0.189 C 
ATOM      8  C   UNL A   1      38.442  34.630  30.781  1.00  0.00     0.043 C 
BRANCH   7   9
ATOM      9  N   UNL A   1      36.774  33.842  29.051  1.00  0.00    -0.341 N 
ATOM     10  C   UNL A   1      35.609  33.622  28.399  1.00  0.00     0.240 C 
ATOM     11  O   UNL A   1      35.544  34.095  27.258  1.00  0.00    -0.273 OA
ATOM     12  H   UNL A   1      37.471  34.169  28.438  1.00  0.00     0.164 HD
BRANCH  10  13
ATOM     13  C   UNL A   1      34.374  32.957  29.001  1.00  0.00     0.229 C 
BRANCH  13  14
ATOM     14  N   UNL A   1      33.729  31.908  28.231  1.00  0.00    -0.259 N 
ATOM     15  C   UNL A   1      33.754  28.616  26.711  1.00  0.00     0.029 C 
ATOM     16  C   UNL A   1      33.457  29.880  27.062  1.00  0.00     0.083 C 
ATOM     17  S   UNL A   1      32.052  30.791  26.656  1.00  0.00    -0.022 SA
ATOM     18  C   UNL A   1      34.339  30.708  27.943  1.00  0.00     0.268 C 
ATOM     19  C   UNL A   1      32.649  32.219  27.457  1.00  0.00     0.294 C 
ATOM     20  O   UNL A   1      35.435  30.343  28.338  1.00  0.00    -0.268 OA
ATOM     21  O   UNL A   1      32.148  33.324  27.295  1.00  0.00    -0.261 OA
BRANCH  15  22
ATOM     22  C   UNL A   1      32.925  27.697  25.903  1.00  0.00    -0.020 A 
ATOM     23  C   UNL A   1      31.216  26.043  24.380  1.00  0.00     0.160 A 
ATOM     24  C   UNL A   1      31.171  26.019  25.781  1.00  0.00     0.051 A 
ATOM     25  C   UNL A   1      32.135  26.869  23.729  1.00  0.00     0.161 A 
ATOM     26  C   UNL A   1      32.023  26.836  26.536  1.00  0.00     0.012 A 
ATOM     27  C   UNL A   1      33.004  27.652  24.505  1.00  0.00     0.058 A 
BRANCH  23  28
ATOM     28  O   UNL A   1      30.251  25.343  23.707  1.00  0.00    -0.493 OA
ATOM     29  C   UNL A   1      30.653  24.002  23.431  1.00  0.00     0.278 C 
ENDBRANCH  23  28
BRANCH  25  30
ATOM     30  O   UNL A   1      32.313  27.084  22.391  1.00  0.00    -0.493 OA
ATOM     31  C   UNL A   1      33.060  26.156  21.626  1.00  0.00     0.278 C 
ENDBRANCH  25  30
ENDBRANCH  15  22
ENDBRANCH  13  14
ENDBRANCH  10  13
ENDBRANCH   7   9
ENDBRANCH   5   7
ENDBRANCH   4   5
ENDBRANCH   3   4
ENDBRANCH   2   3
ENDBRANCH   1   2
BRANCH   1  32
ATOM     32  C   UNL A   1      39.721  28.149  27.954  1.00  0.00     0.188 C 
BRANCH  32  33
ATOM     33  C   UNL A   1      39.213  26.723  27.678  1.00  0.00     0.188 C 
BRANCH  33  34
ATOM     34  O   UNL A   1      40.080  25.708  28.150  1.00  0.00    -0.376 OA
BRANCH  34  35
ATOM     35  C   UNL A   1      41.296  26.172  28.716  1.00  0.00     0.202 C 
BRANCH  35  36
ATOM     36  C   UNL A   1      42.329  25.045  28.775  1.00  0.00     0.261 C 
BRANCH  36  37
ATOM     37  O   UNL A   1      42.395  24.231  27.586  1.00  0.00    -0.460 OA
BRANCH  37  38
ATOM     38  C   UNL A   1      43.596  23.694  27.276  1.00  0.00     0.338 C 
ATOM     39  O   UNL A   1      43.851  22.519  27.089  1.00  0.00    -0.246 OA
BRANCH  38  40
ATOM     40  C   UNL A   1      44.542  24.803  27.017  1.00  0.00     0.060 A 
ATOM     41  C   UNL A   1      45.237  25.380  28.090  1.00  0.00     0.016 A 
ATOM     42  C   UNL A   1      44.736  25.278  25.719  1.00  0.00     0.016 A 
ATOM     43  C   UNL A   1      46.108  26.453  27.868  1.00  0.00     0.010 A 
ATOM     44  C   UNL A   1      45.593  26.361  25.501  1.00  0.00     0.010 A 
ATOM     45  C   UNL A   1      46.263  26.976  26.576  1.00  0.00    -0.014 A 
BRANCH  45  46
ATOM     46  C   UNL A   1      46.958  28.272  26.351  1.00  0.00     0.031 A 
ATOM     47  C   UNL A   1      48.447  28.254  26.128  1.00  0.00     0.074 A 
ATOM     48  C   UNL A   1      46.303  29.448  26.370  1.00  0.00     0.049 A 
ATOM     49  N   UNL A   1      49.292  29.252  26.053  1.00  0.00    -0.248 NA
ATOM     50  C   UNL A   1      49.066  26.927  25.977  1.00  0.00     0.031 C 
ATOM     51  C   UNL A   1      44.861  29.616  26.537  1.00  0.00     0.029 A 
ATOM     52  N   UNL A   1      46.782  30.734  26.272  1.00  0.00    -0.354 N 
ATOM     53  C   UNL A   1      50.540  28.673  25.854  1.00  0.00     0.074 A 
ATOM     54  C   UNL A   1      50.347  27.238  25.854  1.00  0.00     0.031 C 
ATOM     55  C   UNL A   1      44.576  30.931  26.559  1.00  0.00     0.029 A 
ATOM     56  C   UNL A   1      45.818  31.697  26.449  1.00  0.00     0.049 A 
ATOM     57  H   UNL A   1      47.727  30.945  26.093  1.00  0.00     0.167 HD
ATOM     58  C   UNL A   1      51.738  29.278  25.677  1.00  0.00     0.037 A 
ATOM     59  C   UNL A   1      45.929  33.038  26.549  1.00  0.00     0.037 A 
ATOM     60  C   UNL A   1      51.939  30.703  25.683  1.00  0.00     0.049 A 
ATOM     61  C   UNL A   1      47.288  33.688  26.436  1.00  0.00     0.074 A 
ATOM     62  C   UNL A   1      53.119  31.407  25.515  1.00  0.00     0.029 A 
ATOM     63  N   UNL A   1      50.937  31.641  25.871  1.00  0.00    -0.354 N 
ATOM     64  N   UNL A   1      48.459  33.134  26.236  1.00  0.00    -0.248 NA
ATOM     65  C   UNL A   1      47.339  35.154  26.563  1.00  0.00     0.031 C 
ATOM     66  C   UNL A   1      52.839  32.770  25.653  1.00  0.00     0.029 A 
ATOM     67  C   UNL A   1      51.475  32.917  25.841  1.00  0.00     0.049 A 
ATOM     68  H   UNL A   1      49.984  31.431  26.007  1.00  0.00     0.167 HD
ATOM     69  C   UNL A   1      49.374  34.181  26.173  1.00  0.00     0.074 A 
ATOM     70  C   UNL A   1      48.622  35.405  26.345  1.00  0.00     0.031 C 
ATOM     71  C   UNL A   1      50.716  34.132  25.987  1.00  0.00     0.037 A 
BRANCH  58  72
ATOM     72  C   UNL A   1      52.936  28.396  25.475  1.00  0.00     0.057 A 
ATOM     73  C   UNL A   1      53.690  27.918  26.555  1.00  0.00     0.134 A 
ATOM     74  C   UNL A   1      53.312  27.981  24.191  1.00  0.00     0.134 A 
ATOM     75  F   UNL A   1      53.391  28.289  27.810  1.00  0.00    -0.206 F 
ATOM     76  C   UNL A   1      54.788  27.078  26.364  1.00  0.00     0.040 A 
ATOM     77  C   UNL A   1      54.388  27.116  23.990  1.00  0.00     0.040 A 
ATOM     78  F   UNL A   1      52.629  28.395  23.114  1.00  0.00    -0.206 F 
ATOM     79  C   UNL A   1      55.133  26.667  25.078  1.00  0.00     0.006 A 
ENDBRANCH  58  72
BRANCH  59  80
ATOM     80  C   UNL A   1      44.726  33.877  26.807  1.00  0.00     0.057 A 
ATOM     81  C   UNL A   1      44.002  34.458  25.759  1.00  0.00     0.134 A 
ATOM     82  C   UNL A   1      44.312  34.170  28.112  1.00  0.00     0.134 A 
ATOM     83  F   UNL A   1      44.366  34.242  24.486  1.00  0.00    -0.206 F 
ATOM     84  C   UNL A   1      42.931  35.323  25.997  1.00  0.00     0.040 A 
ATOM     85  C   UNL A   1      43.222  35.007  28.365  1.00  0.00     0.040 A 
ATOM     86  F   UNL A   1      44.962  33.651  29.163  1.00  0.00    -0.206 F 
ATOM     87  C   UNL A   1      42.536  35.596  27.305  1.00  0.00     0.006 A 
ENDBRANCH  59  80
BRANCH  71  88
ATOM     88  C   UNL A   1      51.458  35.436  25.890  1.00  0.00     0.057 A 
ATOM     89  C   UNL A   1      51.792  36.018  24.661  1.00  0.00     0.134 A 
ATOM     90  C   UNL A   1      51.792  36.147  27.051  1.00  0.00     0.134 A 
ATOM     91  F   UNL A   1      51.511  35.388  23.512  1.00  0.00    -0.206 F 
ATOM     92  C   UNL A   1      52.452  37.248  24.591  1.00  0.00     0.040 A 
ATOM     93  C   UNL A   1      52.425  37.390  26.994  1.00  0.00     0.040 A 
ATOM     94  F   UNL A   1      51.491  35.655  28.263  1.00  0.00    -0.206 F 
ATOM     95  C   UNL A   1      52.763  37.941  25.759  1.00  0.00     0.006 A 
ENDBRANCH  71  88
ENDBRANCH  45  46
ENDBRANCH  38  40
ENDBRANCH  37  38
ENDBRANCH  36  37
ENDBRANCH  35  36
ENDBRANCH  34  35
ENDBRANCH  33  34
ENDBRANCH  32  33
ENDBRANCH   1  32
TORSDOF 23
ENDMDL
