MODEL 1
REMARK VINA RESULT:     -11.1      0.000      0.000
REMARK SMILES C[C@H](Nc1nccc(-c2cc(C(=O)OCCOCCOCCOC(=O)c3ccc(-c4c5nc(c(-c6c(F)cccc6F)c6ccc([nH]6)c(-c6c(F)cccc6F)c6nc(c(-c7c(F)cccc7F)c7ccc4[nH]7)C=C6)C=C5)cc3)ccn2)n1)c1cn2ccsc2n1
REMARK SMILES IDX 18 1 17 2 16 3 15 4 14 5 12 6 13 7 11 8 9 9 10 10 82 11
REMARK SMILES IDX 81 12 80 13 8 14 4 15 5 16 83 17 6 18 7 19 3 20 2 22 1 23
REMARK SMILES IDX 84 24 85 25 91 26 86 27 90 28 87 29 89 30 88 31 19 32 20 33
REMARK SMILES IDX 21 34 22 35 23 36 24 37 25 38 26 39 27 40 79 41 28 42 78 43
REMARK SMILES IDX 29 44 30 45 31 46 72 47 32 48 77 49 71 50 73 51 33 52 76 53
REMARK SMILES IDX 70 54 69 55 34 57 60 58 43 59 59 60 44 61 47 62 58 63 74 64
REMARK SMILES IDX 45 65 46 66 57 68 75 69 48 70 35 71 36 72 41 73 37 74 38 75
REMARK SMILES IDX 40 76 42 77 39 78 61 79 62 80 67 81 63 82 64 83 66 84 68 85
REMARK SMILES IDX 65 86 49 87 50 88 55 89 51 90 52 91 54 92 56 93 53 94
REMARK H PARENT 3 21 73 56 47 67
REMARK Flexibility Score: inf
ROOT
ATOM      1  C   UNL A   1      32.885  36.353  31.558  1.00  0.00     0.188 C 
ENDROOT
BRANCH   1   2
ATOM      2  O   UNL A   1      32.797  36.725  30.202  1.00  0.00    -0.376 OA
BRANCH   2   3
ATOM      3  C   UNL A   1      33.447  35.954  29.208  1.00  0.00     0.202 C 
BRANCH   3   4
ATOM      4  C   UNL A   1      33.013  34.545  28.738  1.00  0.00     0.261 C 
BRANCH   4   5
ATOM      5  O   UNL A   1      33.870  33.428  29.019  1.00  0.00    -0.460 OA
BRANCH   5   6
ATOM      6  C   UNL A   1      34.753  33.083  28.053  1.00  0.00     0.338 C 
ATOM      7  O   UNL A   1      35.695  33.754  27.649  1.00  0.00    -0.246 OA
BRANCH   6   8
ATOM      8  C   UNL A   1      34.574  31.658  27.691  1.00  0.00     0.063 A 
ATOM      9  C   UNL A   1      33.498  29.925  26.446  1.00  0.00     0.090 A 
ATOM     10  C   UNL A   1      33.566  31.264  26.819  1.00  0.00     0.046 A 
ATOM     11  N   UNL A   1      34.303  28.983  27.007  1.00  0.00    -0.255 NA
ATOM     12  C   UNL A   1      35.225  29.381  27.907  1.00  0.00     0.112 A 
ATOM     13  C   UNL A   1      35.419  30.702  28.257  1.00  0.00     0.036 A 
BRANCH   9  14
ATOM     14  C   UNL A   1      32.657  29.502  25.311  1.00  0.00     0.094 A 
ATOM     15  C   UNL A   1      32.466  28.353  23.326  1.00  0.00     0.223 A 
ATOM     16  N   UNL A   1      31.190  28.723  23.164  1.00  0.00    -0.222 NA
ATOM     17  N   UNL A   1      33.221  28.724  24.365  1.00  0.00    -0.211 NA
ATOM     18  C   UNL A   1      30.646  29.481  24.126  1.00  0.00     0.117 A 
ATOM     19  C   UNL A   1      31.338  29.903  25.229  1.00  0.00     0.051 A 
BRANCH  15  20
ATOM     20  N   UNL A   1      32.987  27.570  22.331  1.00  0.00    -0.346 N 
ATOM     21  H   UNL A   1      33.567  27.986  21.655  1.00  0.00     0.164 HD
BRANCH  20  22
ATOM     22  C   UNL A   1      32.711  26.141  22.238  1.00  0.00     0.130 C 
ATOM     23  C   UNL A   1      32.613  25.587  20.814  1.00  0.00     0.038 C 
BRANCH  22  24
ATOM     24  C   UNL A   1      33.618  25.293  23.109  1.00  0.00     0.082 A 
ATOM     25  C   UNL A   1      33.761  25.290  24.494  1.00  0.00     0.119 A 
ATOM     26  N   UNL A   1      34.439  24.329  22.524  1.00  0.00    -0.222 NA
ATOM     27  N   UNL A   1      34.705  24.344  24.740  1.00  0.00    -0.297 N 
ATOM     28  C   UNL A   1      35.061  23.804  23.542  1.00  0.00     0.193 A 
ATOM     29  C   UNL A   1      35.356  23.837  25.840  1.00  0.00     0.104 A 
ATOM     30  S   UNL A   1      36.274  22.578  23.745  1.00  0.00    -0.105 S 
ATOM     31  C   UNL A   1      36.237  22.882  25.493  1.00  0.00     0.087 A 
ENDBRANCH  22  24
ENDBRANCH  20  22
ENDBRANCH  15  20
ENDBRANCH   9  14
ENDBRANCH   6   8
ENDBRANCH   5   6
ENDBRANCH   4   5
ENDBRANCH   3   4
ENDBRANCH   2   3
ENDBRANCH   1   2
BRANCH   1  32
ATOM     32  C   UNL A   1      33.911  37.081  32.455  1.00  0.00     0.188 C 
BRANCH  32  33
ATOM     33  O   UNL A   1      34.461  36.363  33.533  1.00  0.00    -0.376 OA
BRANCH  33  34
ATOM     34  C   UNL A   1      35.280  35.237  33.262  1.00  0.00     0.202 C 
BRANCH  34  35
ATOM     35  C   UNL A   1      35.101  33.817  33.862  1.00  0.00     0.261 C 
BRANCH  35  36
ATOM     36  O   UNL A   1      36.054  32.789  33.545  1.00  0.00    -0.460 OA
BRANCH  36  37
ATOM     37  C   UNL A   1      35.906  32.174  32.346  1.00  0.00     0.338 C 
ATOM     38  O   UNL A   1      34.866  32.040  31.716  1.00  0.00    -0.246 OA
BRANCH  37  39
ATOM     39  C   UNL A   1      37.235  31.844  31.778  1.00  0.00     0.060 A 
ATOM     40  C   UNL A   1      37.517  32.126  30.429  1.00  0.00     0.016 A 
ATOM     41  C   UNL A   1      38.181  31.197  32.568  1.00  0.00     0.016 A 
ATOM     42  C   UNL A   1      38.741  31.760  29.869  1.00  0.00     0.010 A 
ATOM     43  C   UNL A   1      39.392  30.798  31.994  1.00  0.00     0.010 A 
ATOM     44  C   UNL A   1      39.672  31.054  30.637  1.00  0.00    -0.014 A 
BRANCH  44  45
ATOM     45  C   UNL A   1      40.878  30.467  30.003  1.00  0.00     0.031 A 
ATOM     46  C   UNL A   1      42.068  31.345  29.742  1.00  0.00     0.074 A 
ATOM     47  C   UNL A   1      40.913  29.170  29.648  1.00  0.00     0.049 A 
ATOM     48  N   UNL A   1      43.180  31.072  29.107  1.00  0.00    -0.248 NA
ATOM     49  C   UNL A   1      41.987  32.721  30.254  1.00  0.00     0.031 C 
ATOM     50  C   UNL A   1      39.838  28.208  29.874  1.00  0.00     0.029 A 
ATOM     51  N   UNL A   1      41.885  28.449  28.999  1.00  0.00    -0.354 N 
ATOM     52  C   UNL A   1      43.923  32.246  29.128  1.00  0.00     0.074 A 
ATOM     53  C   UNL A   1      43.114  33.243  29.797  1.00  0.00     0.031 C 
ATOM     54  C   UNL A   1      40.201  27.023  29.355  1.00  0.00     0.029 A 
ATOM     55  C   UNL A   1      41.508  27.159  28.716  1.00  0.00     0.049 A 
ATOM     56  H   UNL A   1      42.764  28.820  28.760  1.00  0.00     0.167 HD
ATOM     57  C   UNL A   1      45.168  32.469  28.641  1.00  0.00     0.037 A 
ATOM     58  C   UNL A   1      42.124  26.209  27.986  1.00  0.00     0.037 A 
ATOM     59  C   UNL A   1      45.953  31.476  27.954  1.00  0.00     0.049 A 
ATOM     60  C   UNL A   1      43.466  26.501  27.370  1.00  0.00     0.074 A 
ATOM     61  C   UNL A   1      47.232  31.596  27.438  1.00  0.00     0.029 A 
ATOM     62  N   UNL A   1      45.527  30.187  27.664  1.00  0.00    -0.354 N 
ATOM     63  N   UNL A   1      44.179  27.601  27.424  1.00  0.00    -0.248 NA
ATOM     64  C   UNL A   1      44.092  25.421  26.594  1.00  0.00     0.031 C 
ATOM     65  C   UNL A   1      47.540  30.416  26.755  1.00  0.00     0.029 A 
ATOM     66  C   UNL A   1      46.498  29.521  26.933  1.00  0.00     0.049 A 
ATOM     67  H   UNL A   1      44.663  29.804  27.938  1.00  0.00     0.167 HD
ATOM     68  C   UNL A   1      45.346  27.338  26.717  1.00  0.00     0.074 A 
ATOM     69  C   UNL A   1      45.253  25.967  26.259  1.00  0.00     0.031 C 
ATOM     70  C   UNL A   1      46.400  28.157  26.473  1.00  0.00     0.037 A 
BRANCH  57  71
ATOM     71  C   UNL A   1      45.727  33.859  28.787  1.00  0.00     0.057 A 
ATOM     72  C   UNL A   1      45.500  34.861  27.832  1.00  0.00     0.134 A 
ATOM     73  C   UNL A   1      46.510  34.199  29.898  1.00  0.00     0.134 A 
ATOM     74  F   UNL A   1      44.758  34.609  26.743  1.00  0.00    -0.206 F 
ATOM     75  C   UNL A   1      46.083  36.124  27.946  1.00  0.00     0.040 A 
ATOM     76  C   UNL A   1      47.058  35.473  30.047  1.00  0.00     0.040 A 
ATOM     77  F   UNL A   1      46.754  33.299  30.864  1.00  0.00    -0.206 F 
ATOM     78  C   UNL A   1      46.862  36.434  29.058  1.00  0.00     0.006 A 
ENDBRANCH  57  71
BRANCH  58  79
ATOM     79  C   UNL A   1      41.453  24.901  27.768  1.00  0.00     0.057 A 
ATOM     80  C   UNL A   1      41.814  23.760  28.494  1.00  0.00     0.134 A 
ATOM     81  C   UNL A   1      40.430  24.761  26.820  1.00  0.00     0.134 A 
ATOM     82  F   UNL A   1      42.801  23.821  29.400  1.00  0.00    -0.206 F 
ATOM     83  C   UNL A   1      41.194  22.527  28.277  1.00  0.00     0.040 A 
ATOM     84  C   UNL A   1      39.776  23.546  26.619  1.00  0.00     0.040 A 
ATOM     85  F   UNL A   1      40.034  25.815  26.090  1.00  0.00    -0.206 F 
ATOM     86  C   UNL A   1      40.165  22.421  27.344  1.00  0.00     0.006 A 
ENDBRANCH  58  79
BRANCH  70  87
ATOM     87  C   UNL A   1      47.564  27.586  25.711  1.00  0.00     0.057 A 
ATOM     88  C   UNL A   1      47.613  27.577  24.311  1.00  0.00     0.134 A 
ATOM     89  C   UNL A   1      48.677  27.072  26.395  1.00  0.00     0.134 A 
ATOM     90  F   UNL A   1      46.585  28.049  23.590  1.00  0.00    -0.206 F 
ATOM     91  C   UNL A   1      48.704  27.044  23.621  1.00  0.00     0.040 A 
ATOM     92  C   UNL A   1      49.791  26.578  25.716  1.00  0.00     0.040 A 
ATOM     93  F   UNL A   1      48.709  27.064  27.736  1.00  0.00    -0.206 F 
ATOM     94  C   UNL A   1      49.801  26.551  24.324  1.00  0.00     0.006 A 
ENDBRANCH  70  87
ENDBRANCH  44  45
ENDBRANCH  37  39
ENDBRANCH  36  37
ENDBRANCH  35  36
ENDBRANCH  34  35
ENDBRANCH  33  34
ENDBRANCH  32  33
ENDBRANCH   1  32
TORSDOF 21
ENDMDL
MODEL 2
REMARK VINA RESULT:     -10.6      5.333     10.533
REMARK SMILES C[C@H](Nc1nccc(-c2cc(C(=O)OCCOCCOCCOC(=O)c3ccc(-c4c5nc(c(-c6c(F)cccc6F)c6ccc([nH]6)c(-c6c(F)cccc6F)c6nc(c(-c7c(F)cccc7F)c7ccc4[nH]7)C=C6)C=C5)cc3)ccn2)n1)c1cn2ccsc2n1
REMARK SMILES IDX 18 1 17 2 16 3 15 4 14 5 12 6 13 7 11 8 9 9 10 10 82 11
REMARK SMILES IDX 81 12 80 13 8 14 4 15 5 16 83 17 6 18 7 19 3 20 2 22 1 23
REMARK SMILES IDX 84 24 85 25 91 26 86 27 90 28 87 29 89 30 88 31 19 32 20 33
REMARK SMILES IDX 21 34 22 35 23 36 24 37 25 38 26 39 27 40 79 41 28 42 78 43
REMARK SMILES IDX 29 44 30 45 31 46 72 47 32 48 77 49 71 50 73 51 33 52 76 53
REMARK SMILES IDX 70 54 69 55 34 57 60 58 43 59 59 60 44 61 47 62 58 63 74 64
REMARK SMILES IDX 45 65 46 66 57 68 75 69 48 70 35 71 36 72 41 73 37 74 38 75
REMARK SMILES IDX 40 76 42 77 39 78 61 79 62 80 67 81 63 82 64 83 66 84 68 85
REMARK SMILES IDX 65 86 49 87 50 88 55 89 51 90 52 91 54 92 56 93 53 94
REMARK H PARENT 3 21 73 56 47 67
REMARK Flexibility Score: inf
ROOT
ATOM      1  C   UNL A   1      40.663  22.746  27.088  1.00  0.00     0.188 C 
ENDROOT
BRANCH   1   2
ATOM      2  O   UNL A   1      39.323  23.085  27.361  1.00  0.00    -0.376 OA
BRANCH   2   3
ATOM      3  C   UNL A   1      38.476  23.538  26.321  1.00  0.00     0.202 C 
BRANCH   3   4
ATOM      4  C   UNL A   1      37.640  22.632  25.385  1.00  0.00     0.261 C 
BRANCH   4   5
ATOM      5  O   UNL A   1      36.503  21.941  25.925  1.00  0.00    -0.460 OA
BRANCH   5   6
ATOM      6  C   UNL A   1      36.086  20.843  25.253  1.00  0.00     0.338 C 
ATOM      7  O   UNL A   1      36.774  19.891  24.909  1.00  0.00    -0.246 OA
BRANCH   6   8
ATOM      8  C   UNL A   1      34.607  20.827  25.182  1.00  0.00     0.063 A 
ATOM      9  C   UNL A   1      32.485  21.923  25.282  1.00  0.00     0.090 A 
ATOM     10  C   UNL A   1      33.866  21.972  25.449  1.00  0.00     0.046 A 
ATOM     11  N   UNL A   1      31.839  20.761  24.994  1.00  0.00    -0.255 NA
ATOM     12  C   UNL A   1      32.575  19.646  24.812  1.00  0.00     0.112 A 
ATOM     13  C   UNL A   1      33.955  19.634  24.864  1.00  0.00     0.036 A 
BRANCH   9  14
ATOM     14  C   UNL A   1      31.686  23.162  25.256  1.00  0.00     0.094 A 
ATOM     15  C   UNL A   1      31.130  25.121  24.185  1.00  0.00     0.223 A 
ATOM     16  N   UNL A   1      30.287  25.487  25.159  1.00  0.00    -0.222 NA
ATOM     17  N   UNL A   1      31.840  23.989  24.204  1.00  0.00    -0.211 NA
ATOM     18  C   UNL A   1      30.137  24.640  26.187  1.00  0.00     0.117 A 
ATOM     19  C   UNL A   1      30.816  23.456  26.288  1.00  0.00     0.051 A 
BRANCH  15  20
ATOM     20  N   UNL A   1      31.252  26.004  23.146  1.00  0.00    -0.346 N 
ATOM     21  H   UNL A   1      30.910  25.745  22.261  1.00  0.00     0.164 HD
BRANCH  20  22
ATOM     22  C   UNL A   1      31.871  27.315  23.305  1.00  0.00     0.130 C 
ATOM     23  C   UNL A   1      33.127  27.549  22.461  1.00  0.00     0.038 C 
BRANCH  22  24
ATOM     24  C   UNL A   1      30.891  28.465  23.184  1.00  0.00     0.082 A 
ATOM     25  C   UNL A   1      30.619  29.491  24.086  1.00  0.00     0.119 A 
ATOM     26  N   UNL A   1      30.134  28.613  22.022  1.00  0.00    -0.222 NA
ATOM     27  N   UNL A   1      29.660  30.238  23.476  1.00  0.00    -0.297 N 
ATOM     28  C   UNL A   1      29.421  29.679  22.259  1.00  0.00     0.193 A 
ATOM     29  C   UNL A   1      28.912  31.351  23.779  1.00  0.00     0.104 A 
ATOM     30  S   UNL A   1      28.201  30.561  21.394  1.00  0.00    -0.105 S 
ATOM     31  C   UNL A   1      28.072  31.666  22.777  1.00  0.00     0.087 A 
ENDBRANCH  22  24
ENDBRANCH  20  22
ENDBRANCH  15  20
ENDBRANCH   9  14
ENDBRANCH   6   8
ENDBRANCH   5   6
ENDBRANCH   4   5
ENDBRANCH   3   4
ENDBRANCH   2   3
ENDBRANCH   1   2
BRANCH   1  32
ATOM     32  C   UNL A   1      40.946  21.665  26.020  1.00  0.00     0.188 C 
BRANCH  32  33
ATOM     33  O   UNL A   1      42.157  20.956  26.115  1.00  0.00    -0.376 OA
BRANCH  33  34
ATOM     34  C   UNL A   1      43.375  21.641  25.873  1.00  0.00     0.202 C 
BRANCH  34  35
ATOM     35  C   UNL A   1      43.622  22.691  24.758  1.00  0.00     0.261 C 
BRANCH  35  36
ATOM     36  O   UNL A   1      43.261  24.064  24.985  1.00  0.00    -0.460 OA
BRANCH  36  37
ATOM     37  C   UNL A   1      44.270  24.910  25.309  1.00  0.00     0.338 C 
ATOM     38  O   UNL A   1      45.261  25.159  24.637  1.00  0.00    -0.246 OA
BRANCH  37  39
ATOM     39  C   UNL A   1      43.919  25.671  26.532  1.00  0.00     0.060 A 
ATOM     40  C   UNL A   1      42.938  25.180  27.412  1.00  0.00     0.016 A 
ATOM     41  C   UNL A   1      44.519  26.904  26.773  1.00  0.00     0.016 A 
ATOM     42  C   UNL A   1      42.554  25.921  28.531  1.00  0.00     0.010 A 
ATOM     43  C   UNL A   1      44.105  27.662  27.873  1.00  0.00     0.010 A 
ATOM     44  C   UNL A   1      43.105  27.188  28.745  1.00  0.00    -0.014 A 
BRANCH  44  45
ATOM     45  C   UNL A   1      42.554  28.078  29.798  1.00  0.00     0.031 A 
ATOM     46  C   UNL A   1      43.220  28.120  31.143  1.00  0.00     0.074 A 
ATOM     47  C   UNL A   1      41.465  28.832  29.567  1.00  0.00     0.049 A 
ATOM     48  N   UNL A   1      42.849  28.739  32.235  1.00  0.00    -0.248 NA
ATOM     49  C   UNL A   1      44.463  27.347  31.279  1.00  0.00     0.031 C 
ATOM     50  C   UNL A   1      40.747  28.905  28.297  1.00  0.00     0.029 A 
ATOM     51  N   UNL A   1      40.759  29.660  30.404  1.00  0.00    -0.354 N 
ATOM     52  C   UNL A   1      43.803  28.416  33.193  1.00  0.00     0.074 A 
ATOM     53  C   UNL A   1      44.741  27.511  32.563  1.00  0.00     0.031 C 
ATOM     54  C   UNL A   1      39.690  29.720  28.443  1.00  0.00     0.029 A 
ATOM     55  C   UNL A   1      39.628  30.182  29.828  1.00  0.00     0.049 A 
ATOM     56  H   UNL A   1      41.038  29.860  31.327  1.00  0.00     0.167 HD
ATOM     57  C   UNL A   1      43.893  28.842  34.476  1.00  0.00     0.037 A 
ATOM     58  C   UNL A   1      38.631  30.913  30.364  1.00  0.00     0.037 A 
ATOM     59  C   UNL A   1      42.940  29.724  35.100  1.00  0.00     0.049 A 
ATOM     60  C   UNL A   1      38.696  31.301  31.818  1.00  0.00     0.074 A 
ATOM     61  C   UNL A   1      42.950  30.229  36.388  1.00  0.00     0.029 A 
ATOM     62  N   UNL A   1      41.792  30.212  34.490  1.00  0.00    -0.354 N 
ATOM     63  N   UNL A   1      39.619  31.023  32.707  1.00  0.00    -0.248 NA
ATOM     64  C   UNL A   1      37.584  32.107  32.342  1.00  0.00     0.031 C 
ATOM     65  C   UNL A   1      41.764  30.942  36.588  1.00  0.00     0.029 A 
ATOM     66  C   UNL A   1      41.064  30.971  35.393  1.00  0.00     0.049 A 
ATOM     67  H   UNL A   1      41.535  30.045  33.556  1.00  0.00     0.167 HD
ATOM     68  C   UNL A   1      39.215  31.642  33.885  1.00  0.00     0.074 A 
ATOM     69  C   UNL A   1      37.973  32.325  33.590  1.00  0.00     0.031 C 
ATOM     70  C   UNL A   1      39.823  31.645  35.098  1.00  0.00     0.037 A 
BRANCH  57  71
ATOM     71  C   UNL A   1      45.034  28.311  35.301  1.00  0.00     0.057 A 
ATOM     72  C   UNL A   1      44.914  27.155  36.087  1.00  0.00     0.134 A 
ATOM     73  C   UNL A   1      46.271  28.969  35.314  1.00  0.00     0.134 A 
ATOM     74  F   UNL A   1      43.760  26.471  36.122  1.00  0.00    -0.206 F 
ATOM     75  C   UNL A   1      45.959  26.714  36.901  1.00  0.00     0.040 A 
ATOM     76  C   UNL A   1      47.338  28.509  36.087  1.00  0.00     0.040 A 
ATOM     77  F   UNL A   1      46.468  30.070  34.572  1.00  0.00    -0.206 F 
ATOM     78  C   UNL A   1      47.176  27.390  36.900  1.00  0.00     0.006 A 
ENDBRANCH  57  71
BRANCH  58  79
ATOM     79  C   UNL A   1      37.464  31.292  29.525  1.00  0.00     0.057 A 
ATOM     80  C   UNL A   1      36.385  30.423  29.333  1.00  0.00     0.134 A 
ATOM     81  C   UNL A   1      37.403  32.541  28.893  1.00  0.00     0.134 A 
ATOM     82  F   UNL A   1      36.391  29.203  29.893  1.00  0.00    -0.206 F 
ATOM     83  C   UNL A   1      35.296  30.773  28.532  1.00  0.00     0.040 A 
ATOM     84  C   UNL A   1      36.305  32.920  28.121  1.00  0.00     0.040 A 
ATOM     85  F   UNL A   1      38.403  33.423  29.036  1.00  0.00    -0.206 F 
ATOM     86  C   UNL A   1      35.250  32.029  27.931  1.00  0.00     0.006 A 
ENDBRANCH  58  79
BRANCH  70  87
ATOM     87  C   UNL A   1      39.179  32.447  36.196  1.00  0.00     0.057 A 
ATOM     88  C   UNL A   1      38.204  31.909  37.046  1.00  0.00     0.134 A 
ATOM     89  C   UNL A   1      39.575  33.772  36.433  1.00  0.00     0.134 A 
ATOM     90  F   UNL A   1      37.775  30.649  36.879  1.00  0.00    -0.206 F 
ATOM     91  C   UNL A   1      37.620  32.669  38.062  1.00  0.00     0.040 A 
ATOM     92  C   UNL A   1      39.030  34.526  37.473  1.00  0.00     0.040 A 
ATOM     93  F   UNL A   1      40.517  34.350  35.671  1.00  0.00    -0.206 F 
ATOM     94  C   UNL A   1      38.039  33.979  38.283  1.00  0.00     0.006 A 
ENDBRANCH  70  87
ENDBRANCH  44  45
ENDBRANCH  37  39
ENDBRANCH  36  37
ENDBRANCH  35  36
ENDBRANCH  34  35
ENDBRANCH  33  34
ENDBRANCH  32  33
ENDBRANCH   1  32
TORSDOF 21
ENDMDL
MODEL 3
REMARK VINA RESULT:     -10.5      5.384     10.775
REMARK SMILES C[C@H](Nc1nccc(-c2cc(C(=O)OCCOCCOCCOC(=O)c3ccc(-c4c5nc(c(-c6c(F)cccc6F)c6ccc([nH]6)c(-c6c(F)cccc6F)c6nc(c(-c7c(F)cccc7F)c7ccc4[nH]7)C=C6)C=C5)cc3)ccn2)n1)c1cn2ccsc2n1
REMARK SMILES IDX 18 1 17 2 16 3 15 4 14 5 12 6 13 7 11 8 9 9 10 10 82 11
REMARK SMILES IDX 81 12 80 13 8 14 4 15 5 16 83 17 6 18 7 19 3 20 2 22 1 23
REMARK SMILES IDX 84 24 85 25 91 26 86 27 90 28 87 29 89 30 88 31 19 32 20 33
REMARK SMILES IDX 21 34 22 35 23 36 24 37 25 38 26 39 27 40 79 41 28 42 78 43
REMARK SMILES IDX 29 44 30 45 31 46 72 47 32 48 77 49 71 50 73 51 33 52 76 53
REMARK SMILES IDX 70 54 69 55 34 57 60 58 43 59 59 60 44 61 47 62 58 63 74 64
REMARK SMILES IDX 45 65 46 66 57 68 75 69 48 70 35 71 36 72 41 73 37 74 38 75
REMARK SMILES IDX 40 76 42 77 39 78 61 79 62 80 67 81 63 82 64 83 66 84 68 85
REMARK SMILES IDX 65 86 49 87 50 88 55 89 51 90 52 91 54 92 56 93 53 94
REMARK H PARENT 3 21 73 56 47 67
REMARK Flexibility Score: inf
ROOT
ATOM      1  C   UNL A   1      40.774  22.774  27.121  1.00  0.00     0.188 C 
ENDROOT
BRANCH   1   2
ATOM      2  O   UNL A   1      39.423  23.072  27.389  1.00  0.00    -0.376 OA
BRANCH   2   3
ATOM      3  C   UNL A   1      38.574  23.526  26.351  1.00  0.00     0.202 C 
BRANCH   3   4
ATOM      4  C   UNL A   1      37.770  22.620  25.388  1.00  0.00     0.261 C 
BRANCH   4   5
ATOM      5  O   UNL A   1      36.637  21.900  25.898  1.00  0.00    -0.460 OA
BRANCH   5   6
ATOM      6  C   UNL A   1      36.224  20.831  25.179  1.00  0.00     0.338 C 
ATOM      7  O   UNL A   1      36.921  19.912  24.767  1.00  0.00    -0.246 OA
BRANCH   6   8
ATOM      8  C   UNL A   1      34.745  20.789  25.142  1.00  0.00     0.063 A 
ATOM      9  C   UNL A   1      32.607  21.849  25.275  1.00  0.00     0.090 A 
ATOM     10  C   UNL A   1      33.990  21.925  25.409  1.00  0.00     0.046 A 
ATOM     11  N   UNL A   1      31.975  20.672  25.019  1.00  0.00    -0.255 NA
ATOM     12  C   UNL A   1      32.726  19.567  24.837  1.00  0.00     0.112 A 
ATOM     13  C   UNL A   1      34.107  19.580  24.858  1.00  0.00     0.036 A 
BRANCH   9  14
ATOM     14  C   UNL A   1      31.786  23.074  25.249  1.00  0.00     0.094 A 
ATOM     15  C   UNL A   1      31.182  25.014  24.168  1.00  0.00     0.223 A 
ATOM     16  N   UNL A   1      30.346  25.373  25.150  1.00  0.00    -0.222 NA
ATOM     17  N   UNL A   1      31.912  23.894  24.187  1.00  0.00    -0.211 NA
ATOM     18  C   UNL A   1      30.224  24.532  26.187  1.00  0.00     0.117 A 
ATOM     19  C   UNL A   1      30.924  23.361  26.290  1.00  0.00     0.051 A 
BRANCH  15  20
ATOM     20  N   UNL A   1      31.275  25.889  23.121  1.00  0.00    -0.346 N 
ATOM     21  H   UNL A   1      30.900  25.628  22.249  1.00  0.00     0.164 HD
BRANCH  20  22
ATOM     22  C   UNL A   1      31.910  27.196  23.250  1.00  0.00     0.130 C 
ATOM     23  C   UNL A   1      33.139  27.414  22.363  1.00  0.00     0.038 C 
BRANCH  22  24
ATOM     24  C   UNL A   1      30.936  28.354  23.153  1.00  0.00     0.082 A 
ATOM     25  C   UNL A   1      30.726  29.406  24.041  1.00  0.00     0.119 A 
ATOM     26  N   UNL A   1      30.115  28.479  22.033  1.00  0.00    -0.222 NA
ATOM     27  N   UNL A   1      29.742  30.148  23.467  1.00  0.00    -0.297 N 
ATOM     28  C   UNL A   1      29.428  29.559  22.280  1.00  0.00     0.193 A 
ATOM     29  C   UNL A   1      29.022  31.276  23.781  1.00  0.00     0.104 A 
ATOM     30  S   UNL A   1      28.169  30.432  21.462  1.00  0.00    -0.105 S 
ATOM     31  C   UNL A   1      28.131  31.574  22.820  1.00  0.00     0.087 A 
ENDBRANCH  22  24
ENDBRANCH  20  22
ENDBRANCH  15  20
ENDBRANCH   9  14
ENDBRANCH   6   8
ENDBRANCH   5   6
ENDBRANCH   4   5
ENDBRANCH   3   4
ENDBRANCH   2   3
ENDBRANCH   1   2
BRANCH   1  32
ATOM     32  C   UNL A   1      41.094  21.720  26.038  1.00  0.00     0.188 C 
BRANCH  32  33
ATOM     33  O   UNL A   1      42.371  21.132  26.057  1.00  0.00    -0.376 OA
BRANCH  33  34
ATOM     34  C   UNL A   1      43.503  21.935  25.762  1.00  0.00     0.202 C 
BRANCH  34  35
ATOM     35  C   UNL A   1      43.563  23.066  24.702  1.00  0.00     0.261 C 
BRANCH  35  36
ATOM     36  O   UNL A   1      43.180  24.402  25.068  1.00  0.00    -0.460 OA
BRANCH  36  37
ATOM     37  C   UNL A   1      44.179  25.236  25.451  1.00  0.00     0.338 C 
ATOM     38  O   UNL A   1      45.150  25.566  24.786  1.00  0.00    -0.246 OA
BRANCH  37  39
ATOM     39  C   UNL A   1      43.839  25.872  26.745  1.00  0.00     0.060 A 
ATOM     40  C   UNL A   1      43.040  25.189  27.680  1.00  0.00     0.016 A 
ATOM     41  C   UNL A   1      44.260  27.173  27.006  1.00  0.00     0.016 A 
ATOM     42  C   UNL A   1      42.660  25.805  28.874  1.00  0.00     0.010 A 
ATOM     43  C   UNL A   1      43.847  27.802  28.185  1.00  0.00     0.010 A 
ATOM     44  C   UNL A   1      43.025  27.133  29.114  1.00  0.00    -0.014 A 
BRANCH  44  45
ATOM     45  C   UNL A   1      42.451  27.873  30.267  1.00  0.00     0.031 A 
ATOM     46  C   UNL A   1      41.203  28.683  30.067  1.00  0.00     0.074 A 
ATOM     47  C   UNL A   1      43.039  27.836  31.475  1.00  0.00     0.049 A 
ATOM     48  N   UNL A   1      40.592  29.487  30.899  1.00  0.00    -0.248 NA
ATOM     49  C   UNL A   1      40.567  28.585  28.745  1.00  0.00     0.031 C 
ATOM     50  C   UNL A   1      44.233  27.064  31.806  1.00  0.00     0.029 A 
ATOM     51  N   UNL A   1      42.721  28.487  32.642  1.00  0.00    -0.354 N 
ATOM     52  C   UNL A   1      39.510  30.004  30.197  1.00  0.00     0.074 A 
ATOM     53  C   UNL A   1      39.579  29.458  28.859  1.00  0.00     0.031 C 
ATOM     54  C   UNL A   1      44.561  27.299  33.087  1.00  0.00     0.029 A 
ATOM     55  C   UNL A   1      43.631  28.277  33.648  1.00  0.00     0.049 A 
ATOM     56  H   UNL A   1      41.920  29.050  32.745  1.00  0.00     0.167 HD
ATOM     57  C   UNL A   1      38.545  30.851  30.631  1.00  0.00     0.037 A 
ATOM     58  C   UNL A   1      43.731  28.840  34.868  1.00  0.00     0.037 A 
ATOM     59  C   UNL A   1      38.501  31.408  31.959  1.00  0.00     0.049 A 
ATOM     60  C   UNL A   1      42.703  29.852  35.304  1.00  0.00     0.074 A 
ATOM     61  C   UNL A   1      37.557  32.261  32.503  1.00  0.00     0.029 A 
ATOM     62  N   UNL A   1      39.455  31.191  32.943  1.00  0.00    -0.354 N 
ATOM     63  N   UNL A   1      41.664  30.309  34.648  1.00  0.00    -0.248 NA
ATOM     64  C   UNL A   1      42.861  30.423  36.649  1.00  0.00     0.031 C 
ATOM     65  C   UNL A   1      37.988  32.634  33.779  1.00  0.00     0.029 A 
ATOM     66  C   UNL A   1      39.147  31.933  34.073  1.00  0.00     0.049 A 
ATOM     67  H   UNL A   1      40.234  30.597  32.853  1.00  0.00     0.167 HD
ATOM     68  C   UNL A   1      41.028  31.197  35.508  1.00  0.00     0.074 A 
ATOM     69  C   UNL A   1      41.790  31.200  36.739  1.00  0.00     0.031 C 
ATOM     70  C   UNL A   1      39.912  31.938  35.296  1.00  0.00     0.037 A 
BRANCH  57  71
ATOM     71  C   UNL A   1      37.493  31.265  29.638  1.00  0.00     0.057 A 
ATOM     72  C   UNL A   1      37.547  32.491  28.958  1.00  0.00     0.134 A 
ATOM     73  C   UNL A   1      36.404  30.427  29.362  1.00  0.00     0.134 A 
ATOM     74  F   UNL A   1      38.561  33.344  29.170  1.00  0.00    -0.206 F 
ATOM     75  C   UNL A   1      36.528  32.891  28.092  1.00  0.00     0.040 A 
ATOM     76  C   UNL A   1      35.404  30.797  28.462  1.00  0.00     0.040 A 
ATOM     77  F   UNL A   1      36.294  29.230  29.958  1.00  0.00    -0.206 F 
ATOM     78  C   UNL A   1      35.454  32.042  27.840  1.00  0.00     0.006 A 
ENDBRANCH  57  71
BRANCH  58  79
ATOM     79  C   UNL A   1      44.874  28.486  35.750  1.00  0.00     0.057 A 
ATOM     80  C   UNL A   1      46.061  29.226  35.746  1.00  0.00     0.134 A 
ATOM     81  C   UNL A   1      44.802  27.391  36.622  1.00  0.00     0.134 A 
ATOM     82  F   UNL A   1      46.202  30.273  34.918  1.00  0.00    -0.206 F 
ATOM     83  C   UNL A   1      47.141  28.884  36.563  1.00  0.00     0.040 A 
ATOM     84  C   UNL A   1      45.858  27.060  37.471  1.00  0.00     0.040 A 
ATOM     85  F   UNL A   1      43.693  26.640  36.678  1.00  0.00    -0.206 F 
ATOM     86  C   UNL A   1      47.036  27.803  37.436  1.00  0.00     0.006 A 
ENDBRANCH  58  79
BRANCH  70  87
ATOM     87  C   UNL A   1      39.414  32.788  36.433  1.00  0.00     0.057 A 
ATOM     88  C   UNL A   1      39.864  34.098  36.644  1.00  0.00     0.134 A 
ATOM     89  C   UNL A   1      38.434  32.298  37.310  1.00  0.00     0.134 A 
ATOM     90  F   UNL A   1      40.801  34.633  35.847  1.00  0.00    -0.206 F 
ATOM     91  C   UNL A   1      39.388  34.873  37.704  1.00  0.00     0.040 A 
ATOM     92  C   UNL A   1      37.920  33.078  38.346  1.00  0.00     0.040 A 
ATOM     93  F   UNL A   1      37.943  31.058  37.160  1.00  0.00    -0.206 F 
ATOM     94  C   UNL A   1      38.407  34.366  38.554  1.00  0.00     0.006 A 
ENDBRANCH  70  87
ENDBRANCH  44  45
ENDBRANCH  37  39
ENDBRANCH  36  37
ENDBRANCH  35  36
ENDBRANCH  34  35
ENDBRANCH  33  34
ENDBRANCH  32  33
ENDBRANCH   1  32
TORSDOF 21
ENDMDL
