MODEL 1
REMARK VINA RESULT:     -10.9      0.000      0.000
REMARK SMILES Cc1ccccc1CSCC(=O)Nc1ccc(C)c(C(=O)OCCOCCOCCOC(=O)c2ccc(-c3c4nc(c(-c5c(F)cccc5F)c5ccc([nH]5)c(-c5c(F)cccc5F)c5nc(c(-c6c(F)cccc6F)c6ccc3[nH]6)C=C5)C=C4)cc2)c1
REMARK SMILES IDX 25 1 24 2 23 3 22 4 20 5 21 6 19 7 14 8 15 9 88 10 16 11
REMARK SMILES IDX 17 12 18 13 13 14 11 15 12 16 10 18 9 19 8 20 7 21 1 22 2 23
REMARK SMILES IDX 3 24 4 25 6 26 5 27 26 28 27 29 28 30 29 31 30 32 31 33
REMARK SMILES IDX 32 34 33 35 34 36 35 37 87 38 36 39 86 40 37 41 38 42 39 43
REMARK SMILES IDX 80 44 40 45 85 46 79 47 81 48 41 49 84 50 78 51 77 52 42 54
REMARK SMILES IDX 68 55 51 56 67 57 52 58 55 59 66 60 82 61 53 62 54 63 65 65
REMARK SMILES IDX 83 66 56 67 43 68 44 69 49 70 45 71 46 72 48 73 50 74 47 75
REMARK SMILES IDX 69 76 70 77 75 78 71 79 72 80 74 81 76 82 73 83 57 84 58 85
REMARK SMILES IDX 63 86 59 87 60 88 62 89 64 90 61 91
REMARK H PARENT 13 17 81 53 55 64
REMARK Flexibility Score: inf
ROOT
ATOM      1  O   UNL A   1      35.359  33.153  27.688  1.00  0.00    -0.376 OA
ENDROOT
BRANCH   1   2
ATOM      2  C   UNL A   1      34.800  31.831  27.709  1.00  0.00     0.202 C 
BRANCH   2   3
ATOM      3  C   UNL A   1      35.692  30.531  27.582  1.00  0.00     0.261 C 
BRANCH   3   4
ATOM      4  O   UNL A   1      35.250  29.435  26.691  1.00  0.00    -0.460 OA
BRANCH   4   5
ATOM      5  C   UNL A   1      34.015  28.803  26.663  1.00  0.00     0.338 C 
ATOM      6  O   UNL A   1      33.606  28.205  27.651  1.00  0.00    -0.246 OA
BRANCH   5   7
ATOM      7  C   UNL A   1      33.129  28.793  25.263  1.00  0.00     0.065 A 
ATOM      8  C   UNL A   1      32.659  28.085  22.825  1.00  0.00     0.042 A 
ATOM      9  C   UNL A   1      31.603  28.948  22.761  1.00  0.00     0.026 A 
ATOM     10  C   UNL A   1      33.324  28.022  24.066  1.00  0.00     0.042 A 
ATOM     11  C   UNL A   1      31.297  29.708  23.905  1.00  0.00     0.006 A 
ATOM     12  C   UNL A   1      32.040  29.649  25.134  1.00  0.00    -0.036 A 
ATOM     13  C   UNL A   1      31.513  30.414  26.305  1.00  0.00     0.045 C 
BRANCH   8  14
ATOM     14  N   UNL A   1      32.963  27.114  21.836  1.00  0.00    -0.325 N 
ATOM     15  C   UNL A   1      32.732  25.765  21.733  1.00  0.00     0.234 C 
ATOM     16  O   UNL A   1      33.327  25.150  20.837  1.00  0.00    -0.274 OA
ATOM     17  H   UNL A   1      33.441  27.487  21.060  1.00  0.00     0.169 HD
BRANCH  15  18
ATOM     18  C   UNL A   1      31.634  25.060  22.509  1.00  0.00     0.170 C 
BRANCH  18  19
ATOM     19  S   UNL A   1      32.119  23.508  23.277  1.00  0.00    -0.147 SA
BRANCH  19  20
ATOM     20  C   UNL A   1      33.182  24.159  24.614  1.00  0.00     0.105 C 
BRANCH  20  21
ATOM     21  C   UNL A   1      34.551  23.522  24.626  1.00  0.00    -0.035 A 
ATOM     22  C   UNL A   1      34.542  22.941  27.146  1.00  0.00     0.044 C 
ATOM     23  C   UNL A   1      35.166  22.985  25.776  1.00  0.00    -0.047 A 
ATOM     24  C   UNL A   1      36.465  22.449  25.663  1.00  0.00     0.004 A 
ATOM     25  C   UNL A   1      37.136  22.416  24.442  1.00  0.00     0.000 A 
ATOM     26  C   UNL A   1      35.236  23.439  23.393  1.00  0.00     0.005 A 
ATOM     27  C   UNL A   1      36.516  22.902  23.302  1.00  0.00     0.000 A 
ENDBRANCH  20  21
ENDBRANCH  19  20
ENDBRANCH  18  19
ENDBRANCH  15  18
ENDBRANCH   8  14
ENDBRANCH   5   7
ENDBRANCH   4   5
ENDBRANCH   3   4
ENDBRANCH   2   3
ENDBRANCH   1   2
BRANCH   1  28
ATOM     28  C   UNL A   1      34.533  34.257  28.023  1.00  0.00     0.188 C 
BRANCH  28  29
ATOM     29  C   UNL A   1      33.017  34.119  28.057  1.00  0.00     0.188 C 
BRANCH  29  30
ATOM     30  O   UNL A   1      32.429  35.294  28.596  1.00  0.00    -0.376 OA
BRANCH  30  31
ATOM     31  C   UNL A   1      33.299  36.057  29.427  1.00  0.00     0.202 C 
BRANCH  31  32
ATOM     32  C   UNL A   1      32.817  36.211  30.887  1.00  0.00     0.261 C 
BRANCH  32  33
ATOM     33  O   UNL A   1      33.010  34.975  31.620  1.00  0.00    -0.460 OA
BRANCH  33  34
ATOM     34  C   UNL A   1      34.004  34.938  32.571  1.00  0.00     0.338 C 
ATOM     35  O   UNL A   1      34.459  35.902  33.145  1.00  0.00    -0.246 OA
BRANCH  34  36
ATOM     36  C   UNL A   1      34.640  33.570  32.582  1.00  0.00     0.060 A 
ATOM     37  C   UNL A   1      35.369  33.023  33.649  1.00  0.00     0.016 A 
ATOM     38  C   UNL A   1      34.860  33.015  31.365  1.00  0.00     0.016 A 
ATOM     39  C   UNL A   1      36.476  32.111  33.424  1.00  0.00     0.010 A 
ATOM     40  C   UNL A   1      36.079  32.370  31.183  1.00  0.00     0.010 A 
ATOM     41  C   UNL A   1      36.978  31.844  32.148  1.00  0.00    -0.014 A 
BRANCH  41  42
ATOM     42  C   UNL A   1      38.426  31.170  31.801  1.00  0.00     0.031 A 
ATOM     43  C   UNL A   1      38.870  29.670  31.343  1.00  0.00     0.074 A 
ATOM     44  C   UNL A   1      39.416  32.056  31.575  1.00  0.00     0.049 A 
ATOM     45  N   UNL A   1      39.514  29.415  30.229  1.00  0.00    -0.248 NA
ATOM     46  C   UNL A   1      38.610  28.361  32.027  1.00  0.00     0.031 C 
ATOM     47  C   UNL A   1      40.667  31.884  30.846  1.00  0.00     0.029 A 
ATOM     48  N   UNL A   1      39.572  33.293  32.195  1.00  0.00    -0.354 N 
ATOM     49  C   UNL A   1      39.567  28.054  29.981  1.00  0.00     0.074 A 
ATOM     50  C   UNL A   1      38.872  27.437  31.087  1.00  0.00     0.031 C 
ATOM     51  C   UNL A   1      41.568  32.758  31.315  1.00  0.00     0.029 A 
ATOM     52  C   UNL A   1      40.957  33.411  32.449  1.00  0.00     0.049 A 
ATOM     53  H   UNL A   1      38.868  33.947  32.409  1.00  0.00     0.167 HD
ATOM     54  C   UNL A   1      40.622  27.457  29.354  1.00  0.00     0.037 A 
ATOM     55  C   UNL A   1      41.357  33.337  33.750  1.00  0.00     0.037 A 
ATOM     56  C   UNL A   1      41.850  28.091  29.770  1.00  0.00     0.049 A 
ATOM     57  C   UNL A   1      42.067  32.024  34.044  1.00  0.00     0.074 A 
ATOM     58  C   UNL A   1      42.644  29.130  29.338  1.00  0.00     0.029 A 
ATOM     59  N   UNL A   1      42.239  27.818  31.063  1.00  0.00    -0.354 N 
ATOM     60  N   UNL A   1      42.355  31.121  33.139  1.00  0.00    -0.248 NA
ATOM     61  C   UNL A   1      42.479  31.595  35.378  1.00  0.00     0.031 C 
ATOM     62  C   UNL A   1      43.340  29.619  30.496  1.00  0.00     0.029 A 
ATOM     63  C   UNL A   1      43.000  28.836  31.594  1.00  0.00     0.049 A 
ATOM     64  H   UNL A   1      42.003  26.995  31.547  1.00  0.00     0.167 HD
ATOM     65  C   UNL A   1      42.893  30.012  33.726  1.00  0.00     0.074 A 
ATOM     66  C   UNL A   1      42.962  30.362  35.135  1.00  0.00     0.031 C 
ATOM     67  C   UNL A   1      43.212  28.871  33.041  1.00  0.00     0.037 A 
BRANCH  54  68
ATOM     68  C   UNL A   1      40.518  26.211  28.504  1.00  0.00     0.057 A 
ATOM     69  C   UNL A   1      39.374  25.975  27.714  1.00  0.00     0.134 A 
ATOM     70  C   UNL A   1      41.432  25.140  28.547  1.00  0.00     0.134 A 
ATOM     71  F   UNL A   1      38.420  26.908  27.578  1.00  0.00    -0.206 F 
ATOM     72  C   UNL A   1      39.138  24.756  27.055  1.00  0.00     0.040 A 
ATOM     73  C   UNL A   1      41.212  23.919  27.882  1.00  0.00     0.040 A 
ATOM     74  F   UNL A   1      42.573  25.225  29.246  1.00  0.00    -0.206 F 
ATOM     75  C   UNL A   1      40.052  23.716  27.146  1.00  0.00     0.006 A 
ENDBRANCH  54  68
BRANCH  55  76
ATOM     76  C   UNL A   1      40.412  34.154  34.591  1.00  0.00     0.057 A 
ATOM     77  C   UNL A   1      39.520  33.415  35.415  1.00  0.00     0.134 A 
ATOM     78  C   UNL A   1      40.660  35.470  34.986  1.00  0.00     0.134 A 
ATOM     79  F   UNL A   1      39.227  32.140  35.107  1.00  0.00    -0.206 F 
ATOM     80  C   UNL A   1      39.090  33.877  36.662  1.00  0.00     0.040 A 
ATOM     81  C   UNL A   1      40.148  35.976  36.199  1.00  0.00     0.040 A 
ATOM     82  F   UNL A   1      41.541  36.231  34.321  1.00  0.00    -0.206 F 
ATOM     83  C   UNL A   1      39.431  35.155  37.072  1.00  0.00     0.006 A 
ENDBRANCH  55  76
BRANCH  67  84
ATOM     84  C   UNL A   1      43.747  27.666  33.764  1.00  0.00     0.057 A 
ATOM     85  C   UNL A   1      45.121  27.410  33.828  1.00  0.00     0.134 A 
ATOM     86  C   UNL A   1      42.912  26.687  34.336  1.00  0.00     0.134 A 
ATOM     87  F   UNL A   1      46.002  28.270  33.296  1.00  0.00    -0.206 F 
ATOM     88  C   UNL A   1      45.634  26.263  34.442  1.00  0.00     0.040 A 
ATOM     89  C   UNL A   1      43.407  25.505  34.888  1.00  0.00     0.040 A 
ATOM     90  F   UNL A   1      41.581  26.852  34.401  1.00  0.00    -0.206 F 
ATOM     91  C   UNL A   1      44.776  25.296  34.956  1.00  0.00     0.006 A 
ENDBRANCH  67  84
ENDBRANCH  41  42
ENDBRANCH  34  36
ENDBRANCH  33  34
ENDBRANCH  32  33
ENDBRANCH  31  32
ENDBRANCH  30  31
ENDBRANCH  29  30
ENDBRANCH  28  29
ENDBRANCH   1  28
TORSDOF 22
ENDMDL
MODEL 2
REMARK VINA RESULT:     -10.7      1.893      2.320
REMARK SMILES Cc1ccccc1CSCC(=O)Nc1ccc(C)c(C(=O)OCCOCCOCCOC(=O)c2ccc(-c3c4nc(c(-c5c(F)cccc5F)c5ccc([nH]5)c(-c5c(F)cccc5F)c5nc(c(-c6c(F)cccc6F)c6ccc3[nH]6)C=C5)C=C4)cc2)c1
REMARK SMILES IDX 25 1 24 2 23 3 22 4 20 5 21 6 19 7 14 8 15 9 88 10 16 11
REMARK SMILES IDX 17 12 18 13 13 14 11 15 12 16 10 18 9 19 8 20 7 21 1 22 2 23
REMARK SMILES IDX 3 24 4 25 6 26 5 27 26 28 27 29 28 30 29 31 30 32 31 33
REMARK SMILES IDX 32 34 33 35 34 36 35 37 87 38 36 39 86 40 37 41 38 42 39 43
REMARK SMILES IDX 80 44 40 45 85 46 79 47 81 48 41 49 84 50 78 51 77 52 42 54
REMARK SMILES IDX 68 55 51 56 67 57 52 58 55 59 66 60 82 61 53 62 54 63 65 65
REMARK SMILES IDX 83 66 56 67 43 68 44 69 49 70 45 71 46 72 48 73 50 74 47 75
REMARK SMILES IDX 69 76 70 77 75 78 71 79 72 80 74 81 76 82 73 83 57 84 58 85
REMARK SMILES IDX 63 86 59 87 60 88 62 89 64 90 61 91
REMARK H PARENT 13 17 81 53 55 64
REMARK Flexibility Score: inf
ROOT
ATOM      1  O   UNL A   1      35.078  33.448  28.629  1.00  0.00    -0.376 OA
ENDROOT
BRANCH   1   2
ATOM      2  C   UNL A   1      34.435  32.178  28.452  1.00  0.00     0.202 C 
BRANCH   2   3
ATOM      3  C   UNL A   1      35.080  31.012  27.599  1.00  0.00     0.261 C 
BRANCH   3   4
ATOM      4  O   UNL A   1      34.322  29.756  27.402  1.00  0.00    -0.460 OA
BRANCH   4   5
ATOM      5  C   UNL A   1      33.519  29.403  26.327  1.00  0.00     0.338 C 
ATOM      6  O   UNL A   1      33.032  30.269  25.611  1.00  0.00    -0.246 OA
BRANCH   5   7
ATOM      7  C   UNL A   1      33.157  27.808  26.061  1.00  0.00     0.065 A 
ATOM      8  C   UNL A   1      33.427  25.544  24.852  1.00  0.00     0.042 A 
ATOM      9  C   UNL A   1      32.355  25.036  25.527  1.00  0.00     0.026 A 
ATOM     10  C   UNL A   1      33.792  26.864  25.183  1.00  0.00     0.042 A 
ATOM     11  C   UNL A   1      31.699  25.869  26.453  1.00  0.00     0.006 A 
ATOM     12  C   UNL A   1      32.075  27.231  26.718  1.00  0.00    -0.036 A 
ATOM     13  C   UNL A   1      31.370  27.945  27.826  1.00  0.00     0.045 C 
BRANCH   8  14
ATOM     14  N   UNL A   1      34.306  24.773  24.047  1.00  0.00    -0.325 N 
ATOM     15  C   UNL A   1      34.113  23.775  23.125  1.00  0.00     0.234 C 
ATOM     16  O   UNL A   1      35.110  23.139  22.753  1.00  0.00    -0.274 OA
ATOM     17  H   UNL A   1      35.255  25.002  24.179  1.00  0.00     0.169 HD
BRANCH  15  18
ATOM     18  C   UNL A   1      32.797  23.579  22.394  1.00  0.00     0.170 C 
BRANCH  18  19
ATOM     19  S   UNL A   1      32.265  21.869  22.227  1.00  0.00    -0.147 SA
BRANCH  19  20
ATOM     20  C   UNL A   1      32.499  21.317  23.954  1.00  0.00     0.105 C 
BRANCH  20  21
ATOM     21  C   UNL A   1      33.151  19.958  24.043  1.00  0.00    -0.035 A 
ATOM     22  C   UNL A   1      35.259  20.766  25.304  1.00  0.00     0.044 C 
ATOM     23  C   UNL A   1      34.404  19.717  24.642  1.00  0.00    -0.047 A 
ATOM     24  C   UNL A   1      34.922  18.405  24.630  1.00  0.00     0.004 A 
ATOM     25  C   UNL A   1      34.211  17.347  24.065  1.00  0.00     0.000 A 
ATOM     26  C   UNL A   1      32.433  18.861  23.514  1.00  0.00     0.005 A 
ATOM     27  C   UNL A   1      32.960  17.573  23.514  1.00  0.00     0.000 A 
ENDBRANCH  20  21
ENDBRANCH  19  20
ENDBRANCH  18  19
ENDBRANCH  15  18
ENDBRANCH   8  14
ENDBRANCH   5   7
ENDBRANCH   4   5
ENDBRANCH   3   4
ENDBRANCH   2   3
ENDBRANCH   1   2
BRANCH   1  28
ATOM     28  C   UNL A   1      34.357  34.635  28.334  1.00  0.00     0.188 C 
BRANCH  28  29
ATOM     29  C   UNL A   1      32.881  34.761  28.687  1.00  0.00     0.188 C 
BRANCH  29  30
ATOM     30  O   UNL A   1      32.571  36.107  29.020  1.00  0.00    -0.376 OA
BRANCH  30  31
ATOM     31  C   UNL A   1      33.213  36.582  30.200  1.00  0.00     0.202 C 
BRANCH  31  32
ATOM     32  C   UNL A   1      32.362  36.460  31.484  1.00  0.00     0.261 C 
BRANCH  32  33
ATOM     33  O   UNL A   1      32.772  35.304  32.258  1.00  0.00    -0.460 OA
BRANCH  33  34
ATOM     34  C   UNL A   1      33.848  35.443  33.104  1.00  0.00     0.338 C 
ATOM     35  O   UNL A   1      34.329  36.496  33.457  1.00  0.00    -0.246 OA
BRANCH  34  36
ATOM     36  C   UNL A   1      34.519  34.104  33.290  1.00  0.00     0.060 A 
ATOM     37  C   UNL A   1      35.386  33.770  34.341  1.00  0.00     0.016 A 
ATOM     38  C   UNL A   1      34.605  33.331  32.179  1.00  0.00     0.016 A 
ATOM     39  C   UNL A   1      36.482  32.837  34.154  1.00  0.00     0.010 A 
ATOM     40  C   UNL A   1      35.810  32.668  31.971  1.00  0.00     0.010 A 
ATOM     41  C   UNL A   1      36.834  32.338  32.898  1.00  0.00    -0.014 A 
BRANCH  41  42
ATOM     42  C   UNL A   1      38.247  31.616  32.506  1.00  0.00     0.031 A 
ATOM     43  C   UNL A   1      38.607  30.208  31.766  1.00  0.00     0.074 A 
ATOM     44  C   UNL A   1      39.320  32.432  32.537  1.00  0.00     0.049 A 
ATOM     45  N   UNL A   1      39.317  30.130  30.666  1.00  0.00    -0.248 NA
ATOM     46  C   UNL A   1      38.190  28.816  32.137  1.00  0.00     0.031 C 
ATOM     47  C   UNL A   1      40.608  32.298  31.867  1.00  0.00     0.029 A 
ATOM     48  N   UNL A   1      39.522  33.494  33.415  1.00  0.00    -0.354 N 
ATOM     49  C   UNL A   1      39.281  28.851  30.137  1.00  0.00     0.074 A 
ATOM     50  C   UNL A   1      38.453  28.087  31.041  1.00  0.00     0.031 C 
ATOM     51  C   UNL A   1      41.534  32.966  32.567  1.00  0.00     0.029 A 
ATOM     52  C   UNL A   1      40.887  33.425  33.774  1.00  0.00     0.049 A 
ATOM     53  H   UNL A   1      38.856  34.152  33.718  1.00  0.00     0.167 HD
ATOM     54  C   UNL A   1      40.333  28.300  29.464  1.00  0.00     0.037 A 
ATOM     55  C   UNL A   1      41.173  33.046  35.052  1.00  0.00     0.037 A 
ATOM     56  C   UNL A   1      41.570  28.716  30.082  1.00  0.00     0.049 A 
ATOM     57  C   UNL A   1      41.751  31.639  35.102  1.00  0.00     0.074 A 
ATOM     58  C   UNL A   1      42.476  29.742  29.932  1.00  0.00     0.029 A 
ATOM     59  N   UNL A   1      41.831  28.145  31.308  1.00  0.00    -0.354 N 
ATOM     60  N   UNL A   1      42.039  30.920  34.045  1.00  0.00    -0.248 NA
ATOM     61  C   UNL A   1      42.019  30.906  36.336  1.00  0.00     0.031 C 
ATOM     62  C   UNL A   1      43.113  29.913  31.209  1.00  0.00     0.029 A 
ATOM     63  C   UNL A   1      42.624  28.955  32.091  1.00  0.00     0.049 A 
ATOM     64  H   UNL A   1      41.492  27.266  31.590  1.00  0.00     0.167 HD
ATOM     65  C   UNL A   1      42.438  29.668  34.414  1.00  0.00     0.074 A 
ATOM     66  C   UNL A   1      42.421  29.711  35.867  1.00  0.00     0.031 C 
ATOM     67  C   UNL A   1      42.720  28.669  33.522  1.00  0.00     0.037 A 
BRANCH  54  68
ATOM     68  C   UNL A   1      40.200  27.273  28.363  1.00  0.00     0.057 A 
ATOM     69  C   UNL A   1      39.605  26.021  28.617  1.00  0.00     0.134 A 
ATOM     70  C   UNL A   1      40.782  27.397  27.085  1.00  0.00     0.134 A 
ATOM     71  F   UNL A   1      39.010  25.762  29.791  1.00  0.00    -0.206 F 
ATOM     72  C   UNL A   1      39.623  24.962  27.692  1.00  0.00     0.040 A 
ATOM     73  C   UNL A   1      40.796  26.348  26.147  1.00  0.00     0.040 A 
ATOM     74  F   UNL A   1      41.372  28.535  26.695  1.00  0.00    -0.206 F 
ATOM     75  C   UNL A   1      40.230  25.119  26.454  1.00  0.00     0.006 A 
ENDBRANCH  54  68
BRANCH  55  76
ATOM     76  C   UNL A   1      40.231  33.756  35.987  1.00  0.00     0.057 A 
ATOM     77  C   UNL A   1      39.238  32.945  36.599  1.00  0.00     0.134 A 
ATOM     78  C   UNL A   1      40.540  34.947  36.648  1.00  0.00     0.134 A 
ATOM     79  F   UNL A   1      38.881  31.781  36.029  1.00  0.00    -0.206 F 
ATOM     80  C   UNL A   1      38.757  33.188  37.889  1.00  0.00     0.040 A 
ATOM     81  C   UNL A   1      39.982  35.247  37.908  1.00  0.00     0.040 A 
ATOM     82  F   UNL A   1      41.513  35.750  36.194  1.00  0.00    -0.206 F 
ATOM     83  C   UNL A   1      39.155  34.331  38.562  1.00  0.00     0.006 A 
ENDBRANCH  55  76
BRANCH  67  84
ATOM     84  C   UNL A   1      43.098  27.296  34.004  1.00  0.00     0.057 A 
ATOM     85  C   UNL A   1      42.142  26.431  34.551  1.00  0.00     0.134 A 
ATOM     86  C   UNL A   1      44.427  26.831  34.020  1.00  0.00     0.134 A 
ATOM     87  F   UNL A   1      40.850  26.785  34.601  1.00  0.00    -0.206 F 
ATOM     88  C   UNL A   1      42.484  25.175  35.060  1.00  0.00     0.040 A 
ATOM     89  C   UNL A   1      44.792  25.611  34.591  1.00  0.00     0.040 A 
ATOM     90  F   UNL A   1      45.423  27.538  33.462  1.00  0.00    -0.206 F 
ATOM     91  C   UNL A   1      43.815  24.770  35.101  1.00  0.00     0.006 A 
ENDBRANCH  67  84
ENDBRANCH  41  42
ENDBRANCH  34  36
ENDBRANCH  33  34
ENDBRANCH  32  33
ENDBRANCH  31  32
ENDBRANCH  30  31
ENDBRANCH  29  30
ENDBRANCH  28  29
ENDBRANCH   1  28
TORSDOF 22
ENDMDL
MODEL 3
REMARK VINA RESULT:     -10.0      5.041     10.611
REMARK SMILES Cc1ccccc1CSCC(=O)Nc1ccc(C)c(C(=O)OCCOCCOCCOC(=O)c2ccc(-c3c4nc(c(-c5c(F)cccc5F)c5ccc([nH]5)c(-c5c(F)cccc5F)c5nc(c(-c6c(F)cccc6F)c6ccc3[nH]6)C=C5)C=C4)cc2)c1
REMARK SMILES IDX 25 1 24 2 23 3 22 4 20 5 21 6 19 7 14 8 15 9 88 10 16 11
REMARK SMILES IDX 17 12 18 13 13 14 11 15 12 16 10 18 9 19 8 20 7 21 1 22 2 23
REMARK SMILES IDX 3 24 4 25 6 26 5 27 26 28 27 29 28 30 29 31 30 32 31 33
REMARK SMILES IDX 32 34 33 35 34 36 35 37 87 38 36 39 86 40 37 41 38 42 39 43
REMARK SMILES IDX 80 44 40 45 85 46 79 47 81 48 41 49 84 50 78 51 77 52 42 54
REMARK SMILES IDX 68 55 51 56 67 57 52 58 55 59 66 60 82 61 53 62 54 63 65 65
REMARK SMILES IDX 83 66 56 67 43 68 44 69 49 70 45 71 46 72 48 73 50 74 47 75
REMARK SMILES IDX 69 76 70 77 75 78 71 79 72 80 74 81 76 82 73 83 57 84 58 85
REMARK SMILES IDX 63 86 59 87 60 88 62 89 64 90 61 91
REMARK H PARENT 13 17 81 53 55 64
REMARK Flexibility Score: inf
ROOT
ATOM      1  O   UNL A   1      41.865  21.588  27.795  1.00  0.00    -0.376 OA
ENDROOT
BRANCH   1   2
ATOM      2  C   UNL A   1      42.043  22.983  28.081  1.00  0.00     0.202 C 
BRANCH   2   3
ATOM      3  C   UNL A   1      41.690  24.116  27.034  1.00  0.00     0.261 C 
BRANCH   3   4
ATOM      4  O   UNL A   1      40.430  24.020  26.265  1.00  0.00    -0.460 OA
BRANCH   4   5
ATOM      5  C   UNL A   1      39.134  23.936  26.754  1.00  0.00     0.338 C 
ATOM      6  O   UNL A   1      38.882  24.301  27.896  1.00  0.00    -0.246 OA
BRANCH   5   7
ATOM      7  C   UNL A   1      37.942  23.270  25.815  1.00  0.00     0.065 A 
ATOM      8  C   UNL A   1      35.722  23.336  24.501  1.00  0.00     0.042 A 
ATOM      9  C   UNL A   1      35.785  21.988  24.294  1.00  0.00     0.026 A 
ATOM     10  C   UNL A   1      36.808  23.900  25.198  1.00  0.00     0.042 A 
ATOM     11  C   UNL A   1      36.890  21.288  24.813  1.00  0.00     0.006 A 
ATOM     12  C   UNL A   1      37.949  21.901  25.567  1.00  0.00    -0.036 A 
ATOM     13  C   UNL A   1      39.123  21.052  25.936  1.00  0.00     0.045 C 
BRANCH   8  14
ATOM     14  N   UNL A   1      34.788  24.201  23.873  1.00  0.00    -0.325 N 
ATOM     15  C   UNL A   1      33.418  24.286  23.891  1.00  0.00     0.234 C 
ATOM     16  O   UNL A   1      32.880  25.018  23.049  1.00  0.00    -0.274 OA
ATOM     17  H   UNL A   1      35.213  24.883  23.304  1.00  0.00     0.169 HD
BRANCH  15  18
ATOM     18  C   UNL A   1      32.576  23.710  25.015  1.00  0.00     0.170 C 
BRANCH  18  19
ATOM     19  S   UNL A   1      30.889  24.326  25.097  1.00  0.00    -0.147 SA
BRANCH  19  20
ATOM     20  C   UNL A   1      31.139  25.722  26.251  1.00  0.00     0.105 C 
BRANCH  20  21
ATOM     21  C   UNL A   1      31.075  27.063  25.560  1.00  0.00    -0.035 A 
ATOM     22  C   UNL A   1      32.490  28.326  27.318  1.00  0.00     0.044 C 
ATOM     23  C   UNL A   1      31.677  28.239  26.053  1.00  0.00    -0.047 A 
ATOM     24  C   UNL A   1      31.515  29.439  25.330  1.00  0.00     0.004 A 
ATOM     25  C   UNL A   1      30.800  29.478  24.134  1.00  0.00     0.000 A 
ATOM     26  C   UNL A   1      30.391  27.121  24.325  1.00  0.00     0.005 A 
ATOM     27  C   UNL A   1      30.245  28.314  23.624  1.00  0.00     0.000 A 
ENDBRANCH  20  21
ENDBRANCH  19  20
ENDBRANCH  18  19
ENDBRANCH  15  18
ENDBRANCH   8  14
ENDBRANCH   5   7
ENDBRANCH   4   5
ENDBRANCH   3   4
ENDBRANCH   2   3
ENDBRANCH   1   2
BRANCH   1  28
ATOM     28  C   UNL A   1      42.564  21.012  26.702  1.00  0.00     0.188 C 
BRANCH  28  29
ATOM     29  C   UNL A   1      42.332  19.561  26.304  1.00  0.00     0.188 C 
BRANCH  29  30
ATOM     30  O   UNL A   1      42.865  19.318  25.009  1.00  0.00    -0.376 OA
BRANCH  30  31
ATOM     31  C   UNL A   1      44.210  18.847  25.007  1.00  0.00     0.202 C 
BRANCH  31  32
ATOM     32  C   UNL A   1      45.105  19.473  23.914  1.00  0.00     0.261 C 
BRANCH  32  33
ATOM     33  O   UNL A   1      45.769  20.660  24.418  1.00  0.00    -0.460 OA
BRANCH  33  34
ATOM     34  C   UNL A   1      45.148  21.873  24.233  1.00  0.00     0.338 C 
ATOM     35  O   UNL A   1      44.422  22.154  23.305  1.00  0.00    -0.246 OA
BRANCH  34  36
ATOM     36  C   UNL A   1      45.729  22.888  25.187  1.00  0.00     0.060 A 
ATOM     37  C   UNL A   1      45.608  22.850  26.584  1.00  0.00     0.016 A 
ATOM     38  C   UNL A   1      46.029  24.096  24.648  1.00  0.00     0.016 A 
ATOM     39  C   UNL A   1      45.543  24.065  27.374  1.00  0.00     0.010 A 
ATOM     40  C   UNL A   1      45.690  25.216  25.399  1.00  0.00     0.010 A 
ATOM     41  C   UNL A   1      45.441  25.332  26.793  1.00  0.00    -0.014 A 
BRANCH  41  42
ATOM     42  C   UNL A   1      44.975  26.706  27.544  1.00  0.00     0.031 A 
ATOM     43  C   UNL A   1      43.590  27.565  27.529  1.00  0.00     0.074 A 
ATOM     44  C   UNL A   1      45.756  27.068  28.583  1.00  0.00     0.049 A 
ATOM     45  N   UNL A   1      42.887  27.822  28.607  1.00  0.00    -0.248 NA
ATOM     46  C   UNL A   1      42.859  28.153  26.359  1.00  0.00     0.031 C 
ATOM     47  C   UNL A   1      45.449  27.928  29.719  1.00  0.00     0.029 A 
ATOM     48  N   UNL A   1      47.132  26.878  28.685  1.00  0.00    -0.354 N 
ATOM     49  C   UNL A   1      41.657  28.369  28.283  1.00  0.00     0.074 A 
ATOM     50  C   UNL A   1      41.640  28.443  26.841  1.00  0.00     0.031 C 
ATOM     51  C   UNL A   1      46.587  28.463  30.180  1.00  0.00     0.029 A 
ATOM     52  C   UNL A   1      47.630  28.068  29.262  1.00  0.00     0.049 A 
ATOM     53  H   UNL A   1      47.646  26.084  28.414  1.00  0.00     0.167 HD
ATOM     54  C   UNL A   1      41.024  29.285  29.072  1.00  0.00     0.037 A 
ATOM     55  C   UNL A   1      48.367  28.886  28.459  1.00  0.00     0.037 A 
ATOM     56  C   UNL A   1      42.002  30.177  29.650  1.00  0.00     0.049 A 
ATOM     57  C   UNL A   1      47.600  30.146  28.089  1.00  0.00     0.074 A 
ATOM     58  C   UNL A   1      42.754  30.238  30.802  1.00  0.00     0.029 A 
ATOM     59  N   UNL A   1      42.571  31.070  28.768  1.00  0.00    -0.354 N 
ATOM     60  N   UNL A   1      46.421  30.461  28.566  1.00  0.00    -0.248 NA
ATOM     61  C   UNL A   1      48.070  31.139  27.127  1.00  0.00     0.031 C 
ATOM     62  C   UNL A   1      43.924  31.009  30.483  1.00  0.00     0.029 A 
ATOM     63  C   UNL A   1      43.834  31.447  29.167  1.00  0.00     0.049 A 
ATOM     64  H   UNL A   1      42.128  31.398  27.953  1.00  0.00     0.167 HD
ATOM     65  C   UNL A   1      45.949  31.592  27.965  1.00  0.00     0.074 A 
ATOM     66  C   UNL A   1      47.028  31.990  27.075  1.00  0.00     0.031 C 
ATOM     67  C   UNL A   1      44.705  32.113  28.198  1.00  0.00     0.037 A 
BRANCH  54  68
ATOM     68  C   UNL A   1      39.524  29.442  29.168  1.00  0.00     0.057 A 
ATOM     69  C   UNL A   1      38.868  29.325  30.410  1.00  0.00     0.134 A 
ATOM     70  C   UNL A   1      38.662  29.544  28.057  1.00  0.00     0.134 A 
ATOM     71  F   UNL A   1      39.562  29.222  31.553  1.00  0.00    -0.206 F 
ATOM     72  C   UNL A   1      37.469  29.272  30.536  1.00  0.00     0.040 A 
ATOM     73  C   UNL A   1      37.260  29.504  28.171  1.00  0.00     0.040 A 
ATOM     74  F   UNL A   1      39.142  29.676  26.813  1.00  0.00    -0.206 F 
ATOM     75  C   UNL A   1      36.657  29.350  29.413  1.00  0.00     0.006 A 
ENDBRANCH  54  68
BRANCH  55  76
ATOM     76  C   UNL A   1      49.317  28.040  27.653  1.00  0.00     0.057 A 
ATOM     77  C   UNL A   1      48.984  27.871  26.282  1.00  0.00     0.134 A 
ATOM     78  C   UNL A   1      50.659  27.844  27.985  1.00  0.00     0.134 A 
ATOM     79  F   UNL A   1      47.715  28.042  25.877  1.00  0.00    -0.206 F 
ATOM     80  C   UNL A   1      49.953  27.745  25.283  1.00  0.00     0.040 A 
ATOM     81  C   UNL A   1      51.631  27.618  26.988  1.00  0.00     0.040 A 
ATOM     82  F   UNL A   1      51.092  28.048  29.237  1.00  0.00    -0.206 F 
ATOM     83  C   UNL A   1      51.290  27.649  25.634  1.00  0.00     0.006 A 
ENDBRANCH  55  76
BRANCH  67  84
ATOM     84  C   UNL A   1      44.232  33.330  27.454  1.00  0.00     0.057 A 
ATOM     85  C   UNL A   1      43.955  34.527  28.125  1.00  0.00     0.134 A 
ATOM     86  C   UNL A   1      43.953  33.321  26.074  1.00  0.00     0.134 A 
ATOM     87  F   UNL A   1      44.167  34.636  29.445  1.00  0.00    -0.206 F 
ATOM     88  C   UNL A   1      43.455  35.651  27.461  1.00  0.00     0.040 A 
ATOM     89  C   UNL A   1      43.386  34.412  25.413  1.00  0.00     0.040 A 
ATOM     90  F   UNL A   1      44.241  32.257  25.308  1.00  0.00    -0.206 F 
ATOM     91  C   UNL A   1      43.148  35.589  26.104  1.00  0.00     0.006 A 
ENDBRANCH  67  84
ENDBRANCH  41  42
ENDBRANCH  34  36
ENDBRANCH  33  34
ENDBRANCH  32  33
ENDBRANCH  31  32
ENDBRANCH  30  31
ENDBRANCH  29  30
ENDBRANCH  28  29
ENDBRANCH   1  28
TORSDOF 22
ENDMDL
