MODEL 1
REMARK VINA RESULT:     -10.1      0.000      0.000
REMARK SMILES COc1ccccc1C[C@@H](C(=O)OCCOCCOCCOC(=O)c1ccc(-c2c3nc(c(-c4c(F)cccc4F)c4ccc([nH]4)c(-c4c(F)cccc4F)c4nc(c(-c5c(F)cccc5F)c5ccc2[nH]5)C=C4)C=C3)cc1)[C@@H]1C[C@H](C)C[C@H](C)C1
REMARK SMILES IDX 17 1 16 2 15 3 14 4 13 5 11 6 12 7 10 8 9 9 8 10 3 11 4 12
REMARK SMILES IDX 5 13 7 14 6 15 2 16 1 17 79 18 86 19 80 20 84 21 81 22 85 23
REMARK SMILES IDX 83 24 82 25 18 26 19 27 20 28 21 29 22 30 23 31 24 32 25 33
REMARK SMILES IDX 26 34 78 35 27 36 77 37 28 38 29 39 30 40 71 41 31 42 76 43
REMARK SMILES IDX 70 44 72 45 32 46 75 47 69 48 68 49 33 51 59 52 42 53 58 54
REMARK SMILES IDX 43 55 46 56 57 57 73 58 44 59 45 60 56 62 74 63 47 64 34 65
REMARK SMILES IDX 35 66 40 67 36 68 37 69 39 70 41 71 38 72 60 73 61 74 66 75
REMARK SMILES IDX 62 76 63 77 65 78 67 79 64 80 48 81 49 82 54 83 50 84 51 85
REMARK SMILES IDX 53 86 55 87 52 88
REMARK H PARENT 72 50 46 61
REMARK Flexibility Score: inf
ROOT
ATOM      1  C   UNL A   1      35.148  31.981  28.635  1.00  0.00     0.188 C 
ENDROOT
BRANCH   1   2
ATOM      2  O   UNL A   1      34.520  31.877  27.366  1.00  0.00    -0.376 OA
BRANCH   2   3
ATOM      3  C   UNL A   1      33.654  30.772  27.163  1.00  0.00     0.202 C 
BRANCH   3   4
ATOM      4  C   UNL A   1      34.439  29.471  27.414  1.00  0.00     0.261 C 
BRANCH   4   5
ATOM      5  O   UNL A   1      34.425  28.484  26.350  1.00  0.00    -0.463 OA
BRANCH   5   6
ATOM      6  C   UNL A   1      33.389  27.624  26.353  1.00  0.00     0.309 C 
ATOM      7  O   UNL A   1      32.562  27.653  27.253  1.00  0.00    -0.252 OA
BRANCH   6   8
ATOM      8  C   UNL A   1      33.390  26.607  25.213  1.00  0.00     0.107 C 
BRANCH   8   9
ATOM      9  C   UNL A   1      34.458  25.451  25.265  1.00  0.00     0.055 C 
BRANCH   9  10
ATOM     10  C   UNL A   1      34.104  23.970  25.287  1.00  0.00    -0.005 A 
ATOM     11  C   UNL A   1      34.507  23.090  24.264  1.00  0.00     0.122 A 
ATOM     12  C   UNL A   1      34.137  21.735  24.264  1.00  0.00     0.047 A 
ATOM     13  C   UNL A   1      33.428  21.202  25.335  1.00  0.00     0.004 A 
ATOM     14  C   UNL A   1      33.486  23.368  26.391  1.00  0.00     0.007 A 
ATOM     15  C   UNL A   1      33.133  22.015  26.416  1.00  0.00     0.001 A 
BRANCH  11  16
ATOM     16  O   UNL A   1      35.292  23.511  23.219  1.00  0.00    -0.496 OA
ATOM     17  C   UNL A   1      36.612  22.966  23.347  1.00  0.00     0.278 C 
ENDBRANCH  11  16
ENDBRANCH   9  10
ENDBRANCH   8   9
BRANCH   8  18
ATOM     18  C   UNL A   1      33.556  27.330  23.796  1.00  0.00     0.004 C 
ATOM     19  C   UNL A   1      33.502  26.339  22.612  1.00  0.00     0.007 C 
ATOM     20  C   UNL A   1      32.681  28.541  23.387  1.00  0.00     0.007 C 
ATOM     21  C   UNL A   1      32.089  25.949  22.145  1.00  0.00    -0.014 C 
ATOM     22  C   UNL A   1      31.215  28.233  23.055  1.00  0.00    -0.014 C 
ATOM     23  C   UNL A   1      31.468  24.836  22.987  1.00  0.00     0.007 C 
ATOM     24  C   UNL A   1      31.147  27.154  21.969  1.00  0.00     0.006 C 
ATOM     25  C   UNL A   1      30.289  27.923  24.232  1.00  0.00     0.007 C 
ENDBRANCH   8  18
ENDBRANCH   6   8
ENDBRANCH   5   6
ENDBRANCH   4   5
ENDBRANCH   3   4
ENDBRANCH   2   3
ENDBRANCH   1   2
BRANCH   1  26
ATOM     26  C   UNL A   1      34.911  33.382  29.213  1.00  0.00     0.188 C 
BRANCH  26  27
ATOM     27  O   UNL A   1      33.955  33.556  30.244  1.00  0.00    -0.376 OA
BRANCH  27  28
ATOM     28  C   UNL A   1      34.385  34.191  31.433  1.00  0.00     0.202 C 
BRANCH  28  29
ATOM     29  C   UNL A   1      35.018  33.302  32.513  1.00  0.00     0.261 C 
BRANCH  29  30
ATOM     30  O   UNL A   1      36.452  33.404  32.664  1.00  0.00    -0.460 OA
BRANCH  30  31
ATOM     31  C   UNL A   1      37.050  32.398  33.343  1.00  0.00     0.338 C 
ATOM     32  O   UNL A   1      36.853  32.081  34.515  1.00  0.00    -0.246 OA
BRANCH  31  33
ATOM     33  C   UNL A   1      37.912  31.587  32.456  1.00  0.00     0.060 A 
ATOM     34  C   UNL A   1      38.976  30.854  33.008  1.00  0.00     0.016 A 
ATOM     35  C   UNL A   1      37.774  31.674  31.071  1.00  0.00     0.016 A 
ATOM     36  C   UNL A   1      39.920  30.238  32.182  1.00  0.00     0.010 A 
ATOM     37  C   UNL A   1      38.737  31.080  30.243  1.00  0.00     0.010 A 
ATOM     38  C   UNL A   1      39.836  30.394  30.795  1.00  0.00    -0.014 A 
BRANCH  38  39
ATOM     39  C   UNL A   1      40.993  30.021  29.942  1.00  0.00     0.031 A 
ATOM     40  C   UNL A   1      41.042  28.638  29.347  1.00  0.00     0.074 A 
ATOM     41  C   UNL A   1      41.977  30.896  29.670  1.00  0.00     0.049 A 
ATOM     42  N   UNL A   1      41.970  28.073  28.617  1.00  0.00    -0.248 NA
ATOM     43  C   UNL A   1      39.880  27.778  29.616  1.00  0.00     0.031 C 
ATOM     44  C   UNL A   1      42.027  32.283  30.126  1.00  0.00     0.029 A 
ATOM     45  N   UNL A   1      43.131  30.735  28.944  1.00  0.00    -0.354 N 
ATOM     46  C   UNL A   1      41.512  26.786  28.353  1.00  0.00     0.074 A 
ATOM     47  C   UNL A   1      40.240  26.647  29.028  1.00  0.00     0.031 C 
ATOM     48  C   UNL A   1      43.161  32.847  29.673  1.00  0.00     0.029 A 
ATOM     49  C   UNL A   1      43.930  31.851  28.927  1.00  0.00     0.049 A 
ATOM     50  H   UNL A   1      43.364  29.898  28.478  1.00  0.00     0.167 HD
ATOM     51  C   UNL A   1      42.094  25.810  27.614  1.00  0.00     0.037 A 
ATOM     52  C   UNL A   1      45.149  32.040  28.387  1.00  0.00     0.037 A 
ATOM     53  C   UNL A   1      43.367  25.942  26.952  1.00  0.00     0.049 A 
ATOM     54  C   UNL A   1      45.823  30.913  27.649  1.00  0.00     0.074 A 
ATOM     55  C   UNL A   1      44.036  25.018  26.168  1.00  0.00     0.029 A 
ATOM     56  N   UNL A   1      44.174  27.070  27.008  1.00  0.00    -0.354 N 
ATOM     57  N   UNL A   1      45.380  29.705  27.394  1.00  0.00    -0.248 NA
ATOM     58  C   UNL A   1      47.168  31.182  27.121  1.00  0.00     0.031 C 
ATOM     59  C   UNL A   1      45.273  25.563  25.804  1.00  0.00     0.029 A 
ATOM     60  C   UNL A   1      45.348  26.852  26.304  1.00  0.00     0.049 A 
ATOM     61  H   UNL A   1      43.946  27.904  27.480  1.00  0.00     0.167 HD
ATOM     62  C   UNL A   1      46.378  29.079  26.655  1.00  0.00     0.074 A 
ATOM     63  C   UNL A   1      47.441  30.049  26.488  1.00  0.00     0.031 C 
ATOM     64  C   UNL A   1      46.410  27.818  26.155  1.00  0.00     0.037 A 
BRANCH  51  65
ATOM     65  C   UNL A   1      41.369  24.495  27.530  1.00  0.00     0.057 A 
ATOM     66  C   UNL A   1      41.754  23.379  28.285  1.00  0.00     0.134 A 
ATOM     67  C   UNL A   1      40.280  24.338  26.663  1.00  0.00     0.134 A 
ATOM     68  F   UNL A   1      42.798  23.455  29.125  1.00  0.00    -0.206 F 
ATOM     69  C   UNL A   1      41.114  22.146  28.148  1.00  0.00     0.040 A 
ATOM     70  C   UNL A   1      39.610  23.119  26.542  1.00  0.00     0.040 A 
ATOM     71  F   UNL A   1      39.850  25.364  25.914  1.00  0.00    -0.206 F 
ATOM     72  C   UNL A   1      40.036  22.014  27.276  1.00  0.00     0.006 A 
ENDBRANCH  51  65
BRANCH  52  73
ATOM     73  C   UNL A   1      45.817  33.361  28.517  1.00  0.00     0.057 A 
ATOM     74  C   UNL A   1      45.524  34.405  27.633  1.00  0.00     0.134 A 
ATOM     75  C   UNL A   1      46.763  33.609  29.519  1.00  0.00     0.134 A 
ATOM     76  F   UNL A   1      44.650  34.219  26.634  1.00  0.00    -0.206 F 
ATOM     77  C   UNL A   1      46.151  35.648  27.737  1.00  0.00     0.040 A 
ATOM     78  C   UNL A   1      47.379  34.854  29.651  1.00  0.00     0.040 A 
ATOM     79  F   UNL A   1      47.091  32.646  30.394  1.00  0.00    -0.206 F 
ATOM     80  C   UNL A   1      47.075  35.878  28.755  1.00  0.00     0.006 A 
ENDBRANCH  52  73
BRANCH  64  81
ATOM     81  C   UNL A   1      47.623  27.427  25.356  1.00  0.00     0.057 A 
ATOM     82  C   UNL A   1      47.697  27.618  23.969  1.00  0.00     0.134 A 
ATOM     83  C   UNL A   1      48.736  26.851  25.983  1.00  0.00     0.134 A 
ATOM     84  F   UNL A   1      46.663  28.153  23.301  1.00  0.00    -0.206 F 
ATOM     85  C   UNL A   1      48.812  27.214  23.232  1.00  0.00     0.040 A 
ATOM     86  C   UNL A   1      49.871  26.474  25.262  1.00  0.00     0.040 A 
ATOM     87  F   UNL A   1      48.743  26.649  27.309  1.00  0.00    -0.206 F 
ATOM     88  C   UNL A   1      49.906  26.643  23.880  1.00  0.00     0.006 A 
ENDBRANCH  64  81
ENDBRANCH  38  39
ENDBRANCH  31  33
ENDBRANCH  30  31
ENDBRANCH  29  30
ENDBRANCH  28  29
ENDBRANCH  27  28
ENDBRANCH  26  27
ENDBRANCH   1  26
TORSDOF 21
ENDMDL
MODEL 2
REMARK VINA RESULT:     -10.1      4.816      9.504
REMARK SMILES COc1ccccc1C[C@@H](C(=O)OCCOCCOCCOC(=O)c1ccc(-c2c3nc(c(-c4c(F)cccc4F)c4ccc([nH]4)c(-c4c(F)cccc4F)c4nc(c(-c5c(F)cccc5F)c5ccc2[nH]5)C=C4)C=C3)cc1)[C@@H]1C[C@H](C)C[C@H](C)C1
REMARK SMILES IDX 17 1 16 2 15 3 14 4 13 5 11 6 12 7 10 8 9 9 8 10 3 11 4 12
REMARK SMILES IDX 5 13 7 14 6 15 2 16 1 17 79 18 86 19 80 20 84 21 81 22 85 23
REMARK SMILES IDX 83 24 82 25 18 26 19 27 20 28 21 29 22 30 23 31 24 32 25 33
REMARK SMILES IDX 26 34 78 35 27 36 77 37 28 38 29 39 30 40 71 41 31 42 76 43
REMARK SMILES IDX 70 44 72 45 32 46 75 47 69 48 68 49 33 51 59 52 42 53 58 54
REMARK SMILES IDX 43 55 46 56 57 57 73 58 44 59 45 60 56 62 74 63 47 64 34 65
REMARK SMILES IDX 35 66 40 67 36 68 37 69 39 70 41 71 38 72 60 73 61 74 66 75
REMARK SMILES IDX 62 76 63 77 65 78 67 79 64 80 48 81 49 82 54 83 50 84 51 85
REMARK SMILES IDX 53 86 55 87 52 88
REMARK H PARENT 72 50 46 61
REMARK Flexibility Score: inf
ROOT
ATOM      1  C   UNL A   1      37.631  21.356  24.977  1.00  0.00     0.188 C 
ENDROOT
BRANCH   1   2
ATOM      2  O   UNL A   1      36.802  22.505  24.868  1.00  0.00    -0.376 OA
BRANCH   2   3
ATOM      3  C   UNL A   1      35.970  22.595  23.724  1.00  0.00     0.202 C 
BRANCH   3   4
ATOM      4  C   UNL A   1      35.046  23.820  23.876  1.00  0.00     0.261 C 
BRANCH   4   5
ATOM      5  O   UNL A   1      34.660  24.501  22.654  1.00  0.00    -0.463 OA
BRANCH   5   6
ATOM      6  C   UNL A   1      33.388  24.322  22.253  1.00  0.00     0.309 C 
ATOM      7  O   UNL A   1      33.127  24.167  21.069  1.00  0.00    -0.252 OA
BRANCH   6   8
ATOM      8  C   UNL A   1      32.342  24.404  23.366  1.00  0.00     0.107 C 
BRANCH   8   9
ATOM      9  C   UNL A   1      31.544  23.093  23.716  1.00  0.00     0.055 C 
BRANCH   9  10
ATOM     10  C   UNL A   1      32.203  21.780  24.119  1.00  0.00    -0.005 A 
ATOM     11  C   UNL A   1      32.738  21.575  25.405  1.00  0.00     0.122 A 
ATOM     12  C   UNL A   1      33.388  20.381  25.756  1.00  0.00     0.047 A 
ATOM     13  C   UNL A   1      33.443  19.322  24.857  1.00  0.00     0.004 A 
ATOM     14  C   UNL A   1      32.189  20.653  23.286  1.00  0.00     0.007 A 
ATOM     15  C   UNL A   1      32.810  19.449  23.631  1.00  0.00     0.001 A 
BRANCH  11  16
ATOM     16  O   UNL A   1      32.640  22.532  26.387  1.00  0.00    -0.496 OA
ATOM     17  C   UNL A   1      33.468  22.176  27.501  1.00  0.00     0.278 C 
ENDBRANCH  11  16
ENDBRANCH   9  10
ENDBRANCH   8   9
BRANCH   8  18
ATOM     18  C   UNL A   1      31.260  25.539  23.057  1.00  0.00     0.004 C 
ATOM     19  C   UNL A   1      30.249  25.727  24.210  1.00  0.00     0.007 C 
ATOM     20  C   UNL A   1      31.672  26.962  22.606  1.00  0.00     0.007 C 
ATOM     21  C   UNL A   1      30.727  26.625  25.364  1.00  0.00    -0.014 C 
ATOM     22  C   UNL A   1      32.298  27.857  23.684  1.00  0.00    -0.014 C 
ATOM     23  C   UNL A   1      31.602  25.885  26.373  1.00  0.00     0.007 C 
ATOM     24  C   UNL A   1      31.358  27.947  24.891  1.00  0.00     0.006 C 
ATOM     25  C   UNL A   1      33.736  27.540  24.097  1.00  0.00     0.007 C 
ENDBRANCH   8  18
ENDBRANCH   6   8
ENDBRANCH   5   6
ENDBRANCH   4   5
ENDBRANCH   3   4
ENDBRANCH   2   3
ENDBRANCH   1   2
BRANCH   1  26
ATOM     26  C   UNL A   1      38.881  21.699  25.797  1.00  0.00     0.188 C 
BRANCH  26  27
ATOM     27  O   UNL A   1      39.785  20.668  26.152  1.00  0.00    -0.376 OA
BRANCH  27  28
ATOM     28  C   UNL A   1      41.016  21.051  26.735  1.00  0.00     0.202 C 
BRANCH  28  29
ATOM     29  C   UNL A   1      42.119  21.539  25.785  1.00  0.00     0.261 C 
BRANCH  29  30
ATOM     30  O   UNL A   1      43.103  22.431  26.353  1.00  0.00    -0.460 OA
BRANCH  30  31
ATOM     31  C   UNL A   1      43.304  23.593  25.691  1.00  0.00     0.338 C 
ATOM     32  O   UNL A   1      43.835  23.731  24.589  1.00  0.00    -0.246 OA
BRANCH  31  33
ATOM     33  C   UNL A   1      42.672  24.731  26.393  1.00  0.00     0.060 A 
ATOM     34  C   UNL A   1      43.374  25.941  26.521  1.00  0.00     0.016 A 
ATOM     35  C   UNL A   1      41.460  24.557  27.061  1.00  0.00     0.016 A 
ATOM     36  C   UNL A   1      42.887  26.962  27.340  1.00  0.00     0.010 A 
ATOM     37  C   UNL A   1      40.987  25.571  27.905  1.00  0.00     0.010 A 
ATOM     38  C   UNL A   1      41.717  26.761  28.080  1.00  0.00    -0.014 A 
BRANCH  38  39
ATOM     39  C   UNL A   1      41.373  27.699  29.180  1.00  0.00     0.031 A 
ATOM     40  C   UNL A   1      42.179  27.655  30.452  1.00  0.00     0.074 A 
ATOM     41  C   UNL A   1      40.381  28.598  29.054  1.00  0.00     0.049 A 
ATOM     42  N   UNL A   1      42.033  28.336  31.560  1.00  0.00    -0.248 NA
ATOM     43  C   UNL A   1      43.305  26.709  30.471  1.00  0.00     0.031 C 
ATOM     44  C   UNL A   1      39.563  28.793  27.860  1.00  0.00     0.029 A 
ATOM     45  N   UNL A   1      39.893  29.512  29.954  1.00  0.00    -0.354 N 
ATOM     46  C   UNL A   1      43.037  27.891  32.414  1.00  0.00     0.074 A 
ATOM     47  C   UNL A   1      43.763  26.859  31.704  1.00  0.00     0.031 C 
ATOM     48  C   UNL A   1      38.666  29.765  28.103  1.00  0.00     0.029 A 
ATOM     49  C   UNL A   1      38.826  30.234  29.480  1.00  0.00     0.049 A 
ATOM     50  H   UNL A   1      40.272  29.639  30.854  1.00  0.00     0.167 HD
ATOM     51  C   UNL A   1      43.331  28.304  33.670  1.00  0.00     0.037 A 
ATOM     52  C   UNL A   1      38.056  31.153  30.093  1.00  0.00     0.037 A 
ATOM     53  C   UNL A   1      42.601  29.321  34.383  1.00  0.00     0.049 A 
ATOM     54  C   UNL A   1      38.340  31.531  31.523  1.00  0.00     0.074 A 
ATOM     55  C   UNL A   1      42.828  29.820  35.654  1.00  0.00     0.029 A 
ATOM     56  N   UNL A   1      41.488  29.987  33.890  1.00  0.00    -0.354 N 
ATOM     57  N   UNL A   1      39.296  31.115  32.319  1.00  0.00    -0.248 NA
ATOM     58  C   UNL A   1      37.434  32.512  32.138  1.00  0.00     0.031 C 
ATOM     59  C   UNL A   1      41.817  30.741  35.953  1.00  0.00     0.029 A 
ATOM     60  C   UNL A   1      40.997  30.866  34.844  1.00  0.00     0.049 A 
ATOM     61  H   UNL A   1      41.103  29.855  32.993  1.00  0.00     0.167 HD
ATOM     62  C   UNL A   1      39.124  31.801  33.516  1.00  0.00     0.074 A 
ATOM     63  C   UNL A   1      37.982  32.673  33.334  1.00  0.00     0.031 C 
ATOM     64  C   UNL A   1      39.849  31.721  34.660  1.00  0.00     0.037 A 
BRANCH  51  65
ATOM     65  C   UNL A   1      44.470  27.609  34.366  1.00  0.00     0.057 A 
ATOM     66  C   UNL A   1      45.784  28.093  34.315  1.00  0.00     0.134 A 
ATOM     67  C   UNL A   1      44.249  26.426  35.082  1.00  0.00     0.134 A 
ATOM     68  F   UNL A   1      46.070  29.213  33.635  1.00  0.00    -0.206 F 
ATOM     69  C   UNL A   1      46.842  27.402  34.909  1.00  0.00     0.040 A 
ATOM     70  C   UNL A   1      45.293  25.743  35.710  1.00  0.00     0.040 A 
ATOM     71  F   UNL A   1      43.016  25.908  35.181  1.00  0.00    -0.206 F 
ATOM     72  C   UNL A   1      46.597  26.225  35.612  1.00  0.00     0.006 A 
ENDBRANCH  51  65
BRANCH  52  73
ATOM     73  C   UNL A   1      36.938  31.793  29.352  1.00  0.00     0.057 A 
ATOM     74  C   UNL A   1      37.093  33.053  28.765  1.00  0.00     0.134 A 
ATOM     75  C   UNL A   1      35.693  31.166  29.219  1.00  0.00     0.134 A 
ATOM     76  F   UNL A   1      38.251  33.717  28.884  1.00  0.00    -0.206 F 
ATOM     77  C   UNL A   1      36.048  33.670  28.074  1.00  0.00     0.040 A 
ATOM     78  C   UNL A   1      34.649  31.759  28.509  1.00  0.00     0.040 A 
ATOM     79  F   UNL A   1      35.481  29.959  29.764  1.00  0.00    -0.206 F 
ATOM     80  C   UNL A   1      34.824  33.018  27.937  1.00  0.00     0.006 A 
ENDBRANCH  52  73
BRANCH  64  81
ATOM     81  C   UNL A   1      39.443  32.622  35.795  1.00  0.00     0.057 A 
ATOM     82  C   UNL A   1      38.487  32.238  36.746  1.00  0.00     0.134 A 
ATOM     83  C   UNL A   1      40.017  33.892  35.940  1.00  0.00     0.134 A 
ATOM     84  F   UNL A   1      37.887  31.040  36.663  1.00  0.00    -0.206 F 
ATOM     85  C   UNL A   1      38.088  33.098  37.772  1.00  0.00     0.040 A 
ATOM     86  C   UNL A   1      39.651  34.747  36.981  1.00  0.00     0.040 A 
ATOM     87  F   UNL A   1      40.947  34.323  35.075  1.00  0.00    -0.206 F 
ATOM     88  C   UNL A   1      38.674  34.356  37.894  1.00  0.00     0.006 A 
ENDBRANCH  64  81
ENDBRANCH  38  39
ENDBRANCH  31  33
ENDBRANCH  30  31
ENDBRANCH  29  30
ENDBRANCH  28  29
ENDBRANCH  27  28
ENDBRANCH  26  27
ENDBRANCH   1  26
TORSDOF 21
ENDMDL
MODEL 3
REMARK VINA RESULT:      -9.9      4.120      8.169
REMARK SMILES COc1ccccc1C[C@@H](C(=O)OCCOCCOCCOC(=O)c1ccc(-c2c3nc(c(-c4c(F)cccc4F)c4ccc([nH]4)c(-c4c(F)cccc4F)c4nc(c(-c5c(F)cccc5F)c5ccc2[nH]5)C=C4)C=C3)cc1)[C@@H]1C[C@H](C)C[C@H](C)C1
REMARK SMILES IDX 17 1 16 2 15 3 14 4 13 5 11 6 12 7 10 8 9 9 8 10 3 11 4 12
REMARK SMILES IDX 5 13 7 14 6 15 2 16 1 17 79 18 86 19 80 20 84 21 81 22 85 23
REMARK SMILES IDX 83 24 82 25 18 26 19 27 20 28 21 29 22 30 23 31 24 32 25 33
REMARK SMILES IDX 26 34 78 35 27 36 77 37 28 38 29 39 30 40 71 41 31 42 76 43
REMARK SMILES IDX 70 44 72 45 32 46 75 47 69 48 68 49 33 51 59 52 42 53 58 54
REMARK SMILES IDX 43 55 46 56 57 57 73 58 44 59 45 60 56 62 74 63 47 64 34 65
REMARK SMILES IDX 35 66 40 67 36 68 37 69 39 70 41 71 38 72 60 73 61 74 66 75
REMARK SMILES IDX 62 76 63 77 65 78 67 79 64 80 48 81 49 82 54 83 50 84 51 85
REMARK SMILES IDX 53 86 55 87 52 88
REMARK H PARENT 72 50 46 61
REMARK Flexibility Score: inf
ROOT
ATOM      1  C   UNL A   1      30.301  29.643  24.081  1.00  0.00     0.188 C 
ENDROOT
BRANCH   1   2
ATOM      2  O   UNL A   1      30.206  28.247  23.836  1.00  0.00    -0.376 OA
BRANCH   2   3
ATOM      3  C   UNL A   1      30.274  27.822  22.485  1.00  0.00     0.202 C 
BRANCH   3   4
ATOM      4  C   UNL A   1      31.676  27.241  22.216  1.00  0.00     0.261 C 
BRANCH   4   5
ATOM      5  O   UNL A   1      31.929  25.897  22.701  1.00  0.00    -0.463 OA
BRANCH   5   6
ATOM      6  C   UNL A   1      33.217  25.507  22.719  1.00  0.00     0.309 C 
ATOM      7  O   UNL A   1      33.861  25.449  21.682  1.00  0.00    -0.252 OA
BRANCH   6   8
ATOM      8  C   UNL A   1      33.748  25.091  24.091  1.00  0.00     0.107 C 
BRANCH   8   9
ATOM      9  C   UNL A   1      34.164  26.234  25.090  1.00  0.00     0.055 C 
BRANCH   9  10
ATOM     10  C   UNL A   1      33.206  26.890  26.076  1.00  0.00    -0.005 A 
ATOM     11  C   UNL A   1      33.584  27.995  26.863  1.00  0.00     0.122 A 
ATOM     12  C   UNL A   1      32.713  28.566  27.806  1.00  0.00     0.047 A 
ATOM     13  C   UNL A   1      31.407  28.103  27.923  1.00  0.00     0.004 A 
ATOM     14  C   UNL A   1      31.855  26.529  26.153  1.00  0.00     0.007 A 
ATOM     15  C   UNL A   1      30.968  27.104  27.069  1.00  0.00     0.001 A 
BRANCH  11  16
ATOM     16  O   UNL A   1      34.822  28.577  26.741  1.00  0.00    -0.496 OA
ATOM     17  C   UNL A   1      34.849  29.823  27.450  1.00  0.00     0.278 C 
ENDBRANCH  11  16
ENDBRANCH   9  10
ENDBRANCH   8   9
BRANCH   8  18
ATOM     18  C   UNL A   1      35.006  24.115  23.950  1.00  0.00     0.004 C 
ATOM     19  C   UNL A   1      35.716  23.861  25.298  1.00  0.00     0.007 C 
ATOM     20  C   UNL A   1      34.898  22.736  23.252  1.00  0.00     0.007 C 
ATOM     21  C   UNL A   1      35.084  22.770  26.180  1.00  0.00    -0.014 C 
ATOM     22  C   UNL A   1      34.142  21.646  24.022  1.00  0.00    -0.014 C 
ATOM     23  C   UNL A   1      33.902  23.279  27.003  1.00  0.00     0.007 C 
ATOM     24  C   UNL A   1      34.759  21.475  25.415  1.00  0.00     0.006 C 
ATOM     25  C   UNL A   1      32.618  21.769  24.079  1.00  0.00     0.007 C 
ENDBRANCH   8  18
ENDBRANCH   6   8
ENDBRANCH   5   6
ENDBRANCH   4   5
ENDBRANCH   3   4
ENDBRANCH   2   3
ENDBRANCH   1   2
BRANCH   1  26
ATOM     26  C   UNL A   1      31.721  29.987  24.548  1.00  0.00     0.188 C 
BRANCH  26  27
ATOM     27  O   UNL A   1      31.905  30.644  25.790  1.00  0.00    -0.376 OA
BRANCH  27  28
ATOM     28  C   UNL A   1      31.008  31.689  26.114  1.00  0.00     0.202 C 
BRANCH  28  29
ATOM     29  C   UNL A   1      31.616  32.995  26.647  1.00  0.00     0.261 C 
BRANCH  29  30
ATOM     30  O   UNL A   1      32.885  32.876  27.328  1.00  0.00    -0.460 OA
BRANCH  30  31
ATOM     31  C   UNL A   1      33.201  33.883  28.175  1.00  0.00     0.338 C 
ATOM     32  O   UNL A   1      32.555  34.913  28.369  1.00  0.00    -0.246 OA
BRANCH  31  33
ATOM     33  C   UNL A   1      34.390  33.551  28.989  1.00  0.00     0.060 A 
ATOM     34  C   UNL A   1      35.671  33.835  28.489  1.00  0.00     0.016 A 
ATOM     35  C   UNL A   1      34.251  32.817  30.167  1.00  0.00     0.016 A 
ATOM     36  C   UNL A   1      36.811  33.360  29.142  1.00  0.00     0.010 A 
ATOM     37  C   UNL A   1      35.394  32.317  30.806  1.00  0.00     0.010 A 
ATOM     38  C   UNL A   1      36.677  32.551  30.275  1.00  0.00    -0.014 A 
BRANCH  38  39
ATOM     39  C   UNL A   1      37.849  31.790  30.778  1.00  0.00     0.031 A 
ATOM     40  C   UNL A   1      38.415  32.137  32.130  1.00  0.00     0.074 A 
ATOM     41  C   UNL A   1      38.393  30.786  30.069  1.00  0.00     0.049 A 
ATOM     42  N   UNL A   1      39.458  31.649  32.752  1.00  0.00    -0.248 NA
ATOM     43  C   UNL A   1      37.702  33.183  32.880  1.00  0.00     0.031 C 
ATOM     44  C   UNL A   1      37.909  30.303  28.779  1.00  0.00     0.029 A 
ATOM     45  N   UNL A   1      39.483  29.997  30.341  1.00  0.00    -0.354 N 
ATOM     46  C   UNL A   1      39.536  32.337  33.958  1.00  0.00     0.074 A 
ATOM     47  C   UNL A   1      38.454  33.298  33.964  1.00  0.00     0.031 C 
ATOM     48  C   UNL A   1      38.706  29.301  28.365  1.00  0.00     0.029 A 
ATOM     49  C   UNL A   1      39.773  29.098  29.345  1.00  0.00     0.049 A 
ATOM     50  H   UNL A   1      40.008  30.069  31.172  1.00  0.00     0.167 HD
ATOM     51  C   UNL A   1      40.424  32.182  34.971  1.00  0.00     0.037 A 
ATOM     52  C   UNL A   1      40.792  28.226  29.230  1.00  0.00     0.037 A 
ATOM     53  C   UNL A   1      41.510  31.235  34.962  1.00  0.00     0.049 A 
ATOM     54  C   UNL A   1      41.824  28.135  30.323  1.00  0.00     0.074 A 
ATOM     55  C   UNL A   1      42.455  30.992  35.943  1.00  0.00     0.029 A 
ATOM     56  N   UNL A   1      41.806  30.382  33.907  1.00  0.00    -0.354 N 
ATOM     57  N   UNL A   1      41.886  28.778  31.465  1.00  0.00    -0.248 NA
ATOM     58  C   UNL A   1      42.929  27.188  30.110  1.00  0.00     0.031 C 
ATOM     59  C   UNL A   1      43.358  30.038  35.458  1.00  0.00     0.029 A 
ATOM     60  C   UNL A   1      42.938  29.638  34.200  1.00  0.00     0.049 A 
ATOM     61  H   UNL A   1      41.288  30.316  33.073  1.00  0.00     0.167 HD
ATOM     62  C   UNL A   1      43.017  28.298  32.116  1.00  0.00     0.074 A 
ATOM     63  C   UNL A   1      43.600  27.295  31.249  1.00  0.00     0.031 C 
ATOM     64  C   UNL A   1      43.523  28.650  33.324  1.00  0.00     0.037 A 
BRANCH  51  65
ATOM     65  C   UNL A   1      40.276  33.100  36.153  1.00  0.00     0.057 A 
ATOM     66  C   UNL A   1      41.015  34.284  36.277  1.00  0.00     0.134 A 
ATOM     67  C   UNL A   1      39.393  32.783  37.194  1.00  0.00     0.134 A 
ATOM     68  F   UNL A   1      41.890  34.643  35.325  1.00  0.00    -0.206 F 
ATOM     69  C   UNL A   1      40.917  35.093  37.411  1.00  0.00     0.040 A 
ATOM     70  C   UNL A   1      39.261  33.601  38.318  1.00  0.00     0.040 A 
ATOM     71  F   UNL A   1      38.647  31.669  37.140  1.00  0.00    -0.206 F 
ATOM     72  C   UNL A   1      40.035  34.753  38.434  1.00  0.00     0.006 A 
ENDBRANCH  51  65
BRANCH  52  73
ATOM     73  C   UNL A   1      40.888  27.356  28.030  1.00  0.00     0.057 A 
ATOM     74  C   UNL A   1      41.571  27.780  26.885  1.00  0.00     0.134 A 
ATOM     75  C   UNL A   1      40.296  26.087  27.996  1.00  0.00     0.134 A 
ATOM     76  F   UNL A   1      42.132  28.997  26.846  1.00  0.00    -0.206 F 
ATOM     77  C   UNL A   1      41.660  26.976  25.748  1.00  0.00     0.040 A 
ATOM     78  C   UNL A   1      40.399  25.262  26.875  1.00  0.00     0.040 A 
ATOM     79  F   UNL A   1      39.622  25.625  29.060  1.00  0.00    -0.206 F 
ATOM     80  C   UNL A   1      41.081  25.709  25.744  1.00  0.00     0.006 A 
ENDBRANCH  52  73
BRANCH  64  81
ATOM     81  C   UNL A   1      44.756  27.925  33.790  1.00  0.00     0.057 A 
ATOM     82  C   UNL A   1      46.047  28.409  33.538  1.00  0.00     0.134 A 
ATOM     83  C   UNL A   1      44.651  26.723  34.504  1.00  0.00     0.134 A 
ATOM     84  F   UNL A   1      46.223  29.548  32.849  1.00  0.00    -0.206 F 
ATOM     85  C   UNL A   1      47.185  27.707  33.940  1.00  0.00     0.040 A 
ATOM     86  C   UNL A   1      45.781  26.029  34.941  1.00  0.00     0.040 A 
ATOM     87  F   UNL A   1      43.448  26.205  34.793  1.00  0.00    -0.206 F 
ATOM     88  C   UNL A   1      47.053  26.514  34.647  1.00  0.00     0.006 A 
ENDBRANCH  64  81
ENDBRANCH  38  39
ENDBRANCH  31  33
ENDBRANCH  30  31
ENDBRANCH  29  30
ENDBRANCH  28  29
ENDBRANCH  27  28
ENDBRANCH  26  27
ENDBRANCH   1  26
TORSDOF 21
ENDMDL
