MODEL 1
REMARK VINA RESULT:     -10.8      0.000      0.000
REMARK SMILES O=C(OCCOCCOCCOC(=O)[C@H]1CC[C@@H](CN2CC(=O)N3CCCC[C@H]3C2=O)O1)c1ccc(-c2c3nc(c(-c4c(F)cccc4F)c4ccc([nH]4)c(-c4c(F)cccc4F)c4nc(c(-c5c(F)cccc5F)c5ccc2[nH]5)C=C4)C=C3)cc1
REMARK SMILES IDX 7 1 6 2 5 3 4 4 3 5 2 6 1 7 33 8 34 9 86 10 35 11 85 12
REMARK SMILES IDX 36 13 37 14 38 15 79 16 39 17 84 18 78 19 80 20 40 21 83 22
REMARK SMILES IDX 77 23 76 24 41 26 67 27 50 28 66 29 51 30 54 31 65 32 81 33
REMARK SMILES IDX 52 34 53 35 64 37 82 38 55 39 42 40 43 41 48 42 44 43 45 44
REMARK SMILES IDX 47 45 49 46 46 47 68 48 69 49 74 50 70 51 71 52 73 53 75 54
REMARK SMILES IDX 72 55 56 56 57 57 62 58 58 59 59 60 61 61 63 62 60 63 8 64
REMARK SMILES IDX 9 65 10 66 11 67 12 68 13 69 14 70 15 71 16 72 32 73 17 74
REMARK SMILES IDX 18 75 19 76 20 77 21 78 30 79 22 80 29 81 31 82 23 83 24 84
REMARK SMILES IDX 28 85 25 86 27 87 26 88
REMARK H PARENT 80 25 54 36
REMARK Flexibility Score: inf
ROOT
ATOM      1  C   UNL A   1      42.298  21.343  26.910  1.00  0.00     0.188 C 
ENDROOT
BRANCH   1   2
ATOM      2  O   UNL A   1      42.562  20.747  25.641  1.00  0.00    -0.376 OA
BRANCH   2   3
ATOM      3  C   UNL A   1      43.921  20.849  25.208  1.00  0.00     0.202 C 
BRANCH   3   4
ATOM      4  C   UNL A   1      44.641  22.161  25.564  1.00  0.00     0.261 C 
BRANCH   4   5
ATOM      5  O   UNL A   1      44.117  23.339  24.923  1.00  0.00    -0.460 OA
BRANCH   5   6
ATOM      6  C   UNL A   1      44.344  24.653  25.162  1.00  0.00     0.338 C 
ATOM      7  O   UNL A   1      45.316  25.183  24.626  1.00  0.00    -0.246 OA
BRANCH   6   8
ATOM      8  C   UNL A   1      43.495  25.509  26.046  1.00  0.00     0.060 A 
ATOM      9  C   UNL A   1      43.693  26.868  26.271  1.00  0.00     0.016 A 
ATOM     10  C   UNL A   1      42.391  24.900  26.673  1.00  0.00     0.016 A 
ATOM     11  C   UNL A   1      42.918  27.581  27.166  1.00  0.00     0.010 A 
ATOM     12  C   UNL A   1      41.583  25.613  27.566  1.00  0.00     0.010 A 
ATOM     13  C   UNL A   1      41.894  26.943  27.857  1.00  0.00    -0.014 A 
BRANCH  13  14
ATOM     14  C   UNL A   1      41.373  27.647  29.043  1.00  0.00     0.031 A 
ATOM     15  C   UNL A   1      42.192  27.581  30.292  1.00  0.00     0.074 A 
ATOM     16  C   UNL A   1      40.341  28.497  28.920  1.00  0.00     0.049 A 
ATOM     17  N   UNL A   1      41.989  28.165  31.438  1.00  0.00    -0.248 NA
ATOM     18  C   UNL A   1      43.419  26.767  30.233  1.00  0.00     0.031 C 
ATOM     19  C   UNL A   1      39.611  28.720  27.678  1.00  0.00     0.029 A 
ATOM     20  N   UNL A   1      39.762  29.365  29.801  1.00  0.00    -0.354 N 
ATOM     21  C   UNL A   1      43.041  27.760  32.247  1.00  0.00     0.074 A 
ATOM     22  C   UNL A   1      43.877  26.879  31.468  1.00  0.00     0.031 C 
ATOM     23  C   UNL A   1      38.704  29.690  27.856  1.00  0.00     0.029 A 
ATOM     24  C   UNL A   1      38.738  30.100  29.252  1.00  0.00     0.049 A 
ATOM     25  H   UNL A   1      40.049  29.454  30.739  1.00  0.00     0.167 HD
ATOM     26  C   UNL A   1      43.272  28.097  33.534  1.00  0.00     0.037 A 
ATOM     27  C   UNL A   1      37.906  30.980  29.836  1.00  0.00     0.037 A 
ATOM     28  C   UNL A   1      42.409  28.978  34.272  1.00  0.00     0.049 A 
ATOM     29  C   UNL A   1      38.115  31.248  31.299  1.00  0.00     0.074 A 
ATOM     30  C   UNL A   1      42.479  29.347  35.600  1.00  0.00     0.029 A 
ATOM     31  N   UNL A   1      41.306  29.627  33.727  1.00  0.00    -0.354 N 
ATOM     32  N   UNL A   1      39.063  30.800  32.090  1.00  0.00    -0.248 NA
ATOM     33  C   UNL A   1      37.143  32.125  31.959  1.00  0.00     0.031 C 
ATOM     34  C   UNL A   1      41.383  30.173  35.873  1.00  0.00     0.029 A 
ATOM     35  C   UNL A   1      40.671  30.377  34.700  1.00  0.00     0.049 A 
ATOM     36  H   UNL A   1      41.019  29.562  32.788  1.00  0.00     0.167 HD
ATOM     37  C   UNL A   1      38.822  31.360  33.334  1.00  0.00     0.074 A 
ATOM     38  C   UNL A   1      37.645  32.196  33.184  1.00  0.00     0.031 C 
ATOM     39  C   UNL A   1      39.505  31.203  34.495  1.00  0.00     0.037 A 
BRANCH  26  40
ATOM     40  C   UNL A   1      44.426  27.422  34.211  1.00  0.00     0.057 A 
ATOM     41  C   UNL A   1      44.308  26.175  34.842  1.00  0.00     0.134 A 
ATOM     42  C   UNL A   1      45.661  28.074  34.301  1.00  0.00     0.134 A 
ATOM     43  F   UNL A   1      43.139  25.515  34.833  1.00  0.00    -0.206 F 
ATOM     44  C   UNL A   1      45.366  25.620  35.566  1.00  0.00     0.040 A 
ATOM     45  C   UNL A   1      46.735  27.516  34.996  1.00  0.00     0.040 A 
ATOM     46  F   UNL A   1      45.838  29.278  33.735  1.00  0.00    -0.206 F 
ATOM     47  C   UNL A   1      46.585  26.292  35.641  1.00  0.00     0.006 A 
ENDBRANCH  26  40
BRANCH  27  48
ATOM     48  C   UNL A   1      36.798  31.616  29.071  1.00  0.00     0.057 A 
ATOM     49  C   UNL A   1      36.851  32.958  28.678  1.00  0.00     0.134 A 
ATOM     50  C   UNL A   1      35.641  30.899  28.732  1.00  0.00     0.134 A 
ATOM     51  F   UNL A   1      37.921  33.708  28.978  1.00  0.00    -0.206 F 
ATOM     52  C   UNL A   1      35.789  33.569  28.003  1.00  0.00     0.040 A 
ATOM     53  C   UNL A   1      34.586  31.487  28.032  1.00  0.00     0.040 A 
ATOM     54  F   UNL A   1      35.521  29.606  29.070  1.00  0.00    -0.206 F 
ATOM     55  C   UNL A   1      34.654  32.831  27.676  1.00  0.00     0.006 A 
ENDBRANCH  27  48
BRANCH  39  56
ATOM     56  C   UNL A   1      39.021  32.002  35.666  1.00  0.00     0.057 A 
ATOM     57  C   UNL A   1      38.201  31.451  36.657  1.00  0.00     0.134 A 
ATOM     58  C   UNL A   1      39.415  33.338  35.813  1.00  0.00     0.134 A 
ATOM     59  F   UNL A   1      37.779  30.180  36.561  1.00  0.00    -0.206 F 
ATOM     60  C   UNL A   1      37.761  32.211  37.738  1.00  0.00     0.040 A 
ATOM     61  C   UNL A   1      39.011  34.098  36.909  1.00  0.00     0.040 A 
ATOM     62  F   UNL A   1      40.210  33.920  34.901  1.00  0.00    -0.206 F 
ATOM     63  C   UNL A   1      38.175  33.536  37.871  1.00  0.00     0.006 A 
ENDBRANCH  39  56
ENDBRANCH  13  14
ENDBRANCH   6   8
ENDBRANCH   5   6
ENDBRANCH   4   5
ENDBRANCH   3   4
ENDBRANCH   2   3
ENDBRANCH   1   2
BRANCH   1  64
ATOM     64  C   UNL A   1      40.886  21.135  27.444  1.00  0.00     0.188 C 
BRANCH  64  65
ATOM     65  O   UNL A   1      39.937  22.175  27.285  1.00  0.00    -0.376 OA
BRANCH  65  66
ATOM     66  C   UNL A   1      39.118  22.199  26.130  1.00  0.00     0.202 C 
BRANCH  66  67
ATOM     67  C   UNL A   1      38.055  23.293  25.915  1.00  0.00     0.261 C 
BRANCH  67  68
ATOM     68  O   UNL A   1      36.675  23.030  26.212  1.00  0.00    -0.461 OA
BRANCH  68  69
ATOM     69  C   UNL A   1      35.839  23.350  25.186  1.00  0.00     0.335 C 
ATOM     70  O   UNL A   1      35.409  24.473  24.995  1.00  0.00    -0.249 OA
BRANCH  69  71
ATOM     71  C   UNL A   1      35.501  22.177  24.272  1.00  0.00     0.228 C 
ATOM     72  C   UNL A   1      35.357  20.848  24.973  1.00  0.00     0.047 C 
ATOM     73  O   UNL A   1      34.192  22.419  23.707  1.00  0.00    -0.361 OA
ATOM     74  C   UNL A   1      33.973  20.926  25.562  1.00  0.00     0.037 C 
ATOM     75  C   UNL A   1      33.212  21.711  24.501  1.00  0.00     0.139 C 
BRANCH  75  76
ATOM     76  C   UNL A   1      32.091  22.643  25.013  1.00  0.00     0.152 C 
BRANCH  76  77
ATOM     77  N   UNL A   1      32.190  24.051  24.604  1.00  0.00    -0.329 N 
ATOM     78  C   UNL A   1      31.997  24.383  23.188  1.00  0.00     0.219 C 
ATOM     79  C   UNL A   1      32.083  25.064  25.544  1.00  0.00     0.245 C 
ATOM     80  C   UNL A   1      32.649  25.692  22.712  1.00  0.00     0.242 C 
ATOM     81  C   UNL A   1      32.315  26.493  25.021  1.00  0.00     0.174 C 
ATOM     82  O   UNL A   1      31.805  24.854  26.725  1.00  0.00    -0.272 OA
ATOM     83  O   UNL A   1      32.746  25.971  21.517  1.00  0.00    -0.273 OA
ATOM     84  N   UNL A   1      32.975  26.589  23.725  1.00  0.00    -0.329 N 
ATOM     85  C   UNL A   1      31.045  27.340  24.960  1.00  0.00     0.035 C 
ATOM     86  C   UNL A   1      33.458  27.915  23.378  1.00  0.00     0.120 C 
ATOM     87  C   UNL A   1      31.396  28.786  24.560  1.00  0.00     0.004 C 
ATOM     88  C   UNL A   1      32.270  28.867  23.297  1.00  0.00     0.022 C 
ENDBRANCH  76  77
ENDBRANCH  75  76
ENDBRANCH  69  71
ENDBRANCH  68  69
ENDBRANCH  67  68
ENDBRANCH  66  67
ENDBRANCH  65  66
ENDBRANCH  64  65
ENDBRANCH   1  64
TORSDOF 19
ENDMDL
MODEL 2
REMARK VINA RESULT:     -10.5      1.424      2.122
REMARK SMILES O=C(OCCOCCOCCOC(=O)[C@H]1CC[C@@H](CN2CC(=O)N3CCCC[C@H]3C2=O)O1)c1ccc(-c2c3nc(c(-c4c(F)cccc4F)c4ccc([nH]4)c(-c4c(F)cccc4F)c4nc(c(-c5c(F)cccc5F)c5ccc2[nH]5)C=C4)C=C3)cc1
REMARK SMILES IDX 7 1 6 2 5 3 4 4 3 5 2 6 1 7 33 8 34 9 86 10 35 11 85 12
REMARK SMILES IDX 36 13 37 14 38 15 79 16 39 17 84 18 78 19 80 20 40 21 83 22
REMARK SMILES IDX 77 23 76 24 41 26 67 27 50 28 66 29 51 30 54 31 65 32 81 33
REMARK SMILES IDX 52 34 53 35 64 37 82 38 55 39 42 40 43 41 48 42 44 43 45 44
REMARK SMILES IDX 47 45 49 46 46 47 68 48 69 49 74 50 70 51 71 52 73 53 75 54
REMARK SMILES IDX 72 55 56 56 57 57 62 58 58 59 59 60 61 61 63 62 60 63 8 64
REMARK SMILES IDX 9 65 10 66 11 67 12 68 13 69 14 70 15 71 16 72 32 73 17 74
REMARK SMILES IDX 18 75 19 76 20 77 21 78 30 79 22 80 29 81 31 82 23 83 24 84
REMARK SMILES IDX 28 85 25 86 27 87 26 88
REMARK H PARENT 80 25 54 36
REMARK Flexibility Score: inf
ROOT
ATOM      1  C   UNL A   1      41.349  22.380  25.990  1.00  0.00     0.188 C 
ENDROOT
BRANCH   1   2
ATOM      2  O   UNL A   1      42.277  21.335  25.707  1.00  0.00    -0.376 OA
BRANCH   2   3
ATOM      3  C   UNL A   1      43.619  21.776  25.485  1.00  0.00     0.202 C 
BRANCH   3   4
ATOM      4  C   UNL A   1      43.807  22.818  24.369  1.00  0.00     0.261 C 
BRANCH   4   5
ATOM      5  O   UNL A   1      44.562  23.986  24.743  1.00  0.00    -0.460 OA
BRANCH   5   6
ATOM      6  C   UNL A   1      44.883  24.480  25.963  1.00  0.00     0.338 C 
ATOM      7  O   UNL A   1      45.980  24.192  26.438  1.00  0.00    -0.246 OA
BRANCH   6   8
ATOM      8  C   UNL A   1      43.986  25.350  26.783  1.00  0.00     0.060 A 
ATOM      9  C   UNL A   1      44.105  26.732  26.903  1.00  0.00     0.016 A 
ATOM     10  C   UNL A   1      42.920  24.728  27.461  1.00  0.00     0.016 A 
ATOM     11  C   UNL A   1      43.290  27.465  27.745  1.00  0.00     0.010 A 
ATOM     12  C   UNL A   1      42.073  25.459  28.302  1.00  0.00     0.010 A 
ATOM     13  C   UNL A   1      42.306  26.823  28.488  1.00  0.00    -0.014 A 
BRANCH  13  14
ATOM     14  C   UNL A   1      41.746  27.584  29.620  1.00  0.00     0.031 A 
ATOM     15  C   UNL A   1      42.542  27.616  30.885  1.00  0.00     0.074 A 
ATOM     16  C   UNL A   1      40.696  28.400  29.427  1.00  0.00     0.049 A 
ATOM     17  N   UNL A   1      42.305  28.262  31.990  1.00  0.00    -0.248 NA
ATOM     18  C   UNL A   1      43.789  26.830  30.897  1.00  0.00     0.031 C 
ATOM     19  C   UNL A   1      39.985  28.528  28.162  1.00  0.00     0.029 A 
ATOM     20  N   UNL A   1      40.080  29.305  30.244  1.00  0.00    -0.354 N 
ATOM     21  C   UNL A   1      43.350  27.934  32.840  1.00  0.00     0.074 A 
ATOM     22  C   UNL A   1      44.222  27.028  32.130  1.00  0.00     0.031 C 
ATOM     23  C   UNL A   1      39.052  29.484  28.264  1.00  0.00     0.029 A 
ATOM     24  C   UNL A   1      39.050  29.979  29.633  1.00  0.00     0.049 A 
ATOM     25  H   UNL A   1      40.348  29.458  31.179  1.00  0.00     0.167 HD
ATOM     26  C   UNL A   1      43.549  28.354  34.107  1.00  0.00     0.037 A 
ATOM     27  C   UNL A   1      38.185  30.872  30.147  1.00  0.00     0.037 A 
ATOM     28  C   UNL A   1      42.652  29.256  34.775  1.00  0.00     0.049 A 
ATOM     29  C   UNL A   1      38.361  31.233  31.595  1.00  0.00     0.074 A 
ATOM     30  C   UNL A   1      42.688  29.707  36.079  1.00  0.00     0.029 A 
ATOM     31  N   UNL A   1      41.543  29.843  34.172  1.00  0.00    -0.354 N 
ATOM     32  N   UNL A   1      39.305  30.858  32.428  1.00  0.00    -0.248 NA
ATOM     33  C   UNL A   1      37.356  32.124  32.183  1.00  0.00     0.031 C 
ATOM     34  C   UNL A   1      41.568  30.520  36.282  1.00  0.00     0.029 A 
ATOM     35  C   UNL A   1      40.873  30.635  35.086  1.00  0.00     0.049 A 
ATOM     36  H   UNL A   1      41.276  29.714  33.234  1.00  0.00     0.167 HD
ATOM     37  C   UNL A   1      39.027  31.486  33.631  1.00  0.00     0.074 A 
ATOM     38  C   UNL A   1      37.833  32.282  33.410  1.00  0.00     0.031 C 
ATOM     39  C   UNL A   1      39.691  31.417  34.811  1.00  0.00     0.037 A 
BRANCH  26  40
ATOM     40  C   UNL A   1      44.706  27.750  34.844  1.00  0.00     0.057 A 
ATOM     41  C   UNL A   1      44.596  26.562  35.581  1.00  0.00     0.134 A 
ATOM     42  C   UNL A   1      45.935  28.419  34.881  1.00  0.00     0.134 A 
ATOM     43  F   UNL A   1      43.432  25.894  35.625  1.00  0.00    -0.206 F 
ATOM     44  C   UNL A   1      45.655  26.081  36.354  1.00  0.00     0.040 A 
ATOM     45  C   UNL A   1      47.011  27.933  35.626  1.00  0.00     0.040 A 
ATOM     46  F   UNL A   1      46.104  29.570  34.213  1.00  0.00    -0.206 F 
ATOM     47  C   UNL A   1      46.869  26.767  36.374  1.00  0.00     0.006 A 
ENDBRANCH  26  40
BRANCH  27  48
ATOM     48  C   UNL A   1      37.078  31.432  29.326  1.00  0.00     0.057 A 
ATOM     49  C   UNL A   1      37.114  32.743  28.837  1.00  0.00     0.134 A 
ATOM     50  C   UNL A   1      35.936  30.674  29.027  1.00  0.00     0.134 A 
ATOM     51  F   UNL A   1      38.169  33.530  29.094  1.00  0.00    -0.206 F 
ATOM     52  C   UNL A   1      36.052  33.286  28.108  1.00  0.00     0.040 A 
ATOM     53  C   UNL A   1      34.881  31.192  28.274  1.00  0.00     0.040 A 
ATOM     54  F   UNL A   1      35.833  29.406  29.457  1.00  0.00    -0.206 F 
ATOM     55  C   UNL A   1      34.932  32.507  27.822  1.00  0.00     0.006 A 
ENDBRANCH  27  48
BRANCH  39  56
ATOM     56  C   UNL A   1      39.166  32.274  35.922  1.00  0.00     0.057 A 
ATOM     57  C   UNL A   1      39.534  33.616  36.067  1.00  0.00     0.134 A 
ATOM     58  C   UNL A   1      38.249  31.746  36.840  1.00  0.00     0.134 A 
ATOM     59  F   UNL A   1      40.421  34.172  35.226  1.00  0.00    -0.206 F 
ATOM     60  C   UNL A   1      39.034  34.396  37.107  1.00  0.00     0.040 A 
ATOM     61  C   UNL A   1      37.714  32.526  37.862  1.00  0.00     0.040 A 
ATOM     62  F   UNL A   1      37.848  30.468  36.746  1.00  0.00    -0.206 F 
ATOM     63  C   UNL A   1      38.113  33.853  38.002  1.00  0.00     0.006 A 
ENDBRANCH  39  56
ENDBRANCH  13  14
ENDBRANCH   6   8
ENDBRANCH   5   6
ENDBRANCH   4   5
ENDBRANCH   3   4
ENDBRANCH   2   3
ENDBRANCH   1   2
BRANCH   1  64
ATOM     64  C   UNL A   1      40.003  21.922  26.538  1.00  0.00     0.188 C 
BRANCH  64  65
ATOM     65  O   UNL A   1      39.036  21.416  25.634  1.00  0.00    -0.376 OA
BRANCH  65  66
ATOM     66  C   UNL A   1      37.710  21.913  25.684  1.00  0.00     0.202 C 
BRANCH  66  67
ATOM     67  C   UNL A   1      37.044  22.563  24.456  1.00  0.00     0.261 C 
BRANCH  67  68
ATOM     68  O   UNL A   1      35.830  22.018  23.917  1.00  0.00    -0.461 OA
BRANCH  68  69
ATOM     69  C   UNL A   1      34.904  22.971  23.621  1.00  0.00     0.335 C 
ATOM     70  O   UNL A   1      35.128  23.923  22.895  1.00  0.00    -0.249 OA
BRANCH  69  71
ATOM     71  C   UNL A   1      33.540  22.731  24.259  1.00  0.00     0.228 C 
ATOM     72  C   UNL A   1      33.503  22.902  25.759  1.00  0.00     0.047 C 
ATOM     73  O   UNL A   1      32.636  23.746  23.768  1.00  0.00    -0.361 OA
ATOM     74  C   UNL A   1      33.436  24.398  25.925  1.00  0.00     0.037 C 
ATOM     75  C   UNL A   1      32.581  24.819  24.736  1.00  0.00     0.139 C 
BRANCH  75  76
ATOM     76  C   UNL A   1      32.912  26.192  24.108  1.00  0.00     0.152 C 
BRANCH  76  77
ATOM     77  N   UNL A   1      31.764  27.072  23.851  1.00  0.00    -0.329 N 
ATOM     78  C   UNL A   1      30.448  26.673  24.361  1.00  0.00     0.219 C 
ATOM     79  C   UNL A   1      31.962  28.397  23.491  1.00  0.00     0.245 C 
ATOM     80  C   UNL A   1      29.235  27.263  23.623  1.00  0.00     0.242 C 
ATOM     81  C   UNL A   1      30.693  29.193  23.137  1.00  0.00     0.174 C 
ATOM     82  O   UNL A   1      33.074  28.924  23.466  1.00  0.00    -0.272 OA
ATOM     83  O   UNL A   1      28.094  26.842  23.809  1.00  0.00    -0.273 OA
ATOM     84  N   UNL A   1      29.506  28.394  22.858  1.00  0.00    -0.329 N 
ATOM     85  C   UNL A   1      30.314  30.241  24.181  1.00  0.00     0.035 C 
ATOM     86  C   UNL A   1      28.409  29.119  22.240  1.00  0.00     0.120 C 
ATOM     87  C   UNL A   1      29.121  31.077  23.677  1.00  0.00     0.004 C 
ATOM     88  C   UNL A   1      27.943  30.215  23.191  1.00  0.00     0.022 C 
ENDBRANCH  76  77
ENDBRANCH  75  76
ENDBRANCH  69  71
ENDBRANCH  68  69
ENDBRANCH  67  68
ENDBRANCH  66  67
ENDBRANCH  65  66
ENDBRANCH  64  65
ENDBRANCH   1  64
TORSDOF 19
ENDMDL
MODEL 3
REMARK VINA RESULT:     -10.4      1.098      6.227
REMARK SMILES O=C(OCCOCCOCCOC(=O)[C@H]1CC[C@@H](CN2CC(=O)N3CCCC[C@H]3C2=O)O1)c1ccc(-c2c3nc(c(-c4c(F)cccc4F)c4ccc([nH]4)c(-c4c(F)cccc4F)c4nc(c(-c5c(F)cccc5F)c5ccc2[nH]5)C=C4)C=C3)cc1
REMARK SMILES IDX 7 1 6 2 5 3 4 4 3 5 2 6 1 7 33 8 34 9 86 10 35 11 85 12
REMARK SMILES IDX 36 13 37 14 38 15 79 16 39 17 84 18 78 19 80 20 40 21 83 22
REMARK SMILES IDX 77 23 76 24 41 26 67 27 50 28 66 29 51 30 54 31 65 32 81 33
REMARK SMILES IDX 52 34 53 35 64 37 82 38 55 39 42 40 43 41 48 42 44 43 45 44
REMARK SMILES IDX 47 45 49 46 46 47 68 48 69 49 74 50 70 51 71 52 73 53 75 54
REMARK SMILES IDX 72 55 56 56 57 57 62 58 58 59 59 60 61 61 63 62 60 63 8 64
REMARK SMILES IDX 9 65 10 66 11 67 12 68 13 69 14 70 15 71 16 72 32 73 17 74
REMARK SMILES IDX 18 75 19 76 20 77 21 78 30 79 22 80 29 81 31 82 23 83 24 84
REMARK SMILES IDX 28 85 25 86 27 87 26 88
REMARK H PARENT 80 25 54 36
REMARK Flexibility Score: inf
ROOT
ATOM      1  C   UNL A   1      42.397  20.102  26.578  1.00  0.00     0.188 C 
ENDROOT
BRANCH   1   2
ATOM      2  O   UNL A   1      42.975  20.553  25.355  1.00  0.00    -0.376 OA
BRANCH   2   3
ATOM      3  C   UNL A   1      43.775  21.733  25.475  1.00  0.00     0.202 C 
BRANCH   3   4
ATOM      4  C   UNL A   1      43.318  22.941  24.641  1.00  0.00     0.261 C 
BRANCH   4   5
ATOM      5  O   UNL A   1      44.151  24.111  24.753  1.00  0.00    -0.460 OA
BRANCH   5   6
ATOM      6  C   UNL A   1      44.648  24.744  25.843  1.00  0.00     0.338 C 
ATOM      7  O   UNL A   1      45.823  24.546  26.146  1.00  0.00    -0.246 OA
BRANCH   6   8
ATOM      8  C   UNL A   1      43.860  25.668  26.714  1.00  0.00     0.060 A 
ATOM      9  C   UNL A   1      44.015  27.051  26.758  1.00  0.00     0.016 A 
ATOM     10  C   UNL A   1      42.862  25.099  27.529  1.00  0.00     0.016 A 
ATOM     11  C   UNL A   1      43.308  27.837  27.649  1.00  0.00     0.010 A 
ATOM     12  C   UNL A   1      42.123  25.883  28.421  1.00  0.00     0.010 A 
ATOM     13  C   UNL A   1      42.398  27.249  28.521  1.00  0.00    -0.014 A 
BRANCH  13  14
ATOM     14  C   UNL A   1      41.976  28.069  29.671  1.00  0.00     0.031 A 
ATOM     15  C   UNL A   1      40.707  28.847  29.528  1.00  0.00     0.074 A 
ATOM     16  C   UNL A   1      42.583  27.922  30.860  1.00  0.00     0.049 A 
ATOM     17  N   UNL A   1      40.091  29.584  30.407  1.00  0.00    -0.248 NA
ATOM     18  C   UNL A   1      40.027  28.762  28.223  1.00  0.00     0.031 C 
ATOM     19  C   UNL A   1      43.726  27.048  31.090  1.00  0.00     0.029 A 
ATOM     20  N   UNL A   1      42.309  28.437  32.095  1.00  0.00    -0.354 N 
ATOM     21  C   UNL A   1      38.973  30.079  29.753  1.00  0.00     0.074 A 
ATOM     22  C   UNL A   1      38.995  29.567  28.404  1.00  0.00     0.031 C 
ATOM     23  C   UNL A   1      44.040  27.049  32.392  1.00  0.00     0.029 A 
ATOM     24  C   UNL A   1      43.165  27.991  33.075  1.00  0.00     0.049 A 
ATOM     25  H   UNL A   1      41.572  29.066  32.267  1.00  0.00     0.167 HD
ATOM     26  C   UNL A   1      38.021  30.899  30.248  1.00  0.00     0.037 A 
ATOM     27  C   UNL A   1      43.241  28.342  34.371  1.00  0.00     0.037 A 
ATOM     28  C   UNL A   1      38.043  31.386  31.599  1.00  0.00     0.049 A 
ATOM     29  C   UNL A   1      42.238  29.346  34.865  1.00  0.00     0.074 A 
ATOM     30  C   UNL A   1      37.187  32.279  32.212  1.00  0.00     0.029 A 
ATOM     31  N   UNL A   1      38.987  31.011  32.549  1.00  0.00    -0.354 N 
ATOM     32  N   UNL A   1      41.226  29.882  34.222  1.00  0.00    -0.248 NA
ATOM     33  C   UNL A   1      42.388  29.807  36.248  1.00  0.00     0.031 C 
ATOM     34  C   UNL A   1      37.649  32.489  33.516  1.00  0.00     0.029 A 
ATOM     35  C   UNL A   1      38.750  31.673  33.739  1.00  0.00     0.049 A 
ATOM     36  H   UNL A   1      39.717  30.368  32.397  1.00  0.00     0.167 HD
ATOM     37  C   UNL A   1      40.598  30.722  35.127  1.00  0.00     0.074 A 
ATOM     38  C   UNL A   1      41.339  30.608  36.371  1.00  0.00     0.031 C 
ATOM     39  C   UNL A   1      39.513  31.515  34.954  1.00  0.00     0.037 A 
BRANCH  26  40
ATOM     40  C   UNL A   1      36.978  31.378  29.285  1.00  0.00     0.057 A 
ATOM     41  C   UNL A   1      36.980  32.674  28.749  1.00  0.00     0.134 A 
ATOM     42  C   UNL A   1      35.902  30.546  28.951  1.00  0.00     0.134 A 
ATOM     43  F   UNL A   1      37.958  33.538  29.063  1.00  0.00    -0.206 F 
ATOM     44  C   UNL A   1      35.934  33.134  27.946  1.00  0.00     0.040 A 
ATOM     45  C   UNL A   1      34.866  30.984  28.126  1.00  0.00     0.040 A 
ATOM     46  F   UNL A   1      35.828  29.300  29.443  1.00  0.00    -0.206 F 
ATOM     47  C   UNL A   1      34.874  32.285  27.630  1.00  0.00     0.006 A 
ENDBRANCH  26  40
BRANCH  27  48
ATOM     48  C   UNL A   1      44.306  27.794  35.254  1.00  0.00     0.057 A 
ATOM     49  C   UNL A   1      44.101  26.647  36.030  1.00  0.00     0.134 A 
ATOM     50  C   UNL A   1      45.556  28.421  35.366  1.00  0.00     0.134 A 
ATOM     51  F   UNL A   1      42.926  26.002  35.984  1.00  0.00    -0.206 F 
ATOM     52  C   UNL A   1      45.083  26.161  36.898  1.00  0.00     0.040 A 
ATOM     53  C   UNL A   1      46.557  27.930  36.205  1.00  0.00     0.040 A 
ATOM     54  F   UNL A   1      45.828  29.522  34.648  1.00  0.00    -0.206 F 
ATOM     55  C   UNL A   1      46.317  26.802  36.984  1.00  0.00     0.006 A 
ENDBRANCH  27  48
BRANCH  39  56
ATOM     56  C   UNL A   1      39.038  32.267  36.160  1.00  0.00     0.057 A 
ATOM     57  C   UNL A   1      38.169  31.699  37.099  1.00  0.00     0.134 A 
ATOM     58  C   UNL A   1      39.492  33.571  36.396  1.00  0.00     0.134 A 
ATOM     59  F   UNL A   1      37.690  30.458  36.918  1.00  0.00    -0.206 F 
ATOM     60  C   UNL A   1      37.740  32.415  38.215  1.00  0.00     0.040 A 
ATOM     61  C   UNL A   1      39.098  34.284  37.527  1.00  0.00     0.040 A 
ATOM     62  F   UNL A   1      40.335  34.166  35.538  1.00  0.00    -0.206 F 
ATOM     63  C   UNL A   1      38.213  33.708  38.435  1.00  0.00     0.006 A 
ENDBRANCH  39  56
ENDBRANCH  13  14
ENDBRANCH   6   8
ENDBRANCH   5   6
ENDBRANCH   4   5
ENDBRANCH   3   4
ENDBRANCH   2   3
ENDBRANCH   1   2
BRANCH   1  64
ATOM     64  C   UNL A   1      42.136  21.189  27.613  1.00  0.00     0.188 C 
BRANCH  64  65
ATOM     65  O   UNL A   1      40.879  21.842  27.615  1.00  0.00    -0.376 OA
BRANCH  65  66
ATOM     66  C   UNL A   1      39.886  21.440  26.689  1.00  0.00     0.202 C 
BRANCH  66  67
ATOM     67  C   UNL A   1      38.872  22.442  26.104  1.00  0.00     0.261 C 
BRANCH  67  68
ATOM     68  O   UNL A   1      37.616  21.980  25.583  1.00  0.00    -0.461 OA
BRANCH  68  69
ATOM     69  C   UNL A   1      36.768  22.996  25.259  1.00  0.00     0.335 C 
ATOM     70  O   UNL A   1      36.807  24.095  25.779  1.00  0.00    -0.249 OA
BRANCH  69  71
ATOM     71  C   UNL A   1      35.771  22.644  24.160  1.00  0.00     0.228 C 
ATOM     72  C   UNL A   1      34.790  21.554  24.519  1.00  0.00     0.047 C 
ATOM     73  O   UNL A   1      34.938  23.804  23.931  1.00  0.00    -0.361 OA
ATOM     74  C   UNL A   1      33.771  22.281  25.359  1.00  0.00     0.037 C 
ATOM     75  C   UNL A   1      33.717  23.649  24.692  1.00  0.00     0.139 C 
BRANCH  75  76
ATOM     76  C   UNL A   1      33.453  24.854  25.623  1.00  0.00     0.152 C 
BRANCH  76  77
ATOM     77  N   UNL A   1      32.672  25.955  25.040  1.00  0.00    -0.329 N 
ATOM     78  C   UNL A   1      33.238  26.687  23.902  1.00  0.00     0.219 C 
ATOM     79  C   UNL A   1      31.311  26.056  25.284  1.00  0.00     0.245 C 
ATOM     80  C   UNL A   1      32.715  28.119  23.700  1.00  0.00     0.242 C 
ATOM     81  C   UNL A   1      30.619  27.308  24.717  1.00  0.00     0.174 C 
ATOM     82  O   UNL A   1      30.676  25.199  25.899  1.00  0.00    -0.272 OA
ATOM     83  O   UNL A   1      33.260  28.906  22.926  1.00  0.00    -0.273 OA
ATOM     84  N   UNL A   1      31.507  28.399  24.333  1.00  0.00    -0.329 N 
ATOM     85  C   UNL A   1      29.697  27.020  23.534  1.00  0.00     0.035 C 
ATOM     86  C   UNL A   1      30.848  29.670  24.087  1.00  0.00     0.120 C 
ATOM     87  C   UNL A   1      28.947  28.303  23.126  1.00  0.00     0.004 C 
ATOM     88  C   UNL A   1      29.880  29.508  22.920  1.00  0.00     0.022 C 
ENDBRANCH  76  77
ENDBRANCH  75  76
ENDBRANCH  69  71
ENDBRANCH  68  69
ENDBRANCH  67  68
ENDBRANCH  66  67
ENDBRANCH  65  66
ENDBRANCH  64  65
ENDBRANCH   1  64
TORSDOF 19
ENDMDL
