MODEL 1
REMARK VINA RESULT:     -11.0      0.000      0.000
REMARK SMILES Cn1ccc(C(=O)NCc2ccc(C(=O)OCCOCCOCCOC(=O)c3ccc(-c4c5nc(c(-c6c(F)cccc6F)c6ccc([nH]6)c(-c6c(F)cccc6F)c6nc(c(-c7c(F)cccc7F)c7ccc4[nH]7)C=C6)C=C5)cc3)cc2)cc1=O
REMARK SMILES IDX 20 1 19 2 18 3 17 4 16 5 14 6 15 7 13 8 10 9 11 10 83 11
REMARK SMILES IDX 12 12 82 13 9 14 8 15 6 16 7 17 5 19 1 20 2 21 3 22 85 23
REMARK SMILES IDX 4 24 84 25 86 26 21 27 22 28 23 29 24 30 25 31 26 32 27 33
REMARK SMILES IDX 28 34 29 35 81 36 30 37 80 38 31 39 32 40 33 41 74 42 34 43
REMARK SMILES IDX 79 44 73 45 75 46 35 47 78 48 72 49 71 50 36 52 62 53 45 54
REMARK SMILES IDX 61 55 46 56 49 57 60 58 76 59 47 60 48 61 59 63 77 64 50 65
REMARK SMILES IDX 37 66 38 67 43 68 39 69 40 70 42 71 44 72 41 73 63 74 64 75
REMARK SMILES IDX 69 76 65 77 66 78 68 79 70 80 67 81 51 82 52 83 57 84 53 85
REMARK SMILES IDX 54 86 56 87 58 88 55 89
REMARK H PARENT 8 18 75 51 49 62
REMARK Flexibility Score: inf
ROOT
ATOM      1  C   UNL A   1      42.671  20.469  26.098  1.00  0.00     0.188 C 
ENDROOT
BRANCH   1   2
ATOM      2  O   UNL A   1      41.547  19.969  26.801  1.00  0.00    -0.376 OA
BRANCH   2   3
ATOM      3  C   UNL A   1      40.235  20.325  26.396  1.00  0.00     0.202 C 
BRANCH   3   4
ATOM      4  C   UNL A   1      39.740  21.778  26.443  1.00  0.00     0.261 C 
BRANCH   4   5
ATOM      5  O   UNL A   1      38.584  22.054  25.641  1.00  0.00    -0.460 OA
BRANCH   5   6
ATOM      6  C   UNL A   1      37.891  23.171  25.986  1.00  0.00     0.338 C 
ATOM      7  O   UNL A   1      38.350  24.218  26.399  1.00  0.00    -0.246 OA
BRANCH   6   8
ATOM      8  C   UNL A   1      36.468  23.015  25.602  1.00  0.00     0.060 A 
ATOM      9  C   UNL A   1      33.763  22.830  24.843  1.00  0.00    -0.029 A 
ATOM     10  C   UNL A   1      34.413  24.072  24.864  1.00  0.00     0.006 A 
ATOM     11  C   UNL A   1      34.508  21.677  25.162  1.00  0.00     0.006 A 
ATOM     12  C   UNL A   1      35.751  24.166  25.254  1.00  0.00     0.016 A 
ATOM     13  C   UNL A   1      35.850  21.766  25.543  1.00  0.00     0.016 A 
BRANCH   9  14
ATOM     14  C   UNL A   1      32.306  22.757  24.437  1.00  0.00     0.152 C 
BRANCH  14  15
ATOM     15  N   UNL A   1      31.414  22.876  25.571  1.00  0.00    -0.348 N 
ATOM     16  C   UNL A   1      30.868  23.913  26.248  1.00  0.00     0.251 C 
ATOM     17  O   UNL A   1      30.242  23.614  27.271  1.00  0.00    -0.269 OA
ATOM     18  H   UNL A   1      31.141  22.002  25.934  1.00  0.00     0.164 HD
BRANCH  16  19
ATOM     19  C   UNL A   1      30.914  25.353  25.811  1.00  0.00     0.046 A 
ATOM     20  C   UNL A   1      30.901  29.247  24.081  1.00  0.00     0.153 C 
ATOM     21  N   UNL A   1      30.888  27.933  24.705  1.00  0.00    -0.319 N 
ATOM     22  C   UNL A   1      30.171  26.923  24.098  1.00  0.00     0.089 A 
ATOM     23  C   UNL A   1      31.581  27.729  25.893  1.00  0.00     0.251 A 
ATOM     24  C   UNL A   1      30.167  25.686  24.602  1.00  0.00     0.032 A 
ATOM     25  C   UNL A   1      31.532  26.351  26.459  1.00  0.00     0.085 A 
ATOM     26  O   UNL A   1      32.228  28.588  26.487  1.00  0.00    -0.269 OA
ENDBRANCH  16  19
ENDBRANCH  14  15
ENDBRANCH   9  14
ENDBRANCH   6   8
ENDBRANCH   5   6
ENDBRANCH   4   5
ENDBRANCH   3   4
ENDBRANCH   2   3
ENDBRANCH   1   2
BRANCH   1  27
ATOM     27  C   UNL A   1      43.578  19.523  25.284  1.00  0.00     0.188 C 
BRANCH  27  28
ATOM     28  O   UNL A   1      44.696  20.073  24.633  1.00  0.00    -0.376 OA
BRANCH  28  29
ATOM     29  C   UNL A   1      45.705  20.755  25.356  1.00  0.00     0.202 C 
BRANCH  29  30
ATOM     30  C   UNL A   1      45.882  22.282  25.467  1.00  0.00     0.261 C 
BRANCH  30  31
ATOM     31  O   UNL A   1      44.929  23.023  26.228  1.00  0.00    -0.460 OA
BRANCH  31  32
ATOM     32  C   UNL A   1      44.046  23.751  25.508  1.00  0.00     0.338 C 
ATOM     33  O   UNL A   1      43.709  23.578  24.342  1.00  0.00    -0.246 OA
BRANCH  32  34
ATOM     34  C   UNL A   1      43.394  24.724  26.397  1.00  0.00     0.060 A 
ATOM     35  C   UNL A   1      43.828  26.056  26.373  1.00  0.00     0.016 A 
ATOM     36  C   UNL A   1      42.389  24.317  27.275  1.00  0.00     0.016 A 
ATOM     37  C   UNL A   1      43.262  26.987  27.243  1.00  0.00     0.010 A 
ATOM     38  C   UNL A   1      41.838  25.248  28.160  1.00  0.00     0.010 A 
ATOM     39  C   UNL A   1      42.290  26.580  28.165  1.00  0.00    -0.014 A 
BRANCH  39  40
ATOM     40  C   UNL A   1      41.850  27.506  29.237  1.00  0.00     0.031 A 
ATOM     41  C   UNL A   1      42.559  27.462  30.563  1.00  0.00     0.074 A 
ATOM     42  C   UNL A   1      40.838  28.368  29.040  1.00  0.00     0.049 A 
ATOM     43  N   UNL A   1      42.298  28.116  31.666  1.00  0.00    -0.248 NA
ATOM     44  C   UNL A   1      43.716  26.555  30.658  1.00  0.00     0.031 C 
ATOM     45  C   UNL A   1      40.094  28.529  27.792  1.00  0.00     0.029 A 
ATOM     46  N   UNL A   1      40.249  29.260  29.901  1.00  0.00    -0.354 N 
ATOM     47  C   UNL A   1      43.245  27.690  32.588  1.00  0.00     0.074 A 
ATOM     48  C   UNL A   1      44.077  26.710  31.924  1.00  0.00     0.031 C 
ATOM     49  C   UNL A   1      39.127  29.446  27.978  1.00  0.00     0.029 A 
ATOM     50  C   UNL A   1      39.164  29.909  29.364  1.00  0.00     0.049 A 
ATOM     51  H   UNL A   1      40.573  29.419  30.818  1.00  0.00     0.167 HD
ATOM     52  C   UNL A   1      43.407  28.082  33.874  1.00  0.00     0.037 A 
ATOM     53  C   UNL A   1      38.283  30.753  29.937  1.00  0.00     0.037 A 
ATOM     54  C   UNL A   1      42.583  29.061  34.532  1.00  0.00     0.049 A 
ATOM     55  C   UNL A   1      38.451  31.127  31.389  1.00  0.00     0.074 A 
ATOM     56  C   UNL A   1      42.696  29.552  35.821  1.00  0.00     0.029 A 
ATOM     57  N   UNL A   1      41.491  29.689  33.958  1.00  0.00    -0.354 N 
ATOM     58  N   UNL A   1      39.375  30.752  32.240  1.00  0.00    -0.248 NA
ATOM     59  C   UNL A   1      37.451  32.043  31.959  1.00  0.00     0.031 C 
ATOM     60  C   UNL A   1      41.636  30.435  36.045  1.00  0.00     0.029 A 
ATOM     61  C   UNL A   1      40.901  30.540  34.877  1.00  0.00     0.049 A 
ATOM     62  H   UNL A   1      41.179  29.552  33.033  1.00  0.00     0.167 HD
ATOM     63  C   UNL A   1      39.087  31.410  33.431  1.00  0.00     0.074 A 
ATOM     64  C   UNL A   1      37.911  32.217  33.190  1.00  0.00     0.031 C 
ATOM     65  C   UNL A   1      39.738  31.351  34.619  1.00  0.00     0.037 A 
BRANCH  52  66
ATOM     66  C   UNL A   1      44.500  27.435  34.669  1.00  0.00     0.057 A 
ATOM     67  C   UNL A   1      44.327  26.196  35.299  1.00  0.00     0.134 A 
ATOM     68  C   UNL A   1      45.766  28.030  34.748  1.00  0.00     0.134 A 
ATOM     69  F   UNL A   1      43.135  25.580  35.273  1.00  0.00    -0.206 F 
ATOM     70  C   UNL A   1      45.370  25.578  35.991  1.00  0.00     0.040 A 
ATOM     71  C   UNL A   1      46.823  27.410  35.415  1.00  0.00     0.040 A 
ATOM     72  F   UNL A   1      46.000  29.214  34.164  1.00  0.00    -0.206 F 
ATOM     73  C   UNL A   1      46.626  26.181  36.040  1.00  0.00     0.006 A 
ENDBRANCH  52  66
BRANCH  53  74
ATOM     74  C   UNL A   1      37.134  31.281  29.158  1.00  0.00     0.057 A 
ATOM     75  C   UNL A   1      37.130  32.588  28.656  1.00  0.00     0.134 A 
ATOM     76  C   UNL A   1      35.986  30.509  28.945  1.00  0.00     0.134 A 
ATOM     77  F   UNL A   1      38.190  33.388  28.852  1.00  0.00    -0.206 F 
ATOM     78  C   UNL A   1      36.019  33.117  27.997  1.00  0.00     0.040 A 
ATOM     79  C   UNL A   1      34.878  31.015  28.261  1.00  0.00     0.040 A 
ATOM     80  F   UNL A   1      35.921  29.249  29.402  1.00  0.00    -0.206 F 
ATOM     81  C   UNL A   1      34.889  32.327  27.795  1.00  0.00     0.006 A 
ENDBRANCH  53  74
BRANCH  65  82
ATOM     82  C   UNL A   1      39.226  32.214  35.736  1.00  0.00     0.057 A 
ATOM     83  C   UNL A   1      39.631  33.546  35.890  1.00  0.00     0.134 A 
ATOM     84  C   UNL A   1      38.276  31.719  36.639  1.00  0.00     0.134 A 
ATOM     85  F   UNL A   1      40.546  34.079  35.066  1.00  0.00    -0.206 F 
ATOM     86  C   UNL A   1      39.127  34.347  36.917  1.00  0.00     0.040 A 
ATOM     87  C   UNL A   1      37.743  32.520  37.651  1.00  0.00     0.040 A 
ATOM     88  F   UNL A   1      37.835  30.456  36.541  1.00  0.00    -0.206 F 
ATOM     89  C   UNL A   1      38.174  33.836  37.796  1.00  0.00     0.006 A 
ENDBRANCH  65  82
ENDBRANCH  39  40
ENDBRANCH  32  34
ENDBRANCH  31  32
ENDBRANCH  30  31
ENDBRANCH  29  30
ENDBRANCH  28  29
ENDBRANCH  27  28
ENDBRANCH   1  27
TORSDOF 20
ENDMDL
MODEL 2
REMARK VINA RESULT:     -10.7      1.468      6.201
REMARK SMILES Cn1ccc(C(=O)NCc2ccc(C(=O)OCCOCCOCCOC(=O)c3ccc(-c4c5nc(c(-c6c(F)cccc6F)c6ccc([nH]6)c(-c6c(F)cccc6F)c6nc(c(-c7c(F)cccc7F)c7ccc4[nH]7)C=C6)C=C5)cc3)cc2)cc1=O
REMARK SMILES IDX 20 1 19 2 18 3 17 4 16 5 14 6 15 7 13 8 10 9 11 10 83 11
REMARK SMILES IDX 12 12 82 13 9 14 8 15 6 16 7 17 5 19 1 20 2 21 3 22 85 23
REMARK SMILES IDX 4 24 84 25 86 26 21 27 22 28 23 29 24 30 25 31 26 32 27 33
REMARK SMILES IDX 28 34 29 35 81 36 30 37 80 38 31 39 32 40 33 41 74 42 34 43
REMARK SMILES IDX 79 44 73 45 75 46 35 47 78 48 72 49 71 50 36 52 62 53 45 54
REMARK SMILES IDX 61 55 46 56 49 57 60 58 76 59 47 60 48 61 59 63 77 64 50 65
REMARK SMILES IDX 37 66 38 67 43 68 39 69 40 70 42 71 44 72 41 73 63 74 64 75
REMARK SMILES IDX 69 76 65 77 66 78 68 79 70 80 67 81 51 82 52 83 57 84 53 85
REMARK SMILES IDX 54 86 56 87 58 88 55 89
REMARK H PARENT 8 18 75 51 49 62
REMARK Flexibility Score: inf
ROOT
ATOM      1  C   UNL A   1      41.457  20.021  26.120  1.00  0.00     0.188 C 
ENDROOT
BRANCH   1   2
ATOM      2  O   UNL A   1      40.268  19.284  25.897  1.00  0.00    -0.376 OA
BRANCH   2   3
ATOM      3  C   UNL A   1      39.133  19.915  25.325  1.00  0.00     0.202 C 
BRANCH   3   4
ATOM      4  C   UNL A   1      38.437  21.100  26.008  1.00  0.00     0.261 C 
BRANCH   4   5
ATOM      5  O   UNL A   1      38.838  22.395  25.539  1.00  0.00    -0.460 OA
BRANCH   5   6
ATOM      6  C   UNL A   1      38.029  23.423  25.909  1.00  0.00     0.338 C 
ATOM      7  O   UNL A   1      38.326  24.371  26.610  1.00  0.00    -0.246 OA
BRANCH   6   8
ATOM      8  C   UNL A   1      36.747  23.342  25.168  1.00  0.00     0.060 A 
ATOM      9  C   UNL A   1      34.371  23.151  23.671  1.00  0.00    -0.029 A 
ATOM     10  C   UNL A   1      35.615  22.919  23.065  1.00  0.00     0.006 A 
ATOM     11  C   UNL A   1      34.338  23.431  25.051  1.00  0.00     0.006 A 
ATOM     12  C   UNL A   1      36.795  23.029  23.805  1.00  0.00     0.016 A 
ATOM     13  C   UNL A   1      35.517  23.530  25.797  1.00  0.00     0.016 A 
BRANCH   9  14
ATOM     14  C   UNL A   1      33.108  23.047  22.843  1.00  0.00     0.152 C 
BRANCH  14  15
ATOM     15  N   UNL A   1      33.180  23.836  21.631  1.00  0.00    -0.348 N 
ATOM     16  C   UNL A   1      32.913  25.125  21.317  1.00  0.00     0.251 C 
ATOM     17  O   UNL A   1      32.971  25.406  20.115  1.00  0.00    -0.269 OA
ATOM     18  H   UNL A   1      33.493  23.315  20.856  1.00  0.00     0.164 HD
BRANCH  16  19
ATOM     19  C   UNL A   1      32.631  26.218  22.312  1.00  0.00     0.046 A 
ATOM     20  C   UNL A   1      31.356  29.380  24.870  1.00  0.00     0.153 C 
ATOM     21  N   UNL A   1      31.807  28.282  24.029  1.00  0.00    -0.319 N 
ATOM     22  C   UNL A   1      30.865  27.569  23.316  1.00  0.00     0.089 A 
ATOM     23  C   UNL A   1      33.160  27.968  23.973  1.00  0.00     0.251 A 
ATOM     24  C   UNL A   1      31.229  26.584  22.491  1.00  0.00     0.032 A 
ATOM     25  C   UNL A   1      33.541  26.841  23.076  1.00  0.00     0.085 A 
ATOM     26  O   UNL A   1      34.045  28.556  24.590  1.00  0.00    -0.269 OA
ENDBRANCH  16  19
ENDBRANCH  14  15
ENDBRANCH   9  14
ENDBRANCH   6   8
ENDBRANCH   5   6
ENDBRANCH   4   5
ENDBRANCH   3   4
ENDBRANCH   2   3
ENDBRANCH   1   2
BRANCH   1  27
ATOM     27  C   UNL A   1      42.833  19.431  25.748  1.00  0.00     0.188 C 
BRANCH  27  28
ATOM     28  O   UNL A   1      43.666  20.176  24.895  1.00  0.00    -0.376 OA
BRANCH  28  29
ATOM     29  C   UNL A   1      44.115  21.470  25.254  1.00  0.00     0.202 C 
BRANCH  29  30
ATOM     30  C   UNL A   1      44.124  22.721  24.353  1.00  0.00     0.261 C 
BRANCH  30  31
ATOM     31  O   UNL A   1      43.415  23.880  24.790  1.00  0.00    -0.460 OA
BRANCH  31  32
ATOM     32  C   UNL A   1      44.184  24.924  25.173  1.00  0.00     0.338 C 
ATOM     33  O   UNL A   1      45.240  25.298  24.674  1.00  0.00    -0.246 OA
BRANCH  32  34
ATOM     34  C   UNL A   1      43.472  25.684  26.211  1.00  0.00     0.060 A 
ATOM     35  C   UNL A   1      43.852  27.010  26.456  1.00  0.00     0.016 A 
ATOM     36  C   UNL A   1      42.463  25.080  26.962  1.00  0.00     0.016 A 
ATOM     37  C   UNL A   1      43.228  27.736  27.470  1.00  0.00     0.010 A 
ATOM     38  C   UNL A   1      41.854  25.804  27.992  1.00  0.00     0.010 A 
ATOM     39  C   UNL A   1      42.251  27.125  28.266  1.00  0.00    -0.014 A 
BRANCH  39  40
ATOM     40  C   UNL A   1      41.748  27.811  29.481  1.00  0.00     0.031 A 
ATOM     41  C   UNL A   1      40.519  28.670  29.367  1.00  0.00     0.074 A 
ATOM     42  C   UNL A   1      42.373  27.678  30.663  1.00  0.00     0.049 A 
ATOM     43  N   UNL A   1      39.947  29.424  30.270  1.00  0.00    -0.248 NA
ATOM     44  C   UNL A   1      39.846  28.681  28.057  1.00  0.00     0.031 C 
ATOM     45  C   UNL A   1      43.552  26.850  30.909  1.00  0.00     0.029 A 
ATOM     46  N   UNL A   1      42.109  28.258  31.879  1.00  0.00    -0.354 N 
ATOM     47  C   UNL A   1      38.860  30.011  29.636  1.00  0.00     0.074 A 
ATOM     48  C   UNL A   1      38.859  29.540  28.268  1.00  0.00     0.031 C 
ATOM     49  C   UNL A   1      43.927  26.998  32.193  1.00  0.00     0.029 A 
ATOM     50  C   UNL A   1      43.035  27.954  32.847  1.00  0.00     0.049 A 
ATOM     51  H   UNL A   1      41.329  28.838  32.042  1.00  0.00     0.167 HD
ATOM     52  C   UNL A   1      37.944  30.866  30.149  1.00  0.00     0.037 A 
ATOM     53  C   UNL A   1      43.167  28.423  34.104  1.00  0.00     0.037 A 
ATOM     54  C   UNL A   1      37.942  31.329  31.511  1.00  0.00     0.049 A 
ATOM     55  C   UNL A   1      42.166  29.421  34.631  1.00  0.00     0.074 A 
ATOM     56  C   UNL A   1      37.031  32.165  32.133  1.00  0.00     0.029 A 
ATOM     57  N   UNL A   1      38.900  31.005  32.458  1.00  0.00    -0.354 N 
ATOM     58  N   UNL A   1      41.117  29.936  34.037  1.00  0.00    -0.248 NA
ATOM     59  C   UNL A   1      42.370  29.902  36.006  1.00  0.00     0.031 C 
ATOM     60  C   UNL A   1      37.470  32.393  33.440  1.00  0.00     0.029 A 
ATOM     61  C   UNL A   1      38.620  31.651  33.650  1.00  0.00     0.049 A 
ATOM     62  H   UNL A   1      39.667  30.406  32.305  1.00  0.00     0.167 HD
ATOM     63  C   UNL A   1      40.520  30.773  34.974  1.00  0.00     0.074 A 
ATOM     64  C   UNL A   1      41.316  30.687  36.180  1.00  0.00     0.031 C 
ATOM     65  C   UNL A   1      39.413  31.545  34.849  1.00  0.00     0.037 A 
BRANCH  52  66
ATOM     66  C   UNL A   1      36.877  31.381  29.230  1.00  0.00     0.057 A 
ATOM     67  C   UNL A   1      35.770  30.604  28.868  1.00  0.00     0.134 A 
ATOM     68  C   UNL A   1      36.928  32.697  28.755  1.00  0.00     0.134 A 
ATOM     69  F   UNL A   1      35.669  29.330  29.279  1.00  0.00    -0.206 F 
ATOM     70  C   UNL A   1      34.756  31.114  28.056  1.00  0.00     0.040 A 
ATOM     71  C   UNL A   1      35.909  33.227  27.963  1.00  0.00     0.040 A 
ATOM     72  F   UNL A   1      37.960  33.495  29.067  1.00  0.00    -0.206 F 
ATOM     73  C   UNL A   1      34.819  32.433  27.610  1.00  0.00     0.006 A 
ENDBRANCH  52  66
BRANCH  53  74
ATOM     74  C   UNL A   1      44.308  27.990  34.951  1.00  0.00     0.057 A 
ATOM     75  C   UNL A   1      45.545  28.643  34.899  1.00  0.00     0.134 A 
ATOM     76  C   UNL A   1      44.205  26.876  35.792  1.00  0.00     0.134 A 
ATOM     77  F   UNL A   1      45.715  29.701  34.092  1.00  0.00    -0.206 F 
ATOM     78  C   UNL A   1      46.644  28.190  35.630  1.00  0.00     0.040 A 
ATOM     79  C   UNL A   1      45.287  26.428  36.552  1.00  0.00     0.040 A 
ATOM     80  F   UNL A   1      43.048  26.202  35.886  1.00  0.00    -0.206 F 
ATOM     81  C   UNL A   1      46.515  27.079  36.463  1.00  0.00     0.006 A 
ENDBRANCH  53  74
BRANCH  65  82
ATOM     82  C   UNL A   1      38.965  32.320  36.053  1.00  0.00     0.057 A 
ATOM     83  C   UNL A   1      38.194  31.738  37.067  1.00  0.00     0.134 A 
ATOM     84  C   UNL A   1      39.354  33.656  36.225  1.00  0.00     0.134 A 
ATOM     85  F   UNL A   1      37.778  30.467  36.961  1.00  0.00    -0.206 F 
ATOM     86  C   UNL A   1      37.806  32.463  38.197  1.00  0.00     0.040 A 
ATOM     87  C   UNL A   1      38.999  34.381  37.363  1.00  0.00     0.040 A 
ATOM     88  F   UNL A   1      40.105  34.271  35.298  1.00  0.00    -0.206 F 
ATOM     89  C   UNL A   1      38.217  33.786  38.350  1.00  0.00     0.006 A 
ENDBRANCH  65  82
ENDBRANCH  39  40
ENDBRANCH  32  34
ENDBRANCH  31  32
ENDBRANCH  30  31
ENDBRANCH  29  30
ENDBRANCH  28  29
ENDBRANCH  27  28
ENDBRANCH   1  27
TORSDOF 20
ENDMDL
MODEL 3
REMARK VINA RESULT:     -10.6      1.470      1.913
REMARK SMILES Cn1ccc(C(=O)NCc2ccc(C(=O)OCCOCCOCCOC(=O)c3ccc(-c4c5nc(c(-c6c(F)cccc6F)c6ccc([nH]6)c(-c6c(F)cccc6F)c6nc(c(-c7c(F)cccc7F)c7ccc4[nH]7)C=C6)C=C5)cc3)cc2)cc1=O
REMARK SMILES IDX 20 1 19 2 18 3 17 4 16 5 14 6 15 7 13 8 10 9 11 10 83 11
REMARK SMILES IDX 12 12 82 13 9 14 8 15 6 16 7 17 5 19 1 20 2 21 3 22 85 23
REMARK SMILES IDX 4 24 84 25 86 26 21 27 22 28 23 29 24 30 25 31 26 32 27 33
REMARK SMILES IDX 28 34 29 35 81 36 30 37 80 38 31 39 32 40 33 41 74 42 34 43
REMARK SMILES IDX 79 44 73 45 75 46 35 47 78 48 72 49 71 50 36 52 62 53 45 54
REMARK SMILES IDX 61 55 46 56 49 57 60 58 76 59 47 60 48 61 59 63 77 64 50 65
REMARK SMILES IDX 37 66 38 67 43 68 39 69 40 70 42 71 44 72 41 73 63 74 64 75
REMARK SMILES IDX 69 76 65 77 66 78 68 79 70 80 67 81 51 82 52 83 57 84 53 85
REMARK SMILES IDX 54 86 56 87 58 88 55 89
REMARK H PARENT 8 18 75 51 49 62
REMARK Flexibility Score: inf
ROOT
ATOM      1  C   UNL A   1      41.474  19.614  26.190  1.00  0.00     0.188 C 
ENDROOT
BRANCH   1   2
ATOM      2  O   UNL A   1      41.031  20.187  27.407  1.00  0.00    -0.376 OA
BRANCH   2   3
ATOM      3  C   UNL A   1      40.506  21.505  27.427  1.00  0.00     0.202 C 
BRANCH   3   4
ATOM      4  C   UNL A   1      39.858  22.136  26.187  1.00  0.00     0.261 C 
BRANCH   4   5
ATOM      5  O   UNL A   1      38.425  22.171  26.199  1.00  0.00    -0.460 OA
BRANCH   5   6
ATOM      6  C   UNL A   1      37.874  23.413  26.140  1.00  0.00     0.338 C 
ATOM      7  O   UNL A   1      38.382  24.457  26.499  1.00  0.00    -0.246 OA
BRANCH   6   8
ATOM      8  C   UNL A   1      36.603  23.359  25.379  1.00  0.00     0.060 A 
ATOM      9  C   UNL A   1      34.250  23.235  23.838  1.00  0.00    -0.029 A 
ATOM     10  C   UNL A   1      35.508  23.155  23.224  1.00  0.00     0.006 A 
ATOM     11  C   UNL A   1      34.193  23.329  25.242  1.00  0.00     0.006 A 
ATOM     12  C   UNL A   1      36.676  23.231  23.987  1.00  0.00     0.016 A 
ATOM     13  C   UNL A   1      35.360  23.394  26.011  1.00  0.00     0.016 A 
BRANCH   9  14
ATOM     14  C   UNL A   1      32.999  23.172  22.987  1.00  0.00     0.152 C 
BRANCH  14  15
ATOM     15  N   UNL A   1      33.132  23.924  21.758  1.00  0.00    -0.348 N 
ATOM     16  C   UNL A   1      32.877  25.202  21.392  1.00  0.00     0.251 C 
ATOM     17  O   UNL A   1      32.999  25.448  20.187  1.00  0.00    -0.269 OA
ATOM     18  H   UNL A   1      33.491  23.383  21.018  1.00  0.00     0.164 HD
BRANCH  16  19
ATOM     19  C   UNL A   1      32.534  26.322  22.337  1.00  0.00     0.046 A 
ATOM     20  C   UNL A   1      31.170  29.624  24.660  1.00  0.00     0.153 C 
ATOM     21  N   UNL A   1      31.641  28.476  23.901  1.00  0.00    -0.319 N 
ATOM     22  C   UNL A   1      30.788  27.900  22.982  1.00  0.00     0.089 A 
ATOM     23  C   UNL A   1      32.920  27.981  24.126  1.00  0.00     0.251 A 
ATOM     24  C   UNL A   1      31.188  26.875  22.223  1.00  0.00     0.032 A 
ATOM     25  C   UNL A   1      33.333  26.813  23.296  1.00  0.00     0.085 A 
ATOM     26  O   UNL A   1      33.721  28.441  24.936  1.00  0.00    -0.269 OA
ENDBRANCH  16  19
ENDBRANCH  14  15
ENDBRANCH   9  14
ENDBRANCH   6   8
ENDBRANCH   5   6
ENDBRANCH   4   5
ENDBRANCH   3   4
ENDBRANCH   2   3
ENDBRANCH   1   2
BRANCH   1  27
ATOM     27  C   UNL A   1      42.947  19.739  25.750  1.00  0.00     0.188 C 
BRANCH  27  28
ATOM     28  O   UNL A   1      43.596  20.970  25.945  1.00  0.00    -0.376 OA
BRANCH  28  29
ATOM     29  C   UNL A   1      43.284  22.100  25.149  1.00  0.00     0.202 C 
BRANCH  29  30
ATOM     30  C   UNL A   1      44.270  22.923  24.297  1.00  0.00     0.261 C 
BRANCH  30  31
ATOM     31  O   UNL A   1      44.792  24.135  24.841  1.00  0.00    -0.460 OA
BRANCH  31  32
ATOM     32  C   UNL A   1      45.248  24.055  26.111  1.00  0.00     0.338 C 
ATOM     33  O   UNL A   1      46.222  23.433  26.519  1.00  0.00    -0.246 OA
BRANCH  32  34
ATOM     34  C   UNL A   1      44.480  24.987  26.951  1.00  0.00     0.060 A 
ATOM     35  C   UNL A   1      44.809  26.349  26.923  1.00  0.00     0.016 A 
ATOM     36  C   UNL A   1      43.469  24.514  27.788  1.00  0.00     0.016 A 
ATOM     37  C   UNL A   1      44.131  27.245  27.748  1.00  0.00     0.010 A 
ATOM     38  C   UNL A   1      42.805  25.412  28.630  1.00  0.00     0.010 A 
ATOM     39  C   UNL A   1      43.150  26.776  28.631  1.00  0.00    -0.014 A 
BRANCH  39  40
ATOM     40  C   UNL A   1      42.588  27.680  29.664  1.00  0.00     0.031 A 
ATOM     41  C   UNL A   1      43.235  27.711  31.022  1.00  0.00     0.074 A 
ATOM     42  C   UNL A   1      41.523  28.456  29.404  1.00  0.00     0.049 A 
ATOM     43  N   UNL A   1      42.871  28.359  32.099  1.00  0.00    -0.248 NA
ATOM     44  C   UNL A   1      44.453  26.901  31.187  1.00  0.00     0.031 C 
ATOM     45  C   UNL A   1      40.829  28.539  28.120  1.00  0.00     0.029 A 
ATOM     46  N   UNL A   1      40.824  29.311  30.220  1.00  0.00    -0.354 N 
ATOM     47  C   UNL A   1      43.803  28.023  33.072  1.00  0.00     0.074 A 
ATOM     48  C   UNL A   1      44.740  27.103  32.465  1.00  0.00     0.031 C 
ATOM     49  C   UNL A   1      39.785  29.379  28.243  1.00  0.00     0.029 A 
ATOM     50  C   UNL A   1      39.719  29.864  29.621  1.00  0.00     0.049 A 
ATOM     51  H   UNL A   1      41.091  29.509  31.147  1.00  0.00     0.167 HD
ATOM     52  C   UNL A   1      43.871  28.447  34.356  1.00  0.00     0.037 A 
ATOM     53  C   UNL A   1      38.748  30.643  30.136  1.00  0.00     0.037 A 
ATOM     54  C   UNL A   1      42.943  29.367  34.957  1.00  0.00     0.049 A 
ATOM     55  C   UNL A   1      38.817  31.051  31.587  1.00  0.00     0.074 A 
ATOM     56  C   UNL A   1      42.955  29.884  36.241  1.00  0.00     0.029 A 
ATOM     57  N   UNL A   1      41.833  29.898  34.321  1.00  0.00    -0.354 N 
ATOM     58  N   UNL A   1      39.726  30.763  32.487  1.00  0.00    -0.248 NA
ATOM     59  C   UNL A   1      37.721  31.893  32.093  1.00  0.00     0.031 C 
ATOM     60  C   UNL A   1      41.820  30.684  36.399  1.00  0.00     0.029 A 
ATOM     61  C   UNL A   1      41.135  30.713  35.195  1.00  0.00     0.049 A 
ATOM     62  H   UNL A   1      41.578  29.722  33.386  1.00  0.00     0.167 HD
ATOM     63  C   UNL A   1      39.330  31.414  33.651  1.00  0.00     0.074 A 
ATOM     64  C   UNL A   1      38.107  32.122  33.341  1.00  0.00     0.031 C 
ATOM     65  C   UNL A   1      39.926  31.425  34.869  1.00  0.00     0.037 A 
BRANCH  52  66
ATOM     66  C   UNL A   1      44.973  27.900  35.213  1.00  0.00     0.057 A 
ATOM     67  C   UNL A   1      46.218  28.532  35.316  1.00  0.00     0.134 A 
ATOM     68  C   UNL A   1      44.760  26.759  35.998  1.00  0.00     0.134 A 
ATOM     69  F   UNL A   1      46.491  29.621  34.580  1.00  0.00    -0.206 F 
ATOM     70  C   UNL A   1      47.216  28.044  36.160  1.00  0.00     0.040 A 
ATOM     71  C   UNL A   1      45.741  26.275  36.865  1.00  0.00     0.040 A 
ATOM     72  F   UNL A   1      43.588  26.108  35.950  1.00  0.00    -0.206 F 
ATOM     73  C   UNL A   1      46.975  26.918  36.946  1.00  0.00     0.006 A 
ENDBRANCH  52  66
BRANCH  53  74
ATOM     74  C   UNL A   1      37.599  31.067  29.295  1.00  0.00     0.057 A 
ATOM     75  C   UNL A   1      37.493  32.376  28.810  1.00  0.00     0.134 A 
ATOM     76  C   UNL A   1      36.550  30.187  29.003  1.00  0.00     0.134 A 
ATOM     77  F   UNL A   1      38.453  33.275  29.079  1.00  0.00    -0.206 F 
ATOM     78  C   UNL A   1      36.375  32.803  28.090  1.00  0.00     0.040 A 
ATOM     79  C   UNL A   1      35.440  30.591  28.259  1.00  0.00     0.040 A 
ATOM     80  F   UNL A   1      36.587  28.919  29.440  1.00  0.00    -0.206 F 
ATOM     81  C   UNL A   1      35.345  31.906  27.811  1.00  0.00     0.006 A 
ENDBRANCH  53  74
BRANCH  65  82
ATOM     82  C   UNL A   1      39.295  32.261  35.944  1.00  0.00     0.057 A 
ATOM     83  C   UNL A   1      39.632  33.608  36.132  1.00  0.00     0.134 A 
ATOM     84  C   UNL A   1      38.299  31.724  36.772  1.00  0.00     0.134 A 
ATOM     85  F   UNL A   1      40.586  34.181  35.381  1.00  0.00    -0.206 F 
ATOM     86  C   UNL A   1      39.019  34.383  37.118  1.00  0.00     0.040 A 
ATOM     87  C   UNL A   1      37.658  32.498  37.740  1.00  0.00     0.040 A 
ATOM     88  F   UNL A   1      37.919  30.445  36.637  1.00  0.00    -0.206 F 
ATOM     89  C   UNL A   1      38.022  33.830  37.920  1.00  0.00     0.006 A 
ENDBRANCH  65  82
ENDBRANCH  39  40
ENDBRANCH  32  34
ENDBRANCH  31  32
ENDBRANCH  30  31
ENDBRANCH  29  30
ENDBRANCH  28  29
ENDBRANCH  27  28
ENDBRANCH   1  27
TORSDOF 20
ENDMDL
