MODEL 1
REMARK VINA RESULT:     -10.9      0.000      0.000
REMARK SMILES Cc1nc(C)c(C(=O)N2CCC([C@H](C)C(=O)OCCOCCOCCOC(=O)c3ccc(-c4c5nc(c(-c6c(F)cccc6F)c6ccc([nH]6)c(-c6c(F)cccc6F)c6nc(c(-c7c(F)cccc7F)c7ccc4[nH]7)C=C6)C=C5)cc3)CC2)s1
REMARK SMILES IDX 21 1 20 2 19 3 18 4 17 5 15 6 16 7 13 8 14 9 12 10 7 11 8 12
REMARK SMILES IDX 9 13 10 14 84 15 11 16 83 17 6 18 1 19 2 20 3 21 85 22 4 23
REMARK SMILES IDX 5 24 22 25 23 26 24 27 25 28 26 29 27 30 28 31 29 32 30 33
REMARK SMILES IDX 82 34 31 35 81 36 32 37 33 38 34 39 75 40 35 41 80 42 74 43
REMARK SMILES IDX 76 44 36 45 79 46 73 47 72 48 37 50 63 51 46 52 62 53 47 54
REMARK SMILES IDX 50 55 61 56 77 57 48 58 49 59 60 61 78 62 51 63 38 64 39 65
REMARK SMILES IDX 44 66 40 67 41 68 43 69 45 70 42 71 64 72 65 73 70 74 66 75
REMARK SMILES IDX 67 76 69 77 71 78 68 79 52 80 53 81 58 82 54 83 55 84 57 85
REMARK SMILES IDX 59 86 56 87
REMARK H PARENT 76 49 50 60
REMARK Flexibility Score: inf
ROOT
ATOM      1  C   UNL A   1      40.045  21.537  26.432  1.00  0.00     0.188 C 
ENDROOT
BRANCH   1   2
ATOM      2  O   UNL A   1      38.898  21.095  25.714  1.00  0.00    -0.376 OA
BRANCH   2   3
ATOM      3  C   UNL A   1      37.809  21.986  25.508  1.00  0.00     0.202 C 
BRANCH   3   4
ATOM      4  C   UNL A   1      36.650  21.479  24.646  1.00  0.00     0.261 C 
BRANCH   4   5
ATOM      5  O   UNL A   1      35.644  20.717  25.348  1.00  0.00    -0.463 OA
BRANCH   5   6
ATOM      6  C   UNL A   1      34.601  21.417  25.871  1.00  0.00     0.309 C 
ATOM      7  O   UNL A   1      34.368  21.531  27.069  1.00  0.00    -0.252 OA
BRANCH   6   8
ATOM      8  C   UNL A   1      33.654  21.972  24.804  1.00  0.00     0.099 C 
ATOM      9  C   UNL A   1      32.459  21.065  24.492  1.00  0.00     0.020 C 
BRANCH   8  10
ATOM     10  C   UNL A   1      33.319  23.478  25.017  1.00  0.00     0.006 C 
ATOM     11  C   UNL A   1      33.026  27.472  23.642  1.00  0.00     0.265 C 
ATOM     12  O   UNL A   1      34.082  27.833  23.119  1.00  0.00    -0.268 OA
ATOM     13  N   UNL A   1      32.971  26.288  24.377  1.00  0.00    -0.338 N 
ATOM     14  C   UNL A   1      34.144  25.873  25.121  1.00  0.00     0.120 C 
ATOM     15  C   UNL A   1      31.790  25.442  24.503  1.00  0.00     0.120 C 
ATOM     16  C   UNL A   1      34.518  24.429  24.834  1.00  0.00     0.026 C 
ATOM     17  C   UNL A   1      32.131  23.992  24.176  1.00  0.00     0.026 C 
BRANCH  11  18
ATOM     18  C   UNL A   1      31.825  28.282  23.575  1.00  0.00     0.115 A 
ATOM     19  C   UNL A   1      28.339  29.522  22.413  1.00  0.00     0.079 C 
ATOM     20  C   UNL A   1      29.644  29.200  23.047  1.00  0.00     0.091 A 
ATOM     21  N   UNL A   1      30.124  29.790  24.120  1.00  0.00    -0.246 NA
ATOM     22  S   UNL A   1      30.614  27.955  22.397  1.00  0.00    -0.113 S 
ATOM     23  C   UNL A   1      31.356  29.240  24.459  1.00  0.00     0.061 A 
ATOM     24  C   UNL A   1      32.012  29.721  25.705  1.00  0.00     0.068 C 
ENDBRANCH  11  18
ENDBRANCH   8  10
ENDBRANCH   6   8
ENDBRANCH   5   6
ENDBRANCH   4   5
ENDBRANCH   3   4
ENDBRANCH   2   3
ENDBRANCH   1   2
BRANCH   1  25
ATOM     25  C   UNL A   1      40.805  20.527  27.299  1.00  0.00     0.188 C 
BRANCH  25  26
ATOM     26  O   UNL A   1      42.211  20.659  27.223  1.00  0.00    -0.376 OA
BRANCH  26  27
ATOM     27  C   UNL A   1      42.819  20.234  26.017  1.00  0.00     0.202 C 
BRANCH  27  28
ATOM     28  C   UNL A   1      43.861  21.230  25.502  1.00  0.00     0.261 C 
BRANCH  28  29
ATOM     29  O   UNL A   1      43.964  22.445  26.268  1.00  0.00    -0.460 OA
BRANCH  29  30
ATOM     30  C   UNL A   1      43.961  23.613  25.582  1.00  0.00     0.338 C 
ATOM     31  O   UNL A   1      44.256  23.779  24.415  1.00  0.00    -0.246 OA
BRANCH  30  32
ATOM     32  C   UNL A   1      43.307  24.632  26.439  1.00  0.00     0.060 A 
ATOM     33  C   UNL A   1      43.782  25.952  26.404  1.00  0.00     0.016 A 
ATOM     34  C   UNL A   1      42.219  24.297  27.248  1.00  0.00     0.016 A 
ATOM     35  C   UNL A   1      43.189  26.931  27.205  1.00  0.00     0.010 A 
ATOM     36  C   UNL A   1      41.640  25.273  28.063  1.00  0.00     0.010 A 
ATOM     37  C   UNL A   1      42.140  26.586  28.069  1.00  0.00    -0.014 A 
BRANCH  37  38
ATOM     38  C   UNL A   1      41.711  27.524  29.136  1.00  0.00     0.031 A 
ATOM     39  C   UNL A   1      42.443  27.480  30.450  1.00  0.00     0.074 A 
ATOM     40  C   UNL A   1      40.695  28.387  28.964  1.00  0.00     0.049 A 
ATOM     41  N   UNL A   1      42.204  28.128  31.561  1.00  0.00    -0.248 NA
ATOM     42  C   UNL A   1      43.603  26.575  30.517  1.00  0.00     0.031 C 
ATOM     43  C   UNL A   1      39.926  28.561  27.734  1.00  0.00     0.029 A 
ATOM     44  N   UNL A   1      40.124  29.271  29.847  1.00  0.00    -0.354 N 
ATOM     45  C   UNL A   1      43.178  27.705  32.457  1.00  0.00     0.074 A 
ATOM     46  C   UNL A   1      43.994  26.728  31.772  1.00  0.00     0.031 C 
ATOM     47  C   UNL A   1      38.969  29.484  27.946  1.00  0.00     0.029 A 
ATOM     48  C   UNL A   1      39.038  29.939  29.335  1.00  0.00     0.049 A 
ATOM     49  H   UNL A   1      40.462  29.413  30.761  1.00  0.00     0.167 HD
ATOM     50  C   UNL A   1      43.379  28.099  33.737  1.00  0.00     0.037 A 
ATOM     51  C   UNL A   1      38.185  30.797  29.929  1.00  0.00     0.037 A 
ATOM     52  C   UNL A   1      42.566  29.061  34.428  1.00  0.00     0.049 A 
ATOM     53  C   UNL A   1      38.380  31.160  31.380  1.00  0.00     0.074 A 
ATOM     54  C   UNL A   1      42.696  29.529  35.723  1.00  0.00     0.029 A 
ATOM     55  N   UNL A   1      41.462  29.696  33.881  1.00  0.00    -0.354 N 
ATOM     56  N   UNL A   1      39.315  30.772  32.213  1.00  0.00    -0.248 NA
ATOM     57  C   UNL A   1      37.398  32.083  31.972  1.00  0.00     0.031 C 
ATOM     58  C   UNL A   1      41.644  30.415  35.975  1.00  0.00     0.029 A 
ATOM     59  C   UNL A   1      40.888  30.536  34.820  1.00  0.00     0.049 A 
ATOM     60  H   UNL A   1      41.135  29.570  32.960  1.00  0.00     0.167 HD
ATOM     61  C   UNL A   1      39.051  31.422  33.414  1.00  0.00     0.074 A 
ATOM     62  C   UNL A   1      37.875  32.238  33.199  1.00  0.00     0.031 C 
ATOM     63  C   UNL A   1      39.724  31.352  34.590  1.00  0.00     0.037 A 
BRANCH  50  64
ATOM     64  C   UNL A   1      44.514  27.459  34.477  1.00  0.00     0.057 A 
ATOM     65  C   UNL A   1      44.359  26.247  35.164  1.00  0.00     0.134 A 
ATOM     66  C   UNL A   1      45.782  28.055  34.493  1.00  0.00     0.134 A 
ATOM     67  F   UNL A   1      43.164  25.637  35.204  1.00  0.00    -0.206 F 
ATOM     68  C   UNL A   1      45.418  25.662  35.858  1.00  0.00     0.040 A 
ATOM     69  C   UNL A   1      46.856  27.466  35.163  1.00  0.00     0.040 A 
ATOM     70  F   UNL A   1      45.997  29.215  33.856  1.00  0.00    -0.206 F 
ATOM     71  C   UNL A   1      46.673  26.270  35.854  1.00  0.00     0.006 A 
ENDBRANCH  50  64
BRANCH  51  72
ATOM     72  C   UNL A   1      37.044  31.364  29.165  1.00  0.00     0.057 A 
ATOM     73  C   UNL A   1      37.061  32.688  28.709  1.00  0.00     0.134 A 
ATOM     74  C   UNL A   1      35.893  30.610  28.908  1.00  0.00     0.134 A 
ATOM     75  F   UNL A   1      38.122  33.471  28.951  1.00  0.00    -0.206 F 
ATOM     76  C   UNL A   1      35.970  33.246  28.040  1.00  0.00     0.040 A 
ATOM     77  C   UNL A   1      34.805  31.147  28.219  1.00  0.00     0.040 A 
ATOM     78  F   UNL A   1      35.810  29.338  29.326  1.00  0.00    -0.206 F 
ATOM     79  C   UNL A   1      34.838  32.471  27.788  1.00  0.00     0.006 A 
ENDBRANCH  51  72
BRANCH  63  80
ATOM     80  C   UNL A   1      39.235  32.207  35.722  1.00  0.00     0.057 A 
ATOM     81  C   UNL A   1      39.648  33.535  35.882  1.00  0.00     0.134 A 
ATOM     82  C   UNL A   1      38.295  31.708  36.634  1.00  0.00     0.134 A 
ATOM     83  F   UNL A   1      40.553  34.071  35.049  1.00  0.00    -0.206 F 
ATOM     84  C   UNL A   1      39.159  34.331  36.920  1.00  0.00     0.040 A 
ATOM     85  C   UNL A   1      37.780  32.501  37.661  1.00  0.00     0.040 A 
ATOM     86  F   UNL A   1      37.848  30.447  36.531  1.00  0.00    -0.206 F 
ATOM     87  C   UNL A   1      38.216  33.817  37.809  1.00  0.00     0.006 A 
ENDBRANCH  63  80
ENDBRANCH  37  38
ENDBRANCH  30  32
ENDBRANCH  29  30
ENDBRANCH  28  29
ENDBRANCH  27  28
ENDBRANCH  26  27
ENDBRANCH  25  26
ENDBRANCH   1  25
TORSDOF 19
ENDMDL
MODEL 2
REMARK VINA RESULT:     -10.7      4.519     10.135
REMARK SMILES Cc1nc(C)c(C(=O)N2CCC([C@H](C)C(=O)OCCOCCOCCOC(=O)c3ccc(-c4c5nc(c(-c6c(F)cccc6F)c6ccc([nH]6)c(-c6c(F)cccc6F)c6nc(c(-c7c(F)cccc7F)c7ccc4[nH]7)C=C6)C=C5)cc3)CC2)s1
REMARK SMILES IDX 21 1 20 2 19 3 18 4 17 5 15 6 16 7 13 8 14 9 12 10 7 11 8 12
REMARK SMILES IDX 9 13 10 14 84 15 11 16 83 17 6 18 1 19 2 20 3 21 85 22 4 23
REMARK SMILES IDX 5 24 22 25 23 26 24 27 25 28 26 29 27 30 28 31 29 32 30 33
REMARK SMILES IDX 82 34 31 35 81 36 32 37 33 38 34 39 75 40 35 41 80 42 74 43
REMARK SMILES IDX 76 44 36 45 79 46 73 47 72 48 37 50 63 51 46 52 62 53 47 54
REMARK SMILES IDX 50 55 61 56 77 57 48 58 49 59 60 61 78 62 51 63 38 64 39 65
REMARK SMILES IDX 44 66 40 67 41 68 43 69 45 70 42 71 64 72 65 73 70 74 66 75
REMARK SMILES IDX 67 76 69 77 71 78 68 79 52 80 53 81 58 82 54 83 55 84 57 85
REMARK SMILES IDX 59 86 56 87
REMARK H PARENT 76 49 50 60
REMARK Flexibility Score: inf
ROOT
ATOM      1  C   UNL A   1      34.955  33.815  28.265  1.00  0.00     0.188 C 
ENDROOT
BRANCH   1   2
ATOM      2  O   UNL A   1      34.320  32.843  27.440  1.00  0.00    -0.376 OA
BRANCH   2   3
ATOM      3  C   UNL A   1      34.195  31.503  27.900  1.00  0.00     0.202 C 
BRANCH   3   4
ATOM      4  C   UNL A   1      33.047  30.675  27.318  1.00  0.00     0.261 C 
BRANCH   4   5
ATOM      5  O   UNL A   1      33.313  29.261  27.177  1.00  0.00    -0.463 OA
BRANCH   5   6
ATOM      6  C   UNL A   1      33.288  28.758  25.913  1.00  0.00     0.309 C 
ATOM      7  O   UNL A   1      34.249  28.733  25.153  1.00  0.00    -0.252 OA
BRANCH   6   8
ATOM      8  C   UNL A   1      31.891  28.317  25.470  1.00  0.00     0.099 C 
ATOM      9  C   UNL A   1      31.159  29.336  24.591  1.00  0.00     0.020 C 
BRANCH   8  10
ATOM     10  C   UNL A   1      31.854  26.843  24.966  1.00  0.00     0.006 C 
ATOM     11  C   UNL A   1      33.722  23.380  23.402  1.00  0.00     0.265 C 
ATOM     12  O   UNL A   1      34.377  23.655  22.395  1.00  0.00    -0.268 OA
ATOM     13  N   UNL A   1      32.833  24.311  23.940  1.00  0.00    -0.338 N 
ATOM     14  C   UNL A   1      32.143  25.217  23.043  1.00  0.00     0.120 C 
ATOM     15  C   UNL A   1      32.495  24.415  25.355  1.00  0.00     0.120 C 
ATOM     16  C   UNL A   1      32.265  26.663  23.492  1.00  0.00     0.026 C 
ATOM     17  C   UNL A   1      32.652  25.851  25.840  1.00  0.00     0.026 C 
BRANCH  11  18
ATOM     18  C   UNL A   1      33.795  22.075  24.027  1.00  0.00     0.115 A 
ATOM     19  C   UNL A   1      32.763  18.488  25.083  1.00  0.00     0.079 C 
ATOM     20  C   UNL A   1      33.380  19.802  24.763  1.00  0.00     0.091 A 
ATOM     21  N   UNL A   1      34.614  20.145  25.064  1.00  0.00    -0.246 NA
ATOM     22  S   UNL A   1      32.479  20.972  23.908  1.00  0.00    -0.113 S 
ATOM     23  C   UNL A   1      34.877  21.433  24.607  1.00  0.00     0.061 A 
ATOM     24  C   UNL A   1      36.258  21.961  24.777  1.00  0.00     0.068 C 
ENDBRANCH  11  18
ENDBRANCH   8  10
ENDBRANCH   6   8
ENDBRANCH   5   6
ENDBRANCH   4   5
ENDBRANCH   3   4
ENDBRANCH   2   3
ENDBRANCH   1   2
BRANCH   1  25
ATOM     25  C   UNL A   1      34.084  34.841  28.997  1.00  0.00     0.188 C 
BRANCH  25  26
ATOM     26  O   UNL A   1      33.570  34.375  30.229  1.00  0.00    -0.376 OA
BRANCH  26  27
ATOM     27  C   UNL A   1      33.878  35.149  31.374  1.00  0.00     0.202 C 
BRANCH  27  28
ATOM     28  C   UNL A   1      35.119  34.641  32.111  1.00  0.00     0.261 C 
BRANCH  28  29
ATOM     29  O   UNL A   1      35.525  33.305  31.759  1.00  0.00    -0.460 OA
BRANCH  29  30
ATOM     30  C   UNL A   1      36.211  32.599  32.689  1.00  0.00     0.338 C 
ATOM     31  O   UNL A   1      35.935  32.474  33.865  1.00  0.00    -0.246 OA
BRANCH  30  32
ATOM     32  C   UNL A   1      37.240  31.803  31.976  1.00  0.00     0.060 A 
ATOM     33  C   UNL A   1      38.164  31.063  32.727  1.00  0.00     0.016 A 
ATOM     34  C   UNL A   1      37.276  31.764  30.580  1.00  0.00     0.016 A 
ATOM     35  C   UNL A   1      39.148  30.309  32.082  1.00  0.00     0.010 A 
ATOM     36  C   UNL A   1      38.271  31.025  29.937  1.00  0.00     0.010 A 
ATOM     37  C   UNL A   1      39.231  30.320  30.683  1.00  0.00    -0.014 A 
BRANCH  37  38
ATOM     38  C   UNL A   1      40.436  29.787  30.001  1.00  0.00     0.031 A 
ATOM     39  C   UNL A   1      41.585  30.728  29.761  1.00  0.00     0.074 A 
ATOM     40  C   UNL A   1      40.518  28.510  29.588  1.00  0.00     0.049 A 
ATOM     41  N   UNL A   1      42.703  30.532  29.112  1.00  0.00    -0.248 NA
ATOM     42  C   UNL A   1      41.447  32.079  30.331  1.00  0.00     0.031 C 
ATOM     43  C   UNL A   1      39.499  27.484  29.789  1.00  0.00     0.029 A 
ATOM     44  N   UNL A   1      41.513  27.866  28.893  1.00  0.00    -0.354 N 
ATOM     45  C   UNL A   1      43.397  31.733  29.191  1.00  0.00     0.074 A 
ATOM     46  C   UNL A   1      42.565  32.659  29.926  1.00  0.00     0.031 C 
ATOM     47  C   UNL A   1      39.913  26.340  29.212  1.00  0.00     0.029 A 
ATOM     48  C   UNL A   1      41.210  26.565  28.573  1.00  0.00     0.049 A 
ATOM     49  H   UNL A   1      42.364  28.296  28.647  1.00  0.00     0.167 HD
ATOM     50  C   UNL A   1      44.621  32.038  28.699  1.00  0.00     0.037 A 
ATOM     51  C   UNL A   1      41.891  25.671  27.830  1.00  0.00     0.037 A 
ATOM     52  C   UNL A   1      45.449  31.126  27.958  1.00  0.00     0.049 A 
ATOM     53  C   UNL A   1      43.216  26.058  27.223  1.00  0.00     0.074 A 
ATOM     54  C   UNL A   1      46.707  31.342  27.424  1.00  0.00     0.029 A 
ATOM     55  N   UNL A   1      45.094  29.826  27.636  1.00  0.00    -0.354 N 
ATOM     56  N   UNL A   1      43.874  27.188  27.320  1.00  0.00    -0.248 NA
ATOM     57  C   UNL A   1      43.894  25.042  26.401  1.00  0.00     0.031 C 
ATOM     58  C   UNL A   1      47.095  30.186  26.741  1.00  0.00     0.029 A 
ATOM     59  C   UNL A   1      46.100  29.234  26.892  1.00  0.00     0.049 A 
ATOM     60  H   UNL A   1      44.251  29.387  27.897  1.00  0.00     0.167 HD
ATOM     61  C   UNL A   1      45.050  27.009  26.599  1.00  0.00     0.074 A 
ATOM     62  C   UNL A   1      45.021  25.658  26.079  1.00  0.00     0.031 C 
ATOM     63  C   UNL A   1      46.065  27.884  26.390  1.00  0.00     0.037 A 
BRANCH  50  64
ATOM     64  C   UNL A   1      45.121  33.432  28.928  1.00  0.00     0.057 A 
ATOM     65  C   UNL A   1      44.838  34.475  28.037  1.00  0.00     0.134 A 
ATOM     66  C   UNL A   1      45.885  33.738  30.062  1.00  0.00     0.134 A 
ATOM     67  F   UNL A   1      44.128  34.242  26.922  1.00  0.00    -0.206 F 
ATOM     68  C   UNL A   1      45.314  35.769  28.253  1.00  0.00     0.040 A 
ATOM     69  C   UNL A   1      46.346  35.034  30.302  1.00  0.00     0.040 A 
ATOM     70  F   UNL A   1      46.192  32.785  30.954  1.00  0.00    -0.206 F 
ATOM     71  C   UNL A   1      46.066  36.051  29.393  1.00  0.00     0.006 A 
ENDBRANCH  50  64
BRANCH  51  72
ATOM     72  C   UNL A   1      41.327  24.317  27.588  1.00  0.00     0.057 A 
ATOM     73  C   UNL A   1      40.276  24.118  26.685  1.00  0.00     0.134 A 
ATOM     74  C   UNL A   1      41.798  23.198  28.285  1.00  0.00     0.134 A 
ATOM     75  F   UNL A   1      39.760  25.155  26.011  1.00  0.00    -0.206 F 
ATOM     76  C   UNL A   1      39.703  22.859  26.495  1.00  0.00     0.040 A 
ATOM     77  C   UNL A   1      41.252  21.929  28.086  1.00  0.00     0.040 A 
ATOM     78  F   UNL A   1      42.798  23.323  29.171  1.00  0.00    -0.206 F 
ATOM     79  C   UNL A   1      40.196  21.757  27.194  1.00  0.00     0.006 A 
ENDBRANCH  51  72
BRANCH  63  80
ATOM     80  C   UNL A   1      47.246  27.401  25.599  1.00  0.00     0.057 A 
ATOM     81  C   UNL A   1      47.322  27.555  24.210  1.00  0.00     0.134 A 
ATOM     82  C   UNL A   1      48.346  26.823  26.247  1.00  0.00     0.134 A 
ATOM     83  F   UNL A   1      46.299  28.092  23.528  1.00  0.00    -0.206 F 
ATOM     84  C   UNL A   1      48.442  27.133  23.490  1.00  0.00     0.040 A 
ATOM     85  C   UNL A   1      49.481  26.421  25.542  1.00  0.00     0.040 A 
ATOM     86  F   UNL A   1      48.343  26.658  27.578  1.00  0.00    -0.206 F 
ATOM     87  C   UNL A   1      49.529  26.571  24.157  1.00  0.00     0.006 A 
ENDBRANCH  63  80
ENDBRANCH  37  38
ENDBRANCH  30  32
ENDBRANCH  29  30
ENDBRANCH  28  29
ENDBRANCH  27  28
ENDBRANCH  26  27
ENDBRANCH  25  26
ENDBRANCH   1  25
TORSDOF 19
ENDMDL
MODEL 3
REMARK VINA RESULT:     -10.7      4.556     10.186
REMARK SMILES Cc1nc(C)c(C(=O)N2CCC([C@H](C)C(=O)OCCOCCOCCOC(=O)c3ccc(-c4c5nc(c(-c6c(F)cccc6F)c6ccc([nH]6)c(-c6c(F)cccc6F)c6nc(c(-c7c(F)cccc7F)c7ccc4[nH]7)C=C6)C=C5)cc3)CC2)s1
REMARK SMILES IDX 21 1 20 2 19 3 18 4 17 5 15 6 16 7 13 8 14 9 12 10 7 11 8 12
REMARK SMILES IDX 9 13 10 14 84 15 11 16 83 17 6 18 1 19 2 20 3 21 85 22 4 23
REMARK SMILES IDX 5 24 22 25 23 26 24 27 25 28 26 29 27 30 28 31 29 32 30 33
REMARK SMILES IDX 82 34 31 35 81 36 32 37 33 38 34 39 75 40 35 41 80 42 74 43
REMARK SMILES IDX 76 44 36 45 79 46 73 47 72 48 37 50 63 51 46 52 62 53 47 54
REMARK SMILES IDX 50 55 61 56 77 57 48 58 49 59 60 61 78 62 51 63 38 64 39 65
REMARK SMILES IDX 44 66 40 67 41 68 43 69 45 70 42 71 64 72 65 73 70 74 66 75
REMARK SMILES IDX 67 76 69 77 71 78 68 79 52 80 53 81 58 82 54 83 55 84 57 85
REMARK SMILES IDX 59 86 56 87
REMARK H PARENT 76 49 50 60
REMARK Flexibility Score: inf
ROOT
ATOM      1  C   UNL A   1      34.225  34.276  28.153  1.00  0.00     0.188 C 
ENDROOT
BRANCH   1   2
ATOM      2  O   UNL A   1      33.653  32.973  28.097  1.00  0.00    -0.376 OA
BRANCH   2   3
ATOM      3  C   UNL A   1      34.483  31.850  27.828  1.00  0.00     0.202 C 
BRANCH   3   4
ATOM      4  C   UNL A   1      33.794  30.588  27.304  1.00  0.00     0.261 C 
BRANCH   4   5
ATOM      5  O   UNL A   1      32.584  30.812  26.545  1.00  0.00    -0.463 OA
BRANCH   5   6
ATOM      6  C   UNL A   1      32.018  29.721  25.961  1.00  0.00     0.309 C 
ATOM      7  O   UNL A   1      31.305  29.754  24.965  1.00  0.00    -0.252 OA
BRANCH   6   8
ATOM      8  C   UNL A   1      32.262  28.427  26.742  1.00  0.00     0.099 C 
ATOM      9  C   UNL A   1      31.292  28.202  27.906  1.00  0.00     0.020 C 
BRANCH   8  10
ATOM     10  C   UNL A   1      32.499  27.198  25.815  1.00  0.00     0.006 C 
ATOM     11  C   UNL A   1      34.530  23.627  24.788  1.00  0.00     0.265 C 
ATOM     12  O   UNL A   1      35.750  23.805  24.780  1.00  0.00    -0.268 OA
ATOM     13  N   UNL A   1      33.659  24.714  24.860  1.00  0.00    -0.338 N 
ATOM     14  C   UNL A   1      34.046  25.962  24.232  1.00  0.00     0.120 C 
ATOM     15  C   UNL A   1      32.342  24.683  25.484  1.00  0.00     0.120 C 
ATOM     16  C   UNL A   1      33.901  27.144  25.176  1.00  0.00     0.026 C 
ATOM     17  C   UNL A   1      32.187  25.836  26.470  1.00  0.00     0.026 C 
BRANCH  11  18
ATOM     18  C   UNL A   1      33.951  22.305  24.661  1.00  0.00     0.115 A 
ATOM     19  C   UNL A   1      32.888  18.696  25.605  1.00  0.00     0.079 C 
ATOM     20  C   UNL A   1      33.149  20.050  25.050  1.00  0.00     0.091 A 
ATOM     21  N   UNL A   1      32.674  20.497  23.907  1.00  0.00    -0.246 NA
ATOM     22  S   UNL A   1      34.093  21.160  25.938  1.00  0.00    -0.113 S 
ATOM     23  C   UNL A   1      33.093  21.807  23.694  1.00  0.00     0.061 A 
ATOM     24  C   UNL A   1      32.577  22.513  22.490  1.00  0.00     0.068 C 
ENDBRANCH  11  18
ENDBRANCH   8  10
ENDBRANCH   6   8
ENDBRANCH   5   6
ENDBRANCH   4   5
ENDBRANCH   3   4
ENDBRANCH   2   3
ENDBRANCH   1   2
BRANCH   1  25
ATOM     25  C   UNL A   1      33.634  35.298  29.129  1.00  0.00     0.188 C 
BRANCH  25  26
ATOM     26  O   UNL A   1      33.188  34.731  30.345  1.00  0.00    -0.376 OA
BRANCH  26  27
ATOM     27  C   UNL A   1      34.053  34.867  31.458  1.00  0.00     0.202 C 
BRANCH  27  28
ATOM     28  C   UNL A   1      34.054  33.629  32.357  1.00  0.00     0.261 C 
BRANCH  28  29
ATOM     29  O   UNL A   1      35.069  32.657  32.044  1.00  0.00    -0.460 OA
BRANCH  29  30
ATOM     30  C   UNL A   1      36.237  32.738  32.725  1.00  0.00     0.338 C 
ATOM     31  O   UNL A   1      36.410  33.216  33.829  1.00  0.00    -0.246 OA
BRANCH  30  32
ATOM     32  C   UNL A   1      37.239  31.927  31.991  1.00  0.00     0.060 A 
ATOM     33  C   UNL A   1      38.077  31.068  32.716  1.00  0.00     0.016 A 
ATOM     34  C   UNL A   1      37.333  31.993  30.599  1.00  0.00     0.016 A 
ATOM     35  C   UNL A   1      39.035  30.297  32.052  1.00  0.00     0.010 A 
ATOM     36  C   UNL A   1      38.303  31.236  29.938  1.00  0.00     0.010 A 
ATOM     37  C   UNL A   1      39.179  30.409  30.662  1.00  0.00    -0.014 A 
BRANCH  37  38
ATOM     38  C   UNL A   1      40.374  29.845  29.986  1.00  0.00     0.031 A 
ATOM     39  C   UNL A   1      41.541  30.760  29.737  1.00  0.00     0.074 A 
ATOM     40  C   UNL A   1      40.431  28.562  29.588  1.00  0.00     0.049 A 
ATOM     41  N   UNL A   1      42.655  30.535  29.090  1.00  0.00    -0.248 NA
ATOM     42  C   UNL A   1      41.430  32.120  30.293  1.00  0.00     0.031 C 
ATOM     43  C   UNL A   1      39.391  27.558  29.799  1.00  0.00     0.029 A 
ATOM     44  N   UNL A   1      41.413  27.891  28.900  1.00  0.00    -0.354 N 
ATOM     45  C   UNL A   1      43.373  31.723  29.157  1.00  0.00     0.074 A 
ATOM     46  C   UNL A   1      42.559  32.673  29.882  1.00  0.00     0.031 C 
ATOM     47  C   UNL A   1      39.783  26.400  29.234  1.00  0.00     0.029 A 
ATOM     48  C   UNL A   1      41.085  26.593  28.594  1.00  0.00     0.049 A 
ATOM     49  H   UNL A   1      42.273  28.302  28.650  1.00  0.00     0.167 HD
ATOM     50  C   UNL A   1      44.603  31.999  28.663  1.00  0.00     0.037 A 
ATOM     51  C   UNL A   1      41.748  25.677  27.860  1.00  0.00     0.037 A 
ATOM     52  C   UNL A   1      45.413  31.063  27.932  1.00  0.00     0.049 A 
ATOM     53  C   UNL A   1      43.081  26.031  27.250  1.00  0.00     0.074 A 
ATOM     54  C   UNL A   1      46.675  31.248  27.397  1.00  0.00     0.029 A 
ATOM     55  N   UNL A   1      45.032  29.766  27.624  1.00  0.00    -0.354 N 
ATOM     56  N   UNL A   1      43.761  27.149  27.336  1.00  0.00    -0.248 NA
ATOM     57  C   UNL A   1      43.739  24.993  26.440  1.00  0.00     0.031 C 
ATOM     58  C   UNL A   1      47.041  30.077  26.726  1.00  0.00     0.029 A 
ATOM     59  C   UNL A   1      46.027  29.146  26.887  1.00  0.00     0.049 A 
ATOM     60  H   UNL A   1      44.181  29.347  27.890  1.00  0.00     0.167 HD
ATOM     61  C   UNL A   1      44.933  26.939  26.617  1.00  0.00     0.074 A 
ATOM     62  C   UNL A   1      44.878  25.584  26.112  1.00  0.00     0.031 C 
ATOM     63  C   UNL A   1      45.965  27.792  26.399  1.00  0.00     0.037 A 
BRANCH  50  64
ATOM     64  C   UNL A   1      45.130  33.385  28.878  1.00  0.00     0.057 A 
ATOM     65  C   UNL A   1      46.004  33.688  29.930  1.00  0.00     0.134 A 
ATOM     66  C   UNL A   1      44.771  34.427  28.013  1.00  0.00     0.134 A 
ATOM     67  F   UNL A   1      46.370  32.738  30.805  1.00  0.00    -0.206 F 
ATOM     68  C   UNL A   1      46.485  34.983  30.128  1.00  0.00     0.040 A 
ATOM     69  C   UNL A   1      45.265  35.721  28.186  1.00  0.00     0.040 A 
ATOM     70  F   UNL A   1      43.938  34.203  26.986  1.00  0.00    -0.206 F 
ATOM     71  C   UNL A   1      46.119  36.002  29.250  1.00  0.00     0.006 A 
ENDBRANCH  50  64
BRANCH  51  72
ATOM     72  C   UNL A   1      41.157  24.332  27.633  1.00  0.00     0.057 A 
ATOM     73  C   UNL A   1      41.654  23.200  28.291  1.00  0.00     0.134 A 
ATOM     74  C   UNL A   1      40.111  24.142  26.723  1.00  0.00     0.134 A 
ATOM     75  F   UNL A   1      42.676  23.314  29.151  1.00  0.00    -0.206 F 
ATOM     76  C   UNL A   1      41.142  21.926  28.041  1.00  0.00     0.040 A 
ATOM     77  C   UNL A   1      39.573  22.876  26.481  1.00  0.00     0.040 A 
ATOM     78  F   UNL A   1      39.597  25.184  26.054  1.00  0.00    -0.206 F 
ATOM     79  C   UNL A   1      40.093  21.762  27.136  1.00  0.00     0.006 A 
ENDBRANCH  51  72
BRANCH  63  80
ATOM     80  C   UNL A   1      47.137  27.278  25.615  1.00  0.00     0.057 A 
ATOM     81  C   UNL A   1      48.160  26.531  26.212  1.00  0.00     0.134 A 
ATOM     82  C   UNL A   1      47.214  27.489  24.231  1.00  0.00     0.134 A 
ATOM     83  F   UNL A   1      48.151  26.302  27.534  1.00  0.00    -0.206 F 
ATOM     84  C   UNL A   1      49.227  26.029  25.465  1.00  0.00     0.040 A 
ATOM     85  C   UNL A   1      48.262  26.971  23.470  1.00  0.00     0.040 A 
ATOM     86  F   UNL A   1      46.261  28.186  23.595  1.00  0.00    -0.206 F 
ATOM     87  C   UNL A   1      49.276  26.241  24.088  1.00  0.00     0.006 A 
ENDBRANCH  63  80
ENDBRANCH  37  38
ENDBRANCH  30  32
ENDBRANCH  29  30
ENDBRANCH  28  29
ENDBRANCH  27  28
ENDBRANCH  26  27
ENDBRANCH  25  26
ENDBRANCH   1  25
TORSDOF 19
ENDMDL
