MODEL 1
REMARK VINA RESULT:     -10.2      0.000      0.000
REMARK SMILES Cc1ccccc1C[C@H](CCSc1ccccc1)C(=O)OCCOCCOCCOC(=O)c1ccc(-c2c3nc(c(-c4c(F)cccc4F)c4ccc([nH]4)c(-c4c(F)cccc4F)c4nc(c(-c5c(F)cccc5F)c5ccc2[nH]5)C=C4)C=C3)cc1
REMARK SMILES IDX 25 1 24 2 23 3 22 4 21 5 19 6 20 7 9 8 8 9 7 10 1 11 2 12
REMARK SMILES IDX 3 13 4 14 6 15 5 16 10 17 11 18 12 19 13 20 14 21 18 22
REMARK SMILES IDX 15 23 17 24 16 25 26 26 27 27 28 28 29 29 30 30 31 31 32 32
REMARK SMILES IDX 33 33 34 34 86 35 35 36 85 37 36 38 37 39 38 40 79 41 39 42
REMARK SMILES IDX 84 43 78 44 80 45 40 46 83 47 77 48 76 49 41 51 67 52 50 53
REMARK SMILES IDX 66 54 51 55 54 56 65 57 81 58 52 59 53 60 64 62 82 63 55 64
REMARK SMILES IDX 42 65 43 66 48 67 44 68 45 69 47 70 49 71 46 72 68 73 69 74
REMARK SMILES IDX 74 75 70 76 71 77 73 78 75 79 72 80 56 81 57 82 62 83 58 84
REMARK SMILES IDX 59 85 61 86 63 87 60 88
REMARK H PARENT 80 50 54 61
REMARK Flexibility Score: inf
ROOT
ATOM      1  C   UNL A   1      35.540  21.457  25.063  1.00  0.00     0.188 C 
ENDROOT
BRANCH   1   2
ATOM      2  O   UNL A   1      34.372  21.510  24.267  1.00  0.00    -0.376 OA
BRANCH   2   3
ATOM      3  C   UNL A   1      33.532  20.369  24.469  1.00  0.00     0.202 C 
BRANCH   3   4
ATOM      4  C   UNL A   1      32.192  20.623  25.242  1.00  0.00     0.261 C 
BRANCH   4   5
ATOM      5  O   UNL A   1      31.804  22.091  25.853  1.00  0.00    -0.463 OA
BRANCH   5   6
ATOM      6  C   UNL A   1      31.870  23.487  25.924  1.00  0.00     0.309 C 
ATOM      7  O   UNL A   1      31.237  23.892  26.908  1.00  0.00    -0.252 OA
BRANCH   6   8
ATOM      8  C   UNL A   1      32.671  24.739  25.116  1.00  0.00     0.104 C 
BRANCH   8   9
ATOM      9  C   UNL A   1      33.615  25.856  25.765  1.00  0.00     0.051 C 
BRANCH   9  10
ATOM     10  C   UNL A   1      32.999  27.219  25.866  1.00  0.00    -0.044 A 
ATOM     11  C   UNL A   1      33.989  28.510  23.875  1.00  0.00     0.044 C 
ATOM     12  C   UNL A   1      33.338  28.422  25.220  1.00  0.00    -0.048 A 
ATOM     13  C   UNL A   1      32.925  29.646  25.787  1.00  0.00     0.004 A 
ATOM     14  C   UNL A   1      32.154  29.660  26.922  1.00  0.00     0.000 A 
ATOM     15  C   UNL A   1      32.031  27.272  26.826  1.00  0.00     0.004 A 
ATOM     16  C   UNL A   1      31.657  28.462  27.367  1.00  0.00     0.000 A 
ENDBRANCH   9  10
ENDBRANCH   8   9
BRANCH   8  17
ATOM     17  C   UNL A   1      32.326  25.225  23.671  1.00  0.00     0.027 C 
BRANCH  17  18
ATOM     18  C   UNL A   1      30.835  25.148  23.246  1.00  0.00     0.076 C 
BRANCH  18  19
ATOM     19  S   UNL A   1      29.671  26.077  24.325  1.00  0.00    -0.126 SA
BRANCH  19  20
ATOM     20  C   UNL A   1      29.354  27.589  23.422  1.00  0.00     0.007 A 
ATOM     21  C   UNL A   1      28.042  28.040  23.247  1.00  0.00     0.015 A 
ATOM     22  C   UNL A   1      30.396  28.418  23.000  1.00  0.00     0.015 A 
ATOM     23  C   UNL A   1      27.761  29.215  22.550  1.00  0.00     0.001 A 
ATOM     24  C   UNL A   1      30.120  29.645  22.377  1.00  0.00     0.001 A 
ATOM     25  C   UNL A   1      28.804  30.031  22.130  1.00  0.00     0.000 A 
ENDBRANCH  19  20
ENDBRANCH  18  19
ENDBRANCH  17  18
ENDBRANCH   8  17
ENDBRANCH   6   8
ENDBRANCH   5   6
ENDBRANCH   4   5
ENDBRANCH   3   4
ENDBRANCH   2   3
ENDBRANCH   1   2
BRANCH   1  26
ATOM     26  C   UNL A   1      35.479  22.485  26.201  1.00  0.00     0.188 C 
BRANCH  26  27
ATOM     27  O   UNL A   1      36.684  23.217  26.378  1.00  0.00    -0.376 OA
BRANCH  27  28
ATOM     28  C   UNL A   1      37.761  22.941  25.488  1.00  0.00     0.202 C 
BRANCH  28  29
ATOM     29  C   UNL A   1      38.867  22.281  26.315  1.00  0.00     0.261 C 
BRANCH  29  30
ATOM     30  O   UNL A   1      39.678  21.441  25.455  1.00  0.00    -0.460 OA
BRANCH  30  31
ATOM     31  C   UNL A   1      40.614  20.699  26.100  1.00  0.00     0.338 C 
ATOM     32  O   UNL A   1      40.445  19.560  26.529  1.00  0.00    -0.246 OA
BRANCH  31  33
ATOM     33  C   UNL A   1      41.742  21.605  26.496  1.00  0.00     0.060 A 
ATOM     34  C   UNL A   1      42.125  21.583  27.813  1.00  0.00     0.016 A 
ATOM     35  C   UNL A   1      42.188  22.689  25.731  1.00  0.00     0.016 A 
ATOM     36  C   UNL A   1      42.726  22.743  28.360  1.00  0.00     0.010 A 
ATOM     37  C   UNL A   1      42.800  23.839  26.330  1.00  0.00     0.010 A 
ATOM     38  C   UNL A   1      43.004  23.965  27.714  1.00  0.00    -0.014 A 
BRANCH  38  39
ATOM     39  C   UNL A   1      43.260  25.441  28.323  1.00  0.00     0.031 A 
ATOM     40  C   UNL A   1      42.005  26.213  28.628  1.00  0.00     0.074 A 
ATOM     41  C   UNL A   1      44.362  26.301  28.594  1.00  0.00     0.049 A 
ATOM     42  N   UNL A   1      42.027  27.482  28.879  1.00  0.00    -0.248 NA
ATOM     43  C   UNL A   1      40.652  25.684  28.521  1.00  0.00     0.031 C 
ATOM     44  C   UNL A   1      44.418  27.219  29.764  1.00  0.00     0.029 A 
ATOM     45  N   UNL A   1      45.648  26.594  28.066  1.00  0.00    -0.354 N 
ATOM     46  C   UNL A   1      40.776  27.930  29.104  1.00  0.00     0.074 A 
ATOM     47  C   UNL A   1      39.936  26.765  28.861  1.00  0.00     0.031 C 
ATOM     48  C   UNL A   1      45.484  28.039  29.711  1.00  0.00     0.029 A 
ATOM     49  C   UNL A   1      46.273  27.753  28.539  1.00  0.00     0.049 A 
ATOM     50  H   UNL A   1      46.079  26.011  27.400  1.00  0.00     0.167 HD
ATOM     51  C   UNL A   1      40.591  29.211  29.529  1.00  0.00     0.037 A 
ATOM     52  C   UNL A   1      47.273  28.509  27.976  1.00  0.00     0.037 A 
ATOM     53  C   UNL A   1      41.821  29.991  29.787  1.00  0.00     0.049 A 
ATOM     54  C   UNL A   1      47.094  30.020  28.152  1.00  0.00     0.074 A 
ATOM     55  C   UNL A   1      42.650  30.066  30.896  1.00  0.00     0.029 A 
ATOM     56  N   UNL A   1      42.473  30.737  28.805  1.00  0.00    -0.354 N 
ATOM     57  N   UNL A   1      46.214  30.582  28.943  1.00  0.00    -0.248 NA
ATOM     58  C   UNL A   1      47.675  30.988  27.217  1.00  0.00     0.031 C 
ATOM     59  C   UNL A   1      43.735  30.938  30.612  1.00  0.00     0.029 A 
ATOM     60  C   UNL A   1      43.617  31.390  29.308  1.00  0.00     0.049 A 
ATOM     61  H   UNL A   1      42.170  30.800  27.870  1.00  0.00     0.167 HD
ATOM     62  C   UNL A   1      45.801  31.770  28.344  1.00  0.00     0.074 A 
ATOM     63  C   UNL A   1      46.861  32.044  27.379  1.00  0.00     0.031 C 
ATOM     64  C   UNL A   1      44.501  32.246  28.465  1.00  0.00     0.037 A 
BRANCH  51  65
ATOM     65  C   UNL A   1      39.238  29.553  30.078  1.00  0.00     0.057 A 
ATOM     66  C   UNL A   1      38.919  29.265  31.412  1.00  0.00     0.134 A 
ATOM     67  C   UNL A   1      38.175  30.008  29.281  1.00  0.00     0.134 A 
ATOM     68  F   UNL A   1      39.858  28.911  32.298  1.00  0.00    -0.206 F 
ATOM     69  C   UNL A   1      37.604  29.279  31.879  1.00  0.00     0.040 A 
ATOM     70  C   UNL A   1      36.847  29.963  29.715  1.00  0.00     0.040 A 
ATOM     71  F   UNL A   1      38.388  30.460  28.034  1.00  0.00    -0.206 F 
ATOM     72  C   UNL A   1      36.557  29.574  31.016  1.00  0.00     0.006 A 
ENDBRANCH  51  65
BRANCH  52  73
ATOM     73  C   UNL A   1      48.118  27.901  26.888  1.00  0.00     0.057 A 
ATOM     74  C   UNL A   1      49.296  27.224  27.241  1.00  0.00     0.134 A 
ATOM     75  C   UNL A   1      47.741  27.782  25.546  1.00  0.00     0.134 A 
ATOM     76  F   UNL A   1      49.800  27.368  28.476  1.00  0.00    -0.206 F 
ATOM     77  C   UNL A   1      49.943  26.325  26.379  1.00  0.00     0.040 A 
ATOM     78  C   UNL A   1      48.374  26.877  24.668  1.00  0.00     0.040 A 
ATOM     79  F   UNL A   1      46.704  28.479  25.063  1.00  0.00    -0.206 F 
ATOM     80  C   UNL A   1      49.446  26.105  25.102  1.00  0.00     0.006 A 
ENDBRANCH  52  73
BRANCH  64  81
ATOM     81  C   UNL A   1      43.917  33.442  27.678  1.00  0.00     0.057 A 
ATOM     82  C   UNL A   1      43.293  34.566  28.252  1.00  0.00     0.134 A 
ATOM     83  C   UNL A   1      43.919  33.484  26.262  1.00  0.00     0.134 A 
ATOM     84  F   UNL A   1      42.956  34.601  29.545  1.00  0.00    -0.206 F 
ATOM     85  C   UNL A   1      42.885  35.695  27.511  1.00  0.00     0.040 A 
ATOM     86  C   UNL A   1      43.474  34.581  25.507  1.00  0.00     0.040 A 
ATOM     87  F   UNL A   1      44.319  32.449  25.515  1.00  0.00    -0.206 F 
ATOM     88  C   UNL A   1      42.987  35.711  26.132  1.00  0.00     0.006 A 
ENDBRANCH  64  81
ENDBRANCH  38  39
ENDBRANCH  31  33
ENDBRANCH  30  31
ENDBRANCH  29  30
ENDBRANCH  28  29
ENDBRANCH  27  28
ENDBRANCH  26  27
ENDBRANCH   1  26
TORSDOF 23
ENDMDL
MODEL 2
REMARK VINA RESULT:     -10.1      2.955      7.670
REMARK SMILES Cc1ccccc1C[C@H](CCSc1ccccc1)C(=O)OCCOCCOCCOC(=O)c1ccc(-c2c3nc(c(-c4c(F)cccc4F)c4ccc([nH]4)c(-c4c(F)cccc4F)c4nc(c(-c5c(F)cccc5F)c5ccc2[nH]5)C=C4)C=C3)cc1
REMARK SMILES IDX 25 1 24 2 23 3 22 4 21 5 19 6 20 7 9 8 8 9 7 10 1 11 2 12
REMARK SMILES IDX 3 13 4 14 6 15 5 16 10 17 11 18 12 19 13 20 14 21 18 22
REMARK SMILES IDX 15 23 17 24 16 25 26 26 27 27 28 28 29 29 30 30 31 31 32 32
REMARK SMILES IDX 33 33 34 34 86 35 35 36 85 37 36 38 37 39 38 40 79 41 39 42
REMARK SMILES IDX 84 43 78 44 80 45 40 46 83 47 77 48 76 49 41 51 67 52 50 53
REMARK SMILES IDX 66 54 51 55 54 56 65 57 81 58 52 59 53 60 64 62 82 63 55 64
REMARK SMILES IDX 42 65 43 66 48 67 44 68 45 69 47 70 49 71 46 72 68 73 69 74
REMARK SMILES IDX 74 75 70 76 71 77 73 78 75 79 72 80 56 81 57 82 62 83 58 84
REMARK SMILES IDX 59 85 61 86 63 87 60 88
REMARK H PARENT 80 50 54 61
REMARK Flexibility Score: inf
ROOT
ATOM      1  C   UNL A   1      34.127  30.183  27.191  1.00  0.00     0.188 C 
ENDROOT
BRANCH   1   2
ATOM      2  O   UNL A   1      33.211  29.799  26.184  1.00  0.00    -0.376 OA
BRANCH   2   3
ATOM      3  C   UNL A   1      32.864  28.414  26.273  1.00  0.00     0.202 C 
BRANCH   3   4
ATOM      4  C   UNL A   1      31.596  28.072  27.130  1.00  0.00     0.261 C 
BRANCH   4   5
ATOM      5  O   UNL A   1      30.720  26.711  26.887  1.00  0.00    -0.463 OA
BRANCH   5   6
ATOM      6  C   UNL A   1      30.300  25.593  26.157  1.00  0.00     0.309 C 
ATOM      7  O   UNL A   1      29.334  25.059  26.717  1.00  0.00    -0.252 OA
BRANCH   6   8
ATOM      8  C   UNL A   1      30.671  24.860  24.679  1.00  0.00     0.104 C 
BRANCH   8   9
ATOM      9  C   UNL A   1      30.355  25.427  23.216  1.00  0.00     0.051 C 
BRANCH   9  10
ATOM     10  C   UNL A   1      31.304  26.481  22.731  1.00  0.00    -0.044 A 
ATOM     11  C   UNL A   1      33.395  25.167  22.014  1.00  0.00     0.044 C 
ATOM     12  C   UNL A   1      32.681  26.408  22.453  1.00  0.00    -0.048 A 
ATOM     13  C   UNL A   1      33.444  27.594  22.443  1.00  0.00     0.004 A 
ATOM     14  C   UNL A   1      32.839  28.809  22.643  1.00  0.00     0.000 A 
ATOM     15  C   UNL A   1      30.713  27.709  22.666  1.00  0.00     0.004 A 
ATOM     16  C   UNL A   1      31.468  28.840  22.669  1.00  0.00     0.000 A 
ENDBRANCH   9  10
ENDBRANCH   8   9
BRANCH   8  17
ATOM     17  C   UNL A   1      31.047  23.352  24.506  1.00  0.00     0.027 C 
BRANCH  17  18
ATOM     18  C   UNL A   1      30.925  22.453  25.766  1.00  0.00     0.076 C 
BRANCH  18  19
ATOM     19  S   UNL A   1      32.474  21.595  26.262  1.00  0.00    -0.126 SA
BRANCH  19  20
ATOM     20  C   UNL A   1      33.765  22.513  25.429  1.00  0.00     0.007 A 
ATOM     21  C   UNL A   1      34.194  23.741  25.942  1.00  0.00     0.015 A 
ATOM     22  C   UNL A   1      34.463  21.971  24.348  1.00  0.00     0.015 A 
ATOM     23  C   UNL A   1      35.200  24.480  25.319  1.00  0.00     0.001 A 
ATOM     24  C   UNL A   1      35.534  22.671  23.771  1.00  0.00     0.001 A 
ATOM     25  C   UNL A   1      35.885  23.935  24.241  1.00  0.00     0.000 A 
ENDBRANCH  19  20
ENDBRANCH  18  19
ENDBRANCH  17  18
ENDBRANCH   8  17
ENDBRANCH   6   8
ENDBRANCH   5   6
ENDBRANCH   4   5
ENDBRANCH   3   4
ENDBRANCH   2   3
ENDBRANCH   1   2
BRANCH   1  26
ATOM     26  C   UNL A   1      33.725  31.524  27.820  1.00  0.00     0.188 C 
BRANCH  26  27
ATOM     27  O   UNL A   1      34.625  32.585  27.532  1.00  0.00    -0.376 OA
BRANCH  27  28
ATOM     28  C   UNL A   1      35.101  33.362  28.627  1.00  0.00     0.202 C 
BRANCH  28  29
ATOM     29  C   UNL A   1      34.909  32.519  29.891  1.00  0.00     0.261 C 
BRANCH  29  30
ATOM     30  O   UNL A   1      36.204  32.133  30.417  1.00  0.00    -0.460 OA
BRANCH  30  31
ATOM     31  C   UNL A   1      36.204  30.995  31.157  1.00  0.00     0.338 C 
ATOM     32  O   UNL A   1      36.005  30.934  32.367  1.00  0.00    -0.246 OA
BRANCH  31  33
ATOM     33  C   UNL A   1      36.811  29.898  30.332  1.00  0.00     0.060 A 
ATOM     34  C   UNL A   1      37.622  29.006  30.985  1.00  0.00     0.016 A 
ATOM     35  C   UNL A   1      36.896  29.917  28.935  1.00  0.00     0.016 A 
ATOM     36  C   UNL A   1      38.636  28.349  30.245  1.00  0.00     0.010 A 
ATOM     37  C   UNL A   1      37.936  29.228  28.229  1.00  0.00     0.010 A 
ATOM     38  C   UNL A   1      38.937  28.484  28.875  1.00  0.00    -0.014 A 
BRANCH  38  39
ATOM     39  C   UNL A   1      40.292  28.145  28.059  1.00  0.00     0.031 A 
ATOM     40  C   UNL A   1      40.638  26.681  28.012  1.00  0.00     0.074 A 
ATOM     41  C   UNL A   1      41.347  28.850  27.414  1.00  0.00     0.049 A 
ATOM     42  N   UNL A   1      41.800  26.266  27.624  1.00  0.00    -0.248 NA
ATOM     43  C   UNL A   1      39.801  25.608  28.529  1.00  0.00     0.031 C 
ATOM     44  C   UNL A   1      42.019  28.369  26.176  1.00  0.00     0.029 A 
ATOM     45  N   UNL A   1      42.060  30.072  27.548  1.00  0.00    -0.354 N 
ATOM     46  C   UNL A   1      41.855  24.921  27.688  1.00  0.00     0.074 A 
ATOM     47  C   UNL A   1      40.574  24.544  28.272  1.00  0.00     0.031 C 
ATOM     48  C   UNL A   1      43.086  29.124  25.854  1.00  0.00     0.029 A 
ATOM     49  C   UNL A   1      43.236  30.200  26.801  1.00  0.00     0.049 A 
ATOM     50  H   UNL A   1      41.742  30.794  28.138  1.00  0.00     0.167 HD
ATOM     51  C   UNL A   1      42.942  24.271  27.187  1.00  0.00     0.037 A 
ATOM     52  C   UNL A   1      44.318  31.025  26.993  1.00  0.00     0.037 A 
ATOM     53  C   UNL A   1      43.958  25.121  26.529  1.00  0.00     0.049 A 
ATOM     54  C   UNL A   1      45.670  30.367  26.703  1.00  0.00     0.074 A 
ATOM     55  C   UNL A   1      44.044  25.625  25.240  1.00  0.00     0.029 A 
ATOM     56  N   UNL A   1      45.015  25.719  27.215  1.00  0.00    -0.354 N 
ATOM     57  N   UNL A   1      45.826  29.207  26.115  1.00  0.00    -0.248 NA
ATOM     58  C   UNL A   1      46.910  30.822  27.339  1.00  0.00     0.031 C 
ATOM     59  C   UNL A   1      45.208  26.432  25.129  1.00  0.00     0.029 A 
ATOM     60  C   UNL A   1      45.843  26.474  26.359  1.00  0.00     0.049 A 
ATOM     61  H   UNL A   1      45.166  25.625  28.184  1.00  0.00     0.167 HD
ATOM     62  C   UNL A   1      46.953  28.599  26.665  1.00  0.00     0.074 A 
ATOM     63  C   UNL A   1      47.668  29.714  27.280  1.00  0.00     0.031 C 
ATOM     64  C   UNL A   1      47.040  27.223  26.839  1.00  0.00     0.037 A 
BRANCH  51  65
ATOM     65  C   UNL A   1      42.810  22.792  26.980  1.00  0.00     0.057 A 
ATOM     66  C   UNL A   1      42.610  22.270  25.694  1.00  0.00     0.134 A 
ATOM     67  C   UNL A   1      42.706  21.871  28.035  1.00  0.00     0.134 A 
ATOM     68  F   UNL A   1      42.770  23.021  24.598  1.00  0.00    -0.206 F 
ATOM     69  C   UNL A   1      42.181  20.958  25.486  1.00  0.00     0.040 A 
ATOM     70  C   UNL A   1      42.215  20.575  27.847  1.00  0.00     0.040 A 
ATOM     71  F   UNL A   1      43.028  22.219  29.292  1.00  0.00    -0.206 F 
ATOM     72  C   UNL A   1      41.929  20.123  26.566  1.00  0.00     0.006 A 
ENDBRANCH  51  65
BRANCH  52  73
ATOM     73  C   UNL A   1      44.162  32.232  27.880  1.00  0.00     0.057 A 
ATOM     74  C   UNL A   1      43.912  33.481  27.292  1.00  0.00     0.134 A 
ATOM     75  C   UNL A   1      44.056  32.198  29.276  1.00  0.00     0.134 A 
ATOM     76  F   UNL A   1      44.097  33.643  25.972  1.00  0.00    -0.206 F 
ATOM     77  C   UNL A   1      43.393  34.570  28.010  1.00  0.00     0.040 A 
ATOM     78  C   UNL A   1      43.529  33.279  30.012  1.00  0.00     0.040 A 
ATOM     79  F   UNL A   1      44.388  31.095  29.960  1.00  0.00    -0.206 F 
ATOM     80  C   UNL A   1      43.144  34.451  29.370  1.00  0.00     0.006 A 
ENDBRANCH  52  73
BRANCH  64  81
ATOM     81  C   UNL A   1      48.163  26.496  27.613  1.00  0.00     0.057 A 
ATOM     82  C   UNL A   1      48.352  26.545  29.007  1.00  0.00     0.134 A 
ATOM     83  C   UNL A   1      49.159  25.734  26.955  1.00  0.00     0.134 A 
ATOM     84  F   UNL A   1      47.687  27.411  29.779  1.00  0.00    -0.206 F 
ATOM     85  C   UNL A   1      49.311  25.769  29.692  1.00  0.00     0.040 A 
ATOM     86  C   UNL A   1      50.150  24.993  27.620  1.00  0.00     0.040 A 
ATOM     87  F   UNL A   1      49.261  25.687  25.622  1.00  0.00    -0.206 F 
ATOM     88  C   UNL A   1      50.208  24.977  28.998  1.00  0.00     0.006 A 
ENDBRANCH  64  81
ENDBRANCH  38  39
ENDBRANCH  31  33
ENDBRANCH  30  31
ENDBRANCH  29  30
ENDBRANCH  28  29
ENDBRANCH  27  28
ENDBRANCH  26  27
ENDBRANCH   1  26
TORSDOF 23
ENDMDL
MODEL 3
REMARK VINA RESULT:     -10.0      4.109      9.421
REMARK SMILES Cc1ccccc1C[C@H](CCSc1ccccc1)C(=O)OCCOCCOCCOC(=O)c1ccc(-c2c3nc(c(-c4c(F)cccc4F)c4ccc([nH]4)c(-c4c(F)cccc4F)c4nc(c(-c5c(F)cccc5F)c5ccc2[nH]5)C=C4)C=C3)cc1
REMARK SMILES IDX 25 1 24 2 23 3 22 4 21 5 19 6 20 7 9 8 8 9 7 10 1 11 2 12
REMARK SMILES IDX 3 13 4 14 6 15 5 16 10 17 11 18 12 19 13 20 14 21 18 22
REMARK SMILES IDX 15 23 17 24 16 25 26 26 27 27 28 28 29 29 30 30 31 31 32 32
REMARK SMILES IDX 33 33 34 34 86 35 35 36 85 37 36 38 37 39 38 40 79 41 39 42
REMARK SMILES IDX 84 43 78 44 80 45 40 46 83 47 77 48 76 49 41 51 67 52 50 53
REMARK SMILES IDX 66 54 51 55 54 56 65 57 81 58 52 59 53 60 64 62 82 63 55 64
REMARK SMILES IDX 42 65 43 66 48 67 44 68 45 69 47 70 49 71 46 72 68 73 69 74
REMARK SMILES IDX 74 75 70 76 71 77 73 78 75 79 72 80 56 81 57 82 62 83 58 84
REMARK SMILES IDX 59 85 61 86 63 87 60 88
REMARK H PARENT 80 50 54 61
REMARK Flexibility Score: inf
ROOT
ATOM      1  C   UNL A   1      32.040  28.701  25.331  1.00  0.00     0.188 C 
ENDROOT
BRANCH   1   2
ATOM      2  O   UNL A   1      32.031  28.784  23.918  1.00  0.00    -0.376 OA
BRANCH   2   3
ATOM      3  C   UNL A   1      30.701  28.830  23.392  1.00  0.00     0.202 C 
BRANCH   3   4
ATOM      4  C   UNL A   1      30.122  27.474  22.858  1.00  0.00     0.261 C 
BRANCH   4   5
ATOM      5  O   UNL A   1      30.139  26.104  23.754  1.00  0.00    -0.463 OA
BRANCH   5   6
ATOM      6  C   UNL A   1      30.660  24.874  24.170  1.00  0.00     0.309 C 
ATOM      7  O   UNL A   1      30.355  23.989  23.361  1.00  0.00    -0.252 OA
BRANCH   6   8
ATOM      8  C   UNL A   1      31.680  24.303  25.393  1.00  0.00     0.104 C 
BRANCH   8   9
ATOM      9  C   UNL A   1      33.104  24.899  25.817  1.00  0.00     0.051 C 
BRANCH   9  10
ATOM     10  C   UNL A   1      34.263  24.392  25.012  1.00  0.00    -0.044 A 
ATOM     11  C   UNL A   1      33.684  25.041  22.593  1.00  0.00     0.044 C 
ATOM     12  C   UNL A   1      34.403  24.226  23.622  1.00  0.00    -0.048 A 
ATOM     13  C   UNL A   1      35.381  23.337  23.131  1.00  0.00     0.004 A 
ATOM     14  C   UNL A   1      36.225  22.686  23.997  1.00  0.00     0.000 A 
ATOM     15  C   UNL A   1      35.274  23.934  25.805  1.00  0.00     0.004 A 
ATOM     16  C   UNL A   1      36.200  23.068  25.314  1.00  0.00     0.000 A 
ENDBRANCH   9  10
ENDBRANCH   8   9
BRANCH   8  17
ATOM     17  C   UNL A   1      31.569  22.890  26.054  1.00  0.00     0.027 C 
BRANCH  17  18
ATOM     18  C   UNL A   1      31.911  21.671  25.156  1.00  0.00     0.076 C 
BRANCH  18  19
ATOM     19  S   UNL A   1      33.353  20.676  25.715  1.00  0.00    -0.126 SA
BRANCH  19  20
ATOM     20  C   UNL A   1      33.436  19.332  24.537  1.00  0.00     0.007 A 
ATOM     21  C   UNL A   1      34.400  18.329  24.684  1.00  0.00     0.015 A 
ATOM     22  C   UNL A   1      32.470  19.174  23.541  1.00  0.00     0.015 A 
ATOM     23  C   UNL A   1      34.490  17.266  23.785  1.00  0.00     0.001 A 
ATOM     24  C   UNL A   1      32.503  18.060  22.688  1.00  0.00     0.001 A 
ATOM     25  C   UNL A   1      33.527  17.121  22.795  1.00  0.00     0.000 A 
ENDBRANCH  19  20
ENDBRANCH  18  19
ENDBRANCH  17  18
ENDBRANCH   8  17
ENDBRANCH   6   8
ENDBRANCH   5   6
ENDBRANCH   4   5
ENDBRANCH   3   4
ENDBRANCH   2   3
ENDBRANCH   1   2
BRANCH   1  26
ATOM     26  C   UNL A   1      33.456  28.434  25.858  1.00  0.00     0.188 C 
BRANCH  26  27
ATOM     27  O   UNL A   1      33.992  29.501  26.628  1.00  0.00    -0.376 OA
BRANCH  27  28
ATOM     28  C   UNL A   1      33.121  30.578  26.960  1.00  0.00     0.202 C 
BRANCH  28  29
ATOM     29  C   UNL A   1      33.980  31.661  27.618  1.00  0.00     0.261 C 
BRANCH  29  30
ATOM     30  O   UNL A   1      33.215  32.317  28.661  1.00  0.00    -0.460 OA
BRANCH  30  31
ATOM     31  C   UNL A   1      33.507  33.631  28.843  1.00  0.00     0.338 C 
ATOM     32  O   UNL A   1      32.998  34.563  28.225  1.00  0.00    -0.246 OA
BRANCH  31  33
ATOM     33  C   UNL A   1      34.765  33.725  29.654  1.00  0.00     0.060 A 
ATOM     34  C   UNL A   1      35.848  34.315  29.054  1.00  0.00     0.016 A 
ATOM     35  C   UNL A   1      35.019  32.971  30.806  1.00  0.00     0.016 A 
ATOM     36  C   UNL A   1      37.145  33.941  29.484  1.00  0.00     0.010 A 
ATOM     37  C   UNL A   1      36.351  32.625  31.206  1.00  0.00     0.010 A 
ATOM     38  C   UNL A   1      37.493  33.014  30.487  1.00  0.00    -0.014 A 
BRANCH  38  39
ATOM     39  C   UNL A   1      38.874  32.210  30.741  1.00  0.00     0.031 A 
ATOM     40  C   UNL A   1      39.042  30.982  29.888  1.00  0.00     0.074 A 
ATOM     41  C   UNL A   1      39.989  32.268  31.624  1.00  0.00     0.049 A 
ATOM     42  N   UNL A   1      39.955  30.098  30.136  1.00  0.00    -0.248 NA
ATOM     43  C   UNL A   1      38.136  30.572  28.825  1.00  0.00     0.031 C 
ATOM     44  C   UNL A   1      41.380  31.936  31.212  1.00  0.00     0.029 A 
ATOM     45  N   UNL A   1      40.277  32.637  32.966  1.00  0.00    -0.354 N 
ATOM     46  C   UNL A   1      39.883  29.097  29.236  1.00  0.00     0.074 A 
ATOM     47  C   UNL A   1      38.716  29.430  28.430  1.00  0.00     0.031 C 
ATOM     48  C   UNL A   1      42.225  31.911  32.259  1.00  0.00     0.029 A 
ATOM     49  C   UNL A   1      41.522  32.249  33.472  1.00  0.00     0.049 A 
ATOM     50  H   UNL A   1      39.631  33.140  33.513  1.00  0.00     0.167 HD
ATOM     51  C   UNL A   1      40.847  28.134  29.230  1.00  0.00     0.037 A 
ATOM     52  C   UNL A   1      41.935  32.089  34.773  1.00  0.00     0.037 A 
ATOM     53  C   UNL A   1      41.957  28.323  30.188  1.00  0.00     0.049 A 
ATOM     54  C   UNL A   1      42.851  30.882  34.997  1.00  0.00     0.074 A 
ATOM     55  C   UNL A   1      43.127  29.065  30.109  1.00  0.00     0.029 A 
ATOM     56  N   UNL A   1      41.925  27.849  31.500  1.00  0.00    -0.354 N 
ATOM     57  N   UNL A   1      43.399  30.172  34.043  1.00  0.00    -0.248 NA
ATOM     58  C   UNL A   1      42.951  30.211  36.297  1.00  0.00     0.031 C 
ATOM     59  C   UNL A   1      43.841  28.945  31.331  1.00  0.00     0.029 A 
ATOM     60  C   UNL A   1      43.108  28.157  32.203  1.00  0.00     0.049 A 
ATOM     61  H   UNL A   1      41.166  27.357  31.889  1.00  0.00     0.167 HD
ATOM     62  C   UNL A   1      43.480  28.853  34.487  1.00  0.00     0.074 A 
ATOM     63  C   UNL A   1      43.351  28.980  35.936  1.00  0.00     0.031 C 
ATOM     64  C   UNL A   1      43.330  27.772  33.627  1.00  0.00     0.037 A 
BRANCH  51  65
ATOM     65  C   UNL A   1      40.909  27.247  28.022  1.00  0.00     0.057 A 
ATOM     66  C   UNL A   1      40.235  26.018  28.008  1.00  0.00     0.134 A 
ATOM     67  C   UNL A   1      41.755  27.492  26.928  1.00  0.00     0.134 A 
ATOM     68  F   UNL A   1      39.332  25.701  28.944  1.00  0.00    -0.206 F 
ATOM     69  C   UNL A   1      40.505  25.036  27.053  1.00  0.00     0.040 A 
ATOM     70  C   UNL A   1      42.083  26.496  26.003  1.00  0.00     0.040 A 
ATOM     71  F   UNL A   1      42.332  28.693  26.754  1.00  0.00    -0.206 F 
ATOM     72  C   UNL A   1      41.472  25.252  26.080  1.00  0.00     0.006 A 
ENDBRANCH  51  65
BRANCH  52  73
ATOM     73  C   UNL A   1      41.132  32.730  35.873  1.00  0.00     0.057 A 
ATOM     74  C   UNL A   1      41.486  34.014  36.314  1.00  0.00     0.134 A 
ATOM     75  C   UNL A   1      39.927  32.235  36.385  1.00  0.00     0.134 A 
ATOM     76  F   UNL A   1      42.676  34.531  35.968  1.00  0.00    -0.206 F 
ATOM     77  C   UNL A   1      40.613  34.836  37.044  1.00  0.00     0.040 A 
ATOM     78  C   UNL A   1      39.034  33.049  37.114  1.00  0.00     0.040 A 
ATOM     79  F   UNL A   1      39.543  30.977  36.134  1.00  0.00    -0.206 F 
ATOM     80  C   UNL A   1      39.354  34.372  37.398  1.00  0.00     0.006 A 
ENDBRANCH  52  73
BRANCH  64  81
ATOM     81  C   UNL A   1      43.212  26.296  34.069  1.00  0.00     0.057 A 
ATOM     82  C   UNL A   1      44.042  25.247  33.631  1.00  0.00     0.134 A 
ATOM     83  C   UNL A   1      42.191  25.852  34.946  1.00  0.00     0.134 A 
ATOM     84  F   UNL A   1      44.892  25.401  32.611  1.00  0.00    -0.206 F 
ATOM     85  C   UNL A   1      43.985  23.937  34.151  1.00  0.00     0.040 A 
ATOM     86  C   UNL A   1      42.091  24.540  35.437  1.00  0.00     0.040 A 
ATOM     87  F   UNL A   1      41.201  26.652  35.355  1.00  0.00    -0.206 F 
ATOM     88  C   UNL A   1      43.013  23.582  35.069  1.00  0.00     0.006 A 
ENDBRANCH  64  81
ENDBRANCH  38  39
ENDBRANCH  31  33
ENDBRANCH  30  31
ENDBRANCH  29  30
ENDBRANCH  28  29
ENDBRANCH  27  28
ENDBRANCH  26  27
ENDBRANCH   1  26
TORSDOF 23
ENDMDL
