MODEL 1
REMARK VINA RESULT:      -9.0      0.000      0.000
REMARK SMILES COC[C@@H](C)CC(=O)N1CCSC[C@@H]1CC(=O)OCCOCCOCCOC(=O)c1ccc(-c2c3nc(c(-c4c(F)cccc4F)c4ccc([nH]4)c(-c4c(F)cccc4F)c4nc(c(-c5c(F)cccc5F)c5ccc2[nH]5)C=C4)C=C3)cc1
REMARK SMILES IDX 20 1 19 2 18 3 16 4 17 5 15 6 14 7 9 8 10 9 11 10 13 11
REMARK SMILES IDX 12 12 7 13 8 14 6 15 4 16 5 17 3 18 2 19 1 20 21 21 22 22
REMARK SMILES IDX 23 23 24 24 25 25 26 26 27 27 28 28 29 29 30 30 31 31 83 32
REMARK SMILES IDX 32 33 82 34 33 35 34 36 35 37 76 38 36 39 81 40 75 41 77 42
REMARK SMILES IDX 37 43 80 44 74 45 73 46 38 48 64 49 47 50 63 51 48 52 51 53
REMARK SMILES IDX 62 54 78 55 49 56 50 57 61 59 79 60 52 61 39 62 40 63 45 64
REMARK SMILES IDX 41 65 42 66 44 67 46 68 43 69 65 70 66 71 71 72 67 73 68 74
REMARK SMILES IDX 70 75 72 76 69 77 53 78 54 79 59 80 55 81 56 82 58 83 60 84
REMARK SMILES IDX 57 85
REMARK H PARENT 77 47 51 58
REMARK Flexibility Score: inf
ROOT
ATOM      1  C   UNL A   1      33.829  32.878  28.566  1.00  0.00     0.202 C 
ENDROOT
BRANCH   1   2
ATOM      2  C   UNL A   1      33.635  31.628  27.700  1.00  0.00     0.261 C 
BRANCH   2   3
ATOM      3  O   UNL A   1      34.884  31.067  27.249  1.00  0.00    -0.463 OA
BRANCH   3   4
ATOM      4  C   UNL A   1      34.953  29.712  27.334  1.00  0.00     0.307 C 
ATOM      5  O   UNL A   1      35.244  29.103  28.358  1.00  0.00    -0.252 OA
BRANCH   4   6
ATOM      6  C   UNL A   1      34.477  29.003  26.086  1.00  0.00     0.148 C 
BRANCH   6   7
ATOM      7  C   UNL A   1      33.631  27.725  26.290  1.00  0.00     0.106 C 
ATOM      8  N   UNL A   1      33.786  26.708  25.216  1.00  0.00    -0.337 N 
ATOM      9  C   UNL A   1      33.304  27.088  23.892  1.00  0.00     0.130 C 
ATOM     10  C   UNL A   1      31.808  27.414  23.832  1.00  0.00     0.091 C 
ATOM     11  C   UNL A   1      32.138  28.108  26.469  1.00  0.00     0.095 C 
ATOM     12  S   UNL A   1      31.398  28.800  24.942  1.00  0.00    -0.158 SA
BRANCH   8  13
ATOM     13  C   UNL A   1      33.553  25.368  25.542  1.00  0.00     0.223 C 
ATOM     14  O   UNL A   1      32.852  25.034  26.492  1.00  0.00    -0.275 OA
BRANCH  13  15
ATOM     15  C   UNL A   1      34.321  24.371  24.696  1.00  0.00     0.106 C 
BRANCH  15  16
ATOM     16  C   UNL A   1      35.540  23.716  25.376  1.00  0.00     0.021 C 
ATOM     17  C   UNL A   1      36.601  23.411  24.307  1.00  0.00     0.010 C 
BRANCH  16  18
ATOM     18  C   UNL A   1      35.160  22.419  26.112  1.00  0.00     0.163 C 
BRANCH  18  19
ATOM     19  O   UNL A   1      35.149  21.319  25.193  1.00  0.00    -0.384 OA
ATOM     20  C   UNL A   1      33.886  20.665  25.151  1.00  0.00     0.194 C 
ENDBRANCH  18  19
ENDBRANCH  16  18
ENDBRANCH  15  16
ENDBRANCH  13  15
ENDBRANCH   8  13
ENDBRANCH   6   7
ENDBRANCH   4   6
ENDBRANCH   3   4
ENDBRANCH   2   3
ENDBRANCH   1   2
BRANCH   1  21
ATOM     21  O   UNL A   1      33.527  34.160  28.027  1.00  0.00    -0.376 OA
BRANCH  21  22
ATOM     22  C   UNL A   1      33.807  35.323  28.777  1.00  0.00     0.188 C 
BRANCH  22  23
ATOM     23  C   UNL A   1      32.909  35.707  29.954  1.00  0.00     0.188 C 
BRANCH  23  24
ATOM     24  O   UNL A   1      32.964  35.026  31.190  1.00  0.00    -0.376 OA
BRANCH  24  25
ATOM     25  C   UNL A   1      33.852  35.486  32.191  1.00  0.00     0.202 C 
BRANCH  25  26
ATOM     26  C   UNL A   1      35.069  34.628  32.566  1.00  0.00     0.261 C 
BRANCH  26  27
ATOM     27  O   UNL A   1      35.690  33.897  31.506  1.00  0.00    -0.460 OA
BRANCH  27  28
ATOM     28  C   UNL A   1      35.736  32.563  31.707  1.00  0.00     0.338 C 
ATOM     29  O   UNL A   1      34.869  31.841  32.151  1.00  0.00    -0.246 OA
BRANCH  28  30
ATOM     30  C   UNL A   1      37.000  32.022  31.219  1.00  0.00     0.060 A 
ATOM     31  C   UNL A   1      37.175  31.917  29.839  1.00  0.00     0.016 A 
ATOM     32  C   UNL A   1      37.943  31.522  32.111  1.00  0.00     0.016 A 
ATOM     33  C   UNL A   1      38.313  31.319  29.328  1.00  0.00     0.010 A 
ATOM     34  C   UNL A   1      39.100  30.940  31.600  1.00  0.00     0.010 A 
ATOM     35  C   UNL A   1      39.288  30.845  30.211  1.00  0.00    -0.014 A 
BRANCH  35  36
ATOM     36  C   UNL A   1      40.546  30.300  29.671  1.00  0.00     0.031 A 
ATOM     37  C   UNL A   1      41.734  31.187  29.501  1.00  0.00     0.074 A 
ATOM     38  C   UNL A   1      40.571  29.003  29.319  1.00  0.00     0.049 A 
ATOM     39  N   UNL A   1      42.862  30.940  28.893  1.00  0.00    -0.248 NA
ATOM     40  C   UNL A   1      41.635  32.536  30.079  1.00  0.00     0.031 C 
ATOM     41  C   UNL A   1      39.454  28.067  29.479  1.00  0.00     0.029 A 
ATOM     42  N   UNL A   1      41.560  28.251  28.750  1.00  0.00    -0.354 N 
ATOM     43  C   UNL A   1      43.591  32.119  28.965  1.00  0.00     0.074 A 
ATOM     44  C   UNL A   1      42.785  33.075  29.693  1.00  0.00     0.031 C 
ATOM     45  C   UNL A   1      39.824  26.862  29.026  1.00  0.00     0.029 A 
ATOM     46  C   UNL A   1      41.174  26.960  28.487  1.00  0.00     0.049 A 
ATOM     47  H   UNL A   1      42.459  28.600  28.549  1.00  0.00     0.167 HD
ATOM     48  C   UNL A   1      44.815  32.370  28.444  1.00  0.00     0.037 A 
ATOM     49  C   UNL A   1      41.829  25.978  27.843  1.00  0.00     0.037 A 
ATOM     50  C   UNL A   1      45.597  31.384  27.743  1.00  0.00     0.049 A 
ATOM     51  C   UNL A   1      43.200  26.270  27.314  1.00  0.00     0.074 A 
ATOM     52  C   UNL A   1      46.850  31.516  27.170  1.00  0.00     0.029 A 
ATOM     53  N   UNL A   1      45.194  30.072  27.527  1.00  0.00    -0.354 N 
ATOM     54  N   UNL A   1      43.868  27.399  27.347  1.00  0.00    -0.248 NA
ATOM     55  C   UNL A   1      43.904  25.165  26.658  1.00  0.00     0.031 C 
ATOM     56  C   UNL A   1      47.192  30.289  26.586  1.00  0.00     0.029 A 
ATOM     57  C   UNL A   1      46.170  29.383  26.827  1.00  0.00     0.049 A 
ATOM     58  H   UNL A   1      44.339  29.687  27.829  1.00  0.00     0.167 HD
ATOM     59  C   UNL A   1      45.073  27.146  26.712  1.00  0.00     0.074 A 
ATOM     60  C   UNL A   1      45.052  25.743  26.332  1.00  0.00     0.031 C 
ATOM     61  C   UNL A   1      46.101  27.991  26.454  1.00  0.00     0.037 A 
BRANCH  48  62
ATOM     62  C   UNL A   1      45.340  33.770  28.567  1.00  0.00     0.057 A 
ATOM     63  C   UNL A   1      45.058  34.763  27.620  1.00  0.00     0.134 A 
ATOM     64  C   UNL A   1      46.155  34.125  29.650  1.00  0.00     0.134 A 
ATOM     65  F   UNL A   1      44.305  34.483  26.547  1.00  0.00    -0.206 F 
ATOM     66  C   UNL A   1      45.585  36.052  27.734  1.00  0.00     0.040 A 
ATOM     67  C   UNL A   1      46.670  35.416  29.787  1.00  0.00     0.040 A 
ATOM     68  F   UNL A   1      46.469  33.222  30.591  1.00  0.00    -0.206 F 
ATOM     69  C   UNL A   1      46.391  36.382  28.822  1.00  0.00     0.006 A 
ENDBRANCH  48  62
BRANCH  49  70
ATOM     70  C   UNL A   1      41.172  24.662  27.666  1.00  0.00     0.057 A 
ATOM     71  C   UNL A   1      40.158  24.482  26.721  1.00  0.00     0.134 A 
ATOM     72  C   UNL A   1      41.601  23.534  28.377  1.00  0.00     0.134 A 
ATOM     73  F   UNL A   1      39.699  25.526  26.016  1.00  0.00    -0.206 F 
ATOM     74  C   UNL A   1      39.597  23.226  26.483  1.00  0.00     0.040 A 
ATOM     75  C   UNL A   1      41.066  22.268  28.135  1.00  0.00     0.040 A 
ATOM     76  F   UNL A   1      42.582  23.639  29.286  1.00  0.00    -0.206 F 
ATOM     77  C   UNL A   1      40.060  22.112  27.184  1.00  0.00     0.006 A 
ENDBRANCH  49  70
BRANCH  61  78
ATOM     78  C   UNL A   1      47.273  27.403  25.733  1.00  0.00     0.057 A 
ATOM     79  C   UNL A   1      48.303  26.751  26.421  1.00  0.00     0.134 A 
ATOM     80  C   UNL A   1      47.371  27.494  24.340  1.00  0.00     0.134 A 
ATOM     81  F   UNL A   1      48.270  26.648  27.758  1.00  0.00    -0.206 F 
ATOM     82  C   UNL A   1      49.409  26.233  25.747  1.00  0.00     0.040 A 
ATOM     83  C   UNL A   1      48.462  26.962  23.655  1.00  0.00     0.040 A 
ATOM     84  F   UNL A   1      46.412  28.105  23.628  1.00  0.00    -0.206 F 
ATOM     85  C   UNL A   1      49.489  26.336  24.360  1.00  0.00     0.006 A 
ENDBRANCH  61  78
ENDBRANCH  35  36
ENDBRANCH  28  30
ENDBRANCH  27  28
ENDBRANCH  26  27
ENDBRANCH  25  26
ENDBRANCH  24  25
ENDBRANCH  23  24
ENDBRANCH  22  23
ENDBRANCH  21  22
ENDBRANCH   1  21
TORSDOF 23
ENDMDL
MODEL 2
REMARK VINA RESULT:      -8.9      1.870      3.343
REMARK SMILES COC[C@@H](C)CC(=O)N1CCSC[C@@H]1CC(=O)OCCOCCOCCOC(=O)c1ccc(-c2c3nc(c(-c4c(F)cccc4F)c4ccc([nH]4)c(-c4c(F)cccc4F)c4nc(c(-c5c(F)cccc5F)c5ccc2[nH]5)C=C4)C=C3)cc1
REMARK SMILES IDX 20 1 19 2 18 3 16 4 17 5 15 6 14 7 9 8 10 9 11 10 13 11
REMARK SMILES IDX 12 12 7 13 8 14 6 15 4 16 5 17 3 18 2 19 1 20 21 21 22 22
REMARK SMILES IDX 23 23 24 24 25 25 26 26 27 27 28 28 29 29 30 30 31 31 83 32
REMARK SMILES IDX 32 33 82 34 33 35 34 36 35 37 76 38 36 39 81 40 75 41 77 42
REMARK SMILES IDX 37 43 80 44 74 45 73 46 38 48 64 49 47 50 63 51 48 52 51 53
REMARK SMILES IDX 62 54 78 55 49 56 50 57 61 59 79 60 52 61 39 62 40 63 45 64
REMARK SMILES IDX 41 65 42 66 44 67 46 68 43 69 65 70 66 71 71 72 67 73 68 74
REMARK SMILES IDX 70 75 72 76 69 77 53 78 54 79 59 80 55 81 56 82 58 83 60 84
REMARK SMILES IDX 57 85
REMARK H PARENT 77 47 51 58
REMARK Flexibility Score: inf
ROOT
ATOM      1  C   UNL A   1      33.896  32.516  28.381  1.00  0.00     0.202 C 
ENDROOT
BRANCH   1   2
ATOM      2  C   UNL A   1      34.117  31.389  27.366  1.00  0.00     0.261 C 
BRANCH   2   3
ATOM      3  O   UNL A   1      33.293  30.236  27.630  1.00  0.00    -0.463 OA
BRANCH   3   4
ATOM      4  C   UNL A   1      33.626  29.132  26.911  1.00  0.00     0.307 C 
ATOM      5  O   UNL A   1      34.749  28.640  26.891  1.00  0.00    -0.252 OA
BRANCH   4   6
ATOM      6  C   UNL A   1      32.442  28.458  26.255  1.00  0.00     0.148 C 
BRANCH   6   7
ATOM      7  C   UNL A   1      32.359  28.539  24.714  1.00  0.00     0.106 C 
ATOM      8  N   UNL A   1      31.001  28.297  24.158  1.00  0.00    -0.337 N 
ATOM      9  C   UNL A   1      30.457  26.955  24.342  1.00  0.00     0.130 C 
ATOM     10  C   UNL A   1      31.287  25.841  23.697  1.00  0.00     0.091 C 
ATOM     11  C   UNL A   1      33.390  27.566  24.082  1.00  0.00     0.095 C 
ATOM     12  S   UNL A   1      32.976  25.806  24.382  1.00  0.00    -0.158 SA
BRANCH   8  13
ATOM     13  C   UNL A   1      30.685  28.873  22.923  1.00  0.00     0.223 C 
ATOM     14  O   UNL A   1      31.493  29.535  22.280  1.00  0.00    -0.275 OA
BRANCH  13  15
ATOM     15  C   UNL A   1      29.238  28.703  22.501  1.00  0.00     0.106 C 
BRANCH  15  16
ATOM     16  C   UNL A   1      28.194  29.407  23.392  1.00  0.00     0.021 C 
ATOM     17  C   UNL A   1      26.901  28.577  23.391  1.00  0.00     0.010 C 
BRANCH  16  18
ATOM     18  C   UNL A   1      27.893  30.835  22.906  1.00  0.00     0.163 C 
BRANCH  18  19
ATOM     19  O   UNL A   1      27.671  30.835  21.490  1.00  0.00    -0.384 OA
ATOM     20  C   UNL A   1      28.340  31.910  20.840  1.00  0.00     0.194 C 
ENDBRANCH  18  19
ENDBRANCH  16  18
ENDBRANCH  15  16
ENDBRANCH  13  15
ENDBRANCH   8  13
ENDBRANCH   6   7
ENDBRANCH   4   6
ENDBRANCH   3   4
ENDBRANCH   2   3
ENDBRANCH   1   2
BRANCH   1  21
ATOM     21  O   UNL A   1      33.726  33.853  27.920  1.00  0.00    -0.376 OA
BRANCH  21  22
ATOM     22  C   UNL A   1      34.065  34.935  28.761  1.00  0.00     0.188 C 
BRANCH  22  23
ATOM     23  C   UNL A   1      33.055  35.450  29.788  1.00  0.00     0.188 C 
BRANCH  23  24
ATOM     24  O   UNL A   1      33.006  34.947  31.107  1.00  0.00    -0.376 OA
BRANCH  24  25
ATOM     25  C   UNL A   1      33.907  35.457  32.071  1.00  0.00     0.202 C 
BRANCH  25  26
ATOM     26  C   UNL A   1      35.183  34.669  32.398  1.00  0.00     0.261 C 
BRANCH  26  27
ATOM     27  O   UNL A   1      35.674  33.794  31.379  1.00  0.00    -0.460 OA
BRANCH  27  28
ATOM     28  C   UNL A   1      35.825  32.512  31.776  1.00  0.00     0.338 C 
ATOM     29  O   UNL A   1      35.042  31.821  32.393  1.00  0.00    -0.246 OA
BRANCH  28  30
ATOM     30  C   UNL A   1      37.085  31.973  31.276  1.00  0.00     0.060 A 
ATOM     31  C   UNL A   1      37.269  31.921  29.894  1.00  0.00     0.016 A 
ATOM     32  C   UNL A   1      38.014  31.425  32.153  1.00  0.00     0.016 A 
ATOM     33  C   UNL A   1      38.403  31.328  29.367  1.00  0.00     0.010 A 
ATOM     34  C   UNL A   1      39.166  30.847  31.628  1.00  0.00     0.010 A 
ATOM     35  C   UNL A   1      39.364  30.805  30.237  1.00  0.00    -0.014 A 
BRANCH  35  36
ATOM     36  C   UNL A   1      40.618  30.265  29.685  1.00  0.00     0.031 A 
ATOM     37  C   UNL A   1      41.801  31.155  29.502  1.00  0.00     0.074 A 
ATOM     38  C   UNL A   1      40.645  28.967  29.334  1.00  0.00     0.049 A 
ATOM     39  N   UNL A   1      42.923  30.912  28.882  1.00  0.00    -0.248 NA
ATOM     40  C   UNL A   1      41.703  32.504  30.079  1.00  0.00     0.031 C 
ATOM     41  C   UNL A   1      39.533  28.027  29.507  1.00  0.00     0.029 A 
ATOM     42  N   UNL A   1      41.630  28.218  28.756  1.00  0.00    -0.354 N 
ATOM     43  C   UNL A   1      43.649  32.094  28.945  1.00  0.00     0.074 A 
ATOM     44  C   UNL A   1      42.846  33.048  29.680  1.00  0.00     0.031 C 
ATOM     45  C   UNL A   1      39.903  26.823  29.051  1.00  0.00     0.029 A 
ATOM     46  C   UNL A   1      41.247  26.926  28.498  1.00  0.00     0.049 A 
ATOM     47  H   UNL A   1      42.525  28.570  28.544  1.00  0.00     0.167 HD
ATOM     48  C   UNL A   1      44.867  32.349  28.411  1.00  0.00     0.037 A 
ATOM     49  C   UNL A   1      41.899  25.945  27.848  1.00  0.00     0.037 A 
ATOM     50  C   UNL A   1      45.644  31.365  27.702  1.00  0.00     0.049 A 
ATOM     51  C   UNL A   1      43.262  26.242  27.305  1.00  0.00     0.074 A 
ATOM     52  C   UNL A   1      46.890  31.501  27.116  1.00  0.00     0.029 A 
ATOM     53  N   UNL A   1      45.244  30.051  27.493  1.00  0.00    -0.354 N 
ATOM     54  N   UNL A   1      43.927  27.373  27.329  1.00  0.00    -0.248 NA
ATOM     55  C   UNL A   1      43.964  25.138  26.643  1.00  0.00     0.031 C 
ATOM     56  C   UNL A   1      47.231  30.274  26.530  1.00  0.00     0.029 A 
ATOM     57  C   UNL A   1      46.215  29.365  26.783  1.00  0.00     0.049 A 
ATOM     58  H   UNL A   1      44.394  29.663  27.804  1.00  0.00     0.167 HD
ATOM     59  C   UNL A   1      45.125  27.124  26.681  1.00  0.00     0.074 A 
ATOM     60  C   UNL A   1      45.106  25.721  26.303  1.00  0.00     0.031 C 
ATOM     61  C   UNL A   1      46.148  27.973  26.412  1.00  0.00     0.037 A 
BRANCH  48  62
ATOM     62  C   UNL A   1      45.387  33.751  28.526  1.00  0.00     0.057 A 
ATOM     63  C   UNL A   1      46.207  34.163  29.585  1.00  0.00     0.134 A 
ATOM     64  C   UNL A   1      45.050  34.710  27.562  1.00  0.00     0.134 A 
ATOM     65  F   UNL A   1      46.548  33.301  30.554  1.00  0.00    -0.206 F 
ATOM     66  C   UNL A   1      46.653  35.483  29.693  1.00  0.00     0.040 A 
ATOM     67  C   UNL A   1      45.508  36.026  27.647  1.00  0.00     0.040 A 
ATOM     68  F   UNL A   1      44.264  34.385  26.525  1.00  0.00    -0.206 F 
ATOM     69  C   UNL A   1      46.306  36.417  28.719  1.00  0.00     0.006 A 
ENDBRANCH  48  62
BRANCH  49  70
ATOM     70  C   UNL A   1      41.244  24.627  27.680  1.00  0.00     0.057 A 
ATOM     71  C   UNL A   1      40.217  24.443  26.750  1.00  0.00     0.134 A 
ATOM     72  C   UNL A   1      41.689  23.499  28.383  1.00  0.00     0.134 A 
ATOM     73  F   UNL A   1      39.742  25.486  26.054  1.00  0.00    -0.206 F 
ATOM     74  C   UNL A   1      39.658  23.185  26.519  1.00  0.00     0.040 A 
ATOM     75  C   UNL A   1      41.156  22.232  28.147  1.00  0.00     0.040 A 
ATOM     76  F   UNL A   1      42.683  23.608  29.276  1.00  0.00    -0.206 F 
ATOM     77  C   UNL A   1      40.136  22.072  27.211  1.00  0.00     0.006 A 
ENDBRANCH  49  70
BRANCH  61  78
ATOM     78  C   UNL A   1      47.314  27.388  25.679  1.00  0.00     0.057 A 
ATOM     79  C   UNL A   1      48.365  26.760  26.359  1.00  0.00     0.134 A 
ATOM     80  C   UNL A   1      47.386  27.459  24.284  1.00  0.00     0.134 A 
ATOM     81  F   UNL A   1      48.357  26.678  27.698  1.00  0.00    -0.206 F 
ATOM     82  C   UNL A   1      49.465  26.246  25.673  1.00  0.00     0.040 A 
ATOM     83  C   UNL A   1      48.472  26.930  23.587  1.00  0.00     0.040 A 
ATOM     84  F   UNL A   1      46.407  28.046  23.580  1.00  0.00    -0.206 F 
ATOM     85  C   UNL A   1      49.519  26.328  24.284  1.00  0.00     0.006 A 
ENDBRANCH  61  78
ENDBRANCH  35  36
ENDBRANCH  28  30
ENDBRANCH  27  28
ENDBRANCH  26  27
ENDBRANCH  25  26
ENDBRANCH  24  25
ENDBRANCH  23  24
ENDBRANCH  22  23
ENDBRANCH  21  22
ENDBRANCH   1  21
TORSDOF 23
ENDMDL
MODEL 3
REMARK VINA RESULT:      -8.6      4.255      9.593
REMARK SMILES COC[C@@H](C)CC(=O)N1CCSC[C@@H]1CC(=O)OCCOCCOCCOC(=O)c1ccc(-c2c3nc(c(-c4c(F)cccc4F)c4ccc([nH]4)c(-c4c(F)cccc4F)c4nc(c(-c5c(F)cccc5F)c5ccc2[nH]5)C=C4)C=C3)cc1
REMARK SMILES IDX 20 1 19 2 18 3 16 4 17 5 15 6 14 7 9 8 10 9 11 10 13 11
REMARK SMILES IDX 12 12 7 13 8 14 6 15 4 16 5 17 3 18 2 19 1 20 21 21 22 22
REMARK SMILES IDX 23 23 24 24 25 25 26 26 27 27 28 28 29 29 30 30 31 31 83 32
REMARK SMILES IDX 32 33 82 34 33 35 34 36 35 37 76 38 36 39 81 40 75 41 77 42
REMARK SMILES IDX 37 43 80 44 74 45 73 46 38 48 64 49 47 50 63 51 48 52 51 53
REMARK SMILES IDX 62 54 78 55 49 56 50 57 61 59 79 60 52 61 39 62 40 63 45 64
REMARK SMILES IDX 41 65 42 66 44 67 46 68 43 69 65 70 66 71 71 72 67 73 68 74
REMARK SMILES IDX 70 75 72 76 69 77 53 78 54 79 59 80 55 81 56 82 58 83 60 84
REMARK SMILES IDX 57 85
REMARK H PARENT 77 47 51 58
REMARK Flexibility Score: inf
ROOT
ATOM      1  C   UNL A   1      37.535  21.398  24.958  1.00  0.00     0.202 C 
ENDROOT
BRANCH   1   2
ATOM      2  C   UNL A   1      36.179  21.297  25.665  1.00  0.00     0.261 C 
BRANCH   2   3
ATOM      3  O   UNL A   1      35.766  22.547  26.253  1.00  0.00    -0.463 OA
BRANCH   3   4
ATOM      4  C   UNL A   1      34.495  22.545  26.738  1.00  0.00     0.307 C 
ATOM      5  O   UNL A   1      34.149  21.952  27.753  1.00  0.00    -0.252 OA
BRANCH   4   6
ATOM      6  C   UNL A   1      33.566  23.481  25.998  1.00  0.00     0.148 C 
BRANCH   6   7
ATOM      7  C   UNL A   1      32.545  22.833  25.036  1.00  0.00     0.106 C 
ATOM      8  N   UNL A   1      33.155  22.119  23.882  1.00  0.00    -0.337 N 
ATOM      9  C   UNL A   1      33.878  22.945  22.920  1.00  0.00     0.130 C 
ATOM     10  C   UNL A   1      33.024  24.017  22.237  1.00  0.00     0.091 C 
ATOM     11  C   UNL A   1      31.536  23.905  24.543  1.00  0.00     0.095 C 
ATOM     12  S   UNL A   1      32.313  25.164  23.463  1.00  0.00    -0.158 SA
BRANCH   8  13
ATOM     13  C   UNL A   1      32.433  21.072  23.301  1.00  0.00     0.223 C 
ATOM     14  O   UNL A   1      31.976  21.139  22.164  1.00  0.00    -0.275 OA
BRANCH  13  15
ATOM     15  C   UNL A   1      32.171  19.899  24.225  1.00  0.00     0.106 C 
BRANCH  15  16
ATOM     16  C   UNL A   1      32.898  18.587  23.863  1.00  0.00     0.021 C 
ATOM     17  C   UNL A   1      32.382  18.093  22.502  1.00  0.00     0.010 C 
BRANCH  16  18
ATOM     18  C   UNL A   1      32.681  17.496  24.926  1.00  0.00     0.163 C 
BRANCH  18  19
ATOM     19  O   UNL A   1      33.317  16.279  24.517  1.00  0.00    -0.384 OA
ATOM     20  C   UNL A   1      34.706  16.267  24.825  1.00  0.00     0.194 C 
ENDBRANCH  18  19
ENDBRANCH  16  18
ENDBRANCH  15  16
ENDBRANCH  13  15
ENDBRANCH   8  13
ENDBRANCH   6   7
ENDBRANCH   4   6
ENDBRANCH   3   4
ENDBRANCH   2   3
ENDBRANCH   1   2
BRANCH   1  21
ATOM     21  O   UNL A   1      38.721  21.037  25.658  1.00  0.00    -0.376 OA
BRANCH  21  22
ATOM     22  C   UNL A   1      39.482  22.032  26.311  1.00  0.00     0.188 C 
BRANCH  22  23
ATOM     23  C   UNL A   1      40.550  21.630  27.329  1.00  0.00     0.188 C 
BRANCH  23  24
ATOM     24  O   UNL A   1      40.792  20.280  27.666  1.00  0.00    -0.376 OA
BRANCH  24  25
ATOM     25  C   UNL A   1      42.002  19.674  27.254  1.00  0.00     0.202 C 
BRANCH  25  26
ATOM     26  C   UNL A   1      42.360  19.650  25.762  1.00  0.00     0.261 C 
BRANCH  26  27
ATOM     27  O   UNL A   1      43.703  19.289  25.431  1.00  0.00    -0.460 OA
BRANCH  27  28
ATOM     28  C   UNL A   1      44.274  20.078  24.496  1.00  0.00     0.338 C 
ATOM     29  O   UNL A   1      44.487  19.826  23.329  1.00  0.00    -0.246 OA
BRANCH  28  30
ATOM     30  C   UNL A   1      44.553  21.398  25.051  1.00  0.00     0.060 A 
ATOM     31  C   UNL A   1      44.174  22.514  24.304  1.00  0.00     0.016 A 
ATOM     32  C   UNL A   1      45.278  21.526  26.232  1.00  0.00     0.016 A 
ATOM     33  C   UNL A   1      44.505  23.784  24.740  1.00  0.00     0.010 A 
ATOM     34  C   UNL A   1      45.593  22.804  26.684  1.00  0.00     0.010 A 
ATOM     35  C   UNL A   1      45.201  23.932  25.944  1.00  0.00    -0.014 A 
BRANCH  35  36
ATOM     36  C   UNL A   1      45.466  25.285  26.462  1.00  0.00     0.031 A 
ATOM     37  C   UNL A   1      44.362  26.083  27.072  1.00  0.00     0.074 A 
ATOM     38  C   UNL A   1      46.712  25.774  26.340  1.00  0.00     0.049 A 
ATOM     39  N   UNL A   1      44.356  27.339  27.425  1.00  0.00    -0.248 NA
ATOM     40  C   UNL A   1      43.092  25.379  27.301  1.00  0.00     0.031 C 
ATOM     41  C   UNL A   1      47.851  25.042  25.777  1.00  0.00     0.029 A 
ATOM     42  N   UNL A   1      47.230  26.994  26.672  1.00  0.00    -0.354 N 
ATOM     43  C   UNL A   1      43.066  27.596  27.870  1.00  0.00     0.074 A 
ATOM     44  C   UNL A   1      42.324  26.359  27.759  1.00  0.00     0.031 C 
ATOM     45  C   UNL A   1      48.936  25.826  25.810  1.00  0.00     0.029 A 
ATOM     46  C   UNL A   1      48.553  27.131  26.334  1.00  0.00     0.049 A 
ATOM     47  H   UNL A   1      46.706  27.704  27.110  1.00  0.00     0.167 HD
ATOM     48  C   UNL A   1      42.559  28.772  28.307  1.00  0.00     0.037 A 
ATOM     49  C   UNL A   1      49.355  28.208  26.404  1.00  0.00     0.037 A 
ATOM     50  C   UNL A   1      43.337  29.979  28.422  1.00  0.00     0.049 A 
ATOM     51  C   UNL A   1      48.779  29.486  26.931  1.00  0.00     0.074 A 
ATOM     52  C   UNL A   1      42.938  31.232  28.852  1.00  0.00     0.029 A 
ATOM     53  N   UNL A   1      44.687  30.075  28.108  1.00  0.00    -0.354 N 
ATOM     54  N   UNL A   1      47.548  29.735  27.311  1.00  0.00    -0.248 NA
ATOM     55  C   UNL A   1      49.692  30.627  27.037  1.00  0.00     0.031 C 
ATOM     56  C   UNL A   1      44.042  32.091  28.773  1.00  0.00     0.029 A 
ATOM     57  C   UNL A   1      45.138  31.365  28.330  1.00  0.00     0.049 A 
ATOM     58  H   UNL A   1      45.243  29.333  27.777  1.00  0.00     0.167 HD
ATOM     59  C   UNL A   1      47.532  31.065  27.697  1.00  0.00     0.074 A 
ATOM     60  C   UNL A   1      48.888  31.559  27.534  1.00  0.00     0.031 C 
ATOM     61  C   UNL A   1      46.493  31.818  28.138  1.00  0.00     0.037 A 
BRANCH  48  62
ATOM     62  C   UNL A   1      41.094  28.811  28.629  1.00  0.00     0.057 A 
ATOM     63  C   UNL A   1      40.603  28.586  29.921  1.00  0.00     0.134 A 
ATOM     64  C   UNL A   1      40.157  29.068  27.620  1.00  0.00     0.134 A 
ATOM     65  F   UNL A   1      41.444  28.311  30.929  1.00  0.00    -0.206 F 
ATOM     66  C   UNL A   1      39.232  28.592  30.194  1.00  0.00     0.040 A 
ATOM     67  C   UNL A   1      38.786  29.099  27.883  1.00  0.00     0.040 A 
ATOM     68  F   UNL A   1      40.558  29.287  26.358  1.00  0.00    -0.206 F 
ATOM     69  C   UNL A   1      38.320  28.853  29.173  1.00  0.00     0.006 A 
ENDBRANCH  48  62
BRANCH  49  70
ATOM     70  C   UNL A   1      50.759  28.098  25.944  1.00  0.00     0.057 A 
ATOM     71  C   UNL A   1      51.086  28.190  24.588  1.00  0.00     0.134 A 
ATOM     72  C   UNL A   1      51.816  27.986  26.857  1.00  0.00     0.134 A 
ATOM     73  F   UNL A   1      50.117  28.290  23.666  1.00  0.00    -0.206 F 
ATOM     74  C   UNL A   1      52.412  28.179  24.154  1.00  0.00     0.040 A 
ATOM     75  C   UNL A   1      53.148  27.997  26.441  1.00  0.00     0.040 A 
ATOM     76  F   UNL A   1      51.568  27.911  28.173  1.00  0.00    -0.206 F 
ATOM     77  C   UNL A   1      53.448  28.094  25.084  1.00  0.00     0.006 A 
ENDBRANCH  49  70
BRANCH  61  78
ATOM     78  C   UNL A   1      46.807  33.243  28.470  1.00  0.00     0.057 A 
ATOM     79  C   UNL A   1      47.216  33.622  29.754  1.00  0.00     0.134 A 
ATOM     80  C   UNL A   1      46.694  34.242  27.497  1.00  0.00     0.134 A 
ATOM     81  F   UNL A   1      47.326  32.709  30.731  1.00  0.00    -0.206 F 
ATOM     82  C   UNL A   1      47.476  34.956  30.067  1.00  0.00     0.040 A 
ATOM     83  C   UNL A   1      46.970  35.576  27.794  1.00  0.00     0.040 A 
ATOM     84  F   UNL A   1      46.309  33.937  26.249  1.00  0.00    -0.206 F 
ATOM     85  C   UNL A   1      47.355  35.936  29.084  1.00  0.00     0.006 A 
ENDBRANCH  61  78
ENDBRANCH  35  36
ENDBRANCH  28  30
ENDBRANCH  27  28
ENDBRANCH  26  27
ENDBRANCH  25  26
ENDBRANCH  24  25
ENDBRANCH  23  24
ENDBRANCH  22  23
ENDBRANCH  21  22
ENDBRANCH   1  21
TORSDOF 23
ENDMDL
