MODEL 1
REMARK VINA RESULT:     -10.2      0.000      0.000
REMARK SMILES COc1ncccc1Cn1ccc(C(=O)OCCOCCOCCOC(=O)c2ccc(-c3c4nc(c(-c5c(F)cccc5F)c5ccc([nH]5)c(-c5c(F)cccc5F)c5nc(c(-c6c(F)cccc6F)c6ccc3[nH]6)C=C5)C=C4)cc2)n1
REMARK SMILES IDX 20 1 19 2 18 3 17 4 16 5 14 6 15 7 13 8 10 9 11 10 82 11
REMARK SMILES IDX 12 12 9 13 8 14 3 15 4 16 5 17 7 18 6 19 2 20 1 21 21 22
REMARK SMILES IDX 22 23 23 24 24 25 25 26 26 27 27 28 28 29 29 30 81 31 30 32
REMARK SMILES IDX 80 33 31 34 32 35 33 36 74 37 34 38 79 39 73 40 75 41 35 42
REMARK SMILES IDX 78 43 72 44 71 45 36 47 62 48 45 49 61 50 46 51 49 52 60 53
REMARK SMILES IDX 76 54 47 55 48 56 59 58 77 59 50 60 37 61 38 62 43 63 39 64
REMARK SMILES IDX 40 65 42 66 44 67 41 68 63 69 64 70 69 71 65 72 66 73 68 74
REMARK SMILES IDX 70 75 67 76 51 77 52 78 57 79 53 80 54 81 56 82 58 83 55 84
REMARK H PARENT 75 46 49 57
REMARK Flexibility Score: inf
ROOT
ATOM      1  C   UNL A   1      34.119  32.467  28.191  1.00  0.00     0.188 C 
ENDROOT
BRANCH   1   2
ATOM      2  O   UNL A   1      32.909  32.362  27.469  1.00  0.00    -0.376 OA
BRANCH   2   3
ATOM      3  C   UNL A   1      32.514  31.067  27.034  1.00  0.00     0.202 C 
BRANCH   3   4
ATOM      4  C   UNL A   1      33.561  29.990  26.659  1.00  0.00     0.261 C 
BRANCH   4   5
ATOM      5  O   UNL A   1      33.456  28.716  27.311  1.00  0.00    -0.458 OA
BRANCH   5   6
ATOM      6  C   UNL A   1      32.316  28.002  27.086  1.00  0.00     0.358 C 
ATOM      7  O   UNL A   1      31.458  27.816  27.945  1.00  0.00    -0.244 OA
BRANCH   6   8
ATOM      8  C   UNL A   1      32.126  27.585  25.680  1.00  0.00     0.170 A 
ATOM      9  N   UNL A   1      31.294  27.225  23.732  1.00  0.00    -0.267 N 
ATOM     10  C   UNL A   1      32.582  26.764  23.664  1.00  0.00     0.110 A 
ATOM     11  N   UNL A   1      31.002  27.757  24.948  1.00  0.00    -0.165 NA
ATOM     12  C   UNL A   1      33.124  26.931  24.911  1.00  0.00     0.057 A 
BRANCH   9  13
ATOM     13  C   UNL A   1      30.418  27.459  22.579  1.00  0.00     0.185 C 
BRANCH  13  14
ATOM     14  C   UNL A   1      29.540  28.686  22.619  1.00  0.00     0.036 A 
ATOM     15  C   UNL A   1      28.211  28.677  23.032  1.00  0.00     0.218 A 
ATOM     16  N   UNL A   1      27.353  29.718  22.902  1.00  0.00    -0.222 NA
ATOM     17  C   UNL A   1      27.844  30.851  22.366  1.00  0.00     0.115 A 
ATOM     18  C   UNL A   1      30.009  29.896  22.084  1.00  0.00     0.013 A 
ATOM     19  C   UNL A   1      29.156  30.992  21.956  1.00  0.00     0.021 A 
BRANCH  15  20
ATOM     20  O   UNL A   1      27.673  27.517  23.523  1.00  0.00    -0.481 OA
ATOM     21  C   UNL A   1      26.309  27.715  23.892  1.00  0.00     0.280 C 
ENDBRANCH  15  20
ENDBRANCH  13  14
ENDBRANCH   9  13
ENDBRANCH   6   8
ENDBRANCH   5   6
ENDBRANCH   4   5
ENDBRANCH   3   4
ENDBRANCH   2   3
ENDBRANCH   1   2
BRANCH   1  22
ATOM     22  C   UNL A   1      34.813  33.836  28.042  1.00  0.00     0.188 C 
BRANCH  22  23
ATOM     23  O   UNL A   1      34.199  35.041  28.489  1.00  0.00    -0.376 OA
BRANCH  23  24
ATOM     24  C   UNL A   1      33.271  35.062  29.563  1.00  0.00     0.202 C 
BRANCH  24  25
ATOM     25  C   UNL A   1      32.912  36.366  30.271  1.00  0.00     0.261 C 
BRANCH  25  26
ATOM     26  O   UNL A   1      33.297  36.435  31.632  1.00  0.00    -0.460 OA
BRANCH  26  27
ATOM     27  C   UNL A   1      32.894  35.371  32.356  1.00  0.00     0.338 C 
ATOM     28  O   UNL A   1      31.759  35.085  32.690  1.00  0.00    -0.246 OA
BRANCH  27  29
ATOM     29  C   UNL A   1      34.075  34.641  32.824  1.00  0.00     0.060 A 
ATOM     30  C   UNL A   1      35.235  35.397  33.005  1.00  0.00     0.016 A 
ATOM     31  C   UNL A   1      34.096  33.239  32.785  1.00  0.00     0.016 A 
ATOM     32  C   UNL A   1      36.448  34.753  32.942  1.00  0.00     0.010 A 
ATOM     33  C   UNL A   1      35.311  32.597  32.715  1.00  0.00     0.010 A 
ATOM     34  C   UNL A   1      36.466  33.374  32.708  1.00  0.00    -0.014 A 
BRANCH  34  35
ATOM     35  C   UNL A   1      37.756  32.769  32.462  1.00  0.00     0.031 A 
ATOM     36  C   UNL A   1      38.650  32.731  33.637  1.00  0.00     0.074 A 
ATOM     37  C   UNL A   1      38.081  32.225  31.277  1.00  0.00     0.049 A 
ATOM     38  N   UNL A   1      39.802  33.294  33.769  1.00  0.00    -0.248 NA
ATOM     39  C   UNL A   1      38.149  32.071  34.851  1.00  0.00     0.031 C 
ATOM     40  C   UNL A   1      37.207  31.954  30.134  1.00  0.00     0.029 A 
ATOM     41  N   UNL A   1      39.271  31.689  30.894  1.00  0.00    -0.354 N 
ATOM     42  C   UNL A   1      40.263  32.912  35.022  1.00  0.00     0.074 A 
ATOM     43  C   UNL A   1      39.156  32.284  35.697  1.00  0.00     0.031 C 
ATOM     44  C   UNL A   1      37.839  31.105  29.292  1.00  0.00     0.029 A 
ATOM     45  C   UNL A   1      39.187  30.865  29.784  1.00  0.00     0.049 A 
ATOM     46  H   UNL A   1      40.116  31.871  31.365  1.00  0.00     0.167 HD
ATOM     47  C   UNL A   1      41.589  32.932  35.320  1.00  0.00     0.037 A 
ATOM     48  C   UNL A   1      40.130  29.984  29.370  1.00  0.00     0.037 A 
ATOM     49  C   UNL A   1      42.320  33.808  34.442  1.00  0.00     0.049 A 
ATOM     50  C   UNL A   1      41.423  30.381  29.988  1.00  0.00     0.074 A 
ATOM     51  C   UNL A   1      42.212  35.145  34.103  1.00  0.00     0.029 A 
ATOM     52  N   UNL A   1      43.131  33.252  33.483  1.00  0.00    -0.354 N 
ATOM     53  N   UNL A   1      42.107  31.438  29.647  1.00  0.00    -0.248 NA
ATOM     54  C   UNL A   1      41.751  29.829  31.297  1.00  0.00     0.031 C 
ATOM     55  C   UNL A   1      42.534  35.203  32.715  1.00  0.00     0.029 A 
ATOM     56  C   UNL A   1      42.861  33.909  32.310  1.00  0.00     0.049 A 
ATOM     57  H   UNL A   1      43.782  32.524  33.613  1.00  0.00     0.167 HD
ATOM     58  C   UNL A   1      42.612  31.933  30.840  1.00  0.00     0.074 A 
ATOM     59  C   UNL A   1      42.453  30.847  31.802  1.00  0.00     0.031 C 
ATOM     60  C   UNL A   1      42.846  33.268  31.017  1.00  0.00     0.037 A 
BRANCH  47  61
ATOM     61  C   UNL A   1      42.255  31.876  36.161  1.00  0.00     0.057 A 
ATOM     62  C   UNL A   1      43.127  32.268  37.190  1.00  0.00     0.134 A 
ATOM     63  C   UNL A   1      42.307  30.510  35.811  1.00  0.00     0.134 A 
ATOM     64  F   UNL A   1      43.184  33.545  37.595  1.00  0.00    -0.206 F 
ATOM     65  C   UNL A   1      44.039  31.380  37.773  1.00  0.00     0.040 A 
ATOM     66  C   UNL A   1      43.174  29.605  36.426  1.00  0.00     0.040 A 
ATOM     67  F   UNL A   1      41.605  30.000  34.792  1.00  0.00    -0.206 F 
ATOM     68  C   UNL A   1      44.069  30.046  37.387  1.00  0.00     0.006 A 
ENDBRANCH  47  61
BRANCH  48  69
ATOM     69  C   UNL A   1      39.935  28.679  28.696  1.00  0.00     0.057 A 
ATOM     70  C   UNL A   1      40.494  28.426  27.435  1.00  0.00     0.134 A 
ATOM     71  C   UNL A   1      39.404  27.561  29.366  1.00  0.00     0.134 A 
ATOM     72  F   UNL A   1      41.071  29.413  26.734  1.00  0.00    -0.206 F 
ATOM     73  C   UNL A   1      40.536  27.139  26.882  1.00  0.00     0.040 A 
ATOM     74  C   UNL A   1      39.425  26.274  28.817  1.00  0.00     0.040 A 
ATOM     75  F   UNL A   1      38.926  27.654  30.614  1.00  0.00    -0.206 F 
ATOM     76  C   UNL A   1      40.004  26.057  27.577  1.00  0.00     0.006 A 
ENDBRANCH  48  69
BRANCH  60  77
ATOM     77  C   UNL A   1      42.800  34.168  29.814  1.00  0.00     0.057 A 
ATOM     78  C   UNL A   1      43.878  34.360  28.937  1.00  0.00     0.134 A 
ATOM     79  C   UNL A   1      41.575  34.736  29.443  1.00  0.00     0.134 A 
ATOM     80  F   UNL A   1      45.059  33.764  29.145  1.00  0.00    -0.206 F 
ATOM     81  C   UNL A   1      43.754  35.126  27.774  1.00  0.00     0.040 A 
ATOM     82  C   UNL A   1      41.429  35.472  28.265  1.00  0.00     0.040 A 
ATOM     83  F   UNL A   1      40.482  34.544  30.200  1.00  0.00    -0.206 F 
ATOM     84  C   UNL A   1      42.525  35.680  27.432  1.00  0.00     0.006 A 
ENDBRANCH  60  77
ENDBRANCH  34  35
ENDBRANCH  27  29
ENDBRANCH  26  27
ENDBRANCH  25  26
ENDBRANCH  24  25
ENDBRANCH  23  24
ENDBRANCH  22  23
ENDBRANCH   1  22
TORSDOF 20
ENDMDL
MODEL 2
REMARK VINA RESULT:      -9.9      1.970      3.258
REMARK SMILES COc1ncccc1Cn1ccc(C(=O)OCCOCCOCCOC(=O)c2ccc(-c3c4nc(c(-c5c(F)cccc5F)c5ccc([nH]5)c(-c5c(F)cccc5F)c5nc(c(-c6c(F)cccc6F)c6ccc3[nH]6)C=C5)C=C4)cc2)n1
REMARK SMILES IDX 20 1 19 2 18 3 17 4 16 5 14 6 15 7 13 8 10 9 11 10 82 11
REMARK SMILES IDX 12 12 9 13 8 14 3 15 4 16 5 17 7 18 6 19 2 20 1 21 21 22
REMARK SMILES IDX 22 23 23 24 24 25 25 26 26 27 27 28 28 29 29 30 81 31 30 32
REMARK SMILES IDX 80 33 31 34 32 35 33 36 74 37 34 38 79 39 73 40 75 41 35 42
REMARK SMILES IDX 78 43 72 44 71 45 36 47 62 48 45 49 61 50 46 51 49 52 60 53
REMARK SMILES IDX 76 54 47 55 48 56 59 58 77 59 50 60 37 61 38 62 43 63 39 64
REMARK SMILES IDX 40 65 42 66 44 67 41 68 63 69 64 70 69 71 65 72 66 73 68 74
REMARK SMILES IDX 70 75 67 76 51 77 52 78 57 79 53 80 54 81 56 82 58 83 55 84
REMARK H PARENT 75 46 49 57
REMARK Flexibility Score: inf
ROOT
ATOM      1  C   UNL A   1      34.056  32.300  28.011  1.00  0.00     0.188 C 
ENDROOT
BRANCH   1   2
ATOM      2  O   UNL A   1      32.718  32.208  27.565  1.00  0.00    -0.376 OA
BRANCH   2   3
ATOM      3  C   UNL A   1      32.392  31.146  26.679  1.00  0.00     0.202 C 
BRANCH   3   4
ATOM      4  C   UNL A   1      32.538  29.665  27.108  1.00  0.00     0.261 C 
BRANCH   4   5
ATOM      5  O   UNL A   1      31.659  28.713  26.494  1.00  0.00    -0.458 OA
BRANCH   5   6
ATOM      6  C   UNL A   1      31.911  28.390  25.193  1.00  0.00     0.358 C 
ATOM      7  O   UNL A   1      31.627  29.125  24.251  1.00  0.00    -0.244 OA
BRANCH   6   8
ATOM      8  C   UNL A   1      32.685  27.143  25.014  1.00  0.00     0.170 A 
ATOM      9  N   UNL A   1      33.474  25.302  24.238  1.00  0.00    -0.267 N 
ATOM     10  C   UNL A   1      34.173  25.534  25.392  1.00  0.00     0.110 A 
ATOM     11  N   UNL A   1      32.577  26.288  23.972  1.00  0.00    -0.165 NA
ATOM     12  C   UNL A   1      33.653  26.677  25.941  1.00  0.00     0.057 A 
BRANCH   9  13
ATOM     13  C   UNL A   1      33.844  24.324  23.208  1.00  0.00     0.185 C 
BRANCH  13  14
ATOM     14  C   UNL A   1      34.635  23.120  23.654  1.00  0.00     0.036 A 
ATOM     15  C   UNL A   1      34.069  21.998  24.253  1.00  0.00     0.218 A 
ATOM     16  N   UNL A   1      34.770  20.991  24.828  1.00  0.00    -0.222 NA
ATOM     17  C   UNL A   1      36.113  21.076  24.779  1.00  0.00     0.115 A 
ATOM     18  C   UNL A   1      36.038  23.152  23.612  1.00  0.00     0.013 A 
ATOM     19  C   UNL A   1      36.787  22.120  24.178  1.00  0.00     0.021 A 
BRANCH  15  20
ATOM     20  O   UNL A   1      32.706  21.919  24.369  1.00  0.00    -0.481 OA
ATOM     21  C   UNL A   1      32.313  22.036  25.736  1.00  0.00     0.280 C 
ENDBRANCH  15  20
ENDBRANCH  13  14
ENDBRANCH   9  13
ENDBRANCH   6   8
ENDBRANCH   5   6
ENDBRANCH   4   5
ENDBRANCH   3   4
ENDBRANCH   2   3
ENDBRANCH   1   2
BRANCH   1  22
ATOM     22  C   UNL A   1      34.615  33.737  28.005  1.00  0.00     0.188 C 
BRANCH  22  23
ATOM     23  O   UNL A   1      34.356  34.647  29.070  1.00  0.00    -0.376 OA
BRANCH  23  24
ATOM     24  C   UNL A   1      33.050  35.120  29.359  1.00  0.00     0.202 C 
BRANCH  24  25
ATOM     25  C   UNL A   1      32.832  36.455  30.066  1.00  0.00     0.261 C 
BRANCH  25  26
ATOM     26  O   UNL A   1      33.303  36.511  31.400  1.00  0.00    -0.460 OA
BRANCH  26  27
ATOM     27  C   UNL A   1      32.868  35.489  32.164  1.00  0.00     0.338 C 
ATOM     28  O   UNL A   1      31.726  35.257  32.517  1.00  0.00    -0.246 OA
BRANCH  27  29
ATOM     29  C   UNL A   1      34.025  34.732  32.649  1.00  0.00     0.060 A 
ATOM     30  C   UNL A   1      35.191  35.467  32.875  1.00  0.00     0.016 A 
ATOM     31  C   UNL A   1      34.026  33.331  32.583  1.00  0.00     0.016 A 
ATOM     32  C   UNL A   1      36.395  34.805  32.831  1.00  0.00     0.010 A 
ATOM     33  C   UNL A   1      35.233  32.672  32.533  1.00  0.00     0.010 A 
ATOM     34  C   UNL A   1      36.399  33.431  32.571  1.00  0.00    -0.014 A 
BRANCH  34  35
ATOM     35  C   UNL A   1      37.686  32.812  32.347  1.00  0.00     0.031 A 
ATOM     36  C   UNL A   1      38.561  32.767  33.536  1.00  0.00     0.074 A 
ATOM     37  C   UNL A   1      38.024  32.260  31.169  1.00  0.00     0.049 A 
ATOM     38  N   UNL A   1      39.717  33.319  33.684  1.00  0.00    -0.248 NA
ATOM     39  C   UNL A   1      38.034  32.118  34.744  1.00  0.00     0.031 C 
ATOM     40  C   UNL A   1      37.165  31.995  30.013  1.00  0.00     0.029 A 
ATOM     41  N   UNL A   1      39.213  31.710  30.806  1.00  0.00    -0.354 N 
ATOM     42  C   UNL A   1      40.154  32.935  34.946  1.00  0.00     0.074 A 
ATOM     43  C   UNL A   1      39.030  32.322  35.605  1.00  0.00     0.031 C 
ATOM     44  C   UNL A   1      37.800  31.136  29.184  1.00  0.00     0.029 A 
ATOM     45  C   UNL A   1      39.138  30.883  29.698  1.00  0.00     0.049 A 
ATOM     46  H   UNL A   1      40.053  31.884  31.290  1.00  0.00     0.167 HD
ATOM     47  C   UNL A   1      41.475  32.943  35.264  1.00  0.00     0.037 A 
ATOM     48  C   UNL A   1      40.078  29.990  29.302  1.00  0.00     0.037 A 
ATOM     49  C   UNL A   1      42.230  33.808  34.395  1.00  0.00     0.049 A 
ATOM     50  C   UNL A   1      41.365  30.375  29.939  1.00  0.00     0.074 A 
ATOM     51  C   UNL A   1      42.142  35.144  34.049  1.00  0.00     0.029 A 
ATOM     52  N   UNL A   1      43.050  33.239  33.451  1.00  0.00    -0.354 N 
ATOM     53  N   UNL A   1      42.065  31.424  29.605  1.00  0.00    -0.248 NA
ATOM     54  C   UNL A   1      41.667  29.824  31.254  1.00  0.00     0.031 C 
ATOM     55  C   UNL A   1      42.486  35.194  32.667  1.00  0.00     0.029 A 
ATOM     56  C   UNL A   1      42.805  33.895  32.271  1.00  0.00     0.049 A 
ATOM     57  H   UNL A   1      43.690  32.505  33.593  1.00  0.00     0.167 HD
ATOM     58  C   UNL A   1      42.558  31.918  30.804  1.00  0.00     0.074 A 
ATOM     59  C   UNL A   1      42.371  30.836  31.767  1.00  0.00     0.031 C 
ATOM     60  C   UNL A   1      42.803  33.250  30.981  1.00  0.00     0.037 A 
BRANCH  47  61
ATOM     61  C   UNL A   1      42.117  31.882  36.118  1.00  0.00     0.057 A 
ATOM     62  C   UNL A   1      42.988  32.267  37.151  1.00  0.00     0.134 A 
ATOM     63  C   UNL A   1      42.148  30.513  35.781  1.00  0.00     0.134 A 
ATOM     64  F   UNL A   1      43.063  33.546  37.547  1.00  0.00    -0.206 F 
ATOM     65  C   UNL A   1      43.879  31.369  37.748  1.00  0.00     0.040 A 
ATOM     66  C   UNL A   1      42.994  29.598  36.410  1.00  0.00     0.040 A 
ATOM     67  F   UNL A   1      41.445  30.007  34.760  1.00  0.00    -0.206 F 
ATOM     68  C   UNL A   1      43.889  30.031  37.374  1.00  0.00     0.006 A 
ENDBRANCH  47  61
BRANCH  48  69
ATOM     69  C   UNL A   1      39.879  28.686  28.629  1.00  0.00     0.057 A 
ATOM     70  C   UNL A   1      40.505  28.399  27.408  1.00  0.00     0.134 A 
ATOM     71  C   UNL A   1      39.269  27.594  29.274  1.00  0.00     0.134 A 
ATOM     72  F   UNL A   1      41.159  29.357  26.734  1.00  0.00    -0.206 F 
ATOM     73  C   UNL A   1      40.536  27.105  26.870  1.00  0.00     0.040 A 
ATOM     74  C   UNL A   1      39.277  26.301  28.740  1.00  0.00     0.040 A 
ATOM     75  F   UNL A   1      38.717  27.718  30.489  1.00  0.00    -0.206 F 
ATOM     76  C   UNL A   1      39.925  26.050  27.540  1.00  0.00     0.006 A 
ENDBRANCH  48  69
BRANCH  60  77
ATOM     77  C   UNL A   1      42.786  34.147  29.774  1.00  0.00     0.057 A 
ATOM     78  C   UNL A   1      43.877  34.320  28.910  1.00  0.00     0.134 A 
ATOM     79  C   UNL A   1      41.574  34.732  29.385  1.00  0.00     0.134 A 
ATOM     80  F   UNL A   1      45.047  33.707  29.134  1.00  0.00    -0.206 F 
ATOM     81  C   UNL A   1      43.780  35.083  27.743  1.00  0.00     0.040 A 
ATOM     82  C   UNL A   1      41.454  35.466  28.204  1.00  0.00     0.040 A 
ATOM     83  F   UNL A   1      40.469  34.558  30.129  1.00  0.00    -0.206 F 
ATOM     84  C   UNL A   1      42.563  35.654  27.384  1.00  0.00     0.006 A 
ENDBRANCH  60  77
ENDBRANCH  34  35
ENDBRANCH  27  29
ENDBRANCH  26  27
ENDBRANCH  25  26
ENDBRANCH  24  25
ENDBRANCH  23  24
ENDBRANCH  22  23
ENDBRANCH   1  22
TORSDOF 20
ENDMDL
MODEL 3
REMARK VINA RESULT:      -9.7      4.902      9.812
REMARK SMILES COc1ncccc1Cn1ccc(C(=O)OCCOCCOCCOC(=O)c2ccc(-c3c4nc(c(-c5c(F)cccc5F)c5ccc([nH]5)c(-c5c(F)cccc5F)c5nc(c(-c6c(F)cccc6F)c6ccc3[nH]6)C=C5)C=C4)cc2)n1
REMARK SMILES IDX 20 1 19 2 18 3 17 4 16 5 14 6 15 7 13 8 10 9 11 10 82 11
REMARK SMILES IDX 12 12 9 13 8 14 3 15 4 16 5 17 7 18 6 19 2 20 1 21 21 22
REMARK SMILES IDX 22 23 23 24 24 25 25 26 26 27 27 28 28 29 29 30 81 31 30 32
REMARK SMILES IDX 80 33 31 34 32 35 33 36 74 37 34 38 79 39 73 40 75 41 35 42
REMARK SMILES IDX 78 43 72 44 71 45 36 47 62 48 45 49 61 50 46 51 49 52 60 53
REMARK SMILES IDX 76 54 47 55 48 56 59 58 77 59 50 60 37 61 38 62 43 63 39 64
REMARK SMILES IDX 40 65 42 66 44 67 41 68 63 69 64 70 69 71 65 72 66 73 68 74
REMARK SMILES IDX 70 75 67 76 51 77 52 78 57 79 53 80 54 81 56 82 58 83 55 84
REMARK H PARENT 75 46 49 57
REMARK Flexibility Score: inf
ROOT
ATOM      1  C   UNL A   1      34.866  35.184  33.610  1.00  0.00     0.188 C 
ENDROOT
BRANCH   1   2
ATOM      2  O   UNL A   1      34.520  36.426  33.031  1.00  0.00    -0.376 OA
BRANCH   2   3
ATOM      3  C   UNL A   1      33.149  36.649  32.728  1.00  0.00     0.202 C 
BRANCH   3   4
ATOM      4  C   UNL A   1      32.553  36.257  31.354  1.00  0.00     0.261 C 
BRANCH   4   5
ATOM      5  O   UNL A   1      32.968  35.004  30.791  1.00  0.00    -0.458 OA
BRANCH   5   6
ATOM      6  C   UNL A   1      33.544  35.046  29.555  1.00  0.00     0.358 C 
ATOM      7  O   UNL A   1      33.345  35.951  28.750  1.00  0.00    -0.244 OA
BRANCH   6   8
ATOM      8  C   UNL A   1      34.541  33.981  29.313  1.00  0.00     0.170 A 
ATOM      9  N   UNL A   1      35.497  32.077  29.037  1.00  0.00    -0.267 N 
ATOM     10  C   UNL A   1      36.484  33.006  28.843  1.00  0.00     0.110 A 
ATOM     11  N   UNL A   1      34.293  32.652  29.298  1.00  0.00    -0.165 NA
ATOM     12  C   UNL A   1      35.917  34.232  29.066  1.00  0.00     0.057 A 
BRANCH   9  13
ATOM     13  C   UNL A   1      35.589  30.657  28.678  1.00  0.00     0.185 C 
BRANCH  13  14
ATOM     14  C   UNL A   1      36.853  29.930  29.067  1.00  0.00     0.036 A 
ATOM     15  C   UNL A   1      37.146  29.523  30.365  1.00  0.00     0.218 A 
ATOM     16  N   UNL A   1      38.344  29.039  30.773  1.00  0.00    -0.222 NA
ATOM     17  C   UNL A   1      39.303  28.913  29.836  1.00  0.00     0.115 A 
ATOM     18  C   UNL A   1      37.878  29.761  28.123  1.00  0.00     0.013 A 
ATOM     19  C   UNL A   1      39.116  29.246  28.508  1.00  0.00     0.021 A 
BRANCH  15  20
ATOM     20  O   UNL A   1      36.207  29.700  31.348  1.00  0.00    -0.481 OA
ATOM     21  C   UNL A   1      36.673  30.630  32.323  1.00  0.00     0.280 C 
ENDBRANCH  15  20
ENDBRANCH  13  14
ENDBRANCH   9  13
ENDBRANCH   6   8
ENDBRANCH   5   6
ENDBRANCH   4   5
ENDBRANCH   3   4
ENDBRANCH   2   3
ENDBRANCH   1   2
BRANCH   1  22
ATOM     22  C   UNL A   1      35.943  34.410  32.822  1.00  0.00     0.188 C 
BRANCH  22  23
ATOM     23  O   UNL A   1      37.325  34.497  33.156  1.00  0.00    -0.376 OA
BRANCH  23  24
ATOM     24  C   UNL A   1      38.348  34.281  32.196  1.00  0.00     0.202 C 
BRANCH  24  25
ATOM     25  C   UNL A   1      39.818  34.486  32.551  1.00  0.00     0.261 C 
BRANCH  25  26
ATOM     26  O   UNL A   1      40.738  34.066  31.560  1.00  0.00    -0.460 OA
BRANCH  26  27
ATOM     27  C   UNL A   1      42.020  34.080  31.979  1.00  0.00     0.338 C 
ATOM     28  O   UNL A   1      42.520  34.807  32.819  1.00  0.00    -0.246 OA
BRANCH  27  29
ATOM     29  C   UNL A   1      42.799  33.153  31.156  1.00  0.00     0.060 A 
ATOM     30  C   UNL A   1      42.108  32.517  30.122  1.00  0.00     0.016 A 
ATOM     31  C   UNL A   1      44.061  32.718  31.589  1.00  0.00     0.016 A 
ATOM     32  C   UNL A   1      42.592  31.317  29.658  1.00  0.00     0.010 A 
ATOM     33  C   UNL A   1      44.540  31.513  31.128  1.00  0.00     0.010 A 
ATOM     34  C   UNL A   1      43.754  30.792  30.234  1.00  0.00    -0.014 A 
BRANCH  34  35
ATOM     35  C   UNL A   1      44.123  29.447  29.852  1.00  0.00     0.031 A 
ATOM     36  C   UNL A   1      44.926  29.359  28.616  1.00  0.00     0.074 A 
ATOM     37  C   UNL A   1      43.816  28.376  30.604  1.00  0.00     0.049 A 
ATOM     38  N   UNL A   1      44.617  28.759  27.517  1.00  0.00    -0.248 NA
ATOM     39  C   UNL A   1      46.180  30.123  28.564  1.00  0.00     0.031 C 
ATOM     40  C   UNL A   1      43.274  28.349  31.964  1.00  0.00     0.029 A 
ATOM     41  N   UNL A   1      44.041  27.063  30.331  1.00  0.00    -0.354 N 
ATOM     42  C   UNL A   1      45.720  28.912  26.686  1.00  0.00     0.074 A 
ATOM     43  C   UNL A   1      46.586  29.872  27.320  1.00  0.00     0.031 C 
ATOM     44  C   UNL A   1      43.433  27.106  32.473  1.00  0.00     0.029 A 
ATOM     45  C   UNL A   1      43.983  26.239  31.443  1.00  0.00     0.049 A 
ATOM     46  H   UNL A   1      44.230  26.730  29.425  1.00  0.00     0.167 HD
ATOM     47  C   UNL A   1      45.944  28.059  25.652  1.00  0.00     0.037 A 
ATOM     48  C   UNL A   1      44.448  24.967  31.519  1.00  0.00     0.037 A 
ATOM     49  C   UNL A   1      44.742  27.374  25.253  1.00  0.00     0.049 A 
ATOM     50  C   UNL A   1      44.579  24.449  30.132  1.00  0.00     0.074 A 
ATOM     51  C   UNL A   1      43.485  27.787  24.849  1.00  0.00     0.029 A 
ATOM     52  N   UNL A   1      44.607  26.044  25.568  1.00  0.00    -0.354 N 
ATOM     53  N   UNL A   1      43.571  24.148  29.361  1.00  0.00    -0.248 NA
ATOM     54  C   UNL A   1      45.843  24.668  29.439  1.00  0.00     0.031 C 
ATOM     55  C   UNL A   1      42.584  26.841  25.418  1.00  0.00     0.029 A 
ATOM     56  C   UNL A   1      43.349  25.890  26.093  1.00  0.00     0.049 A 
ATOM     57  H   UNL A   1      45.281  25.338  25.440  1.00  0.00     0.167 HD
ATOM     58  C   UNL A   1      43.954  24.569  28.096  1.00  0.00     0.074 A 
ATOM     59  C   UNL A   1      45.396  24.779  28.185  1.00  0.00     0.031 C 
ATOM     60  C   UNL A   1      43.037  24.987  27.174  1.00  0.00     0.037 A 
BRANCH  47  61
ATOM     61  C   UNL A   1      47.320  27.585  25.266  1.00  0.00     0.057 A 
ATOM     62  C   UNL A   1      47.684  27.568  23.910  1.00  0.00     0.134 A 
ATOM     63  C   UNL A   1      48.179  26.875  26.132  1.00  0.00     0.134 A 
ATOM     64  F   UNL A   1      46.935  28.189  22.988  1.00  0.00    -0.206 F 
ATOM     65  C   UNL A   1      48.779  26.832  23.441  1.00  0.00     0.040 A 
ATOM     66  C   UNL A   1      49.305  26.185  25.681  1.00  0.00     0.040 A 
ATOM     67  F   UNL A   1      47.921  26.723  27.436  1.00  0.00    -0.206 F 
ATOM     68  C   UNL A   1      49.589  26.132  24.326  1.00  0.00     0.006 A 
ENDBRANCH  47  61
BRANCH  48  69
ATOM     69  C   UNL A   1      45.032  24.273  32.690  1.00  0.00     0.057 A 
ATOM     70  C   UNL A   1      46.176  24.772  33.330  1.00  0.00     0.134 A 
ATOM     71  C   UNL A   1      44.355  23.241  33.366  1.00  0.00     0.134 A 
ATOM     72  F   UNL A   1      46.868  25.789  32.796  1.00  0.00    -0.206 F 
ATOM     73  C   UNL A   1      46.609  24.286  34.571  1.00  0.00     0.040 A 
ATOM     74  C   UNL A   1      44.786  22.735  34.596  1.00  0.00     0.040 A 
ATOM     75  F   UNL A   1      43.199  22.743  32.905  1.00  0.00    -0.206 F 
ATOM     76  C   UNL A   1      45.910  23.267  35.210  1.00  0.00     0.006 A 
ENDBRANCH  48  69
BRANCH  60  77
ATOM     77  C   UNL A   1      41.580  24.738  27.450  1.00  0.00     0.057 A 
ATOM     78  C   UNL A   1      40.772  25.587  28.222  1.00  0.00     0.134 A 
ATOM     79  C   UNL A   1      40.936  23.689  26.782  1.00  0.00     0.134 A 
ATOM     80  F   UNL A   1      41.273  26.682  28.806  1.00  0.00    -0.206 F 
ATOM     81  C   UNL A   1      39.399  25.368  28.364  1.00  0.00     0.040 A 
ATOM     82  C   UNL A   1      39.559  23.482  26.887  1.00  0.00     0.040 A 
ATOM     83  F   UNL A   1      41.632  22.871  25.975  1.00  0.00    -0.206 F 
ATOM     84  C   UNL A   1      38.787  24.316  27.690  1.00  0.00     0.006 A 
ENDBRANCH  60  77
ENDBRANCH  34  35
ENDBRANCH  27  29
ENDBRANCH  26  27
ENDBRANCH  25  26
ENDBRANCH  24  25
ENDBRANCH  23  24
ENDBRANCH  22  23
ENDBRANCH   1  22
TORSDOF 20
ENDMDL
