MODEL 1
REMARK VINA RESULT:     -10.8      0.000      0.000
REMARK SMILES CC(C)(C)OC(=O)N1CCC(n2c(=S)[nH]c3cc(C(=O)OCCOCCOCCOC(=O)c4ccc(-c5c6nc(c(-c7c(F)cccc7F)c7ccc([nH]7)c(-c7c(F)cccc7F)c7nc(c(-c8c(F)cccc8F)c8ccc5[nH]8)C=C7)C=C6)cc4)ccc3c2=O)CC1
REMARK SMILES IDX 25 1 24 2 23 3 22 4 21 5 19 6 20 7 18 8 12 9 13 10 90 11
REMARK SMILES IDX 14 12 15 13 89 14 91 15 16 16 88 18 17 19 87 20 11 21 6 22
REMARK SMILES IDX 7 23 8 24 9 25 93 26 10 27 92 28 5 29 2 30 1 31 3 32 4 33
REMARK SMILES IDX 26 34 27 35 28 36 29 37 30 38 31 39 32 40 33 41 34 42 86 43
REMARK SMILES IDX 35 44 85 45 36 46 37 47 38 48 79 49 39 50 84 51 78 52 80 53
REMARK SMILES IDX 40 54 83 55 77 56 76 57 41 59 67 60 50 61 66 62 51 63 54 64
REMARK SMILES IDX 65 65 81 66 52 67 53 68 64 70 82 71 55 72 42 73 43 74 48 75
REMARK SMILES IDX 44 76 45 77 47 78 49 79 46 80 68 81 69 82 74 83 70 84 71 85
REMARK SMILES IDX 73 86 75 87 72 88 56 89 57 90 62 91 58 92 59 93 61 94 63 95
REMARK SMILES IDX 60 96
REMARK H PARENT 15 17 80 58 54 69
REMARK Flexibility Score: inf
ROOT
ATOM      1  C   UNL A   1      32.483  22.666  26.678  1.00  0.00     0.188 C 
ENDROOT
BRANCH   1   2
ATOM      2  O   UNL A   1      31.666  23.658  27.253  1.00  0.00    -0.376 OA
BRANCH   2   3
ATOM      3  C   UNL A   1      30.787  24.446  26.469  1.00  0.00     0.202 C 
BRANCH   3   4
ATOM      4  C   UNL A   1      30.918  24.687  24.957  1.00  0.00     0.261 C 
BRANCH   4   5
ATOM      5  O   UNL A   1      32.012  25.491  24.516  1.00  0.00    -0.460 OA
BRANCH   5   6
ATOM      6  C   UNL A   1      31.668  26.561  23.752  1.00  0.00     0.338 C 
ATOM      7  O   UNL A   1      31.051  26.553  22.708  1.00  0.00    -0.246 OA
BRANCH   6   8
ATOM      8  C   UNL A   1      31.997  27.805  24.481  1.00  0.00     0.062 A 
ATOM      9  N   UNL A   1      34.239  31.236  27.455  1.00  0.00    -0.282 N 
ATOM     10  C   UNL A   1      35.183  30.214  27.245  1.00  0.00     0.180 A 
ATOM     11  C   UNL A   1      32.979  31.205  26.830  1.00  0.00     0.262 A 
ATOM     12  S   UNL A   1      36.722  30.076  27.906  1.00  0.00    -0.040 S 
ATOM     13  N   UNL A   1      34.823  29.180  26.420  1.00  0.00    -0.332 N 
ATOM     14  C   UNL A   1      32.653  30.065  25.960  1.00  0.00     0.064 A 
ATOM     15  O   UNL A   1      32.083  32.033  26.966  1.00  0.00    -0.269 OA
ATOM     16  C   UNL A   1      33.584  29.054  25.809  1.00  0.00     0.054 A 
ATOM     17  H   UNL A   1      35.492  28.477  26.249  1.00  0.00     0.169 HD
ATOM     18  C   UNL A   1      31.404  29.979  25.327  1.00  0.00     0.017 A 
ATOM     19  C   UNL A   1      33.266  27.914  25.072  1.00  0.00     0.042 A 
ATOM     20  C   UNL A   1      31.075  28.849  24.579  1.00  0.00     0.016 A 
BRANCH   9  21
ATOM     21  C   UNL A   1      34.584  32.410  28.339  1.00  0.00     0.097 C 
ATOM     22  C   UNL A   1      32.939  35.420  30.461  1.00  0.00     0.410 C 
ATOM     23  O   UNL A   1      32.211  36.077  29.719  1.00  0.00    -0.224 OA
ATOM     24  N   UNL A   1      34.033  34.715  29.992  1.00  0.00    -0.308 N 
ATOM     25  C   UNL A   1      34.454  34.908  28.619  1.00  0.00     0.125 C 
ATOM     26  C   UNL A   1      34.599  33.547  30.653  1.00  0.00     0.125 C 
ATOM     27  C   UNL A   1      34.002  33.726  27.772  1.00  0.00     0.047 C 
ATOM     28  C   UNL A   1      34.221  32.298  29.849  1.00  0.00     0.047 C 
BRANCH  22  29
ATOM     29  O   UNL A   1      32.791  35.347  31.809  1.00  0.00    -0.444 OA
BRANCH  29  30
ATOM     30  C   UNL A   1      33.192  36.466  32.650  1.00  0.00     0.106 C 
ATOM     31  C   UNL A   1      34.402  35.957  33.451  1.00  0.00     0.056 C 
ATOM     32  C   UNL A   1      32.064  36.821  33.624  1.00  0.00     0.056 C 
ATOM     33  C   UNL A   1      33.653  37.693  31.846  1.00  0.00     0.056 C 
ENDBRANCH  29  30
ENDBRANCH  22  29
ENDBRANCH   9  21
ENDBRANCH   6   8
ENDBRANCH   5   6
ENDBRANCH   4   5
ENDBRANCH   3   4
ENDBRANCH   2   3
ENDBRANCH   1   2
BRANCH   1  34
ATOM     34  C   UNL A   1      33.993  22.634  26.989  1.00  0.00     0.188 C 
BRANCH  34  35
ATOM     35  O   UNL A   1      34.732  21.439  26.855  1.00  0.00    -0.376 OA
BRANCH  35  36
ATOM     36  C   UNL A   1      35.115  20.981  25.569  1.00  0.00     0.202 C 
BRANCH  36  37
ATOM     37  C   UNL A   1      36.580  20.900  25.108  1.00  0.00     0.261 C 
BRANCH  37  38
ATOM     38  O   UNL A   1      37.442  21.955  25.549  1.00  0.00    -0.460 OA
BRANCH  38  39
ATOM     39  C   UNL A   1      38.680  21.576  25.949  1.00  0.00     0.338 C 
ATOM     40  O   UNL A   1      39.227  20.499  25.756  1.00  0.00    -0.246 OA
BRANCH  39  41
ATOM     41  C   UNL A   1      39.377  22.749  26.502  1.00  0.00     0.060 A 
ATOM     42  C   UNL A   1      40.391  22.590  27.447  1.00  0.00     0.016 A 
ATOM     43  C   UNL A   1      38.997  24.030  26.074  1.00  0.00     0.016 A 
ATOM     44  C   UNL A   1      41.032  23.719  27.959  1.00  0.00     0.010 A 
ATOM     45  C   UNL A   1      39.626  25.158  26.603  1.00  0.00     0.010 A 
ATOM     46  C   UNL A   1      40.661  25.010  27.537  1.00  0.00    -0.014 A 
BRANCH  46  47
ATOM     47  C   UNL A   1      41.463  26.182  27.958  1.00  0.00     0.031 A 
ATOM     48  C   UNL A   1      42.867  26.397  27.482  1.00  0.00     0.074 A 
ATOM     49  C   UNL A   1      40.893  27.066  28.799  1.00  0.00     0.049 A 
ATOM     50  N   UNL A   1      43.664  27.412  27.706  1.00  0.00    -0.248 NA
ATOM     51  C   UNL A   1      43.456  25.337  26.653  1.00  0.00     0.031 C 
ATOM     52  C   UNL A   1      39.544  26.945  29.353  1.00  0.00     0.029 A 
ATOM     53  N   UNL A   1      41.371  28.236  29.329  1.00  0.00    -0.354 N 
ATOM     54  C   UNL A   1      44.842  27.130  27.028  1.00  0.00     0.074 A 
ATOM     55  C   UNL A   1      44.672  25.822  26.426  1.00  0.00     0.031 C 
ATOM     56  C   UNL A   1      39.293  28.012  30.127  1.00  0.00     0.029 A 
ATOM     57  C   UNL A   1      40.471  28.874  30.146  1.00  0.00     0.049 A 
ATOM     58  H   UNL A   1      42.272  28.586  29.141  1.00  0.00     0.167 HD
ATOM     59  C   UNL A   1      45.951  27.902  26.905  1.00  0.00     0.037 A 
ATOM     60  C   UNL A   1      40.582  30.024  30.835  1.00  0.00     0.037 A 
ATOM     61  C   UNL A   1      46.123  29.192  27.529  1.00  0.00     0.049 A 
ATOM     62  C   UNL A   1      41.852  30.821  30.737  1.00  0.00     0.074 A 
ATOM     63  C   UNL A   1      47.194  30.064  27.428  1.00  0.00     0.029 A 
ATOM     64  N   UNL A   1      45.212  29.784  28.392  1.00  0.00    -0.354 N 
ATOM     65  N   UNL A   1      42.922  30.589  30.017  1.00  0.00    -0.248 NA
ATOM     66  C   UNL A   1      41.927  32.043  31.550  1.00  0.00     0.031 C 
ATOM     67  C   UNL A   1      46.958  31.154  28.274  1.00  0.00     0.029 A 
ATOM     68  C   UNL A   1      45.714  30.990  28.861  1.00  0.00     0.049 A 
ATOM     69  H   UNL A   1      44.337  29.404  28.636  1.00  0.00     0.167 HD
ATOM     70  C   UNL A   1      43.786  31.646  30.272  1.00  0.00     0.074 A 
ATOM     71  C   UNL A   1      43.105  32.531  31.193  1.00  0.00     0.031 C 
ATOM     72  C   UNL A   1      45.035  31.861  29.787  1.00  0.00     0.037 A 
BRANCH  59  73
ATOM     73  C   UNL A   1      47.076  27.369  26.062  1.00  0.00     0.057 A 
ATOM     74  C   UNL A   1      47.074  27.536  24.671  1.00  0.00     0.134 A 
ATOM     75  C   UNL A   1      48.136  26.645  26.621  1.00  0.00     0.134 A 
ATOM     76  F   UNL A   1      46.082  28.206  24.065  1.00  0.00    -0.206 F 
ATOM     77  C   UNL A   1      48.086  27.005  23.869  1.00  0.00     0.040 A 
ATOM     78  C   UNL A   1      49.169  26.132  25.834  1.00  0.00     0.040 A 
ATOM     79  F   UNL A   1      48.200  26.448  27.947  1.00  0.00    -0.206 F 
ATOM     80  C   UNL A   1      49.142  26.307  24.452  1.00  0.00     0.006 A 
ENDBRANCH  59  73
BRANCH  60  81
ATOM     81  C   UNL A   1      39.456  30.499  31.676  1.00  0.00     0.057 A 
ATOM     82  C   UNL A   1      38.509  31.404  31.181  1.00  0.00     0.134 A 
ATOM     83  C   UNL A   1      39.284  30.034  32.985  1.00  0.00     0.134 A 
ATOM     84  F   UNL A   1      38.623  31.891  29.937  1.00  0.00    -0.206 F 
ATOM     85  C   UNL A   1      37.432  31.831  31.958  1.00  0.00     0.040 A 
ATOM     86  C   UNL A   1      38.194  30.430  33.762  1.00  0.00     0.040 A 
ATOM     87  F   UNL A   1      40.149  29.153  33.507  1.00  0.00    -0.206 F 
ATOM     88  C   UNL A   1      37.266  31.334  33.249  1.00  0.00     0.006 A 
ENDBRANCH  60  81
BRANCH  72  89
ATOM     89  C   UNL A   1      45.735  33.113  30.237  1.00  0.00     0.057 A 
ATOM     90  C   UNL A   1      46.670  33.077  31.280  1.00  0.00     0.134 A 
ATOM     91  C   UNL A   1      45.475  34.358  29.648  1.00  0.00     0.134 A 
ATOM     92  F   UNL A   1      46.963  31.920  31.892  1.00  0.00    -0.206 F 
ATOM     93  C   UNL A   1      47.319  34.231  31.720  1.00  0.00     0.040 A 
ATOM     94  C   UNL A   1      46.141  35.514  30.059  1.00  0.00     0.040 A 
ATOM     95  F   UNL A   1      44.605  34.460  28.633  1.00  0.00    -0.206 F 
ATOM     96  C   UNL A   1      47.061  35.453  31.104  1.00  0.00     0.006 A 
ENDBRANCH  72  89
ENDBRANCH  46  47
ENDBRANCH  39  41
ENDBRANCH  38  39
ENDBRANCH  37  38
ENDBRANCH  36  37
ENDBRANCH  35  36
ENDBRANCH  34  35
ENDBRANCH   1  34
TORSDOF 20
ENDMDL
MODEL 2
REMARK VINA RESULT:     -10.0      3.715     10.719
REMARK SMILES CC(C)(C)OC(=O)N1CCC(n2c(=S)[nH]c3cc(C(=O)OCCOCCOCCOC(=O)c4ccc(-c5c6nc(c(-c7c(F)cccc7F)c7ccc([nH]7)c(-c7c(F)cccc7F)c7nc(c(-c8c(F)cccc8F)c8ccc5[nH]8)C=C7)C=C6)cc4)ccc3c2=O)CC1
REMARK SMILES IDX 25 1 24 2 23 3 22 4 21 5 19 6 20 7 18 8 12 9 13 10 90 11
REMARK SMILES IDX 14 12 15 13 89 14 91 15 16 16 88 18 17 19 87 20 11 21 6 22
REMARK SMILES IDX 7 23 8 24 9 25 93 26 10 27 92 28 5 29 2 30 1 31 3 32 4 33
REMARK SMILES IDX 26 34 27 35 28 36 29 37 30 38 31 39 32 40 33 41 34 42 86 43
REMARK SMILES IDX 35 44 85 45 36 46 37 47 38 48 79 49 39 50 84 51 78 52 80 53
REMARK SMILES IDX 40 54 83 55 77 56 76 57 41 59 67 60 50 61 66 62 51 63 54 64
REMARK SMILES IDX 65 65 81 66 52 67 53 68 64 70 82 71 55 72 42 73 43 74 48 75
REMARK SMILES IDX 44 76 45 77 47 78 49 79 46 80 68 81 69 82 74 83 70 84 71 85
REMARK SMILES IDX 73 86 75 87 72 88 56 89 57 90 62 91 58 92 59 93 61 94 63 95
REMARK SMILES IDX 60 96
REMARK H PARENT 15 17 80 58 54 69
REMARK Flexibility Score: inf
ROOT
ATOM      1  C   UNL A   1      33.392  27.663  22.145  1.00  0.00     0.188 C 
ENDROOT
BRANCH   1   2
ATOM      2  O   UNL A   1      32.247  27.096  21.555  1.00  0.00    -0.376 OA
BRANCH   2   3
ATOM      3  C   UNL A   1      31.858  25.759  21.817  1.00  0.00     0.202 C 
BRANCH   3   4
ATOM      4  C   UNL A   1      31.159  25.270  23.096  1.00  0.00     0.261 C 
BRANCH   4   5
ATOM      5  O   UNL A   1      31.987  24.964  24.216  1.00  0.00    -0.460 OA
BRANCH   5   6
ATOM      6  C   UNL A   1      32.336  23.657  24.334  1.00  0.00     0.338 C 
ATOM      7  O   UNL A   1      31.677  22.687  24.022  1.00  0.00    -0.246 OA
BRANCH   6   8
ATOM      8  C   UNL A   1      33.756  23.566  24.739  1.00  0.00     0.062 A 
ATOM      9  N   UNL A   1      38.354  21.817  25.938  1.00  0.00    -0.282 N 
ATOM     10  C   UNL A   1      37.692  20.770  25.271  1.00  0.00     0.180 A 
ATOM     11  C   UNL A   1      37.749  23.077  26.101  1.00  0.00     0.262 A 
ATOM     12  S   UNL A   1      38.245  19.208  24.991  1.00  0.00    -0.040 S 
ATOM     13  N   UNL A   1      36.429  21.020  24.797  1.00  0.00    -0.332 N 
ATOM     14  C   UNL A   1      36.390  23.278  25.574  1.00  0.00     0.064 A 
ATOM     15  O   UNL A   1      38.232  24.042  26.684  1.00  0.00    -0.269 OA
ATOM     16  C   UNL A   1      35.749  22.217  24.962  1.00  0.00     0.054 A 
ATOM     17  H   UNL A   1      35.975  20.298  24.305  1.00  0.00     0.169 HD
ATOM     18  C   UNL A   1      35.738  24.510  25.723  1.00  0.00     0.017 A 
ATOM     19  C   UNL A   1      34.426  22.348  24.542  1.00  0.00     0.042 A 
ATOM     20  C   UNL A   1      34.418  24.659  25.301  1.00  0.00     0.016 A 
BRANCH   9  21
ATOM     21  C   UNL A   1      39.753  21.608  26.466  1.00  0.00     0.097 C 
ATOM     22  C   UNL A   1      43.253  19.779  25.643  1.00  0.00     0.410 C 
ATOM     23  O   UNL A   1      43.043  18.580  25.469  1.00  0.00    -0.224 OA
ATOM     24  N   UNL A   1      42.447  20.563  26.449  1.00  0.00    -0.308 N 
ATOM     25  C   UNL A   1      41.439  19.921  27.269  1.00  0.00     0.125 C 
ATOM     26  C   UNL A   1      42.295  22.005  26.302  1.00  0.00     0.125 C 
ATOM     27  C   UNL A   1      40.067  20.102  26.633  1.00  0.00     0.047 C 
ATOM     28  C   UNL A   1      40.918  22.292  25.692  1.00  0.00     0.047 C 
BRANCH  22  29
ATOM     29  O   UNL A   1      44.306  20.456  25.118  1.00  0.00    -0.444 OA
BRANCH  29  30
ATOM     30  C   UNL A   1      45.443  19.728  24.571  1.00  0.00     0.106 C 
ATOM     31  C   UNL A   1      46.547  20.781  24.385  1.00  0.00     0.056 C 
ATOM     32  C   UNL A   1      45.081  19.138  23.204  1.00  0.00     0.056 C 
ATOM     33  C   UNL A   1      45.987  18.651  25.525  1.00  0.00     0.056 C 
ENDBRANCH  29  30
ENDBRANCH  22  29
ENDBRANCH   9  21
ENDBRANCH   6   8
ENDBRANCH   5   6
ENDBRANCH   4   5
ENDBRANCH   3   4
ENDBRANCH   2   3
ENDBRANCH   1   2
BRANCH   1  34
ATOM     34  C   UNL A   1      33.258  28.529  23.414  1.00  0.00     0.188 C 
BRANCH  34  35
ATOM     35  O   UNL A   1      32.172  28.352  24.297  1.00  0.00    -0.376 OA
BRANCH  35  36
ATOM     36  C   UNL A   1      31.414  29.472  24.725  1.00  0.00     0.202 C 
BRANCH  36  37
ATOM     37  C   UNL A   1      31.723  30.253  26.013  1.00  0.00     0.261 C 
BRANCH  37  38
ATOM     38  O   UNL A   1      33.108  30.398  26.349  1.00  0.00    -0.460 OA
BRANCH  38  39
ATOM     39  C   UNL A   1      33.408  31.432  27.172  1.00  0.00     0.338 C 
ATOM     40  O   UNL A   1      32.675  32.350  27.512  1.00  0.00    -0.246 OA
BRANCH  39  41
ATOM     41  C   UNL A   1      34.729  31.186  27.775  1.00  0.00     0.060 A 
ATOM     42  C   UNL A   1      35.626  32.236  27.967  1.00  0.00     0.016 A 
ATOM     43  C   UNL A   1      35.076  29.876  28.141  1.00  0.00     0.016 A 
ATOM     44  C   UNL A   1      36.874  31.975  28.537  1.00  0.00     0.010 A 
ATOM     45  C   UNL A   1      36.331  29.615  28.691  1.00  0.00     0.010 A 
ATOM     46  C   UNL A   1      37.233  30.665  28.909  1.00  0.00    -0.014 A 
BRANCH  46  47
ATOM     47  C   UNL A   1      38.486  30.432  29.666  1.00  0.00     0.031 A 
ATOM     48  C   UNL A   1      38.677  30.942  31.062  1.00  0.00     0.074 A 
ATOM     49  C   UNL A   1      39.470  29.743  29.058  1.00  0.00     0.049 A 
ATOM     50  N   UNL A   1      39.687  30.752  31.874  1.00  0.00    -0.248 NA
ATOM     51  C   UNL A   1      37.602  31.774  31.618  1.00  0.00     0.031 C 
ATOM     52  C   UNL A   1      39.408  29.225  27.691  1.00  0.00     0.029 A 
ATOM     53  N   UNL A   1      40.705  29.357  29.509  1.00  0.00    -0.354 N 
ATOM     54  C   UNL A   1      39.364  31.419  33.048  1.00  0.00     0.074 A 
ATOM     55  C   UNL A   1      38.084  32.062  32.821  1.00  0.00     0.031 C 
ATOM     56  C   UNL A   1      40.547  28.568  27.422  1.00  0.00     0.029 A 
ATOM     57  C   UNL A   1      41.427  28.643  28.585  1.00  0.00     0.049 A 
ATOM     58  H   UNL A   1      41.042  29.570  30.410  1.00  0.00     0.167 HD
ATOM     59  C   UNL A   1      40.063  31.470  34.209  1.00  0.00     0.037 A 
ATOM     60  C   UNL A   1      42.659  28.111  28.663  1.00  0.00     0.037 A 
ATOM     61  C   UNL A   1      41.349  30.849  34.418  1.00  0.00     0.049 A 
ATOM     62  C   UNL A   1      43.440  28.248  29.940  1.00  0.00     0.074 A 
ATOM     63  C   UNL A   1      42.114  30.812  35.572  1.00  0.00     0.029 A 
ATOM     64  N   UNL A   1      42.075  30.178  33.444  1.00  0.00    -0.354 N 
ATOM     65  N   UNL A   1      43.084  28.800  31.074  1.00  0.00    -0.248 NA
ATOM     66  C   UNL A   1      44.797  27.684  29.947  1.00  0.00     0.031 C 
ATOM     67  C   UNL A   1      43.324  30.172  35.281  1.00  0.00     0.029 A 
ATOM     68  C   UNL A   1      43.293  29.759  33.960  1.00  0.00     0.049 A 
ATOM     69  H   UNL A   1      41.770  30.022  32.521  1.00  0.00     0.167 HD
ATOM     70  C   UNL A   1      44.161  28.630  31.933  1.00  0.00     0.074 A 
ATOM     71  C   UNL A   1      45.174  27.902  31.197  1.00  0.00     0.031 C 
ATOM     72  C   UNL A   1      44.301  29.044  33.218  1.00  0.00     0.037 A 
BRANCH  59  73
ATOM     73  C   UNL A   1      39.453  32.231  35.353  1.00  0.00     0.057 A 
ATOM     74  C   UNL A   1      38.563  31.608  36.238  1.00  0.00     0.134 A 
ATOM     75  C   UNL A   1      39.704  33.595  35.547  1.00  0.00     0.134 A 
ATOM     76  F   UNL A   1      38.263  30.308  36.102  1.00  0.00    -0.206 F 
ATOM     77  C   UNL A   1      37.949  32.313  37.275  1.00  0.00     0.040 A 
ATOM     78  C   UNL A   1      39.118  34.305  36.597  1.00  0.00     0.040 A 
ATOM     79  F   UNL A   1      40.546  34.254  34.736  1.00  0.00    -0.206 F 
ATOM     80  C   UNL A   1      38.233  33.665  37.462  1.00  0.00     0.006 A 
ENDBRANCH  59  73
BRANCH  60  81
ATOM     81  C   UNL A   1      43.234  27.391  27.501  1.00  0.00     0.057 A 
ATOM     82  C   UNL A   1      43.947  28.069  26.505  1.00  0.00     0.134 A 
ATOM     83  C   UNL A   1      43.109  26.002  27.376  1.00  0.00     0.134 A 
ATOM     84  F   UNL A   1      44.095  29.399  26.564  1.00  0.00    -0.206 F 
ATOM     85  C   UNL A   1      44.515  27.391  25.426  1.00  0.00     0.040 A 
ATOM     86  C   UNL A   1      43.699  25.309  26.318  1.00  0.00     0.040 A 
ATOM     87  F   UNL A   1      42.453  25.297  28.308  1.00  0.00    -0.206 F 
ATOM     88  C   UNL A   1      44.401  26.006  25.337  1.00  0.00     0.006 A 
ENDBRANCH  60  81
BRANCH  72  89
ATOM     89  C   UNL A   1      45.591  28.703  33.908  1.00  0.00     0.057 A 
ATOM     90  C   UNL A   1      46.716  29.527  33.775  1.00  0.00     0.134 A 
ATOM     91  C   UNL A   1      45.727  27.551  34.695  1.00  0.00     0.134 A 
ATOM     92  F   UNL A   1      46.660  30.642  33.032  1.00  0.00    -0.206 F 
ATOM     93  C   UNL A   1      47.927  29.218  34.397  1.00  0.00     0.040 A 
ATOM     94  C   UNL A   1      46.923  27.248  35.348  1.00  0.00     0.040 A 
ATOM     95  F   UNL A   1      44.683  26.728  34.880  1.00  0.00    -0.206 F 
ATOM     96  C   UNL A   1      48.030  28.080  35.194  1.00  0.00     0.006 A 
ENDBRANCH  72  89
ENDBRANCH  46  47
ENDBRANCH  39  41
ENDBRANCH  38  39
ENDBRANCH  37  38
ENDBRANCH  36  37
ENDBRANCH  35  36
ENDBRANCH  34  35
ENDBRANCH   1  34
TORSDOF 20
ENDMDL
MODEL 3
REMARK VINA RESULT:     -10.0      4.025      9.298
REMARK SMILES CC(C)(C)OC(=O)N1CCC(n2c(=S)[nH]c3cc(C(=O)OCCOCCOCCOC(=O)c4ccc(-c5c6nc(c(-c7c(F)cccc7F)c7ccc([nH]7)c(-c7c(F)cccc7F)c7nc(c(-c8c(F)cccc8F)c8ccc5[nH]8)C=C7)C=C6)cc4)ccc3c2=O)CC1
REMARK SMILES IDX 25 1 24 2 23 3 22 4 21 5 19 6 20 7 18 8 12 9 13 10 90 11
REMARK SMILES IDX 14 12 15 13 89 14 91 15 16 16 88 18 17 19 87 20 11 21 6 22
REMARK SMILES IDX 7 23 8 24 9 25 93 26 10 27 92 28 5 29 2 30 1 31 3 32 4 33
REMARK SMILES IDX 26 34 27 35 28 36 29 37 30 38 31 39 32 40 33 41 34 42 86 43
REMARK SMILES IDX 35 44 85 45 36 46 37 47 38 48 79 49 39 50 84 51 78 52 80 53
REMARK SMILES IDX 40 54 83 55 77 56 76 57 41 59 67 60 50 61 66 62 51 63 54 64
REMARK SMILES IDX 65 65 81 66 52 67 53 68 64 70 82 71 55 72 42 73 43 74 48 75
REMARK SMILES IDX 44 76 45 77 47 78 49 79 46 80 68 81 69 82 74 83 70 84 71 85
REMARK SMILES IDX 73 86 75 87 72 88 56 89 57 90 62 91 58 92 59 93 61 94 63 95
REMARK SMILES IDX 60 96
REMARK H PARENT 15 17 80 58 54 69
REMARK Flexibility Score: inf
ROOT
ATOM      1  C   UNL A   1      43.901  22.526  24.944  1.00  0.00     0.188 C 
ENDROOT
BRANCH   1   2
ATOM      2  O   UNL A   1      44.260  21.457  24.101  1.00  0.00    -0.376 OA
BRANCH   2   3
ATOM      3  C   UNL A   1      44.583  20.178  24.616  1.00  0.00     0.202 C 
BRANCH   3   4
ATOM      4  C   UNL A   1      43.577  19.177  25.207  1.00  0.00     0.261 C 
BRANCH   4   5
ATOM      5  O   UNL A   1      42.197  19.538  25.168  1.00  0.00    -0.460 OA
BRANCH   5   6
ATOM      6  C   UNL A   1      41.625  19.758  26.380  1.00  0.00     0.338 C 
ATOM      7  O   UNL A   1      42.106  19.538  27.473  1.00  0.00    -0.246 OA
BRANCH   6   8
ATOM      8  C   UNL A   1      40.360  20.501  26.195  1.00  0.00     0.062 A 
ATOM      9  N   UNL A   1      35.613  21.766  24.967  1.00  0.00    -0.282 N 
ATOM     10  C   UNL A   1      35.676  20.361  24.919  1.00  0.00     0.180 A 
ATOM     11  C   UNL A   1      36.723  22.533  25.367  1.00  0.00     0.262 A 
ATOM     12  S   UNL A   1      34.467  19.287  24.461  1.00  0.00    -0.040 S 
ATOM     13  N   UNL A   1      36.862  19.768  25.265  1.00  0.00    -0.332 N 
ATOM     14  C   UNL A   1      37.969  21.835  25.721  1.00  0.00     0.064 A 
ATOM     15  O   UNL A   1      36.775  23.757  25.420  1.00  0.00    -0.269 OA
ATOM     16  C   UNL A   1      38.013  20.457  25.622  1.00  0.00     0.054 A 
ATOM     17  H   UNL A   1      36.900  18.784  25.260  1.00  0.00     0.169 HD
ATOM     18  C   UNL A   1      39.108  22.554  26.112  1.00  0.00     0.017 A 
ATOM     19  C   UNL A   1      39.207  19.776  25.854  1.00  0.00     0.042 A 
ATOM     20  C   UNL A   1      40.307  21.887  26.356  1.00  0.00     0.016 A 
BRANCH   9  21
ATOM     21  C   UNL A   1      34.328  22.475  24.614  1.00  0.00     0.097 C 
ATOM     22  C   UNL A   1      32.275  25.892  25.235  1.00  0.00     0.410 C 
ATOM     23  O   UNL A   1      32.142  26.060  26.446  1.00  0.00    -0.224 OA
ATOM     24  N   UNL A   1      32.410  24.635  24.671  1.00  0.00    -0.308 N 
ATOM     25  C   UNL A   1      32.193  23.469  25.503  1.00  0.00     0.125 C 
ATOM     26  C   UNL A   1      33.073  24.374  23.401  1.00  0.00     0.125 C 
ATOM     27  C   UNL A   1      33.533  22.854  25.886  1.00  0.00     0.047 C 
ATOM     28  C   UNL A   1      34.431  23.720  23.684  1.00  0.00     0.047 C 
BRANCH  22  29
ATOM     29  O   UNL A   1      32.259  26.892  24.317  1.00  0.00    -0.444 OA
BRANCH  29  30
ATOM     30  C   UNL A   1      30.991  27.387  23.798  1.00  0.00     0.106 C 
ATOM     31  C   UNL A   1      31.075  27.195  22.275  1.00  0.00     0.056 C 
ATOM     32  C   UNL A   1      30.845  28.880  24.104  1.00  0.00     0.056 C 
ATOM     33  C   UNL A   1      29.778  26.585  24.298  1.00  0.00     0.056 C 
ENDBRANCH  29  30
ENDBRANCH  22  29
ENDBRANCH   9  21
ENDBRANCH   6   8
ENDBRANCH   5   6
ENDBRANCH   4   5
ENDBRANCH   3   4
ENDBRANCH   2   3
ENDBRANCH   1   2
BRANCH   1  34
ATOM     34  C   UNL A   1      44.647  22.742  26.277  1.00  0.00     0.188 C 
BRANCH  34  35
ATOM     35  O   UNL A   1      46.030  23.021  26.292  1.00  0.00    -0.376 OA
BRANCH  35  36
ATOM     36  C   UNL A   1      46.723  23.244  25.075  1.00  0.00     0.202 C 
BRANCH  36  37
ATOM     37  C   UNL A   1      46.839  24.628  24.415  1.00  0.00     0.261 C 
BRANCH  37  38
ATOM     38  O   UNL A   1      45.889  25.612  24.838  1.00  0.00    -0.460 OA
BRANCH  38  39
ATOM     39  C   UNL A   1      46.408  26.798  25.239  1.00  0.00     0.338 C 
ATOM     40  O   UNL A   1      47.314  27.430  24.713  1.00  0.00    -0.246 OA
BRANCH  39  41
ATOM     41  C   UNL A   1      45.572  27.335  26.326  1.00  0.00     0.060 A 
ATOM     42  C   UNL A   1      44.820  26.478  27.129  1.00  0.00     0.016 A 
ATOM     43  C   UNL A   1      45.534  28.722  26.533  1.00  0.00     0.016 A 
ATOM     44  C   UNL A   1      44.033  27.013  28.150  1.00  0.00     0.010 A 
ATOM     45  C   UNL A   1      44.730  29.256  27.541  1.00  0.00     0.010 A 
ATOM     46  C   UNL A   1      43.986  28.403  28.369  1.00  0.00    -0.014 A 
BRANCH  46  47
ATOM     47  C   UNL A   1      43.284  28.939  29.558  1.00  0.00     0.031 A 
ATOM     48  C   UNL A   1      43.943  29.016  30.902  1.00  0.00     0.074 A 
ATOM     49  C   UNL A   1      42.014  29.359  29.405  1.00  0.00     0.049 A 
ATOM     50  N   UNL A   1      43.480  29.528  32.015  1.00  0.00    -0.248 NA
ATOM     51  C   UNL A   1      45.289  28.442  31.015  1.00  0.00     0.031 C 
ATOM     52  C   UNL A   1      41.260  29.304  28.151  1.00  0.00     0.029 A 
ATOM     53  N   UNL A   1      41.139  29.917  30.300  1.00  0.00    -0.354 N 
ATOM     54  C   UNL A   1      44.484  29.363  32.959  1.00  0.00     0.074 A 
ATOM     55  C   UNL A   1      45.563  28.655  32.297  1.00  0.00     0.031 C 
ATOM     56  C   UNL A   1      40.041  29.829  28.352  1.00  0.00     0.029 A 
ATOM     57  C   UNL A   1      39.920  30.231  29.751  1.00  0.00     0.049 A 
ATOM     58  H   UNL A   1      41.363  30.078  31.245  1.00  0.00     0.167 HD
ATOM     59  C   UNL A   1      44.509  29.782  34.248  1.00  0.00     0.037 A 
ATOM     60  C   UNL A   1      38.827  30.778  30.310  1.00  0.00     0.037 A 
ATOM     61  C   UNL A   1      43.420  30.463  34.908  1.00  0.00     0.049 A 
ATOM     62  C   UNL A   1      38.859  31.165  31.762  1.00  0.00     0.074 A 
ATOM     63  C   UNL A   1      43.368  30.963  36.199  1.00  0.00     0.029 A 
ATOM     64  N   UNL A   1      42.181  30.719  34.337  1.00  0.00    -0.354 N 
ATOM     65  N   UNL A   1      39.848  31.089  32.618  1.00  0.00    -0.248 NA
ATOM     66  C   UNL A   1      37.619  31.716  32.325  1.00  0.00     0.031 C 
ATOM     67  C   UNL A   1      42.082  31.465  36.428  1.00  0.00     0.029 A 
ATOM     68  C   UNL A   1      41.347  31.331  35.262  1.00  0.00     0.049 A 
ATOM     69  H   UNL A   1      41.930  30.498  33.411  1.00  0.00     0.167 HD
ATOM     70  C   UNL A   1      39.358  31.603  33.812  1.00  0.00     0.074 A 
ATOM     71  C   UNL A   1      37.990  32.010  33.561  1.00  0.00     0.031 C 
ATOM     72  C   UNL A   1      39.983  31.724  35.009  1.00  0.00     0.037 A 
BRANCH  59  73
ATOM     73  C   UNL A   1      45.756  29.512  35.042  1.00  0.00     0.057 A 
ATOM     74  C   UNL A   1      46.834  30.407  35.016  1.00  0.00     0.134 A 
ATOM     75  C   UNL A   1      45.913  28.339  35.792  1.00  0.00     0.134 A 
ATOM     76  F   UNL A   1      46.759  31.544  34.306  1.00  0.00    -0.206 F 
ATOM     77  C   UNL A   1      48.018  30.147  35.707  1.00  0.00     0.040 A 
ATOM     78  C   UNL A   1      47.082  28.080  36.510  1.00  0.00     0.040 A 
ATOM     79  F   UNL A   1      44.920  27.438  35.860  1.00  0.00    -0.206 F 
ATOM     80  C   UNL A   1      48.142  28.983  36.464  1.00  0.00     0.006 A 
ENDBRANCH  59  73
BRANCH  60  81
ATOM     81  C   UNL A   1      37.608  31.003  29.497  1.00  0.00     0.057 A 
ATOM     82  C   UNL A   1      37.365  32.233  28.874  1.00  0.00     0.134 A 
ATOM     83  C   UNL A   1      36.672  29.982  29.298  1.00  0.00     0.134 A 
ATOM     84  F   UNL A   1      38.220  33.253  29.031  1.00  0.00    -0.206 F 
ATOM     85  C   UNL A   1      36.234  32.440  28.083  1.00  0.00     0.040 A 
ATOM     86  C   UNL A   1      35.553  30.166  28.485  1.00  0.00     0.040 A 
ATOM     87  F   UNL A   1      36.860  28.777  29.855  1.00  0.00    -0.206 F 
ATOM     88  C   UNL A   1      35.330  31.400  27.877  1.00  0.00     0.006 A 
ENDBRANCH  60  81
BRANCH  72  89
ATOM     89  C   UNL A   1      39.194  32.334  36.133  1.00  0.00     0.057 A 
ATOM     90  C   UNL A   1      38.280  31.568  36.867  1.00  0.00     0.134 A 
ATOM     91  C   UNL A   1      39.328  33.685  36.482  1.00  0.00     0.134 A 
ATOM     92  F   UNL A   1      38.096  30.270  36.583  1.00  0.00    -0.206 F 
ATOM     93  C   UNL A   1      37.528  32.122  37.904  1.00  0.00     0.040 A 
ATOM     94  C   UNL A   1      38.604  34.243  37.538  1.00  0.00     0.040 A 
ATOM     95  F   UNL A   1      40.199  34.471  35.832  1.00  0.00    -0.206 F 
ATOM     96  C   UNL A   1      37.695  33.461  38.248  1.00  0.00     0.006 A 
ENDBRANCH  72  89
ENDBRANCH  46  47
ENDBRANCH  39  41
ENDBRANCH  38  39
ENDBRANCH  37  38
ENDBRANCH  36  37
ENDBRANCH  35  36
ENDBRANCH  34  35
ENDBRANCH   1  34
TORSDOF 20
ENDMDL
