MODEL 1
REMARK VINA RESULT:     -10.8      0.000      0.000
REMARK SMILES CCN(C(=O)Cc1c(C(=O)OCCOCCOCCOC(=O)c2ccc(-c3c4nc(c(-c5c(F)cccc5F)c5ccc([nH]5)c(-c5c(F)cccc5F)c5nc(c(-c6c(F)cccc6F)c6ccc3[nH]6)C=C5)C=C4)cc2)[nH]c2ccccc12)c1cccc(C)c1
REMARK SMILES IDX 15 1 14 2 13 3 12 4 11 5 9 6 10 7 8 8 7 9 83 10 77 11 78 12
REMARK SMILES IDX 82 13 79 15 81 16 80 17 6 18 4 19 5 20 3 21 2 22 1 23 84 24
REMARK SMILES IDX 85 25 90 26 86 27 88 28 87 29 89 30 16 31 17 32 18 33 19 34
REMARK SMILES IDX 20 35 21 36 22 37 23 38 24 39 76 40 25 41 75 42 26 43 27 44
REMARK SMILES IDX 28 45 69 46 29 47 74 48 68 49 70 50 30 51 73 52 67 53 66 54
REMARK SMILES IDX 31 56 57 57 40 58 56 59 41 60 44 61 55 62 71 63 42 64 43 65
REMARK SMILES IDX 54 67 72 68 45 69 32 70 33 71 38 72 34 73 35 74 37 75 39 76
REMARK SMILES IDX 36 77 58 78 59 79 64 80 60 81 61 82 63 83 65 84 62 85 46 86
REMARK SMILES IDX 47 87 52 88 48 89 49 90 51 91 53 92 50 93
REMARK H PARENT 77 14 70 55 44 66
REMARK Flexibility Score: inf
ROOT
ATOM      1  C   UNL A   1      32.309  21.001  25.319  1.00  0.00     0.188 C 
ENDROOT
BRANCH   1   2
ATOM      2  O   UNL A   1      32.000  21.600  24.068  1.00  0.00    -0.376 OA
BRANCH   2   3
ATOM      3  C   UNL A   1      31.687  22.986  24.032  1.00  0.00     0.202 C 
BRANCH   3   4
ATOM      4  C   UNL A   1      32.513  23.817  23.050  1.00  0.00     0.261 C 
BRANCH   4   5
ATOM      5  O   UNL A   1      31.799  24.960  22.540  1.00  0.00    -0.459 OA
BRANCH   5   6
ATOM      6  C   UNL A   1      32.562  26.040  22.214  1.00  0.00     0.355 C 
ATOM      7  O   UNL A   1      33.671  25.991  21.699  1.00  0.00    -0.244 OA
BRANCH   6   8
ATOM      8  C   UNL A   1      31.851  27.261  22.517  1.00  0.00     0.129 A 
ATOM      9  C   UNL A   1      32.192  28.269  23.418  1.00  0.00     0.002 A 
ATOM     10  C   UNL A   1      31.062  29.132  23.538  1.00  0.00     0.004 A 
ATOM     11  N   UNL A   1      30.674  27.655  21.919  1.00  0.00    -0.349 N 
ATOM     12  C   UNL A   1      30.176  28.788  22.520  1.00  0.00     0.046 A 
ATOM     13  C   UNL A   1      30.754  30.234  24.361  1.00  0.00     0.010 A 
ATOM     14  H   UNL A   1      30.246  27.189  21.165  1.00  0.00     0.167 HD
ATOM     15  C   UNL A   1      29.033  29.543  22.234  1.00  0.00     0.027 A 
ATOM     16  C   UNL A   1      29.607  30.987  24.104  1.00  0.00     0.001 A 
ATOM     17  C   UNL A   1      28.773  30.656  23.041  1.00  0.00     0.002 A 
BRANCH   9  18
ATOM     18  C   UNL A   1      33.519  28.448  24.095  1.00  0.00     0.139 C 
BRANCH  18  19
ATOM     19  C   UNL A   1      33.621  27.774  25.476  1.00  0.00     0.231 C 
ATOM     20  O   UNL A   1      34.092  26.631  25.496  1.00  0.00    -0.274 OA
BRANCH  19  21
ATOM     21  N   UNL A   1      33.235  28.492  26.637  1.00  0.00    -0.312 N 
BRANCH  21  22
ATOM     22  C   UNL A   1      31.945  28.243  27.307  1.00  0.00     0.122 C 
ATOM     23  C   UNL A   1      31.148  27.057  26.773  1.00  0.00     0.028 C 
ENDBRANCH  21  22
BRANCH  21  24
ATOM     24  C   UNL A   1      34.085  29.526  27.220  1.00  0.00     0.044 A 
ATOM     25  C   UNL A   1      35.434  29.310  27.536  1.00  0.00     0.026 A 
ATOM     26  C   UNL A   1      33.605  30.836  27.421  1.00  0.00     0.029 A 
ATOM     27  C   UNL A   1      36.254  30.339  28.021  1.00  0.00     0.002 A 
ATOM     28  C   UNL A   1      34.413  31.881  27.903  1.00  0.00    -0.049 A 
ATOM     29  C   UNL A   1      35.748  31.621  28.198  1.00  0.00     0.003 A 
ATOM     30  C   UNL A   1      33.845  33.256  28.094  1.00  0.00     0.044 C 
ENDBRANCH  21  24
ENDBRANCH  19  21
ENDBRANCH  18  19
ENDBRANCH   9  18
ENDBRANCH   6   8
ENDBRANCH   5   6
ENDBRANCH   4   5
ENDBRANCH   3   4
ENDBRANCH   2   3
ENDBRANCH   1   2
BRANCH   1  31
ATOM     31  C   UNL A   1      33.791  20.815  25.685  1.00  0.00     0.188 C 
BRANCH  31  32
ATOM     32  O   UNL A   1      34.726  20.825  24.613  1.00  0.00    -0.376 OA
BRANCH  32  33
ATOM     33  C   UNL A   1      36.088  20.564  24.956  1.00  0.00     0.202 C 
BRANCH  33  34
ATOM     34  C   UNL A   1      36.746  21.685  25.761  1.00  0.00     0.261 C 
BRANCH  34  35
ATOM     35  O   UNL A   1      38.035  22.003  25.198  1.00  0.00    -0.460 OA
BRANCH  35  36
ATOM     36  C   UNL A   1      39.084  21.702  25.993  1.00  0.00     0.338 C 
ATOM     37  O   UNL A   1      39.609  20.610  26.130  1.00  0.00    -0.246 OA
BRANCH  36  38
ATOM     38  C   UNL A   1      39.557  22.910  26.694  1.00  0.00     0.060 A 
ATOM     39  C   UNL A   1      39.069  24.163  26.331  1.00  0.00     0.016 A 
ATOM     40  C   UNL A   1      40.629  22.812  27.579  1.00  0.00     0.016 A 
ATOM     41  C   UNL A   1      39.744  25.316  26.732  1.00  0.00     0.010 A 
ATOM     42  C   UNL A   1      41.250  23.977  28.049  1.00  0.00     0.010 A 
ATOM     43  C   UNL A   1      40.866  25.243  27.570  1.00  0.00    -0.014 A 
BRANCH  43  44
ATOM     44  C   UNL A   1      41.705  26.453  27.833  1.00  0.00     0.031 A 
ATOM     45  C   UNL A   1      41.157  27.579  28.683  1.00  0.00     0.074 A 
ATOM     46  C   UNL A   1      42.976  26.547  27.392  1.00  0.00     0.049 A 
ATOM     47  N   UNL A   1      41.652  28.772  28.905  1.00  0.00    -0.248 NA
ATOM     48  C   UNL A   1      39.884  27.325  29.376  1.00  0.00     0.031 C 
ATOM     49  C   UNL A   1      43.699  25.513  26.653  1.00  0.00     0.029 A 
ATOM     50  N   UNL A   1      43.893  27.565  27.518  1.00  0.00    -0.354 N 
ATOM     51  C   UNL A   1      40.741  29.416  29.735  1.00  0.00     0.074 A 
ATOM     52  C   UNL A   1      39.653  28.490  29.965  1.00  0.00     0.031 C 
ATOM     53  C   UNL A   1      44.954  25.933  26.424  1.00  0.00     0.029 A 
ATOM     54  C   UNL A   1      45.098  27.301  26.910  1.00  0.00     0.049 A 
ATOM     55  H   UNL A   1      43.705  28.403  27.998  1.00  0.00     0.167 HD
ATOM     56  C   UNL A   1      40.801  30.659  30.268  1.00  0.00     0.037 A 
ATOM     57  C   UNL A   1      46.178  28.082  26.713  1.00  0.00     0.037 A 
ATOM     58  C   UNL A   1      41.888  31.584  30.074  1.00  0.00     0.049 A 
ATOM     59  C   UNL A   1      46.164  29.509  27.188  1.00  0.00     0.074 A 
ATOM     60  C   UNL A   1      42.015  32.878  30.551  1.00  0.00     0.029 A 
ATOM     61  N   UNL A   1      43.038  31.309  29.353  1.00  0.00    -0.354 N 
ATOM     62  N   UNL A   1      45.256  30.139  27.891  1.00  0.00    -0.248 NA
ATOM     63  C   UNL A   1      47.314  30.345  26.807  1.00  0.00     0.031 C 
ATOM     64  C   UNL A   1      43.225  33.402  30.082  1.00  0.00     0.029 A 
ATOM     65  C   UNL A   1      43.868  32.419  29.347  1.00  0.00     0.049 A 
ATOM     66  H   UNL A   1      43.236  30.453  28.910  1.00  0.00     0.167 HD
ATOM     67  C   UNL A   1      45.725  31.437  28.045  1.00  0.00     0.074 A 
ATOM     68  C   UNL A   1      47.009  31.503  27.378  1.00  0.00     0.031 C 
ATOM     69  C   UNL A   1      45.139  32.482  28.675  1.00  0.00     0.037 A 
BRANCH  56  70
ATOM     70  C   UNL A   1      39.633  31.113  31.089  1.00  0.00     0.057 A 
ATOM     71  C   UNL A   1      38.616  31.915  30.555  1.00  0.00     0.134 A 
ATOM     72  C   UNL A   1      39.509  30.714  32.427  1.00  0.00     0.134 A 
ATOM     73  F   UNL A   1      38.687  32.347  29.287  1.00  0.00    -0.206 F 
ATOM     74  C   UNL A   1      37.524  32.315  31.328  1.00  0.00     0.040 A 
ATOM     75  C   UNL A   1      38.413  31.092  33.203  1.00  0.00     0.040 A 
ATOM     76  F   UNL A   1      40.448  29.943  32.996  1.00  0.00    -0.206 F 
ATOM     77  C   UNL A   1      37.418  31.899  32.654  1.00  0.00     0.006 A 
ENDBRANCH  56  70
BRANCH  57  78
ATOM     78  C   UNL A   1      47.343  27.558  25.954  1.00  0.00     0.057 A 
ATOM     79  C   UNL A   1      48.436  26.976  26.607  1.00  0.00     0.134 A 
ATOM     80  C   UNL A   1      47.400  27.646  24.557  1.00  0.00     0.134 A 
ATOM     81  F   UNL A   1      48.460  26.898  27.945  1.00  0.00    -0.206 F 
ATOM     82  C   UNL A   1      49.542  26.502  25.898  1.00  0.00     0.040 A 
ATOM     83  C   UNL A   1      48.486  27.150  23.835  1.00  0.00     0.040 A 
ATOM     84  F   UNL A   1      46.391  28.204  23.872  1.00  0.00    -0.206 F 
ATOM     85  C   UNL A   1      49.564  26.581  24.507  1.00  0.00     0.006 A 
ENDBRANCH  57  78
BRANCH  69  86
ATOM     86  C   UNL A   1      45.883  33.784  28.686  1.00  0.00     0.057 A 
ATOM     87  C   UNL A   1      45.626  34.783  27.737  1.00  0.00     0.134 A 
ATOM     88  C   UNL A   1      46.841  34.058  29.670  1.00  0.00     0.134 A 
ATOM     89  F   UNL A   1      44.729  34.578  26.761  1.00  0.00    -0.206 F 
ATOM     90  C   UNL A   1      46.311  35.999  27.757  1.00  0.00     0.040 A 
ATOM     91  C   UNL A   1      47.516  35.278  29.712  1.00  0.00     0.040 A 
ATOM     92  F   UNL A   1      47.128  33.146  30.612  1.00  0.00    -0.206 F 
ATOM     93  C   UNL A   1      47.256  36.251  28.750  1.00  0.00     0.006 A 
ENDBRANCH  69  86
ENDBRANCH  43  44
ENDBRANCH  36  38
ENDBRANCH  35  36
ENDBRANCH  34  35
ENDBRANCH  33  34
ENDBRANCH  32  33
ENDBRANCH  31  32
ENDBRANCH   1  31
TORSDOF 22
ENDMDL
MODEL 2
REMARK VINA RESULT:     -10.7      2.535      7.975
REMARK SMILES CCN(C(=O)Cc1c(C(=O)OCCOCCOCCOC(=O)c2ccc(-c3c4nc(c(-c5c(F)cccc5F)c5ccc([nH]5)c(-c5c(F)cccc5F)c5nc(c(-c6c(F)cccc6F)c6ccc3[nH]6)C=C5)C=C4)cc2)[nH]c2ccccc12)c1cccc(C)c1
REMARK SMILES IDX 15 1 14 2 13 3 12 4 11 5 9 6 10 7 8 8 7 9 83 10 77 11 78 12
REMARK SMILES IDX 82 13 79 15 81 16 80 17 6 18 4 19 5 20 3 21 2 22 1 23 84 24
REMARK SMILES IDX 85 25 90 26 86 27 88 28 87 29 89 30 16 31 17 32 18 33 19 34
REMARK SMILES IDX 20 35 21 36 22 37 23 38 24 39 76 40 25 41 75 42 26 43 27 44
REMARK SMILES IDX 28 45 69 46 29 47 74 48 68 49 70 50 30 51 73 52 67 53 66 54
REMARK SMILES IDX 31 56 57 57 40 58 56 59 41 60 44 61 55 62 71 63 42 64 43 65
REMARK SMILES IDX 54 67 72 68 45 69 32 70 33 71 38 72 34 73 35 74 37 75 39 76
REMARK SMILES IDX 36 77 58 78 59 79 64 80 60 81 61 82 63 83 65 84 62 85 46 86
REMARK SMILES IDX 47 87 52 88 48 89 49 90 51 91 53 92 50 93
REMARK H PARENT 77 14 70 55 44 66
REMARK Flexibility Score: inf
ROOT
ATOM      1  C   UNL A   1      32.859  32.598  27.276  1.00  0.00     0.188 C 
ENDROOT
BRANCH   1   2
ATOM      2  O   UNL A   1      33.927  31.661  27.279  1.00  0.00    -0.376 OA
BRANCH   2   3
ATOM      3  C   UNL A   1      33.637  30.293  27.533  1.00  0.00     0.202 C 
BRANCH   3   4
ATOM      4  C   UNL A   1      34.679  29.298  27.022  1.00  0.00     0.261 C 
BRANCH   4   5
ATOM      5  O   UNL A   1      34.174  27.952  26.926  1.00  0.00    -0.459 OA
BRANCH   5   6
ATOM      6  C   UNL A   1      34.022  27.463  25.664  1.00  0.00     0.355 C 
ATOM      7  O   UNL A   1      33.988  28.138  24.645  1.00  0.00    -0.244 OA
BRANCH   6   8
ATOM      8  C   UNL A   1      33.959  26.018  25.695  1.00  0.00     0.129 A 
ATOM      9  C   UNL A   1      32.952  25.201  26.206  1.00  0.00     0.002 A 
ATOM     10  C   UNL A   1      33.459  23.867  26.228  1.00  0.00     0.004 A 
ATOM     11  N   UNL A   1      34.921  25.177  25.182  1.00  0.00    -0.349 N 
ATOM     12  C   UNL A   1      34.640  23.867  25.490  1.00  0.00     0.046 A 
ATOM     13  C   UNL A   1      32.971  22.642  26.729  1.00  0.00     0.010 A 
ATOM     14  H   UNL A   1      35.705  25.474  24.666  1.00  0.00     0.167 HD
ATOM     15  C   UNL A   1      35.319  22.688  25.162  1.00  0.00     0.027 A 
ATOM     16  C   UNL A   1      33.646  21.458  26.428  1.00  0.00     0.001 A 
ATOM     17  C   UNL A   1      34.791  21.482  25.638  1.00  0.00     0.002 A 
BRANCH   9  18
ATOM     18  C   UNL A   1      31.570  25.631  26.606  1.00  0.00     0.139 C 
BRANCH  18  19
ATOM     19  C   UNL A   1      30.897  26.598  25.614  1.00  0.00     0.231 C 
ATOM     20  O   UNL A   1      30.851  27.786  25.951  1.00  0.00    -0.274 OA
BRANCH  19  21
ATOM     21  N   UNL A   1      30.422  26.107  24.371  1.00  0.00    -0.312 N 
BRANCH  21  22
ATOM     22  C   UNL A   1      29.043  26.363  23.913  1.00  0.00     0.122 C 
ATOM     23  C   UNL A   1      28.828  27.690  23.195  1.00  0.00     0.028 C 
ENDBRANCH  21  22
BRANCH  21  24
ATOM     24  C   UNL A   1      31.267  25.312  23.484  1.00  0.00     0.044 A 
ATOM     25  C   UNL A   1      32.162  25.888  22.571  1.00  0.00     0.026 A 
ATOM     26  C   UNL A   1      31.284  23.905  23.562  1.00  0.00     0.029 A 
ATOM     27  C   UNL A   1      33.022  25.107  21.786  1.00  0.00     0.002 A 
ATOM     28  C   UNL A   1      32.141  23.106  22.786  1.00  0.00    -0.049 A 
ATOM     29  C   UNL A   1      33.017  23.722  21.897  1.00  0.00     0.003 A 
ATOM     30  C   UNL A   1      32.115  21.612  22.916  1.00  0.00     0.044 C 
ENDBRANCH  21  24
ENDBRANCH  19  21
ENDBRANCH  18  19
ENDBRANCH   9  18
ENDBRANCH   6   8
ENDBRANCH   5   6
ENDBRANCH   4   5
ENDBRANCH   3   4
ENDBRANCH   2   3
ENDBRANCH   1   2
BRANCH   1  31
ATOM     31  C   UNL A   1      33.061  33.926  28.024  1.00  0.00     0.188 C 
BRANCH  31  32
ATOM     32  O   UNL A   1      34.126  33.980  28.966  1.00  0.00    -0.376 OA
BRANCH  32  33
ATOM     33  C   UNL A   1      33.932  34.835  30.094  1.00  0.00     0.202 C 
BRANCH  33  34
ATOM     34  C   UNL A   1      34.287  34.184  31.430  1.00  0.00     0.261 C 
BRANCH  34  35
ATOM     35  O   UNL A   1      34.526  32.774  31.242  1.00  0.00    -0.460 OA
BRANCH  35  36
ATOM     36  C   UNL A   1      35.386  32.229  32.130  1.00  0.00     0.338 C 
ATOM     37  O   UNL A   1      35.410  32.414  33.334  1.00  0.00    -0.246 OA
BRANCH  36  38
ATOM     38  C   UNL A   1      36.323  31.322  31.441  1.00  0.00     0.060 A 
ATOM     39  C   UNL A   1      37.039  30.375  32.170  1.00  0.00     0.016 A 
ATOM     40  C   UNL A   1      36.633  31.546  30.101  1.00  0.00     0.016 A 
ATOM     41  C   UNL A   1      38.157  29.761  31.603  1.00  0.00     0.010 A 
ATOM     42  C   UNL A   1      37.703  30.862  29.511  1.00  0.00     0.010 A 
ATOM     43  C   UNL A   1      38.530  30.019  30.276  1.00  0.00    -0.014 A 
BRANCH  43  44
ATOM     44  C   UNL A   1      39.834  29.522  29.737  1.00  0.00     0.031 A 
ATOM     45  C   UNL A   1      41.033  30.445  29.700  1.00  0.00     0.074 A 
ATOM     46  C   UNL A   1      40.000  28.244  29.341  1.00  0.00     0.049 A 
ATOM     47  N   UNL A   1      42.204  30.268  29.137  1.00  0.00    -0.248 NA
ATOM     48  C   UNL A   1      40.897  31.736  30.393  1.00  0.00     0.031 C 
ATOM     49  C   UNL A   1      38.984  27.194  29.408  1.00  0.00     0.029 A 
ATOM     50  N   UNL A   1      41.098  27.607  28.814  1.00  0.00    -0.354 N 
ATOM     51  C   UNL A   1      42.926  31.430  29.382  1.00  0.00     0.074 A 
ATOM     52  C   UNL A   1      42.059  32.315  30.130  1.00  0.00     0.031 C 
ATOM     53  C   UNL A   1      39.517  26.039  28.976  1.00  0.00     0.029 A 
ATOM     54  C   UNL A   1      40.877  26.285  28.509  1.00  0.00     0.049 A 
ATOM     55  H   UNL A   1      41.963  28.055  28.669  1.00  0.00     0.167 HD
ATOM     56  C   UNL A   1      44.197  31.737  29.029  1.00  0.00     0.037 A 
ATOM     57  C   UNL A   1      41.652  25.381  27.876  1.00  0.00     0.037 A 
ATOM     58  C   UNL A   1      45.083  30.859  28.309  1.00  0.00     0.049 A 
ATOM     59  C   UNL A   1      43.006  25.789  27.362  1.00  0.00     0.074 A 
ATOM     60  C   UNL A   1      46.377  31.103  27.881  1.00  0.00     0.029 A 
ATOM     61  N   UNL A   1      44.771  29.567  27.923  1.00  0.00    -0.354 N 
ATOM     62  N   UNL A   1      43.643  26.923  27.517  1.00  0.00    -0.248 NA
ATOM     63  C   UNL A   1      43.732  24.798  26.553  1.00  0.00     0.031 C 
ATOM     64  C   UNL A   1      46.833  29.970  27.196  1.00  0.00     0.029 A 
ATOM     65  C   UNL A   1      45.837  29.009  27.234  1.00  0.00     0.049 A 
ATOM     66  H   UNL A   1      43.918  29.112  28.108  1.00  0.00     0.167 HD
ATOM     67  C   UNL A   1      44.844  26.781  26.835  1.00  0.00     0.074 A 
ATOM     68  C   UNL A   1      44.858  25.444  26.280  1.00  0.00     0.031 C 
ATOM     69  C   UNL A   1      45.842  27.682  26.676  1.00  0.00     0.037 A 
BRANCH  56  70
ATOM     70  C   UNL A   1      44.699  33.104  29.383  1.00  0.00     0.057 A 
ATOM     71  C   UNL A   1      45.410  33.350  30.564  1.00  0.00     0.134 A 
ATOM     72  C   UNL A   1      44.492  34.182  28.512  1.00  0.00     0.134 A 
ATOM     73  F   UNL A   1      45.623  32.364  31.448  1.00  0.00    -0.206 F 
ATOM     74  C   UNL A   1      45.887  34.626  30.872  1.00  0.00     0.040 A 
ATOM     75  C   UNL A   1      44.980  35.457  28.801  1.00  0.00     0.040 A 
ATOM     76  F   UNL A   1      43.821  34.010  27.364  1.00  0.00    -0.206 F 
ATOM     77  C   UNL A   1      45.677  35.682  29.987  1.00  0.00     0.006 A 
ENDBRANCH  56  70
BRANCH  57  78
ATOM     78  C   UNL A   1      41.133  24.014  27.615  1.00  0.00     0.057 A 
ATOM     79  C   UNL A   1      41.613  22.904  28.321  1.00  0.00     0.134 A 
ATOM     80  C   UNL A   1      40.158  23.781  26.636  1.00  0.00     0.134 A 
ATOM     81  F   UNL A   1      42.575  23.055  29.242  1.00  0.00    -0.206 F 
ATOM     82  C   UNL A   1      41.144  21.615  28.062  1.00  0.00     0.040 A 
ATOM     83  C   UNL A   1      39.659  22.503  26.388  1.00  0.00     0.040 A 
ATOM     84  F   UNL A   1      39.666  24.800  25.915  1.00  0.00    -0.206 F 
ATOM     85  C   UNL A   1      40.156  21.414  27.099  1.00  0.00     0.006 A 
ENDBRANCH  57  78
BRANCH  69  86
ATOM     86  C   UNL A   1      47.038  27.252  25.881  1.00  0.00     0.057 A 
ATOM     87  C   UNL A   1      47.153  27.542  24.515  1.00  0.00     0.134 A 
ATOM     88  C   UNL A   1      48.100  26.571  26.490  1.00  0.00     0.134 A 
ATOM     89  F   UNL A   1      46.165  28.180  23.870  1.00  0.00    -0.206 F 
ATOM     90  C   UNL A   1      48.274  27.151  23.780  1.00  0.00     0.040 A 
ATOM     91  C   UNL A   1      49.234  26.195  25.769  1.00  0.00     0.040 A 
ATOM     92  F   UNL A   1      48.055  26.270  27.797  1.00  0.00    -0.206 F 
ATOM     93  C   UNL A   1      49.321  26.480  24.409  1.00  0.00     0.006 A 
ENDBRANCH  69  86
ENDBRANCH  43  44
ENDBRANCH  36  38
ENDBRANCH  35  36
ENDBRANCH  34  35
ENDBRANCH  33  34
ENDBRANCH  32  33
ENDBRANCH  31  32
ENDBRANCH   1  31
TORSDOF 22
ENDMDL
MODEL 3
REMARK VINA RESULT:     -10.5      1.243      2.241
REMARK SMILES CCN(C(=O)Cc1c(C(=O)OCCOCCOCCOC(=O)c2ccc(-c3c4nc(c(-c5c(F)cccc5F)c5ccc([nH]5)c(-c5c(F)cccc5F)c5nc(c(-c6c(F)cccc6F)c6ccc3[nH]6)C=C5)C=C4)cc2)[nH]c2ccccc12)c1cccc(C)c1
REMARK SMILES IDX 15 1 14 2 13 3 12 4 11 5 9 6 10 7 8 8 7 9 83 10 77 11 78 12
REMARK SMILES IDX 82 13 79 15 81 16 80 17 6 18 4 19 5 20 3 21 2 22 1 23 84 24
REMARK SMILES IDX 85 25 90 26 86 27 88 28 87 29 89 30 16 31 17 32 18 33 19 34
REMARK SMILES IDX 20 35 21 36 22 37 23 38 24 39 76 40 25 41 75 42 26 43 27 44
REMARK SMILES IDX 28 45 69 46 29 47 74 48 68 49 70 50 30 51 73 52 67 53 66 54
REMARK SMILES IDX 31 56 57 57 40 58 56 59 41 60 44 61 55 62 71 63 42 64 43 65
REMARK SMILES IDX 54 67 72 68 45 69 32 70 33 71 38 72 34 73 35 74 37 75 39 76
REMARK SMILES IDX 36 77 58 78 59 79 64 80 60 81 61 82 63 83 65 84 62 85 46 86
REMARK SMILES IDX 47 87 52 88 48 89 49 90 51 91 53 92 50 93
REMARK H PARENT 77 14 70 55 44 66
REMARK Flexibility Score: inf
ROOT
ATOM      1  C   UNL A   1      32.518  20.641  24.093  1.00  0.00     0.188 C 
ENDROOT
BRANCH   1   2
ATOM      2  O   UNL A   1      32.724  21.655  23.119  1.00  0.00    -0.376 OA
BRANCH   2   3
ATOM      3  C   UNL A   1      31.995  22.870  23.230  1.00  0.00     0.202 C 
BRANCH   3   4
ATOM      4  C   UNL A   1      32.522  24.028  22.382  1.00  0.00     0.261 C 
BRANCH   4   5
ATOM      5  O   UNL A   1      31.902  25.289  22.702  1.00  0.00    -0.459 OA
BRANCH   5   6
ATOM      6  C   UNL A   1      32.541  26.399  22.241  1.00  0.00     0.355 C 
ATOM      7  O   UNL A   1      33.612  26.403  21.650  1.00  0.00    -0.244 OA
BRANCH   6   8
ATOM      8  C   UNL A   1      31.744  27.577  22.506  1.00  0.00     0.129 A 
ATOM      9  C   UNL A   1      31.971  28.591  23.434  1.00  0.00     0.002 A 
ATOM     10  C   UNL A   1      30.789  29.390  23.487  1.00  0.00     0.004 A 
ATOM     11  N   UNL A   1      30.588  27.911  21.836  1.00  0.00    -0.349 N 
ATOM     12  C   UNL A   1      29.991  29.009  22.411  1.00  0.00     0.046 A 
ATOM     13  C   UNL A   1      30.369  30.465  24.296  1.00  0.00     0.010 A 
ATOM     14  H   UNL A   1      30.236  27.430  21.053  1.00  0.00     0.167 HD
ATOM     15  C   UNL A   1      28.828  29.703  22.057  1.00  0.00     0.027 A 
ATOM     16  C   UNL A   1      29.200  31.156  23.970  1.00  0.00     0.001 A 
ATOM     17  C   UNL A   1      28.455  30.791  22.854  1.00  0.00     0.002 A 
BRANCH   9  18
ATOM     18  C   UNL A   1      33.240  28.836  24.197  1.00  0.00     0.139 C 
BRANCH  18  19
ATOM     19  C   UNL A   1      33.197  28.368  25.664  1.00  0.00     0.231 C 
ATOM     20  O   UNL A   1      33.692  29.133  26.500  1.00  0.00    -0.274 OA
BRANCH  19  21
ATOM     21  N   UNL A   1      32.561  27.142  25.989  1.00  0.00    -0.312 N 
BRANCH  21  22
ATOM     22  C   UNL A   1      31.157  27.094  26.438  1.00  0.00     0.122 C 
ATOM     23  C   UNL A   1      30.215  26.283  25.554  1.00  0.00     0.028 C 
ENDBRANCH  21  22
BRANCH  21  24
ATOM     24  C   UNL A   1      33.266  25.865  25.909  1.00  0.00     0.044 A 
ATOM     25  C   UNL A   1      34.453  25.698  25.183  1.00  0.00     0.026 A 
ATOM     26  C   UNL A   1      32.823  24.743  26.638  1.00  0.00     0.029 A 
ATOM     27  C   UNL A   1      35.157  24.485  25.186  1.00  0.00     0.002 A 
ATOM     28  C   UNL A   1      33.516  23.520  26.655  1.00  0.00    -0.049 A 
ATOM     29  C   UNL A   1      34.694  23.401  25.923  1.00  0.00     0.003 A 
ATOM     30  C   UNL A   1      32.996  22.361  27.452  1.00  0.00     0.044 C 
ENDBRANCH  21  24
ENDBRANCH  19  21
ENDBRANCH  18  19
ENDBRANCH   9  18
ENDBRANCH   6   8
ENDBRANCH   5   6
ENDBRANCH   4   5
ENDBRANCH   3   4
ENDBRANCH   2   3
ENDBRANCH   1   2
BRANCH   1  31
ATOM     31  C   UNL A   1      33.754  19.934  24.672  1.00  0.00     0.188 C 
BRANCH  31  32
ATOM     32  O   UNL A   1      35.022  20.510  24.383  1.00  0.00    -0.376 OA
BRANCH  32  33
ATOM     33  C   UNL A   1      36.149  19.923  25.035  1.00  0.00     0.202 C 
BRANCH  33  34
ATOM     34  C   UNL A   1      37.038  20.934  25.760  1.00  0.00     0.261 C 
BRANCH  34  35
ATOM     35  O   UNL A   1      38.320  21.019  25.107  1.00  0.00    -0.460 OA
BRANCH  35  36
ATOM     36  C   UNL A   1      39.380  20.845  25.927  1.00  0.00     0.338 C 
ATOM     37  O   UNL A   1      40.021  19.821  26.088  1.00  0.00    -0.246 OA
BRANCH  36  38
ATOM     38  C   UNL A   1      39.699  22.107  26.621  1.00  0.00     0.060 A 
ATOM     39  C   UNL A   1      39.142  23.305  26.180  1.00  0.00     0.016 A 
ATOM     40  C   UNL A   1      40.705  22.121  27.585  1.00  0.00     0.016 A 
ATOM     41  C   UNL A   1      39.691  24.520  26.593  1.00  0.00     0.010 A 
ATOM     42  C   UNL A   1      41.194  23.345  28.061  1.00  0.00     0.010 A 
ATOM     43  C   UNL A   1      40.748  24.562  27.513  1.00  0.00    -0.014 A 
BRANCH  43  44
ATOM     44  C   UNL A   1      41.465  25.843  27.798  1.00  0.00     0.031 A 
ATOM     45  C   UNL A   1      40.786  26.920  28.616  1.00  0.00     0.074 A 
ATOM     46  C   UNL A   1      42.739  26.048  27.406  1.00  0.00     0.049 A 
ATOM     47  N   UNL A   1      41.163  28.154  28.848  1.00  0.00    -0.248 NA
ATOM     48  C   UNL A   1      39.514  26.558  29.263  1.00  0.00     0.031 C 
ATOM     49  C   UNL A   1      43.579  25.079  26.704  1.00  0.00     0.029 A 
ATOM     50  N   UNL A   1      43.556  27.144  27.558  1.00  0.00    -0.354 N 
ATOM     51  C   UNL A   1      40.167  28.718  29.636  1.00  0.00     0.074 A 
ATOM     52  C   UNL A   1      39.158  27.700  29.832  1.00  0.00     0.031 C 
ATOM     53  C   UNL A   1      44.800  25.608  26.520  1.00  0.00     0.029 A 
ATOM     54  C   UNL A   1      44.802  26.986  26.999  1.00  0.00     0.049 A 
ATOM     55  H   UNL A   1      43.276  27.965  28.023  1.00  0.00     0.167 HD
ATOM     56  C   UNL A   1      40.096  29.965  30.160  1.00  0.00     0.037 A 
ATOM     57  C   UNL A   1      45.816  27.859  26.837  1.00  0.00     0.037 A 
ATOM     58  C   UNL A   1      41.103  30.982  30.000  1.00  0.00     0.049 A 
ATOM     59  C   UNL A   1      45.656  29.282  27.298  1.00  0.00     0.074 A 
ATOM     60  C   UNL A   1      41.096  32.285  30.470  1.00  0.00     0.029 A 
ATOM     61  N   UNL A   1      42.300  30.807  29.326  1.00  0.00    -0.354 N 
ATOM     62  N   UNL A   1      44.669  29.832  27.961  1.00  0.00    -0.248 NA
ATOM     63  C   UNL A   1      46.741  30.215  26.955  1.00  0.00     0.031 C 
ATOM     64  C   UNL A   1      42.272  32.912  30.043  1.00  0.00     0.029 A 
ATOM     65  C   UNL A   1      43.028  31.987  29.342  1.00  0.00     0.049 A 
ATOM     66  H   UNL A   1      42.591  29.969  28.899  1.00  0.00     0.167 HD
ATOM     67  C   UNL A   1      45.015  31.167  28.121  1.00  0.00     0.074 A 
ATOM     68  C   UNL A   1      46.312  31.344  27.504  1.00  0.00     0.031 C 
ATOM     69  C   UNL A   1      44.314  32.159  28.720  1.00  0.00     0.037 A 
BRANCH  56  70
ATOM     70  C   UNL A   1      38.860  30.317  30.932  1.00  0.00     0.057 A 
ATOM     71  C   UNL A   1      37.729  30.863  30.313  1.00  0.00     0.134 A 
ATOM     72  C   UNL A   1      38.794  30.076  32.310  1.00  0.00     0.134 A 
ATOM     73  F   UNL A   1      37.737  31.136  28.999  1.00  0.00    -0.206 F 
ATOM     74  C   UNL A   1      36.578  31.169  31.043  1.00  0.00     0.040 A 
ATOM     75  C   UNL A   1      37.643  30.360  33.046  1.00  0.00     0.040 A 
ATOM     76  F   UNL A   1      39.843  29.552  32.961  1.00  0.00    -0.206 F 
ATOM     77  C   UNL A   1      36.531  30.913  32.412  1.00  0.00     0.006 A 
ENDBRANCH  56  70
BRANCH  57  78
ATOM     78  C   UNL A   1      47.052  27.437  26.128  1.00  0.00     0.057 A 
ATOM     79  C   UNL A   1      48.177  26.987  26.829  1.00  0.00     0.134 A 
ATOM     80  C   UNL A   1      47.144  27.493  24.731  1.00  0.00     0.134 A 
ATOM     81  F   UNL A   1      48.166  26.948  28.170  1.00  0.00    -0.206 F 
ATOM     82  C   UNL A   1      49.347  26.611  26.167  1.00  0.00     0.040 A 
ATOM     83  C   UNL A   1      48.296  27.092  24.056  1.00  0.00     0.040 A 
ATOM     84  F   UNL A   1      46.105  27.927  24.001  1.00  0.00    -0.206 F 
ATOM     85  C   UNL A   1      49.405  26.654  24.775  1.00  0.00     0.006 A 
ENDBRANCH  57  78
BRANCH  69  86
ATOM     86  C   UNL A   1      44.938  33.522  28.747  1.00  0.00     0.057 A 
ATOM     87  C   UNL A   1      44.679  34.468  27.746  1.00  0.00     0.134 A 
ATOM     88  C   UNL A   1      45.779  33.907  29.799  1.00  0.00     0.134 A 
ATOM     89  F   UNL A   1      43.892  34.157  26.705  1.00  0.00    -0.206 F 
ATOM     90  C   UNL A   1      45.251  35.740  27.781  1.00  0.00     0.040 A 
ATOM     91  C   UNL A   1      46.339  35.184  29.855  1.00  0.00     0.040 A 
ATOM     92  F   UNL A   1      46.061  33.051  30.793  1.00  0.00    -0.206 F 
ATOM     93  C   UNL A   1      46.080  36.103  28.841  1.00  0.00     0.006 A 
ENDBRANCH  69  86
ENDBRANCH  43  44
ENDBRANCH  36  38
ENDBRANCH  35  36
ENDBRANCH  34  35
ENDBRANCH  33  34
ENDBRANCH  32  33
ENDBRANCH  31  32
ENDBRANCH   1  31
TORSDOF 22
ENDMDL
