MODEL 1
REMARK VINA RESULT:     -12.6      0.000      0.000
REMARK SMILES Cc1cccc(CC(=O)N2CCC3(CCC(=O)N([C@H](C)C(=O)OCCOCCOCCOC(=O)c4ccc(-c5c6nc(c(-c7c(F)cccc7F)c7ccc([nH]7)c(-c7c(F)cccc7F)c7nc(c(-c8c(F)cccc8F)c8ccc5[nH]8)C=C7)C=C6)cc4)C3)CC2)c1
REMARK SMILES IDX 27 1 26 2 25 3 24 4 23 5 21 6 22 7 19 8 20 9 18 10 8 11 9 12
REMARK SMILES IDX 10 13 11 14 91 15 12 16 90 17 13 18 14 19 89 20 15 21 16 22
REMARK SMILES IDX 17 23 7 24 6 25 1 26 2 27 3 28 92 29 4 30 5 31 28 32 29 33
REMARK SMILES IDX 30 34 31 35 32 36 33 37 34 38 35 39 36 40 88 41 37 42 87 43
REMARK SMILES IDX 38 44 39 45 40 46 81 47 41 48 86 49 80 50 82 51 42 52 85 53
REMARK SMILES IDX 79 54 78 55 43 57 69 58 52 59 68 60 53 61 56 62 67 63 83 64
REMARK SMILES IDX 54 65 55 66 66 68 84 69 57 70 44 71 45 72 50 73 46 74 47 75
REMARK SMILES IDX 49 76 51 77 48 78 70 79 71 80 76 81 72 82 73 83 75 84 77 85
REMARK SMILES IDX 74 86 58 87 59 88 64 89 60 90 61 91 63 92 65 93 62 94
REMARK H PARENT 82 56 56 67
REMARK Flexibility Score: inf
ROOT
ATOM      1  C   UNL A   1      33.268  20.026  25.403  1.00  0.00     0.188 C 
ENDROOT
BRANCH   1   2
ATOM      2  O   UNL A   1      32.610  19.978  24.159  1.00  0.00    -0.376 OA
BRANCH   2   3
ATOM      3  C   UNL A   1      32.321  21.199  23.428  1.00  0.00     0.202 C 
BRANCH   3   4
ATOM      4  C   UNL A   1      33.270  22.587  22.874  1.00  0.00     0.261 C 
BRANCH   4   5
ATOM      5  O   UNL A   1      32.794  24.078  21.916  1.00  0.00    -0.462 OA
BRANCH   5   6
ATOM      6  C   UNL A   1      32.774  25.571  21.696  1.00  0.00     0.328 C 
ATOM      7  O   UNL A   1      33.279  26.064  20.676  1.00  0.00    -0.250 OA
BRANCH   6   8
ATOM      8  C   UNL A   1      32.206  26.884  22.636  1.00  0.00     0.192 C 
ATOM      9  C   UNL A   1      31.088  27.949  22.760  1.00  0.00     0.044 C 
BRANCH   8  10
ATOM     10  N   UNL A   1      32.671  26.687  24.017  1.00  0.00    -0.329 N 
ATOM     11  C   UNL A   1      34.000  31.851  27.767  1.00  0.00     0.226 C 
ATOM     12  O   UNL A   1      33.355  32.906  27.769  1.00  0.00    -0.275 OA
ATOM     13  N   UNL A   1      33.373  30.645  27.527  1.00  0.00    -0.342 N 
ATOM     14  C   UNL A   1      32.217  30.644  26.647  1.00  0.00     0.120 C 
ATOM     15  C   UNL A   1      33.834  29.326  27.942  1.00  0.00     0.120 C 
ATOM     16  C   UNL A   1      32.526  29.773  25.425  1.00  0.00     0.030 C 
ATOM     17  C   UNL A   1      34.289  28.553  26.730  1.00  0.00     0.030 C 
ATOM     18  C   UNL A   1      33.085  28.368  25.807  1.00  0.00    -0.008 C 
ATOM     19  C   UNL A   1      31.990  27.593  26.618  1.00  0.00     0.019 C 
ATOM     20  C   UNL A   1      33.644  27.577  24.581  1.00  0.00     0.127 C 
ATOM     21  C   UNL A   1      30.997  26.929  25.712  1.00  0.00     0.101 C 
ATOM     22  C   UNL A   1      31.922  26.026  24.959  1.00  0.00     0.223 C 
ATOM     23  O   UNL A   1      32.322  24.983  25.474  1.00  0.00    -0.275 OA
BRANCH  11  24
ATOM     24  C   UNL A   1      35.525  31.909  27.753  1.00  0.00     0.135 C 
BRANCH  24  25
ATOM     25  C   UNL A   1      36.219  32.311  29.028  1.00  0.00    -0.038 A 
ATOM     26  C   UNL A   1      39.675  33.567  30.049  1.00  0.00     0.044 C 
ATOM     27  C   UNL A   1      38.274  33.034  30.123  1.00  0.00    -0.051 A 
ATOM     28  C   UNL A   1      37.749  32.608  31.349  1.00  0.00     0.003 A 
ATOM     29  C   UNL A   1      37.493  32.906  28.969  1.00  0.00     0.007 A 
ATOM     30  C   UNL A   1      36.460  32.072  31.424  1.00  0.00     0.001 A 
ATOM     31  C   UNL A   1      35.686  31.939  30.272  1.00  0.00     0.004 A 
ENDBRANCH  24  25
ENDBRANCH  11  24
ENDBRANCH   8  10
ENDBRANCH   6   8
ENDBRANCH   5   6
ENDBRANCH   4   5
ENDBRANCH   3   4
ENDBRANCH   2   3
ENDBRANCH   1   2
BRANCH   1  32
ATOM     32  C   UNL A   1      33.610  21.202  26.339  1.00  0.00     0.188 C 
BRANCH  32  33
ATOM     33  O   UNL A   1      34.948  21.396  26.620  1.00  0.00    -0.376 OA
BRANCH  33  34
ATOM     34  C   UNL A   1      35.662  21.128  25.437  1.00  0.00     0.202 C 
BRANCH  34  35
ATOM     35  C   UNL A   1      36.967  21.962  25.108  1.00  0.00     0.261 C 
BRANCH  35  36
ATOM     36  O   UNL A   1      37.968  22.773  26.031  1.00  0.00    -0.460 OA
BRANCH  36  37
ATOM     37  C   UNL A   1      38.870  23.406  26.822  1.00  0.00     0.338 C 
ATOM     38  O   UNL A   1      38.631  24.536  27.235  1.00  0.00    -0.246 OA
BRANCH  37  39
ATOM     39  C   UNL A   1      40.274  22.937  27.101  1.00  0.00     0.060 A 
ATOM     40  C   UNL A   1      40.906  23.312  28.281  1.00  0.00     0.016 A 
ATOM     41  C   UNL A   1      41.113  22.462  26.140  1.00  0.00     0.016 A 
ATOM     42  C   UNL A   1      42.077  24.054  28.179  1.00  0.00     0.010 A 
ATOM     43  C   UNL A   1      42.311  23.139  26.042  1.00  0.00     0.010 A 
ATOM     44  C   UNL A   1      42.598  24.207  26.908  1.00  0.00    -0.014 A 
BRANCH  44  45
ATOM     45  C   UNL A   1      43.393  25.392  26.406  1.00  0.00     0.031 A 
ATOM     46  C   UNL A   1      45.137  24.925  25.992  1.00  0.00     0.074 A 
ATOM     47  C   UNL A   1      42.631  26.678  26.268  1.00  0.00     0.049 A 
ATOM     48  N   UNL A   1      46.152  25.689  26.352  1.00  0.00    -0.248 NA
ATOM     49  C   UNL A   1      45.835  23.785  25.341  1.00  0.00     0.031 C 
ATOM     50  C   UNL A   1      42.942  28.169  25.703  1.00  0.00     0.029 A 
ATOM     51  N   UNL A   1      41.297  26.985  26.578  1.00  0.00    -0.354 N 
ATOM     52  C   UNL A   1      47.337  25.537  25.734  1.00  0.00     0.074 A 
ATOM     53  C   UNL A   1      47.141  24.188  25.244  1.00  0.00     0.031 C 
ATOM     54  C   UNL A   1      41.982  29.068  25.829  1.00  0.00     0.029 A 
ATOM     55  C   UNL A   1      41.143  28.415  26.734  1.00  0.00     0.049 A 
ATOM     56  H   UNL A   1      40.573  26.325  26.676  1.00  0.00     0.167 HD
ATOM     57  C   UNL A   1      48.236  26.593  25.772  1.00  0.00     0.037 A 
ATOM     58  C   UNL A   1      40.861  29.010  27.914  1.00  0.00     0.037 A 
ATOM     59  C   UNL A   1      47.639  27.953  26.185  1.00  0.00     0.049 A 
ATOM     60  C   UNL A   1      42.151  29.652  28.552  1.00  0.00     0.074 A 
ATOM     61  C   UNL A   1      47.209  29.045  25.436  1.00  0.00     0.029 A 
ATOM     62  N   UNL A   1      47.265  28.316  27.507  1.00  0.00    -0.354 N 
ATOM     63  N   UNL A   1      43.358  29.686  27.988  1.00  0.00    -0.248 NA
ATOM     64  C   UNL A   1      42.169  30.400  29.807  1.00  0.00     0.031 C 
ATOM     65  C   UNL A   1      46.402  29.911  26.255  1.00  0.00     0.029 A 
ATOM     66  C   UNL A   1      46.383  29.437  27.558  1.00  0.00     0.049 A 
ATOM     67  H   UNL A   1      47.584  27.842  28.309  1.00  0.00     0.167 HD
ATOM     68  C   UNL A   1      44.321  30.153  28.877  1.00  0.00     0.074 A 
ATOM     69  C   UNL A   1      43.470  30.741  29.915  1.00  0.00     0.031 C 
ATOM     70  C   UNL A   1      45.708  29.930  28.824  1.00  0.00     0.037 A 
BRANCH  57  71
ATOM     71  C   UNL A   1      49.671  26.479  25.247  1.00  0.00     0.057 A 
ATOM     72  C   UNL A   1      50.671  25.736  25.912  1.00  0.00     0.134 A 
ATOM     73  C   UNL A   1      50.106  27.047  24.031  1.00  0.00     0.134 A 
ATOM     74  F   UNL A   1      50.414  25.066  27.042  1.00  0.00    -0.206 F 
ATOM     75  C   UNL A   1      52.004  25.651  25.459  1.00  0.00     0.040 A 
ATOM     76  C   UNL A   1      51.435  26.971  23.568  1.00  0.00     0.040 A 
ATOM     77  F   UNL A   1      49.258  27.694  23.223  1.00  0.00    -0.206 F 
ATOM     78  C   UNL A   1      52.398  26.290  24.295  1.00  0.00     0.006 A 
ENDBRANCH  57  71
BRANCH  58  79
ATOM     79  C   UNL A   1      39.574  28.315  28.282  1.00  0.00     0.057 A 
ATOM     80  C   UNL A   1      39.704  27.514  29.477  1.00  0.00     0.134 A 
ATOM     81  C   UNL A   1      38.365  29.001  28.160  1.00  0.00     0.134 A 
ATOM     82  F   UNL A   1      40.852  26.844  29.699  1.00  0.00    -0.206 F 
ATOM     83  C   UNL A   1      38.882  27.704  30.603  1.00  0.00     0.040 A 
ATOM     84  C   UNL A   1      37.466  29.064  29.246  1.00  0.00     0.040 A 
ATOM     85  F   UNL A   1      38.162  29.841  27.135  1.00  0.00    -0.206 F 
ATOM     86  C   UNL A   1      37.772  28.522  30.498  1.00  0.00     0.006 A 
ENDBRANCH  58  79
BRANCH  70  87
ATOM     87  C   UNL A   1      46.575  30.182  30.069  1.00  0.00     0.057 A 
ATOM     88  C   UNL A   1      47.439  31.283  30.232  1.00  0.00     0.134 A 
ATOM     89  C   UNL A   1      46.540  29.318  31.182  1.00  0.00     0.134 A 
ATOM     90  F   UNL A   1      47.392  32.351  29.422  1.00  0.00    -0.206 F 
ATOM     91  C   UNL A   1      48.383  31.370  31.265  1.00  0.00     0.040 A 
ATOM     92  C   UNL A   1      47.409  29.451  32.277  1.00  0.00     0.040 A 
ATOM     93  F   UNL A   1      45.665  28.306  31.266  1.00  0.00    -0.206 F 
ATOM     94  C   UNL A   1      48.383  30.437  32.287  1.00  0.00     0.006 A 
ENDBRANCH  70  87
ENDBRANCH  44  45
ENDBRANCH  37  39
ENDBRANCH  36  37
ENDBRANCH  35  36
ENDBRANCH  34  35
ENDBRANCH  33  34
ENDBRANCH  32  33
ENDBRANCH   1  32
TORSDOF 20
ENDMDL
MODEL 2
REMARK VINA RESULT:     -11.9      2.280      6.910
REMARK SMILES Cc1cccc(CC(=O)N2CCC3(CCC(=O)N([C@H](C)C(=O)OCCOCCOCCOC(=O)c4ccc(-c5c6nc(c(-c7c(F)cccc7F)c7ccc([nH]7)c(-c7c(F)cccc7F)c7nc(c(-c8c(F)cccc8F)c8ccc5[nH]8)C=C7)C=C6)cc4)C3)CC2)c1
REMARK SMILES IDX 27 1 26 2 25 3 24 4 23 5 21 6 22 7 19 8 20 9 18 10 8 11 9 12
REMARK SMILES IDX 10 13 11 14 91 15 12 16 90 17 13 18 14 19 89 20 15 21 16 22
REMARK SMILES IDX 17 23 7 24 6 25 1 26 2 27 3 28 92 29 4 30 5 31 28 32 29 33
REMARK SMILES IDX 30 34 31 35 32 36 33 37 34 38 35 39 36 40 88 41 37 42 87 43
REMARK SMILES IDX 38 44 39 45 40 46 81 47 41 48 86 49 80 50 82 51 42 52 85 53
REMARK SMILES IDX 79 54 78 55 43 57 69 58 52 59 68 60 53 61 56 62 67 63 83 64
REMARK SMILES IDX 54 65 55 66 66 68 84 69 57 70 44 71 45 72 50 73 46 74 47 75
REMARK SMILES IDX 49 76 51 77 48 78 70 79 71 80 76 81 72 82 73 83 75 84 77 85
REMARK SMILES IDX 74 86 58 87 59 88 64 89 60 90 61 91 63 92 65 93 62 94
REMARK H PARENT 82 56 56 67
REMARK Flexibility Score: inf
ROOT
ATOM      1  C   UNL A   1      37.299  21.809  25.527  1.00  0.00     0.188 C 
ENDROOT
BRANCH   1   2
ATOM      2  O   UNL A   1      36.125  21.544  24.797  1.00  0.00    -0.376 OA
BRANCH   2   3
ATOM      3  C   UNL A   1      35.319  22.632  24.272  1.00  0.00     0.202 C 
BRANCH   3   4
ATOM      4  C   UNL A   1      34.617  23.030  22.697  1.00  0.00     0.261 C 
BRANCH   4   5
ATOM      5  O   UNL A   1      33.425  24.332  22.193  1.00  0.00    -0.462 OA
BRANCH   5   6
ATOM      6  C   UNL A   1      33.081  25.753  21.822  1.00  0.00     0.328 C 
ATOM      7  O   UNL A   1      33.205  26.147  20.653  1.00  0.00    -0.250 OA
BRANCH   6   8
ATOM      8  C   UNL A   1      32.553  27.103  22.733  1.00  0.00     0.192 C 
ATOM      9  C   UNL A   1      31.438  28.171  22.865  1.00  0.00     0.044 C 
BRANCH   8  10
ATOM     10  N   UNL A   1      33.083  26.965  24.097  1.00  0.00    -0.329 N 
ATOM     11  C   UNL A   1      33.901  32.254  27.820  1.00  0.00     0.226 C 
ATOM     12  O   UNL A   1      33.134  33.223  27.845  1.00  0.00    -0.275 OA
ATOM     13  N   UNL A   1      33.416  30.981  27.596  1.00  0.00    -0.342 N 
ATOM     14  C   UNL A   1      32.241  30.840  26.754  1.00  0.00     0.120 C 
ATOM     15  C   UNL A   1      34.046  29.727  27.991  1.00  0.00     0.120 C 
ATOM     16  C   UNL A   1      32.613  30.012  25.519  1.00  0.00     0.030 C 
ATOM     17  C   UNL A   1      34.552  29.014  26.763  1.00  0.00     0.030 C 
ATOM     18  C   UNL A   1      33.349  28.685  25.879  1.00  0.00    -0.008 C 
ATOM     19  C   UNL A   1      32.382  27.784  26.722  1.00  0.00     0.019 C 
ATOM     20  C   UNL A   1      33.959  27.966  24.632  1.00  0.00     0.127 C 
ATOM     21  C   UNL A   1      31.448  27.004  25.847  1.00  0.00     0.101 C 
ATOM     22  C   UNL A   1      32.450  26.219  25.061  1.00  0.00     0.223 C 
ATOM     23  O   UNL A   1      32.990  25.232  25.559  1.00  0.00    -0.275 OA
BRANCH  11  24
ATOM     24  C   UNL A   1      35.406  32.496  27.757  1.00  0.00     0.135 C 
BRANCH  24  25
ATOM     25  C   UNL A   1      36.138  32.680  29.060  1.00  0.00    -0.038 A 
ATOM     26  C   UNL A   1      39.755  32.572  30.270  1.00  0.00     0.044 C 
ATOM     27  C   UNL A   1      38.256  32.626  30.267  1.00  0.00    -0.051 A 
ATOM     28  C   UNL A   1      37.546  32.515  31.469  1.00  0.00     0.003 A 
ATOM     29  C   UNL A   1      37.544  32.734  29.067  1.00  0.00     0.007 A 
ATOM     30  C   UNL A   1      36.149  32.524  31.475  1.00  0.00     0.001 A 
ATOM     31  C   UNL A   1      35.442  32.625  30.277  1.00  0.00     0.004 A 
ENDBRANCH  24  25
ENDBRANCH  11  24
ENDBRANCH   8  10
ENDBRANCH   6   8
ENDBRANCH   5   6
ENDBRANCH   4   5
ENDBRANCH   3   4
ENDBRANCH   2   3
ENDBRANCH   1   2
BRANCH   1  32
ATOM     32  C   UNL A   1      38.638  21.053  25.629  1.00  0.00     0.188 C 
BRANCH  32  33
ATOM     33  O   UNL A   1      39.394  21.289  26.759  1.00  0.00    -0.376 OA
BRANCH  33  34
ATOM     34  C   UNL A   1      40.746  21.220  26.374  1.00  0.00     0.202 C 
BRANCH  34  35
ATOM     35  C   UNL A   1      41.593  22.553  26.258  1.00  0.00     0.261 C 
BRANCH  35  36
ATOM     36  O   UNL A   1      42.902  22.908  25.437  1.00  0.00    -0.460 OA
BRANCH  36  37
ATOM     37  C   UNL A   1      43.996  23.168  24.678  1.00  0.00     0.338 C 
ATOM     38  O   UNL A   1      44.020  22.815  23.503  1.00  0.00    -0.246 OA
BRANCH  37  39
ATOM     39  C   UNL A   1      45.314  23.688  25.189  1.00  0.00     0.060 A 
ATOM     40  C   UNL A   1      45.879  23.133  26.332  1.00  0.00     0.016 A 
ATOM     41  C   UNL A   1      45.838  24.891  24.830  1.00  0.00     0.016 A 
ATOM     42  C   UNL A   1      46.087  23.973  27.421  1.00  0.00     0.010 A 
ATOM     43  C   UNL A   1      46.110  25.735  25.887  1.00  0.00     0.010 A 
ATOM     44  C   UNL A   1      45.869  25.320  27.208  1.00  0.00    -0.014 A 
BRANCH  44  45
ATOM     45  C   UNL A   1      45.394  26.321  28.238  1.00  0.00     0.031 A 
ATOM     46  C   UNL A   1      43.546  26.352  28.365  1.00  0.00     0.074 A 
ATOM     47  C   UNL A   1      46.471  27.034  29.000  1.00  0.00     0.049 A 
ATOM     48  N   UNL A   1      42.887  27.494  28.438  1.00  0.00    -0.248 NA
ATOM     49  C   UNL A   1      42.436  25.364  28.357  1.00  0.00     0.031 C 
ATOM     50  C   UNL A   1      46.532  28.085  30.237  1.00  0.00     0.029 A 
ATOM     51  N   UNL A   1      47.869  26.966  28.884  1.00  0.00    -0.354 N 
ATOM     52  C   UNL A   1      41.623  27.492  28.899  1.00  0.00     0.074 A 
ATOM     53  C   UNL A   1      41.315  26.100  28.646  1.00  0.00     0.031 C 
ATOM     54  C   UNL A   1      47.725  28.540  30.578  1.00  0.00     0.029 A 
ATOM     55  C   UNL A   1      48.471  28.145  29.465  1.00  0.00     0.049 A 
ATOM     56  H   UNL A   1      48.366  26.225  28.467  1.00  0.00     0.167 HD
ATOM     57  C   UNL A   1      41.104  28.679  29.396  1.00  0.00     0.037 A 
ATOM     58  C   UNL A   1      49.118  29.086  28.742  1.00  0.00     0.037 A 
ATOM     59  C   UNL A   1      42.146  29.768  29.720  1.00  0.00     0.049 A 
ATOM     60  C   UNL A   1      48.213  30.354  28.514  1.00  0.00     0.074 A 
ATOM     61  C   UNL A   1      42.748  30.153  30.915  1.00  0.00     0.029 A 
ATOM     62  N   UNL A   1      42.834  30.555  28.758  1.00  0.00    -0.354 N 
ATOM     63  N   UNL A   1      46.994  30.536  29.022  1.00  0.00    -0.248 NA
ATOM     64  C   UNL A   1      48.638  31.558  27.804  1.00  0.00     0.031 C 
ATOM     65  C   UNL A   1      43.907  30.960  30.639  1.00  0.00     0.029 A 
ATOM     66  C   UNL A   1      44.008  31.182  29.274  1.00  0.00     0.049 A 
ATOM     67  H   UNL A   1      42.531  30.659  27.827  1.00  0.00     0.167 HD
ATOM     68  C   UNL A   1      46.385  31.668  28.489  1.00  0.00     0.074 A 
ATOM     69  C   UNL A   1      47.539  32.337  27.884  1.00  0.00     0.031 C 
ATOM     70  C   UNL A   1      45.008  31.944  28.425  1.00  0.00     0.037 A 
BRANCH  57  71
ATOM     71  C   UNL A   1      39.633  28.838  29.796  1.00  0.00     0.057 A 
ATOM     72  C   UNL A   1      39.197  28.787  31.138  1.00  0.00     0.134 A 
ATOM     73  C   UNL A   1      38.599  29.109  28.877  1.00  0.00     0.134 A 
ATOM     74  F   UNL A   1      40.056  28.615  32.151  1.00  0.00    -0.206 F 
ATOM     75  C   UNL A   1      37.844  28.897  31.518  1.00  0.00     0.040 A 
ATOM     76  C   UNL A   1      37.242  29.219  29.242  1.00  0.00     0.040 A 
ATOM     77  F   UNL A   1      38.854  29.294  27.576  1.00  0.00    -0.206 F 
ATOM     78  C   UNL A   1      36.855  29.089  30.566  1.00  0.00     0.006 A 
ENDBRANCH  57  71
BRANCH  58  79
ATOM     79  C   UNL A   1      50.180  28.248  28.074  1.00  0.00     0.057 A 
ATOM     80  C   UNL A   1      50.054  28.248  26.635  1.00  0.00     0.134 A 
ATOM     81  C   UNL A   1      51.490  28.291  28.552  1.00  0.00     0.134 A 
ATOM     82  F   UNL A   1      48.826  28.245  26.081  1.00  0.00    -0.206 F 
ATOM     83  C   UNL A   1      51.103  28.653  25.789  1.00  0.00     0.040 A 
ATOM     84  C   UNL A   1      52.563  28.548  27.673  1.00  0.00     0.040 A 
ATOM     85  F   UNL A   1      51.729  28.378  29.868  1.00  0.00    -0.206 F 
ATOM     86  C   UNL A   1      52.365  28.844  26.321  1.00  0.00     0.006 A 
ENDBRANCH  58  79
BRANCH  70  87
ATOM     87  C   UNL A   1      44.486  33.035  27.476  1.00  0.00     0.057 A 
ATOM     88  C   UNL A   1      44.030  34.302  27.889  1.00  0.00     0.134 A 
ATOM     89  C   UNL A   1      44.457  32.849  26.079  1.00  0.00     0.134 A 
ATOM     90  F   UNL A   1      44.249  34.770  29.127  1.00  0.00    -0.206 F 
ATOM     91  C   UNL A   1      43.349  35.186  27.039  1.00  0.00     0.040 A 
ATOM     92  C   UNL A   1      43.872  33.774  25.199  1.00  0.00     0.040 A 
ATOM     93  F   UNL A   1      44.994  31.767  25.498  1.00  0.00    -0.206 F 
ATOM     94  C   UNL A   1      43.251  34.912  25.686  1.00  0.00     0.006 A 
ENDBRANCH  70  87
ENDBRANCH  44  45
ENDBRANCH  37  39
ENDBRANCH  36  37
ENDBRANCH  35  36
ENDBRANCH  34  35
ENDBRANCH  33  34
ENDBRANCH  32  33
ENDBRANCH   1  32
TORSDOF 20
ENDMDL
MODEL 3
REMARK VINA RESULT:     -11.8      2.973      8.645
REMARK SMILES Cc1cccc(CC(=O)N2CCC3(CCC(=O)N([C@H](C)C(=O)OCCOCCOCCOC(=O)c4ccc(-c5c6nc(c(-c7c(F)cccc7F)c7ccc([nH]7)c(-c7c(F)cccc7F)c7nc(c(-c8c(F)cccc8F)c8ccc5[nH]8)C=C7)C=C6)cc4)C3)CC2)c1
REMARK SMILES IDX 27 1 26 2 25 3 24 4 23 5 21 6 22 7 19 8 20 9 18 10 8 11 9 12
REMARK SMILES IDX 10 13 11 14 91 15 12 16 90 17 13 18 14 19 89 20 15 21 16 22
REMARK SMILES IDX 17 23 7 24 6 25 1 26 2 27 3 28 92 29 4 30 5 31 28 32 29 33
REMARK SMILES IDX 30 34 31 35 32 36 33 37 34 38 35 39 36 40 88 41 37 42 87 43
REMARK SMILES IDX 38 44 39 45 40 46 81 47 41 48 86 49 80 50 82 51 42 52 85 53
REMARK SMILES IDX 79 54 78 55 43 57 69 58 52 59 68 60 53 61 56 62 67 63 83 64
REMARK SMILES IDX 54 65 55 66 66 68 84 69 57 70 44 71 45 72 50 73 46 74 47 75
REMARK SMILES IDX 49 76 51 77 48 78 70 79 71 80 76 81 72 82 73 83 75 84 77 85
REMARK SMILES IDX 74 86 58 87 59 88 64 89 60 90 61 91 63 92 65 93 62 94
REMARK H PARENT 82 56 56 67
REMARK Flexibility Score: inf
ROOT
ATOM      1  C   UNL A   1      40.859  20.644  26.968  1.00  0.00     0.188 C 
ENDROOT
BRANCH   1   2
ATOM      2  O   UNL A   1      39.663  21.269  26.566  1.00  0.00    -0.376 OA
BRANCH   2   3
ATOM      3  C   UNL A   1      39.521  22.712  26.641  1.00  0.00     0.202 C 
BRANCH   3   4
ATOM      4  C   UNL A   1      38.293  23.882  26.136  1.00  0.00     0.261 C 
BRANCH   4   5
ATOM      5  O   UNL A   1      36.737  23.675  25.185  1.00  0.00    -0.462 OA
BRANCH   5   6
ATOM      6  C   UNL A   1      35.811  22.876  24.301  1.00  0.00     0.328 C 
ATOM      7  O   UNL A   1      35.675  23.169  23.104  1.00  0.00    -0.250 OA
BRANCH   6   8
ATOM      8  C   UNL A   1      34.760  21.558  24.599  1.00  0.00     0.192 C 
ATOM      9  C   UNL A   1      34.706  20.046  24.936  1.00  0.00     0.044 C 
BRANCH   8  10
ATOM     10  N   UNL A   1      33.503  22.093  25.140  1.00  0.00    -0.329 N 
ATOM     11  C   UNL A   1      32.670  28.536  25.675  1.00  0.00     0.226 C 
ATOM     12  O   UNL A   1      33.073  29.369  24.856  1.00  0.00    -0.275 OA
ATOM     13  N   UNL A   1      32.267  27.283  25.261  1.00  0.00    -0.342 N 
ATOM     14  C   UNL A   1      32.914  26.712  24.093  1.00  0.00     0.120 C 
ATOM     15  C   UNL A   1      31.354  26.386  25.960  1.00  0.00     0.120 C 
ATOM     16  C   UNL A   1      33.637  25.425  24.506  1.00  0.00     0.030 C 
ATOM     17  C   UNL A   1      32.128  25.210  26.501  1.00  0.00     0.030 C 
ATOM     18  C   UNL A   1      32.726  24.452  25.315  1.00  0.00    -0.008 C 
ATOM     19  C   UNL A   1      31.534  23.999  24.403  1.00  0.00     0.019 C 
ATOM     20  C   UNL A   1      33.516  23.268  25.961  1.00  0.00     0.127 C 
ATOM     21  C   UNL A   1      31.924  22.859  23.511  1.00  0.00     0.101 C 
ATOM     22  C   UNL A   1      32.286  21.848  24.552  1.00  0.00     0.223 C 
ATOM     23  O   UNL A   1      31.403  21.231  25.147  1.00  0.00    -0.275 OA
BRANCH  11  24
ATOM     24  C   UNL A   1      32.880  28.792  27.164  1.00  0.00     0.135 C 
BRANCH  24  25
ATOM     25  C   UNL A   1      33.926  29.803  27.557  1.00  0.00    -0.038 A 
ATOM     26  C   UNL A   1      34.122  33.588  28.002  1.00  0.00     0.044 C 
ATOM     27  C   UNL A   1      34.519  32.147  27.873  1.00  0.00    -0.051 A 
ATOM     28  C   UNL A   1      35.872  31.796  27.790  1.00  0.00     0.003 A 
ATOM     29  C   UNL A   1      33.551  31.141  27.781  1.00  0.00     0.007 A 
ATOM     30  C   UNL A   1      36.253  30.461  27.629  1.00  0.00     0.001 A 
ATOM     31  C   UNL A   1      35.286  29.461  27.531  1.00  0.00     0.004 A 
ENDBRANCH  24  25
ENDBRANCH  11  24
ENDBRANCH   8  10
ENDBRANCH   6   8
ENDBRANCH   5   6
ENDBRANCH   4   5
ENDBRANCH   3   4
ENDBRANCH   2   3
ENDBRANCH   1   2
BRANCH   1  32
ATOM     32  C   UNL A   1      41.955  19.914  26.168  1.00  0.00     0.188 C 
BRANCH  32  33
ATOM     33  O   UNL A   1      43.162  20.570  26.037  1.00  0.00    -0.376 OA
BRANCH  33  34
ATOM     34  C   UNL A   1      42.884  21.850  25.524  1.00  0.00     0.202 C 
BRANCH  34  35
ATOM     35  C   UNL A   1      43.731  23.091  26.021  1.00  0.00     0.261 C 
BRANCH  35  36
ATOM     36  O   UNL A   1      43.304  24.533  26.524  1.00  0.00    -0.460 OA
BRANCH  36  37
ATOM     37  C   UNL A   1      42.923  25.786  26.881  1.00  0.00     0.338 C 
ATOM     38  O   UNL A   1      43.770  26.607  27.216  1.00  0.00    -0.246 OA
BRANCH  37  39
ATOM     39  C   UNL A   1      41.505  26.240  27.107  1.00  0.00     0.060 A 
ATOM     40  C   UNL A   1      41.038  27.386  26.472  1.00  0.00     0.016 A 
ATOM     41  C   UNL A   1      40.741  25.825  28.154  1.00  0.00     0.016 A 
ATOM     42  C   UNL A   1      40.610  28.439  27.274  1.00  0.00     0.010 A 
ATOM     43  C   UNL A   1      40.251  26.844  28.944  1.00  0.00     0.010 A 
ATOM     44  C   UNL A   1      40.531  28.185  28.630  1.00  0.00    -0.014 A 
BRANCH  44  45
ATOM     45  C   UNL A   1      40.736  29.193  29.739  1.00  0.00     0.031 A 
ATOM     46  C   UNL A   1      39.132  29.931  30.302  1.00  0.00     0.074 A 
ATOM     47  C   UNL A   1      42.147  29.355  30.222  1.00  0.00     0.049 A 
ATOM     48  N   UNL A   1      39.020  31.228  30.526  1.00  0.00    -0.248 NA
ATOM     49  C   UNL A   1      37.747  29.460  30.563  1.00  0.00     0.031 C 
ATOM     50  C   UNL A   1      42.893  30.180  31.405  1.00  0.00     0.029 A 
ATOM     51  N   UNL A   1      43.337  28.757  29.776  1.00  0.00    -0.354 N 
ATOM     52  C   UNL A   1      37.996  31.677  31.274  1.00  0.00     0.074 A 
ATOM     53  C   UNL A   1      37.108  30.545  31.106  1.00  0.00     0.031 C 
ATOM     54  C   UNL A   1      44.212  30.100  31.450  1.00  0.00     0.029 A 
ATOM     55  C   UNL A   1      44.473  29.549  30.194  1.00  0.00     0.049 A 
ATOM     56  H   UNL A   1      43.391  27.924  29.256  1.00  0.00     0.167 HD
ATOM     57  C   UNL A   1      38.120  32.921  31.876  1.00  0.00     0.037 A 
ATOM     58  C   UNL A   1      45.267  30.225  29.334  1.00  0.00     0.037 A 
ATOM     59  C   UNL A   1      39.554  33.482  31.939  1.00  0.00     0.049 A 
ATOM     60  C   UNL A   1      44.921  31.761  29.323  1.00  0.00     0.074 A 
ATOM     61  C   UNL A   1      40.506  33.489  32.955  1.00  0.00     0.029 A 
ATOM     62  N   UNL A   1      40.271  34.023  30.838  1.00  0.00    -0.354 N 
ATOM     63  N   UNL A   1      44.021  32.357  30.105  1.00  0.00    -0.248 NA
ATOM     64  C   UNL A   1      45.627  32.764  28.528  1.00  0.00     0.031 C 
ATOM     65  C   UNL A   1      41.800  33.801  32.409  1.00  0.00     0.029 A 
ATOM     66  C   UNL A   1      41.680  34.091  31.058  1.00  0.00     0.049 A 
ATOM     67  H   UNL A   1      39.839  34.322  30.005  1.00  0.00     0.167 HD
ATOM     68  C   UNL A   1      43.817  33.681  29.728  1.00  0.00     0.074 A 
ATOM     69  C   UNL A   1      44.979  33.898  28.864  1.00  0.00     0.031 C 
ATOM     70  C   UNL A   1      42.689  34.477  29.992  1.00  0.00     0.037 A 
BRANCH  57  71
ATOM     71  C   UNL A   1      36.963  33.604  32.614  1.00  0.00     0.057 A 
ATOM     72  C   UNL A   1      36.886  33.665  34.022  1.00  0.00     0.134 A 
ATOM     73  C   UNL A   1      35.912  34.282  31.962  1.00  0.00     0.134 A 
ATOM     74  F   UNL A   1      37.839  33.140  34.802  1.00  0.00    -0.206 F 
ATOM     75  C   UNL A   1      35.810  34.259  34.714  1.00  0.00     0.040 A 
ATOM     76  C   UNL A   1      34.831  34.878  32.640  1.00  0.00     0.040 A 
ATOM     77  F   UNL A   1      35.888  34.412  30.630  1.00  0.00    -0.206 F 
ATOM     78  C   UNL A   1      34.763  34.847  34.024  1.00  0.00     0.006 A 
ENDBRANCH  57  71
BRANCH  58  79
ATOM     79  C   UNL A   1      45.729  29.104  28.436  1.00  0.00     0.057 A 
ATOM     80  C   UNL A   1      45.573  29.424  27.035  1.00  0.00     0.134 A 
ATOM     81  C   UNL A   1      46.892  28.404  28.754  1.00  0.00     0.134 A 
ATOM     82  F   UNL A   1      44.498  30.131  26.637  1.00  0.00    -0.206 F 
ATOM     83  C   UNL A   1      46.652  29.396  26.133  1.00  0.00     0.040 A 
ATOM     84  C   UNL A   1      47.916  28.244  27.797  1.00  0.00     0.040 A 
ATOM     85  F   UNL A   1      47.187  28.124  30.032  1.00  0.00    -0.206 F 
ATOM     86  C   UNL A   1      47.852  28.836  26.532  1.00  0.00     0.006 A 
ENDBRANCH  58  79
BRANCH  70  87
ATOM     87  C   UNL A   1      42.454  35.767  29.191  1.00  0.00     0.057 A 
ATOM     88  C   UNL A   1      41.558  35.885  28.110  1.00  0.00     0.134 A 
ATOM     89  C   UNL A   1      43.115  36.970  29.513  1.00  0.00     0.134 A 
ATOM     90  F   UNL A   1      40.636  34.948  27.843  1.00  0.00    -0.206 F 
ATOM     91  C   UNL A   1      41.530  36.996  27.255  1.00  0.00     0.040 A 
ATOM     92  C   UNL A   1      43.017  38.128  28.726  1.00  0.00     0.040 A 
ATOM     93  F   UNL A   1      43.886  37.083  30.603  1.00  0.00    -0.206 F 
ATOM     94  C   UNL A   1      42.280  38.121  27.552  1.00  0.00     0.006 A 
ENDBRANCH  70  87
ENDBRANCH  44  45
ENDBRANCH  37  39
ENDBRANCH  36  37
ENDBRANCH  35  36
ENDBRANCH  34  35
ENDBRANCH  33  34
ENDBRANCH  32  33
ENDBRANCH   1  32
TORSDOF 20
ENDMDL
