MODEL 1
REMARK VINA RESULT:     -11.3      0.000      0.000
REMARK SMILES O=CN[C@@H](CCS[C@@H]1CCO[C@]2(CCOC2)C1)C(=O)OCCOCCOCCOC(=O)c1ccc(-c2c3nc(c(-c4c(F)cccc4F)c4ccc([nH]4)c(-c4c(F)cccc4F)c4nc(c(-c5c(F)cccc5F)c5ccc2[nH]5)C=C4)C=C3)cc1
REMARK SMILES IDX 24 1 23 2 22 3 21 4 20 5 18 6 19 7 4 8 3 9 1 10 2 11 5 13
REMARK SMILES IDX 6 14 7 15 8 16 9 17 17 18 10 19 12 20 11 21 13 22 16 23
REMARK SMILES IDX 14 24 15 25 25 26 26 27 27 28 28 29 29 30 30 31 31 32 32 33
REMARK SMILES IDX 33 34 85 35 34 36 84 37 35 38 36 39 37 40 78 41 38 42 83 43
REMARK SMILES IDX 77 44 79 45 39 46 82 47 76 48 75 49 40 51 66 52 49 53 65 54
REMARK SMILES IDX 50 55 53 56 64 57 80 58 51 59 52 60 63 62 81 63 54 64 41 65
REMARK SMILES IDX 42 66 47 67 43 68 44 69 46 70 48 71 45 72 67 73 68 74 73 75
REMARK SMILES IDX 69 76 70 77 72 78 74 79 71 80 55 81 56 82 61 83 57 84 58 85
REMARK SMILES IDX 60 86 62 87 59 88
REMARK H PARENT 3 12 79 50 53 61
REMARK Flexibility Score: inf
ROOT
ATOM      1  C   UNL A   1      42.561  19.092  26.086  1.00  0.00     0.188 C 
ENDROOT
BRANCH   1   2
ATOM      2  O   UNL A   1      41.354  19.390  25.310  1.00  0.00    -0.376 OA
BRANCH   2   3
ATOM      3  C   UNL A   1      40.008  19.980  25.792  1.00  0.00     0.202 C 
BRANCH   3   4
ATOM      4  C   UNL A   1      38.066  19.765  24.966  1.00  0.00     0.261 C 
BRANCH   4   5
ATOM      5  O   UNL A   1      36.870  21.114  24.790  1.00  0.00    -0.462 OA
BRANCH   5   6
ATOM      6  C   UNL A   1      35.871  21.805  25.584  1.00  0.00     0.328 C 
ATOM      7  O   UNL A   1      35.250  21.398  26.575  1.00  0.00    -0.250 OA
BRANCH   6   8
ATOM      8  C   UNL A   1      35.637  23.276  25.286  1.00  0.00     0.192 C 
BRANCH   8   9
ATOM      9  N   UNL A   1      36.914  24.025  25.392  1.00  0.00    -0.345 N 
ATOM     10  O   UNL A   1      38.965  24.419  26.278  1.00  0.00    -0.279 OA
ATOM     11  C   UNL A   1      37.834  23.962  26.395  1.00  0.00     0.337 C 
ATOM     12  H   UNL A   1      37.122  24.639  24.651  1.00  0.00     0.164 HD
ENDBRANCH   8   9
BRANCH   8  13
ATOM     13  C   UNL A   1      34.985  23.434  23.941  1.00  0.00     0.048 C 
BRANCH  13  14
ATOM     14  C   UNL A   1      33.560  22.868  23.845  1.00  0.00     0.072 C 
BRANCH  14  15
ATOM     15  S   UNL A   1      32.434  23.628  22.614  1.00  0.00    -0.158 SA
BRANCH  15  16
ATOM     16  C   UNL A   1      31.965  25.479  23.143  1.00  0.00     0.052 C 
ATOM     17  C   UNL A   1      33.062  26.345  21.787  1.00  0.00     0.043 C 
ATOM     18  C   UNL A   1      31.555  26.680  24.768  1.00  0.00     0.052 C 
ATOM     19  C   UNL A   1      34.030  27.875  22.334  1.00  0.00     0.162 C 
ATOM     20  C   UNL A   1      32.673  28.246  25.036  1.00  0.00     0.095 C 
ATOM     21  O   UNL A   1      33.545  28.793  23.699  1.00  0.00    -0.372 OA
ATOM     22  C   UNL A   1      33.666  28.143  26.233  1.00  0.00     0.066 C 
ATOM     23  C   UNL A   1      31.815  29.391  25.648  1.00  0.00     0.195 C 
ATOM     24  C   UNL A   1      32.782  28.270  27.442  1.00  0.00     0.163 C 
ATOM     25  O   UNL A   1      31.705  29.126  27.060  1.00  0.00    -0.378 OA
ENDBRANCH  15  16
ENDBRANCH  14  15
ENDBRANCH  13  14
ENDBRANCH   8  13
ENDBRANCH   6   8
ENDBRANCH   5   6
ENDBRANCH   4   5
ENDBRANCH   3   4
ENDBRANCH   2   3
ENDBRANCH   1   2
BRANCH   1  26
ATOM     26  C   UNL A   1      43.793  18.793  25.151  1.00  0.00     0.188 C 
BRANCH  26  27
ATOM     27  O   UNL A   1      44.999  19.495  25.407  1.00  0.00    -0.376 OA
BRANCH  27  28
ATOM     28  C   UNL A   1      45.102  20.795  24.856  1.00  0.00     0.202 C 
BRANCH  28  29
ATOM     29  C   UNL A   1      45.299  21.943  25.854  1.00  0.00     0.261 C 
BRANCH  29  30
ATOM     30  O   UNL A   1      44.190  22.864  25.943  1.00  0.00    -0.460 OA
BRANCH  30  31
ATOM     31  C   UNL A   1      44.433  24.135  25.525  1.00  0.00     0.338 C 
ATOM     32  O   UNL A   1      45.154  24.481  24.607  1.00  0.00    -0.246 OA
BRANCH  31  33
ATOM     33  C   UNL A   1      43.544  25.078  26.244  1.00  0.00     0.060 A 
ATOM     34  C   UNL A   1      43.846  26.452  26.254  1.00  0.00     0.016 A 
ATOM     35  C   UNL A   1      42.474  24.591  26.992  1.00  0.00     0.016 A 
ATOM     36  C   UNL A   1      43.112  27.330  27.050  1.00  0.00     0.010 A 
ATOM     37  C   UNL A   1      41.762  25.465  27.819  1.00  0.00     0.010 A 
ATOM     38  C   UNL A   1      42.113  26.826  27.889  1.00  0.00    -0.014 A 
BRANCH  38  39
ATOM     39  C   UNL A   1      41.628  27.663  29.013  1.00  0.00     0.031 A 
ATOM     40  C   UNL A   1      42.362  27.578  30.325  1.00  0.00     0.074 A 
ATOM     41  C   UNL A   1      40.594  28.508  28.866  1.00  0.00     0.049 A 
ATOM     42  N   UNL A   1      42.111  28.174  31.463  1.00  0.00    -0.248 NA
ATOM     43  C   UNL A   1      43.540  26.694  30.357  1.00  0.00     0.031 C 
ATOM     44  C   UNL A   1      39.843  28.720  27.632  1.00  0.00     0.029 A 
ATOM     45  N   UNL A   1      39.997  29.343  29.775  1.00  0.00    -0.354 N 
ATOM     46  C   UNL A   1      43.092  27.729  32.343  1.00  0.00     0.074 A 
ATOM     47  C   UNL A   1      43.917  26.787  31.621  1.00  0.00     0.031 C 
ATOM     48  C   UNL A   1      38.873  29.621  27.864  1.00  0.00     0.029 A 
ATOM     49  C   UNL A   1      38.918  30.023  29.269  1.00  0.00     0.049 A 
ATOM     50  H   UNL A   1      40.312  29.445  30.703  1.00  0.00     0.167 HD
ATOM     51  C   UNL A   1      43.293  28.084  33.634  1.00  0.00     0.037 A 
ATOM     52  C   UNL A   1      38.056  30.859  29.880  1.00  0.00     0.037 A 
ATOM     53  C   UNL A   1      42.464  29.018  34.350  1.00  0.00     0.049 A 
ATOM     54  C   UNL A   1      38.255  31.179  31.341  1.00  0.00     0.074 A 
ATOM     55  C   UNL A   1      42.579  29.449  35.659  1.00  0.00     0.029 A 
ATOM     56  N   UNL A   1      41.358  29.660  33.813  1.00  0.00    -0.354 N 
ATOM     57  N   UNL A   1      39.187  30.764  32.165  1.00  0.00    -0.248 NA
ATOM     58  C   UNL A   1      37.281  32.095  31.952  1.00  0.00     0.031 C 
ATOM     59  C   UNL A   1      41.507  30.305  35.932  1.00  0.00     0.029 A 
ATOM     60  C   UNL A   1      40.765  30.466  34.772  1.00  0.00     0.049 A 
ATOM     61  H   UNL A   1      41.040  29.560  32.887  1.00  0.00     0.167 HD
ATOM     62  C   UNL A   1      38.937  31.396  33.377  1.00  0.00     0.074 A 
ATOM     63  C   UNL A   1      37.773  32.234  33.174  1.00  0.00     0.031 C 
ATOM     64  C   UNL A   1      39.607  31.295  34.553  1.00  0.00     0.037 A 
BRANCH  51  65
ATOM     65  C   UNL A   1      44.432  27.425  34.362  1.00  0.00     0.057 A 
ATOM     66  C   UNL A   1      45.745  27.912  34.291  1.00  0.00     0.134 A 
ATOM     67  C   UNL A   1      44.210  26.291  35.153  1.00  0.00     0.134 A 
ATOM     68  F   UNL A   1      46.032  28.985  33.539  1.00  0.00    -0.206 F 
ATOM     69  C   UNL A   1      46.797  27.277  34.954  1.00  0.00     0.040 A 
ATOM     70  C   UNL A   1      45.248  25.666  35.848  1.00  0.00     0.040 A 
ATOM     71  F   UNL A   1      42.979  25.771  35.269  1.00  0.00    -0.206 F 
ATOM     72  C   UNL A   1      46.548  26.155  35.741  1.00  0.00     0.006 A 
ENDBRANCH  51  65
BRANCH  52  73
ATOM     73  C   UNL A   1      36.925  31.452  29.123  1.00  0.00     0.057 A 
ATOM     74  C   UNL A   1      36.950  32.787  28.701  1.00  0.00     0.134 A 
ATOM     75  C   UNL A   1      35.777  30.707  28.825  1.00  0.00     0.134 A 
ATOM     76  F   UNL A   1      38.010  33.562  28.976  1.00  0.00    -0.206 F 
ATOM     77  C   UNL A   1      35.870  33.366  28.033  1.00  0.00     0.040 A 
ATOM     78  C   UNL A   1      34.701  31.264  28.131  1.00  0.00     0.040 A 
ATOM     79  F   UNL A   1      35.686  29.423  29.201  1.00  0.00    -0.206 F 
ATOM     80  C   UNL A   1      34.742  32.601  27.741  1.00  0.00     0.006 A 
ENDBRANCH  52  73
BRANCH  64  81
ATOM     81  C   UNL A   1      39.128  32.155  35.691  1.00  0.00     0.057 A 
ATOM     82  C   UNL A   1      39.504  33.498  35.827  1.00  0.00     0.134 A 
ATOM     83  C   UNL A   1      38.268  31.627  36.665  1.00  0.00     0.134 A 
ATOM     84  F   UNL A   1      40.331  34.066  34.936  1.00  0.00    -0.206 F 
ATOM     85  C   UNL A   1      39.084  34.267  36.913  1.00  0.00     0.040 A 
ATOM     86  C   UNL A   1      37.811  32.398  37.735  1.00  0.00     0.040 A 
ATOM     87  F   UNL A   1      37.852  30.353  36.590  1.00  0.00    -0.206 F 
ATOM     88  C   UNL A   1      38.232  33.719  37.869  1.00  0.00     0.006 A 
ENDBRANCH  64  81
ENDBRANCH  38  39
ENDBRANCH  31  33
ENDBRANCH  30  31
ENDBRANCH  29  30
ENDBRANCH  28  29
ENDBRANCH  27  28
ENDBRANCH  26  27
ENDBRANCH   1  26
TORSDOF 22
ENDMDL
MODEL 2
REMARK VINA RESULT:     -11.2      1.167      2.128
REMARK SMILES O=CN[C@@H](CCS[C@@H]1CCO[C@]2(CCOC2)C1)C(=O)OCCOCCOCCOC(=O)c1ccc(-c2c3nc(c(-c4c(F)cccc4F)c4ccc([nH]4)c(-c4c(F)cccc4F)c4nc(c(-c5c(F)cccc5F)c5ccc2[nH]5)C=C4)C=C3)cc1
REMARK SMILES IDX 24 1 23 2 22 3 21 4 20 5 18 6 19 7 4 8 3 9 1 10 2 11 5 13
REMARK SMILES IDX 6 14 7 15 8 16 9 17 17 18 10 19 12 20 11 21 13 22 16 23
REMARK SMILES IDX 14 24 15 25 25 26 26 27 27 28 28 29 29 30 30 31 31 32 32 33
REMARK SMILES IDX 33 34 85 35 34 36 84 37 35 38 36 39 37 40 78 41 38 42 83 43
REMARK SMILES IDX 77 44 79 45 39 46 82 47 76 48 75 49 40 51 66 52 49 53 65 54
REMARK SMILES IDX 50 55 53 56 64 57 80 58 51 59 52 60 63 62 81 63 54 64 41 65
REMARK SMILES IDX 42 66 47 67 43 68 44 69 46 70 48 71 45 72 67 73 68 74 73 75
REMARK SMILES IDX 69 76 70 77 72 78 74 79 71 80 55 81 56 82 61 83 57 84 58 85
REMARK SMILES IDX 60 86 62 87 59 88
REMARK H PARENT 3 12 79 50 53 61
REMARK Flexibility Score: inf
ROOT
ATOM      1  C   UNL A   1      43.740  18.587  25.293  1.00  0.00     0.188 C 
ENDROOT
BRANCH   1   2
ATOM      2  O   UNL A   1      42.565  19.446  25.124  1.00  0.00    -0.376 OA
BRANCH   2   3
ATOM      3  C   UNL A   1      41.444  19.771  26.138  1.00  0.00     0.202 C 
BRANCH   3   4
ATOM      4  C   UNL A   1      40.530  21.632  26.592  1.00  0.00     0.261 C 
BRANCH   4   5
ATOM      5  O   UNL A   1      38.963  22.206  25.887  1.00  0.00    -0.462 OA
BRANCH   5   6
ATOM      6  C   UNL A   1      37.682  21.664  25.474  1.00  0.00     0.328 C 
ATOM      7  O   UNL A   1      37.436  20.571  24.946  1.00  0.00    -0.250 OA
BRANCH   6   8
ATOM      8  C   UNL A   1      36.437  22.444  25.859  1.00  0.00     0.192 C 
BRANCH   8   9
ATOM      9  N   UNL A   1      35.958  23.240  24.702  1.00  0.00    -0.345 N 
ATOM     10  O   UNL A   1      35.368  23.504  22.528  1.00  0.00    -0.279 OA
ATOM     11  C   UNL A   1      36.009  22.904  23.382  1.00  0.00     0.337 C 
ATOM     12  H   UNL A   1      35.555  24.114  24.912  1.00  0.00     0.164 HD
ENDBRANCH   8   9
BRANCH   8  13
ATOM     13  C   UNL A   1      35.387  21.510  26.393  1.00  0.00     0.048 C 
BRANCH  13  14
ATOM     14  C   UNL A   1      33.949  21.846  25.969  1.00  0.00     0.072 C 
BRANCH  14  15
ATOM     15  S   UNL A   1      32.861  22.622  27.225  1.00  0.00    -0.158 SA
BRANCH  15  16
ATOM     16  C   UNL A   1      32.068  24.297  26.524  1.00  0.00     0.052 C 
ATOM     17  C   UNL A   1      30.859  23.423  25.272  1.00  0.00     0.043 C 
ATOM     18  C   UNL A   1      32.501  26.251  26.030  1.00  0.00     0.052 C 
ATOM     19  C   UNL A   1      30.688  24.221  23.565  1.00  0.00     0.162 C 
ATOM     20  C   UNL A   1      32.140  26.822  24.209  1.00  0.00     0.095 C 
ATOM     21  O   UNL A   1      31.063  25.877  23.317  1.00  0.00    -0.372 OA
ATOM     22  C   UNL A   1      33.408  27.041  23.329  1.00  0.00     0.066 C 
ATOM     23  C   UNL A   1      31.699  28.314  24.215  1.00  0.00     0.195 C 
ATOM     24  C   UNL A   1      33.998  28.315  23.866  1.00  0.00     0.163 C 
ATOM     25  O   UNL A   1      32.897  29.107  24.313  1.00  0.00    -0.378 OA
ENDBRANCH  15  16
ENDBRANCH  14  15
ENDBRANCH  13  14
ENDBRANCH   8  13
ENDBRANCH   6   8
ENDBRANCH   5   6
ENDBRANCH   4   5
ENDBRANCH   3   4
ENDBRANCH   2   3
ENDBRANCH   1   2
BRANCH   1  26
ATOM     26  C   UNL A   1      44.982  19.139  24.498  1.00  0.00     0.188 C 
BRANCH  26  27
ATOM     27  O   UNL A   1      45.949  19.883  25.220  1.00  0.00    -0.376 OA
BRANCH  27  28
ATOM     28  C   UNL A   1      45.889  21.292  25.090  1.00  0.00     0.202 C 
BRANCH  28  29
ATOM     29  C   UNL A   1      44.631  21.973  25.641  1.00  0.00     0.261 C 
BRANCH  29  30
ATOM     30  O   UNL A   1      44.870  23.228  26.315  1.00  0.00    -0.460 OA
BRANCH  30  31
ATOM     31  C   UNL A   1      44.646  24.352  25.583  1.00  0.00     0.338 C 
ATOM     32  O   UNL A   1      45.005  24.567  24.438  1.00  0.00    -0.246 OA
BRANCH  31  33
ATOM     33  C   UNL A   1      43.725  25.254  26.315  1.00  0.00     0.060 A 
ATOM     34  C   UNL A   1      43.980  26.637  26.344  1.00  0.00     0.016 A 
ATOM     35  C   UNL A   1      42.674  24.720  27.058  1.00  0.00     0.016 A 
ATOM     36  C   UNL A   1      43.217  27.478  27.153  1.00  0.00     0.010 A 
ATOM     37  C   UNL A   1      41.933  25.557  27.897  1.00  0.00     0.010 A 
ATOM     38  C   UNL A   1      42.237  26.928  27.986  1.00  0.00    -0.014 A 
BRANCH  38  39
ATOM     39  C   UNL A   1      41.725  27.732  29.122  1.00  0.00     0.031 A 
ATOM     40  C   UNL A   1      42.444  27.629  30.441  1.00  0.00     0.074 A 
ATOM     41  C   UNL A   1      40.681  28.564  28.981  1.00  0.00     0.049 A 
ATOM     42  N   UNL A   1      42.170  28.195  31.588  1.00  0.00    -0.248 NA
ATOM     43  C   UNL A   1      43.635  26.762  30.468  1.00  0.00     0.031 C 
ATOM     44  C   UNL A   1      39.941  28.792  27.742  1.00  0.00     0.029 A 
ATOM     45  N   UNL A   1      40.059  29.369  29.901  1.00  0.00    -0.354 N 
ATOM     46  C   UNL A   1      43.147  27.746  32.471  1.00  0.00     0.074 A 
ATOM     47  C   UNL A   1      43.996  26.833  31.739  1.00  0.00     0.031 C 
ATOM     48  C   UNL A   1      38.954  29.672  27.982  1.00  0.00     0.029 A 
ATOM     49  C   UNL A   1      38.976  30.044  29.396  1.00  0.00     0.049 A 
ATOM     50  H   UNL A   1      40.361  29.455  30.834  1.00  0.00     0.167 HD
ATOM     51  C   UNL A   1      43.326  28.074  33.772  1.00  0.00     0.037 A 
ATOM     52  C   UNL A   1      38.093  30.852  30.015  1.00  0.00     0.037 A 
ATOM     53  C   UNL A   1      42.474  28.980  34.498  1.00  0.00     0.049 A 
ATOM     54  C   UNL A   1      38.269  31.142  31.484  1.00  0.00     0.074 A 
ATOM     55  C   UNL A   1      42.566  29.382  35.818  1.00  0.00     0.029 A 
ATOM     56  N   UNL A   1      41.365  29.616  33.961  1.00  0.00    -0.354 N 
ATOM     57  N   UNL A   1      39.197  30.723  32.311  1.00  0.00    -0.248 NA
ATOM     58  C   UNL A   1      37.273  32.029  32.104  1.00  0.00     0.031 C 
ATOM     59  C   UNL A   1      41.477  30.215  36.097  1.00  0.00     0.029 A 
ATOM     60  C   UNL A   1      40.748  30.391  34.931  1.00  0.00     0.049 A 
ATOM     61  H   UNL A   1      41.060  29.531  33.029  1.00  0.00     0.167 HD
ATOM     62  C   UNL A   1      38.922  31.324  33.534  1.00  0.00     0.074 A 
ATOM     63  C   UNL A   1      37.747  32.148  33.335  1.00  0.00     0.031 C 
ATOM     64  C   UNL A   1      39.579  31.207  34.715  1.00  0.00     0.037 A 
BRANCH  51  65
ATOM     65  C   UNL A   1      44.466  27.417  34.500  1.00  0.00     0.057 A 
ATOM     66  C   UNL A   1      45.716  28.037  34.646  1.00  0.00     0.134 A 
ATOM     67  C   UNL A   1      44.309  26.147  35.070  1.00  0.00     0.134 A 
ATOM     68  F   UNL A   1      45.941  29.246  34.111  1.00  0.00    -0.206 F 
ATOM     69  C   UNL A   1      46.772  27.405  35.305  1.00  0.00     0.040 A 
ATOM     70  C   UNL A   1      45.348  25.519  35.760  1.00  0.00     0.040 A 
ATOM     71  F   UNL A   1      43.141  25.495  34.971  1.00  0.00    -0.206 F 
ATOM     72  C   UNL A   1      46.588  26.146  35.870  1.00  0.00     0.006 A 
ENDBRANCH  51  65
BRANCH  52  73
ATOM     73  C   UNL A   1      36.962  31.445  29.256  1.00  0.00     0.057 A 
ATOM     74  C   UNL A   1      35.813  30.701  28.962  1.00  0.00     0.134 A 
ATOM     75  C   UNL A   1      37.012  32.761  28.782  1.00  0.00     0.134 A 
ATOM     76  F   UNL A   1      35.712  29.425  29.365  1.00  0.00    -0.206 F 
ATOM     77  C   UNL A   1      34.767  31.234  28.206  1.00  0.00     0.040 A 
ATOM     78  C   UNL A   1      35.961  33.318  28.052  1.00  0.00     0.040 A 
ATOM     79  F   UNL A   1      38.085  33.529  29.027  1.00  0.00    -0.206 F 
ATOM     80  C   UNL A   1      34.838  32.550  27.753  1.00  0.00     0.006 A 
ENDBRANCH  52  73
BRANCH  64  81
ATOM     81  C   UNL A   1      39.072  32.033  35.866  1.00  0.00     0.057 A 
ATOM     82  C   UNL A   1      38.192  31.520  36.828  1.00  0.00     0.134 A 
ATOM     83  C   UNL A   1      39.479  33.367  36.014  1.00  0.00     0.134 A 
ATOM     84  F   UNL A   1      37.756  30.254  36.743  1.00  0.00    -0.206 F 
ATOM     85  C   UNL A   1      37.698  32.314  37.864  1.00  0.00     0.040 A 
ATOM     86  C   UNL A   1      39.021  34.160  37.068  1.00  0.00     0.040 A 
ATOM     87  F   UNL A   1      40.334  33.922  35.142  1.00  0.00    -0.206 F 
ATOM     88  C   UNL A   1      38.116  33.637  37.988  1.00  0.00     0.006 A 
ENDBRANCH  64  81
ENDBRANCH  38  39
ENDBRANCH  31  33
ENDBRANCH  30  31
ENDBRANCH  29  30
ENDBRANCH  28  29
ENDBRANCH  27  28
ENDBRANCH  26  27
ENDBRANCH   1  26
TORSDOF 22
ENDMDL
MODEL 3
REMARK VINA RESULT:     -10.9      1.435      2.298
REMARK SMILES O=CN[C@@H](CCS[C@@H]1CCO[C@]2(CCOC2)C1)C(=O)OCCOCCOCCOC(=O)c1ccc(-c2c3nc(c(-c4c(F)cccc4F)c4ccc([nH]4)c(-c4c(F)cccc4F)c4nc(c(-c5c(F)cccc5F)c5ccc2[nH]5)C=C4)C=C3)cc1
REMARK SMILES IDX 24 1 23 2 22 3 21 4 20 5 18 6 19 7 4 8 3 9 1 10 2 11 5 13
REMARK SMILES IDX 6 14 7 15 8 16 9 17 17 18 10 19 12 20 11 21 13 22 16 23
REMARK SMILES IDX 14 24 15 25 25 26 26 27 27 28 28 29 29 30 30 31 31 32 32 33
REMARK SMILES IDX 33 34 85 35 34 36 84 37 35 38 36 39 37 40 78 41 38 42 83 43
REMARK SMILES IDX 77 44 79 45 39 46 82 47 76 48 75 49 40 51 66 52 49 53 65 54
REMARK SMILES IDX 50 55 53 56 64 57 80 58 51 59 52 60 63 62 81 63 54 64 41 65
REMARK SMILES IDX 42 66 47 67 43 68 44 69 46 70 48 71 45 72 67 73 68 74 73 75
REMARK SMILES IDX 69 76 70 77 72 78 74 79 71 80 55 81 56 82 61 83 57 84 58 85
REMARK SMILES IDX 60 86 62 87 59 88
REMARK H PARENT 3 12 79 50 53 61
REMARK Flexibility Score: inf
ROOT
ATOM      1  C   UNL A   1      42.222  19.385  26.213  1.00  0.00     0.188 C 
ENDROOT
BRANCH   1   2
ATOM      2  O   UNL A   1      41.115  19.847  25.371  1.00  0.00    -0.376 OA
BRANCH   2   3
ATOM      3  C   UNL A   1      39.687  20.270  25.786  1.00  0.00     0.202 C 
BRANCH   3   4
ATOM      4  C   UNL A   1      37.818  19.725  24.944  1.00  0.00     0.261 C 
BRANCH   4   5
ATOM      5  O   UNL A   1      36.242  20.530  25.331  1.00  0.00    -0.462 OA
BRANCH   5   6
ATOM      6  C   UNL A   1      34.857  20.495  24.901  1.00  0.00     0.328 C 
ATOM      7  O   UNL A   1      34.184  19.524  24.531  1.00  0.00    -0.250 OA
BRANCH   6   8
ATOM      8  C   UNL A   1      34.045  21.770  25.055  1.00  0.00     0.192 C 
BRANCH   8   9
ATOM      9  N   UNL A   1      33.239  21.711  26.299  1.00  0.00    -0.345 N 
ATOM     10  O   UNL A   1      32.568  22.497  28.319  1.00  0.00    -0.279 OA
ATOM     11  C   UNL A   1      33.424  22.425  27.445  1.00  0.00     0.337 C 
ATOM     12  H   UNL A   1      32.481  21.083  26.298  1.00  0.00     0.164 HD
ENDBRANCH   8   9
BRANCH   8  13
ATOM     13  C   UNL A   1      34.951  22.969  25.008  1.00  0.00     0.048 C 
BRANCH  13  14
ATOM     14  C   UNL A   1      34.439  24.130  24.142  1.00  0.00     0.072 C 
BRANCH  14  15
ATOM     15  S   UNL A   1      32.659  24.553  24.269  1.00  0.00    -0.158 SA
BRANCH  15  16
ATOM     16  C   UNL A   1      32.304  26.331  23.470  1.00  0.00     0.052 C 
ATOM     17  C   UNL A   1      33.089  27.353  24.930  1.00  0.00     0.043 C 
ATOM     18  C   UNL A   1      30.940  27.398  22.352  1.00  0.00     0.052 C 
ATOM     19  C   UNL A   1      32.158  28.909  25.468  1.00  0.00     0.162 C 
ATOM     20  C   UNL A   1      30.205  29.018  23.132  1.00  0.00     0.095 C 
ATOM     21  O   UNL A   1      31.070  29.705  24.408  1.00  0.00    -0.372 OA
ATOM     22  C   UNL A   1      28.716  28.909  23.582  1.00  0.00     0.066 C 
ATOM     23  C   UNL A   1      29.948  30.061  22.007  1.00  0.00     0.195 C 
ATOM     24  C   UNL A   1      27.952  28.900  22.287  1.00  0.00     0.163 C 
ATOM     25  O   UNL A   1      28.704  29.702  21.376  1.00  0.00    -0.378 OA
ENDBRANCH  15  16
ENDBRANCH  14  15
ENDBRANCH  13  14
ENDBRANCH   8  13
ENDBRANCH   6   8
ENDBRANCH   5   6
ENDBRANCH   4   5
ENDBRANCH   3   4
ENDBRANCH   2   3
ENDBRANCH   1   2
BRANCH   1  26
ATOM     26  C   UNL A   1      43.435  18.875  25.348  1.00  0.00     0.188 C 
BRANCH  26  27
ATOM     27  O   UNL A   1      44.713  19.429  25.615  1.00  0.00    -0.376 OA
BRANCH  27  28
ATOM     28  C   UNL A   1      45.024  20.644  24.958  1.00  0.00     0.202 C 
BRANCH  28  29
ATOM     29  C   UNL A   1      45.245  21.867  25.856  1.00  0.00     0.261 C 
BRANCH  29  30
ATOM     30  O   UNL A   1      44.092  22.725  26.003  1.00  0.00    -0.460 OA
BRANCH  30  31
ATOM     31  C   UNL A   1      44.156  23.925  25.368  1.00  0.00     0.338 C 
ATOM     32  O   UNL A   1      44.680  24.162  24.294  1.00  0.00    -0.246 OA
BRANCH  31  33
ATOM     33  C   UNL A   1      43.325  24.920  26.089  1.00  0.00     0.060 A 
ATOM     34  C   UNL A   1      43.745  26.260  26.159  1.00  0.00     0.016 A 
ATOM     35  C   UNL A   1      42.189  24.504  26.780  1.00  0.00     0.016 A 
ATOM     36  C   UNL A   1      43.061  27.172  26.961  1.00  0.00     0.010 A 
ATOM     37  C   UNL A   1      41.524  25.410  27.613  1.00  0.00     0.010 A 
ATOM     38  C   UNL A   1      41.990  26.731  27.745  1.00  0.00    -0.014 A 
BRANCH  38  39
ATOM     39  C   UNL A   1      41.537  27.570  28.881  1.00  0.00     0.031 A 
ATOM     40  C   UNL A   1      42.307  27.485  30.172  1.00  0.00     0.074 A 
ATOM     41  C   UNL A   1      40.501  28.416  28.762  1.00  0.00     0.049 A 
ATOM     42  N   UNL A   1      42.089  28.082  31.316  1.00  0.00    -0.248 NA
ATOM     43  C   UNL A   1      43.485  26.600  30.172  1.00  0.00     0.031 C 
ATOM     44  C   UNL A   1      39.716  28.627  27.549  1.00  0.00     0.029 A 
ATOM     45  N   UNL A   1      39.930  29.252  29.687  1.00  0.00    -0.354 N 
ATOM     46  C   UNL A   1      43.093  27.638  32.169  1.00  0.00     0.074 A 
ATOM     47  C   UNL A   1      43.897  26.694  31.426  1.00  0.00     0.031 C 
ATOM     48  C   UNL A   1      38.754  29.529  27.807  1.00  0.00     0.029 A 
ATOM     49  C   UNL A   1      38.838  29.933  29.210  1.00  0.00     0.049 A 
ATOM     50  H   UNL A   1      40.271  29.355  30.605  1.00  0.00     0.167 HD
ATOM     51  C   UNL A   1      43.330  27.993  33.454  1.00  0.00     0.037 A 
ATOM     52  C   UNL A   1      37.994  30.770  29.844  1.00  0.00     0.037 A 
ATOM     53  C   UNL A   1      42.522  28.929  34.192  1.00  0.00     0.049 A 
ATOM     54  C   UNL A   1      38.234  31.092  31.298  1.00  0.00     0.074 A 
ATOM     55  C   UNL A   1      42.674  29.361  35.497  1.00  0.00     0.029 A 
ATOM     56  N   UNL A   1      41.402  29.572  33.685  1.00  0.00    -0.354 N 
ATOM     57  N   UNL A   1      39.188  30.676  32.096  1.00  0.00    -0.248 NA
ATOM     58  C   UNL A   1      37.278  32.009  31.935  1.00  0.00     0.031 C 
ATOM     59  C   UNL A   1      41.611  30.218  35.799  1.00  0.00     0.029 A 
ATOM     60  C   UNL A   1      40.838  30.379  34.659  1.00  0.00     0.049 A 
ATOM     61  H   UNL A   1      41.059  29.471  32.768  1.00  0.00     0.167 HD
ATOM     62  C   UNL A   1      38.972  31.310  33.315  1.00  0.00     0.074 A 
ATOM     63  C   UNL A   1      37.803  32.149  33.143  1.00  0.00     0.031 C 
ATOM     64  C   UNL A   1      39.675  31.210  34.471  1.00  0.00     0.037 A 
BRANCH  51  65
ATOM     65  C   UNL A   1      44.488  27.334  34.151  1.00  0.00     0.057 A 
ATOM     66  C   UNL A   1      44.334  26.168  34.916  1.00  0.00     0.134 A 
ATOM     67  C   UNL A   1      45.778  27.869  34.048  1.00  0.00     0.134 A 
ATOM     68  F   UNL A   1      43.124  25.611  35.070  1.00  0.00    -0.206 F 
ATOM     69  C   UNL A   1      45.415  25.579  35.575  1.00  0.00     0.040 A 
ATOM     70  C   UNL A   1      46.873  27.270  34.676  1.00  0.00     0.040 A 
ATOM     71  F   UNL A   1      46.001  28.980  33.331  1.00  0.00    -0.206 F 
ATOM     72  C   UNL A   1      46.690  26.126  35.450  1.00  0.00     0.006 A 
ENDBRANCH  51  65
BRANCH  52  73
ATOM     73  C   UNL A   1      36.843  31.364  29.117  1.00  0.00     0.057 A 
ATOM     74  C   UNL A   1      35.706  30.607  28.811  1.00  0.00     0.134 A 
ATOM     75  C   UNL A   1      36.861  32.696  28.687  1.00  0.00     0.134 A 
ATOM     76  F   UNL A   1      35.636  29.317  29.173  1.00  0.00    -0.206 F 
ATOM     77  C   UNL A   1      34.641  31.143  28.084  1.00  0.00     0.040 A 
ATOM     78  C   UNL A   1      35.791  33.255  27.986  1.00  0.00     0.040 A 
ATOM     79  F   UNL A   1      37.921  33.477  28.945  1.00  0.00    -0.206 F 
ATOM     80  C   UNL A   1      34.680  32.474  27.674  1.00  0.00     0.006 A 
ENDBRANCH  52  73
BRANCH  64  81
ATOM     81  C   UNL A   1      39.228  32.071  35.621  1.00  0.00     0.057 A 
ATOM     82  C   UNL A   1      39.644  33.400  35.769  1.00  0.00     0.134 A 
ATOM     83  C   UNL A   1      38.359  31.558  36.595  1.00  0.00     0.134 A 
ATOM     84  F   UNL A   1      40.482  33.953  34.878  1.00  0.00    -0.206 F 
ATOM     85  C   UNL A   1      39.254  34.171  36.866  1.00  0.00     0.040 A 
ATOM     86  C   UNL A   1      37.932  32.331  37.676  1.00  0.00     0.040 A 
ATOM     87  F   UNL A   1      37.905  30.298  36.510  1.00  0.00    -0.206 F 
ATOM     88  C   UNL A   1      38.392  33.637  37.821  1.00  0.00     0.006 A 
ENDBRANCH  64  81
ENDBRANCH  38  39
ENDBRANCH  31  33
ENDBRANCH  30  31
ENDBRANCH  29  30
ENDBRANCH  28  29
ENDBRANCH  27  28
ENDBRANCH  26  27
ENDBRANCH   1  26
TORSDOF 22
ENDMDL
