MODEL 1
REMARK VINA RESULT:     -10.5      0.000      0.000
REMARK SMILES Cc1ccc2c(C[NH2+][C@H]3CCC[C@@H](C)[C@@H]3C)c(C(=O)OCCOCCOCCOC(=O)c3ccc(-c4c5nc(c(-c6c(F)cccc6F)c6ccc([nH]6)c(-c6c(F)cccc6F)c6nc(c(-c7c(F)cccc7F)c7ccc4[nH]7)C=C6)C=C5)cc3)n(C)c2c1
REMARK SMILES IDX 24 1 23 2 22 3 21 4 20 5 18 6 19 7 17 8 1 9 2 10 3 11 89 12
REMARK SMILES IDX 4 13 88 14 5 15 86 16 6 17 87 18 7 19 8 20 9 23 10 24 15 25
REMARK SMILES IDX 11 26 13 27 16 28 12 29 14 30 25 31 26 32 27 33 28 34 29 35
REMARK SMILES IDX 30 36 31 37 32 38 33 39 85 40 34 41 84 42 35 43 36 44 37 45
REMARK SMILES IDX 78 46 38 47 83 48 77 49 79 50 39 51 82 52 76 53 75 54 40 56
REMARK SMILES IDX 66 57 49 58 65 59 50 60 53 61 64 62 80 63 51 64 52 65 63 67
REMARK SMILES IDX 81 68 54 69 41 70 42 71 47 72 43 73 44 74 46 75 48 76 45 77
REMARK SMILES IDX 67 78 68 79 73 80 69 81 70 82 72 83 74 84 71 85 55 86 56 87
REMARK SMILES IDX 61 88 57 89 58 90 60 91 62 92 59 93
REMARK H PARENT 8 21 8 22 79 55 53 66
REMARK Flexibility Score: inf
ROOT
ATOM      1  C   UNL A   1      36.037  22.378  24.682  1.00  0.00     0.188 C 
ENDROOT
BRANCH   1   2
ATOM      2  O   UNL A   1      34.699  21.894  24.633  1.00  0.00    -0.376 OA
BRANCH   2   3
ATOM      3  C   UNL A   1      34.115  21.547  25.888  1.00  0.00     0.202 C 
BRANCH   3   4
ATOM      4  C   UNL A   1      33.528  22.731  26.661  1.00  0.00     0.261 C 
BRANCH   4   5
ATOM      5  O   UNL A   1      32.116  22.834  26.388  1.00  0.00    -0.459 OA
BRANCH   5   6
ATOM      6  C   UNL A   1      31.781  23.555  25.287  1.00  0.00     0.355 C 
ATOM      7  O   UNL A   1      31.364  23.070  24.240  1.00  0.00    -0.244 OA
BRANCH   6   8
ATOM      8  C   UNL A   1      31.965  24.968  25.520  1.00  0.00     0.137 A 
ATOM      9  C   UNL A   1      35.033  29.735  27.400  1.00  0.00     0.044 C 
ATOM     10  C   UNL A   1      33.865  28.874  27.011  1.00  0.00    -0.049 A 
ATOM     11  C   UNL A   1      32.587  29.056  27.540  1.00  0.00     0.004 A 
ATOM     12  C   UNL A   1      34.089  27.825  26.120  1.00  0.00     0.030 A 
ATOM     13  C   UNL A   1      31.530  28.177  27.226  1.00  0.00     0.011 A 
ATOM     14  C   UNL A   1      33.057  26.899  25.899  1.00  0.00     0.049 A 
ATOM     15  C   UNL A   1      31.787  27.033  26.447  1.00  0.00     0.009 A 
ATOM     16  N   UNL A   1      33.017  25.753  25.138  1.00  0.00    -0.338 N 
ATOM     17  C   UNL A   1      31.038  25.913  25.960  1.00  0.00     0.047 A 
ATOM     18  C   UNL A   1      33.976  25.420  24.127  1.00  0.00     0.150 C 
BRANCH  17  19
ATOM     19  C   UNL A   1      29.573  25.780  25.726  1.00  0.00     0.300 C 
BRANCH  19  20
ATOM     20  N   UNL A   1      29.532  25.556  24.277  1.00  0.00    -0.340 N 
ATOM     21  H   UNL A   1      29.092  24.650  24.118  1.00  0.00     0.346 HD
ATOM     22  H   UNL A   1      30.504  25.623  23.972  1.00  0.00     0.346 HD
BRANCH  20  23
ATOM     23  C   UNL A   1      28.820  26.535  23.473  1.00  0.00     0.185 C 
ATOM     24  C   UNL A   1      27.522  26.880  24.223  1.00  0.00     0.065 C 
ATOM     25  C   UNL A   1      29.700  27.808  23.306  1.00  0.00     0.047 C 
ATOM     26  C   UNL A   1      26.733  27.949  23.489  1.00  0.00     0.006 C 
ATOM     27  C   UNL A   1      28.904  28.962  22.636  1.00  0.00    -0.006 C 
ATOM     28  C   UNL A   1      30.974  27.497  22.504  1.00  0.00     0.014 C 
ATOM     29  C   UNL A   1      27.560  29.217  23.335  1.00  0.00     0.004 C 
ATOM     30  C   UNL A   1      29.694  30.277  22.607  1.00  0.00     0.008 C 
ENDBRANCH  20  23
ENDBRANCH  19  20
ENDBRANCH  17  19
ENDBRANCH   6   8
ENDBRANCH   5   6
ENDBRANCH   4   5
ENDBRANCH   3   4
ENDBRANCH   2   3
ENDBRANCH   1   2
BRANCH   1  31
ATOM     31  C   UNL A   1      37.132  21.355  24.326  1.00  0.00     0.188 C 
BRANCH  31  32
ATOM     32  O   UNL A   1      37.814  20.766  25.429  1.00  0.00    -0.376 OA
BRANCH  32  33
ATOM     33  C   UNL A   1      38.758  19.745  25.104  1.00  0.00     0.202 C 
BRANCH  33  34
ATOM     34  C   UNL A   1      40.022  19.727  25.979  1.00  0.00     0.261 C 
BRANCH  34  35
ATOM     35  O   UNL A   1      39.968  20.785  26.963  1.00  0.00    -0.460 OA
BRANCH  35  36
ATOM     36  C   UNL A   1      41.160  21.168  27.482  1.00  0.00     0.338 C 
ATOM     37  O   UNL A   1      42.178  20.496  27.514  1.00  0.00    -0.246 OA
BRANCH  36  38
ATOM     38  C   UNL A   1      41.120  22.623  27.813  1.00  0.00     0.060 A 
ATOM     39  C   UNL A   1      40.029  23.451  27.514  1.00  0.00     0.016 A 
ATOM     40  C   UNL A   1      42.264  23.191  28.386  1.00  0.00     0.016 A 
ATOM     41  C   UNL A   1      40.113  24.841  27.719  1.00  0.00     0.010 A 
ATOM     42  C   UNL A   1      42.340  24.574  28.606  1.00  0.00     0.010 A 
ATOM     43  C   UNL A   1      41.286  25.423  28.227  1.00  0.00    -0.014 A 
BRANCH  43  44
ATOM     44  C   UNL A   1      41.358  26.870  28.535  1.00  0.00     0.031 A 
ATOM     45  C   UNL A   1      42.551  27.505  27.972  1.00  0.00     0.074 A 
ATOM     46  C   UNL A   1      40.561  27.702  29.259  1.00  0.00     0.049 A 
ATOM     47  N   UNL A   1      43.572  27.830  28.690  1.00  0.00    -0.248 NA
ATOM     48  C   UNL A   1      42.685  27.752  26.538  1.00  0.00     0.031 C 
ATOM     49  C   UNL A   1      39.418  27.347  30.071  1.00  0.00     0.029 A 
ATOM     50  N   UNL A   1      40.576  29.083  29.401  1.00  0.00    -0.354 N 
ATOM     51  C   UNL A   1      44.360  28.584  27.856  1.00  0.00     0.074 A 
ATOM     52  C   UNL A   1      43.869  28.369  26.511  1.00  0.00     0.031 C 
ATOM     53  C   UNL A   1      38.672  28.426  30.381  1.00  0.00     0.029 A 
ATOM     54  C   UNL A   1      39.418  29.605  29.984  1.00  0.00     0.049 A 
ATOM     55  H   UNL A   1      41.333  29.644  29.116  1.00  0.00     0.167 HD
ATOM     56  C   UNL A   1      45.132  29.569  28.373  1.00  0.00     0.037 A 
ATOM     57  C   UNL A   1      39.106  30.860  30.396  1.00  0.00     0.037 A 
ATOM     58  C   UNL A   1      45.225  29.543  29.810  1.00  0.00     0.049 A 
ATOM     59  C   UNL A   1      40.326  31.395  31.032  1.00  0.00     0.074 A 
ATOM     60  C   UNL A   1      45.921  28.846  30.774  1.00  0.00     0.029 A 
ATOM     61  N   UNL A   1      44.214  30.197  30.455  1.00  0.00    -0.354 N 
ATOM     62  N   UNL A   1      40.775  30.986  32.187  1.00  0.00    -0.248 NA
ATOM     63  C   UNL A   1      41.200  32.307  30.302  1.00  0.00     0.031 C 
ATOM     64  C   UNL A   1      45.270  29.088  32.024  1.00  0.00     0.029 A 
ATOM     65  C   UNL A   1      44.182  29.919  31.799  1.00  0.00     0.049 A 
ATOM     66  H   UNL A   1      43.578  30.800  30.005  1.00  0.00     0.167 HD
ATOM     67  C   UNL A   1      42.130  31.214  32.105  1.00  0.00     0.074 A 
ATOM     68  C   UNL A   1      42.299  32.203  31.051  1.00  0.00     0.031 C 
ATOM     69  C   UNL A   1      43.012  30.284  32.564  1.00  0.00     0.037 A 
BRANCH  56  70
ATOM     70  C   UNL A   1      45.410  30.820  27.609  1.00  0.00     0.057 A 
ATOM     71  C   UNL A   1      44.432  31.814  27.406  1.00  0.00     0.134 A 
ATOM     72  C   UNL A   1      46.726  31.163  27.286  1.00  0.00     0.134 A 
ATOM     73  F   UNL A   1      43.169  31.650  27.832  1.00  0.00    -0.206 F 
ATOM     74  C   UNL A   1      44.732  33.050  26.840  1.00  0.00     0.040 A 
ATOM     75  C   UNL A   1      47.047  32.418  26.764  1.00  0.00     0.040 A 
ATOM     76  F   UNL A   1      47.730  30.306  27.516  1.00  0.00    -0.206 F 
ATOM     77  C   UNL A   1      46.048  33.361  26.527  1.00  0.00     0.006 A 
ENDBRANCH  56  70
BRANCH  57  78
ATOM     78  C   UNL A   1      37.781  31.482  30.649  1.00  0.00     0.057 A 
ATOM     79  C   UNL A   1      37.095  31.250  31.852  1.00  0.00     0.134 A 
ATOM     80  C   UNL A   1      37.039  32.118  29.641  1.00  0.00     0.134 A 
ATOM     81  F   UNL A   1      37.683  30.582  32.853  1.00  0.00    -0.206 F 
ATOM     82  C   UNL A   1      35.757  31.621  32.044  1.00  0.00     0.040 A 
ATOM     83  C   UNL A   1      35.699  32.489  29.815  1.00  0.00     0.040 A 
ATOM     84  F   UNL A   1      37.567  32.339  28.429  1.00  0.00    -0.206 F 
ATOM     85  C   UNL A   1      35.050  32.233  31.016  1.00  0.00     0.006 A 
ENDBRANCH  57  78
BRANCH  69  86
ATOM     86  C   UNL A   1      42.621  29.503  33.776  1.00  0.00     0.057 A 
ATOM     87  C   UNL A   1      42.034  28.244  33.595  1.00  0.00     0.134 A 
ATOM     88  C   UNL A   1      42.802  29.936  35.096  1.00  0.00     0.134 A 
ATOM     89  F   UNL A   1      41.808  27.776  32.357  1.00  0.00    -0.206 F 
ATOM     90  C   UNL A   1      41.660  27.440  34.674  1.00  0.00     0.040 A 
ATOM     91  C   UNL A   1      42.457  29.129  36.186  1.00  0.00     0.040 A 
ATOM     92  F   UNL A   1      43.295  31.153  35.364  1.00  0.00    -0.206 F 
ATOM     93  C   UNL A   1      41.883  27.877  35.977  1.00  0.00     0.006 A 
ENDBRANCH  69  86
ENDBRANCH  43  44
ENDBRANCH  36  38
ENDBRANCH  35  36
ENDBRANCH  34  35
ENDBRANCH  33  34
ENDBRANCH  32  33
ENDBRANCH  31  32
ENDBRANCH   1  31
TORSDOF 20
ENDMDL
MODEL 2
REMARK VINA RESULT:     -10.5      3.434      7.747
REMARK SMILES Cc1ccc2c(C[NH2+][C@H]3CCC[C@@H](C)[C@@H]3C)c(C(=O)OCCOCCOCCOC(=O)c3ccc(-c4c5nc(c(-c6c(F)cccc6F)c6ccc([nH]6)c(-c6c(F)cccc6F)c6nc(c(-c7c(F)cccc7F)c7ccc4[nH]7)C=C6)C=C5)cc3)n(C)c2c1
REMARK SMILES IDX 24 1 23 2 22 3 21 4 20 5 18 6 19 7 17 8 1 9 2 10 3 11 89 12
REMARK SMILES IDX 4 13 88 14 5 15 86 16 6 17 87 18 7 19 8 20 9 23 10 24 15 25
REMARK SMILES IDX 11 26 13 27 16 28 12 29 14 30 25 31 26 32 27 33 28 34 29 35
REMARK SMILES IDX 30 36 31 37 32 38 33 39 85 40 34 41 84 42 35 43 36 44 37 45
REMARK SMILES IDX 78 46 38 47 83 48 77 49 79 50 39 51 82 52 76 53 75 54 40 56
REMARK SMILES IDX 66 57 49 58 65 59 50 60 53 61 64 62 80 63 51 64 52 65 63 67
REMARK SMILES IDX 81 68 54 69 41 70 42 71 47 72 43 73 44 74 46 75 48 76 45 77
REMARK SMILES IDX 67 78 68 79 73 80 69 81 70 82 72 83 74 84 71 85 55 86 56 87
REMARK SMILES IDX 61 88 57 89 58 90 60 91 62 92 59 93
REMARK H PARENT 8 21 8 22 79 55 53 66
REMARK Flexibility Score: inf
ROOT
ATOM      1  C   UNL A   1      31.798  29.570  25.861  1.00  0.00     0.188 C 
ENDROOT
BRANCH   1   2
ATOM      2  O   UNL A   1      31.622  29.389  24.460  1.00  0.00    -0.376 OA
BRANCH   2   3
ATOM      3  C   UNL A   1      30.606  28.464  24.072  1.00  0.00     0.202 C 
BRANCH   3   4
ATOM      4  C   UNL A   1      30.887  27.730  22.758  1.00  0.00     0.261 C 
BRANCH   4   5
ATOM      5  O   UNL A   1      31.656  26.540  23.025  1.00  0.00    -0.459 OA
BRANCH   5   6
ATOM      6  C   UNL A   1      32.967  26.596  22.676  1.00  0.00     0.355 C 
ATOM      7  O   UNL A   1      33.453  27.447  21.938  1.00  0.00    -0.244 OA
BRANCH   6   8
ATOM      8  C   UNL A   1      33.713  25.533  23.304  1.00  0.00     0.137 A 
ATOM      9  C   UNL A   1      38.388  23.293  26.272  1.00  0.00     0.044 C 
ATOM     10  C   UNL A   1      37.178  23.349  25.383  1.00  0.00    -0.049 A 
ATOM     11  C   UNL A   1      36.970  22.449  24.337  1.00  0.00     0.004 A 
ATOM     12  C   UNL A   1      36.256  24.375  25.591  1.00  0.00     0.030 A 
ATOM     13  C   UNL A   1      35.872  22.580  23.462  1.00  0.00     0.011 A 
ATOM     14  C   UNL A   1      35.229  24.555  24.651  1.00  0.00     0.049 A 
ATOM     15  C   UNL A   1      35.024  23.698  23.576  1.00  0.00     0.009 A 
ATOM     16  N   UNL A   1      34.235  25.504  24.567  1.00  0.00    -0.338 N 
ATOM     17  C   UNL A   1      33.875  24.210  22.890  1.00  0.00     0.047 A 
ATOM     18  C   UNL A   1      33.848  26.365  25.644  1.00  0.00     0.150 C 
BRANCH  17  19
ATOM     19  C   UNL A   1      32.869  23.493  22.057  1.00  0.00     0.300 C 
BRANCH  19  20
ATOM     20  N   UNL A   1      31.770  23.327  23.015  1.00  0.00    -0.340 N 
ATOM     21  H   UNL A   1      30.897  23.360  22.488  1.00  0.00     0.346 HD
ATOM     22  H   UNL A   1      31.894  24.081  23.691  1.00  0.00     0.346 HD
BRANCH  20  23
ATOM     23  C   UNL A   1      31.759  22.109  23.808  1.00  0.00     0.185 C 
ATOM     24  C   UNL A   1      32.442  21.016  22.970  1.00  0.00     0.065 C 
ATOM     25  C   UNL A   1      32.544  22.345  25.131  1.00  0.00     0.047 C 
ATOM     26  C   UNL A   1      32.536  19.713  23.743  1.00  0.00     0.006 C 
ATOM     27  C   UNL A   1      32.741  21.019  25.915  1.00  0.00    -0.006 C 
ATOM     28  C   UNL A   1      31.842  23.391  26.011  1.00  0.00     0.014 C 
ATOM     29  C   UNL A   1      33.324  19.907  25.030  1.00  0.00     0.004 C 
ATOM     30  C   UNL A   1      33.651  21.193  27.139  1.00  0.00     0.008 C 
ENDBRANCH  20  23
ENDBRANCH  19  20
ENDBRANCH  17  19
ENDBRANCH   6   8
ENDBRANCH   5   6
ENDBRANCH   4   5
ENDBRANCH   3   4
ENDBRANCH   2   3
ENDBRANCH   1   2
BRANCH   1  31
ATOM     31  C   UNL A   1      32.590  30.822  26.281  1.00  0.00     0.188 C 
BRANCH  31  32
ATOM     32  O   UNL A   1      33.317  30.717  27.501  1.00  0.00    -0.376 OA
BRANCH  32  33
ATOM     33  C   UNL A   1      33.933  31.919  27.964  1.00  0.00     0.202 C 
BRANCH  33  34
ATOM     34  C   UNL A   1      35.062  31.718  28.988  1.00  0.00     0.261 C 
BRANCH  34  35
ATOM     35  O   UNL A   1      35.875  30.580  28.623  1.00  0.00    -0.460 OA
BRANCH  35  36
ATOM     36  C   UNL A   1      36.299  29.804  29.651  1.00  0.00     0.338 C 
ATOM     37  O   UNL A   1      35.626  29.443  30.602  1.00  0.00    -0.246 OA
BRANCH  36  38
ATOM     38  C   UNL A   1      37.654  29.259  29.343  1.00  0.00     0.060 A 
ATOM     39  C   UNL A   1      38.368  28.431  30.220  1.00  0.00     0.016 A 
ATOM     40  C   UNL A   1      38.260  29.662  28.147  1.00  0.00     0.016 A 
ATOM     41  C   UNL A   1      39.699  28.071  29.934  1.00  0.00     0.010 A 
ATOM     42  C   UNL A   1      39.580  29.289  27.855  1.00  0.00     0.010 A 
ATOM     43  C   UNL A   1      40.334  28.533  28.769  1.00  0.00    -0.014 A 
BRANCH  43  44
ATOM     44  C   UNL A   1      41.701  28.090  28.408  1.00  0.00     0.031 A 
ATOM     45  C   UNL A   1      41.709  26.795  27.725  1.00  0.00     0.074 A 
ATOM     46  C   UNL A   1      42.932  28.627  28.618  1.00  0.00     0.049 A 
ATOM     47  N   UNL A   1      42.069  25.701  28.308  1.00  0.00    -0.248 NA
ATOM     48  C   UNL A   1      41.244  26.652  26.347  1.00  0.00     0.031 C 
ATOM     49  C   UNL A   1      43.265  29.795  29.404  1.00  0.00     0.029 A 
ATOM     50  N   UNL A   1      44.181  28.262  28.133  1.00  0.00    -0.354 N 
ATOM     51  C   UNL A   1      42.154  24.778  27.295  1.00  0.00     0.074 A 
ATOM     52  C   UNL A   1      41.480  25.352  26.149  1.00  0.00     0.031 C 
ATOM     53  C   UNL A   1      44.512  30.236  29.139  1.00  0.00     0.029 A 
ATOM     54  C   UNL A   1      45.169  29.232  28.325  1.00  0.00     0.049 A 
ATOM     55  H   UNL A   1      44.355  27.399  27.694  1.00  0.00     0.167 HD
ATOM     56  C   UNL A   1      43.050  23.767  27.385  1.00  0.00     0.037 A 
ATOM     57  C   UNL A   1      46.509  29.206  28.109  1.00  0.00     0.037 A 
ATOM     58  C   UNL A   1      43.652  23.636  28.687  1.00  0.00     0.049 A 
ATOM     59  C   UNL A   1      46.965  27.870  28.542  1.00  0.00     0.074 A 
ATOM     60  C   UNL A   1      43.320  23.105  29.914  1.00  0.00     0.029 A 
ATOM     61  N   UNL A   1      44.747  24.429  28.887  1.00  0.00    -0.354 N 
ATOM     62  N   UNL A   1      47.026  27.499  29.792  1.00  0.00    -0.248 NA
ATOM     63  C   UNL A   1      47.212  26.820  27.560  1.00  0.00     0.031 C 
ATOM     64  C   UNL A   1      44.247  23.633  30.867  1.00  0.00     0.029 A 
ATOM     65  C   UNL A   1      45.121  24.484  30.206  1.00  0.00     0.049 A 
ATOM     66  H   UNL A   1      45.215  24.907  28.164  1.00  0.00     0.167 HD
ATOM     67  C   UNL A   1      46.862  26.134  29.732  1.00  0.00     0.074 A 
ATOM     68  C   UNL A   1      47.198  25.758  28.367  1.00  0.00     0.031 C 
ATOM     69  C   UNL A   1      46.058  25.499  30.628  1.00  0.00     0.037 A 
BRANCH  56  70
ATOM     70  C   UNL A   1      43.715  23.210  26.172  1.00  0.00     0.057 A 
ATOM     71  C   UNL A   1      44.618  23.961  25.393  1.00  0.00     0.134 A 
ATOM     72  C   UNL A   1      43.660  21.837  25.913  1.00  0.00     0.134 A 
ATOM     73  F   UNL A   1      44.870  25.252  25.666  1.00  0.00    -0.206 F 
ATOM     74  C   UNL A   1      45.364  23.396  24.362  1.00  0.00     0.040 A 
ATOM     75  C   UNL A   1      44.441  21.250  24.915  1.00  0.00     0.040 A 
ATOM     76  F   UNL A   1      42.884  21.034  26.654  1.00  0.00    -0.206 F 
ATOM     77  C   UNL A   1      45.285  22.030  24.127  1.00  0.00     0.006 A 
ENDBRANCH  56  70
BRANCH  57  78
ATOM     78  C   UNL A   1      47.474  30.324  27.948  1.00  0.00     0.057 A 
ATOM     79  C   UNL A   1      48.385  30.642  28.968  1.00  0.00     0.134 A 
ATOM     80  C   UNL A   1      47.379  31.260  26.906  1.00  0.00     0.134 A 
ATOM     81  F   UNL A   1      48.499  29.857  30.048  1.00  0.00    -0.206 F 
ATOM     82  C   UNL A   1      49.149  31.816  28.960  1.00  0.00     0.040 A 
ATOM     83  C   UNL A   1      48.132  32.441  26.887  1.00  0.00     0.040 A 
ATOM     84  F   UNL A   1      46.501  31.095  25.906  1.00  0.00    -0.206 F 
ATOM     85  C   UNL A   1      49.015  32.728  27.921  1.00  0.00     0.006 A 
ENDBRANCH  57  78
BRANCH  69  86
ATOM     86  C   UNL A   1      46.025  26.033  32.023  1.00  0.00     0.057 A 
ATOM     87  C   UNL A   1      47.107  25.755  32.867  1.00  0.00     0.134 A 
ATOM     88  C   UNL A   1      44.983  26.803  32.557  1.00  0.00     0.134 A 
ATOM     89  F   UNL A   1      48.128  25.001  32.430  1.00  0.00    -0.206 F 
ATOM     90  C   UNL A   1      47.166  26.235  34.178  1.00  0.00     0.040 A 
ATOM     91  C   UNL A   1      45.042  27.314  33.859  1.00  0.00     0.040 A 
ATOM     92  F   UNL A   1      43.879  27.064  31.844  1.00  0.00    -0.206 F 
ATOM     93  C   UNL A   1      46.135  27.029  34.674  1.00  0.00     0.006 A 
ENDBRANCH  69  86
ENDBRANCH  43  44
ENDBRANCH  36  38
ENDBRANCH  35  36
ENDBRANCH  34  35
ENDBRANCH  33  34
ENDBRANCH  32  33
ENDBRANCH  31  32
ENDBRANCH   1  31
TORSDOF 20
ENDMDL
MODEL 3
REMARK VINA RESULT:     -10.4      1.344      2.159
REMARK SMILES Cc1ccc2c(C[NH2+][C@H]3CCC[C@@H](C)[C@@H]3C)c(C(=O)OCCOCCOCCOC(=O)c3ccc(-c4c5nc(c(-c6c(F)cccc6F)c6ccc([nH]6)c(-c6c(F)cccc6F)c6nc(c(-c7c(F)cccc7F)c7ccc4[nH]7)C=C6)C=C5)cc3)n(C)c2c1
REMARK SMILES IDX 24 1 23 2 22 3 21 4 20 5 18 6 19 7 17 8 1 9 2 10 3 11 89 12
REMARK SMILES IDX 4 13 88 14 5 15 86 16 6 17 87 18 7 19 8 20 9 23 10 24 15 25
REMARK SMILES IDX 11 26 13 27 16 28 12 29 14 30 25 31 26 32 27 33 28 34 29 35
REMARK SMILES IDX 30 36 31 37 32 38 33 39 85 40 34 41 84 42 35 43 36 44 37 45
REMARK SMILES IDX 78 46 38 47 83 48 77 49 79 50 39 51 82 52 76 53 75 54 40 56
REMARK SMILES IDX 66 57 49 58 65 59 50 60 53 61 64 62 80 63 51 64 52 65 63 67
REMARK SMILES IDX 81 68 54 69 41 70 42 71 47 72 43 73 44 74 46 75 48 76 45 77
REMARK SMILES IDX 67 78 68 79 73 80 69 81 70 82 72 83 74 84 71 85 55 86 56 87
REMARK SMILES IDX 61 88 57 89 58 90 60 91 62 92 59 93
REMARK H PARENT 8 21 8 22 79 55 53 66
REMARK Flexibility Score: inf
ROOT
ATOM      1  C   UNL A   1      34.440  23.112  25.574  1.00  0.00     0.188 C 
ENDROOT
BRANCH   1   2
ATOM      2  O   UNL A   1      33.943  23.337  24.259  1.00  0.00    -0.376 OA
BRANCH   2   3
ATOM      3  C   UNL A   1      32.525  23.455  24.140  1.00  0.00     0.202 C 
BRANCH   3   4
ATOM      4  C   UNL A   1      32.035  23.800  22.731  1.00  0.00     0.261 C 
BRANCH   4   5
ATOM      5  O   UNL A   1      32.772  24.932  22.227  1.00  0.00    -0.459 OA
BRANCH   5   6
ATOM      6  C   UNL A   1      32.035  26.042  21.961  1.00  0.00     0.355 C 
ATOM      7  O   UNL A   1      31.391  26.216  20.931  1.00  0.00    -0.244 OA
BRANCH   6   8
ATOM      8  C   UNL A   1      32.098  26.977  23.058  1.00  0.00     0.137 A 
ATOM      9  C   UNL A   1      34.772  29.630  27.693  1.00  0.00     0.044 C 
ATOM     10  C   UNL A   1      33.676  29.132  26.794  1.00  0.00    -0.049 A 
ATOM     11  C   UNL A   1      32.399  28.823  27.263  1.00  0.00     0.004 A 
ATOM     12  C   UNL A   1      33.973  28.931  25.446  1.00  0.00     0.030 A 
ATOM     13  C   UNL A   1      31.418  28.273  26.413  1.00  0.00     0.011 A 
ATOM     14  C   UNL A   1      33.023  28.287  24.638  1.00  0.00     0.049 A 
ATOM     15  C   UNL A   1      31.758  27.930  25.091  1.00  0.00     0.009 A 
ATOM     16  N   UNL A   1      33.067  27.906  23.316  1.00  0.00    -0.338 N 
ATOM     17  C   UNL A   1      31.100  27.334  23.966  1.00  0.00     0.047 A 
ATOM     18  C   UNL A   1      34.029  28.386  22.369  1.00  0.00     0.150 C 
BRANCH  17  19
ATOM     19  C   UNL A   1      29.648  27.264  23.643  1.00  0.00     0.300 C 
BRANCH  19  20
ATOM     20  N   UNL A   1      29.210  28.619  23.998  1.00  0.00    -0.340 N 
ATOM     21  H   UNL A   1      29.765  28.921  24.798  1.00  0.00     0.346 HD
ATOM     22  H   UNL A   1      28.208  28.534  24.175  1.00  0.00     0.346 HD
BRANCH  20  23
ATOM     23  C   UNL A   1      29.324  29.643  22.972  1.00  0.00     0.185 C 
ATOM     24  C   UNL A   1      28.191  29.402  21.961  1.00  0.00     0.065 C 
ATOM     25  C   UNL A   1      29.175  31.049  23.624  1.00  0.00     0.047 C 
ATOM     26  C   UNL A   1      28.188  30.465  20.879  1.00  0.00     0.006 C 
ATOM     27  C   UNL A   1      29.079  32.164  22.548  1.00  0.00    -0.006 C 
ATOM     28  C   UNL A   1      30.334  31.333  24.593  1.00  0.00     0.014 C 
ATOM     29  C   UNL A   1      28.015  31.850  21.486  1.00  0.00     0.004 C 
ATOM     30  C   UNL A   1      28.768  33.538  23.155  1.00  0.00     0.008 C 
ENDBRANCH  20  23
ENDBRANCH  19  20
ENDBRANCH  17  19
ENDBRANCH   6   8
ENDBRANCH   5   6
ENDBRANCH   4   5
ENDBRANCH   3   4
ENDBRANCH   2   3
ENDBRANCH   1   2
BRANCH   1  31
ATOM     31  C   UNL A   1      34.854  21.663  25.894  1.00  0.00     0.188 C 
BRANCH  31  32
ATOM     32  O   UNL A   1      35.380  20.913  24.804  1.00  0.00    -0.376 OA
BRANCH  32  33
ATOM     33  C   UNL A   1      36.685  20.365  24.997  1.00  0.00     0.202 C 
BRANCH  33  34
ATOM     34  C   UNL A   1      37.831  21.389  24.962  1.00  0.00     0.261 C 
BRANCH  34  35
ATOM     35  O   UNL A   1      38.257  21.714  26.305  1.00  0.00    -0.460 OA
BRANCH  35  36
ATOM     36  C   UNL A   1      39.597  21.792  26.496  1.00  0.00     0.338 C 
ATOM     37  O   UNL A   1      40.416  20.941  26.189  1.00  0.00    -0.246 OA
BRANCH  36  38
ATOM     38  C   UNL A   1      39.963  23.171  26.933  1.00  0.00     0.060 A 
ATOM     39  C   UNL A   1      41.109  23.461  27.687  1.00  0.00     0.016 A 
ATOM     40  C   UNL A   1      39.072  24.207  26.627  1.00  0.00     0.016 A 
ATOM     41  C   UNL A   1      41.319  24.759  28.190  1.00  0.00     0.010 A 
ATOM     42  C   UNL A   1      39.292  25.503  27.115  1.00  0.00     0.010 A 
ATOM     43  C   UNL A   1      40.390  25.785  27.946  1.00  0.00    -0.014 A 
BRANCH  43  44
ATOM     44  C   UNL A   1      40.642  27.175  28.389  1.00  0.00     0.031 A 
ATOM     45  C   UNL A   1      41.847  27.747  27.786  1.00  0.00     0.074 A 
ATOM     46  C   UNL A   1      40.001  27.997  29.263  1.00  0.00     0.049 A 
ATOM     47  N   UNL A   1      42.952  27.891  28.436  1.00  0.00    -0.248 NA
ATOM     48  C   UNL A   1      41.889  28.135  26.378  1.00  0.00     0.031 C 
ATOM     49  C   UNL A   1      38.896  27.669  30.137  1.00  0.00     0.029 A 
ATOM     50  N   UNL A   1      40.174  29.346  29.541  1.00  0.00    -0.354 N 
ATOM     51  C   UNL A   1      43.745  28.650  27.613  1.00  0.00     0.074 A 
ATOM     52  C   UNL A   1      43.127  28.632  26.304  1.00  0.00     0.031 C 
ATOM     53  C   UNL A   1      38.297  28.776  30.621  1.00  0.00     0.029 A 
ATOM     54  C   UNL A   1      39.130  29.913  30.277  1.00  0.00     0.049 A 
ATOM     55  H   UNL A   1      40.962  29.858  29.245  1.00  0.00     0.167 HD
ATOM     56  C   UNL A   1      44.658  29.493  28.153  1.00  0.00     0.037 A 
ATOM     57  C   UNL A   1      38.989  31.140  30.839  1.00  0.00     0.037 A 
ATOM     58  C   UNL A   1      44.864  29.300  29.566  1.00  0.00     0.049 A 
ATOM     59  C   UNL A   1      40.307  31.480  31.411  1.00  0.00     0.074 A 
ATOM     60  C   UNL A   1      45.557  28.438  30.387  1.00  0.00     0.029 A 
ATOM     61  N   UNL A   1      43.984  29.976  30.363  1.00  0.00    -0.354 N 
ATOM     62  N   UNL A   1      40.802  30.906  32.473  1.00  0.00    -0.248 NA
ATOM     63  C   UNL A   1      41.211  32.376  30.699  1.00  0.00     0.031 C 
ATOM     64  C   UNL A   1      45.039  28.605  31.709  1.00  0.00     0.029 A 
ATOM     65  C   UNL A   1      44.032  29.559  31.669  1.00  0.00     0.049 A 
ATOM     66  H   UNL A   1      43.382  30.684  30.036  1.00  0.00     0.167 HD
ATOM     67  C   UNL A   1      42.162  31.008  32.290  1.00  0.00     0.074 A 
ATOM     68  C   UNL A   1      42.350  32.084  31.330  1.00  0.00     0.031 C 
ATOM     69  C   UNL A   1      42.973  29.950  32.571  1.00  0.00     0.037 A 
BRANCH  56  70
ATOM     70  C   UNL A   1      45.006  30.785  27.496  1.00  0.00     0.057 A 
ATOM     71  C   UNL A   1      44.152  31.907  27.536  1.00  0.00     0.134 A 
ATOM     72  C   UNL A   1      46.306  31.007  27.034  1.00  0.00     0.134 A 
ATOM     73  F   UNL A   1      42.940  31.842  28.110  1.00  0.00    -0.206 F 
ATOM     74  C   UNL A   1      44.544  33.158  27.068  1.00  0.00     0.040 A 
ATOM     75  C   UNL A   1      46.726  32.270  26.610  1.00  0.00     0.040 A 
ATOM     76  F   UNL A   1      47.207  30.015  27.032  1.00  0.00    -0.206 F 
ATOM     77  C   UNL A   1      45.841  33.346  26.613  1.00  0.00     0.006 A 
ENDBRANCH  56  70
BRANCH  57  78
ATOM     78  C   UNL A   1      37.763  31.857  31.274  1.00  0.00     0.057 A 
ATOM     79  C   UNL A   1      37.178  31.592  32.523  1.00  0.00     0.134 A 
ATOM     80  C   UNL A   1      36.993  32.639  30.398  1.00  0.00     0.134 A 
ATOM     81  F   UNL A   1      37.791  30.793  33.406  1.00  0.00    -0.206 F 
ATOM     82  C   UNL A   1      35.909  32.066  32.880  1.00  0.00     0.040 A 
ATOM     83  C   UNL A   1      35.720  33.115  30.738  1.00  0.00     0.040 A 
ATOM     84  F   UNL A   1      37.420  32.908  29.156  1.00  0.00    -0.206 F 
ATOM     85  C   UNL A   1      35.169  32.822  31.979  1.00  0.00     0.006 A 
ENDBRANCH  57  78
BRANCH  69  86
ATOM     86  C   UNL A   1      42.600  29.084  33.730  1.00  0.00     0.057 A 
ATOM     87  C   UNL A   1      43.046  29.451  35.005  1.00  0.00     0.134 A 
ATOM     88  C   UNL A   1      41.825  27.920  33.637  1.00  0.00     0.134 A 
ATOM     89  F   UNL A   1      43.814  30.541  35.164  1.00  0.00    -0.206 F 
ATOM     90  C   UNL A   1      42.723  28.710  36.144  1.00  0.00     0.040 A 
ATOM     91  C   UNL A   1      41.471  27.184  34.773  1.00  0.00     0.040 A 
ATOM     92  F   UNL A   1      41.410  27.457  32.450  1.00  0.00    -0.206 F 
ATOM     93  C   UNL A   1      41.921  27.577  36.031  1.00  0.00     0.006 A 
ENDBRANCH  69  86
ENDBRANCH  43  44
ENDBRANCH  36  38
ENDBRANCH  35  36
ENDBRANCH  34  35
ENDBRANCH  33  34
ENDBRANCH  32  33
ENDBRANCH  31  32
ENDBRANCH   1  31
TORSDOF 20
ENDMDL
