MODEL 1
REMARK VINA RESULT:     -11.2      0.000      0.000
REMARK SMILES CC(C)(C)c1cc(Nc2ccccc2C(=O)OCCOCCOCCOC(=O)c2ccc(-c3c4nc(c(-c5c(F)cccc5F)c5ccc([nH]5)c(-c5c(F)cccc5F)c5nc(c(-c6c(F)cccc6F)c6ccc3[nH]6)C=C5)C=C4)cc2)cc2c1OCC2(C)C
REMARK SMILES IDX 21 1 20 2 19 3 18 4 17 5 15 6 16 7 14 8 9 9 10 10 11 11
REMARK SMILES IDX 13 12 12 13 8 14 7 16 5 17 6 18 85 19 84 20 86 21 83 22
REMARK SMILES IDX 88 23 87 24 89 25 90 26 2 27 1 28 3 29 4 30 22 31 23 32
REMARK SMILES IDX 24 33 25 34 26 35 27 36 28 37 29 38 30 39 82 40 31 41 81 42
REMARK SMILES IDX 32 43 33 44 34 45 75 46 35 47 80 48 74 49 76 50 36 51 79 52
REMARK SMILES IDX 73 53 72 54 37 56 63 57 46 58 62 59 47 60 50 61 61 62 77 63
REMARK SMILES IDX 48 64 49 65 60 67 78 68 51 69 38 70 39 71 44 72 40 73 41 74
REMARK SMILES IDX 43 75 45 76 42 77 64 78 65 79 70 80 66 81 67 82 69 83 71 84
REMARK SMILES IDX 68 85 52 86 53 87 58 88 54 89 55 90 57 91 59 92 56 93
REMARK H PARENT 8 15 76 55 50 66
REMARK Flexibility Score: inf
ROOT
ATOM      1  C   UNL A   1      32.854  36.409  32.553  1.00  0.00     0.188 C 
ENDROOT
BRANCH   1   2
ATOM      2  O   UNL A   1      32.487  35.534  31.492  1.00  0.00    -0.376 OA
BRANCH   2   3
ATOM      3  C   UNL A   1      33.422  35.242  30.459  1.00  0.00     0.202 C 
BRANCH   3   4
ATOM      4  C   UNL A   1      32.922  35.043  29.020  1.00  0.00     0.261 C 
BRANCH   4   5
ATOM      5  O   UNL A   1      33.026  33.695  28.530  1.00  0.00    -0.460 OA
BRANCH   5   6
ATOM      6  C   UNL A   1      34.148  33.407  27.824  1.00  0.00     0.340 C 
ATOM      7  O   UNL A   1      34.933  34.219  27.358  1.00  0.00    -0.246 OA
BRANCH   6   8
ATOM      8  C   UNL A   1      34.431  31.947  27.824  1.00  0.00     0.083 A 
ATOM      9  C   UNL A   1      33.617  30.972  27.214  1.00  0.00     0.053 A 
ATOM     10  C   UNL A   1      34.087  29.645  27.227  1.00  0.00     0.027 A 
ATOM     11  C   UNL A   1      35.222  29.267  27.950  1.00  0.00     0.002 A 
ATOM     12  C   UNL A   1      35.581  31.562  28.545  1.00  0.00     0.018 A 
ATOM     13  C   UNL A   1      35.951  30.223  28.641  1.00  0.00     0.001 A 
BRANCH   9  14
ATOM     14  N   UNL A   1      32.316  31.265  26.739  1.00  0.00    -0.355 N 
ATOM     15  H   UNL A   1      31.874  32.028  27.175  1.00  0.00     0.167 HD
BRANCH  14  16
ATOM     16  C   UNL A   1      31.556  30.624  25.729  1.00  0.00     0.039 A 
ATOM     17  C   UNL A   1      29.838  30.823  23.938  1.00  0.00     0.002 A 
ATOM     18  C   UNL A   1      30.624  31.380  24.978  1.00  0.00     0.034 A 
ATOM     19  C   UNL A   1      30.096  29.483  23.640  1.00  0.00     0.127 A 
ATOM     20  C   UNL A   1      31.008  28.728  24.353  1.00  0.00     0.006 A 
ATOM     21  O   UNL A   1      29.494  28.773  22.634  1.00  0.00    -0.492 OA
ATOM     22  C   UNL A   1      31.712  29.275  25.412  1.00  0.00     0.034 A 
ATOM     23  C   UNL A   1      31.101  27.343  23.812  1.00  0.00     0.028 C 
ATOM     24  C   UNL A   1      30.075  27.448  22.668  1.00  0.00     0.240 C 
ATOM     25  C   UNL A   1      32.510  27.048  23.281  1.00  0.00     0.020 C 
ATOM     26  C   UNL A   1      30.694  26.290  24.847  1.00  0.00     0.020 C 
BRANCH  17  27
ATOM     27  C   UNL A   1      28.761  31.628  23.192  1.00  0.00    -0.009 C 
ATOM     28  C   UNL A   1      27.381  31.410  23.847  1.00  0.00     0.016 C 
ATOM     29  C   UNL A   1      28.619  31.238  21.700  1.00  0.00     0.016 C 
ATOM     30  C   UNL A   1      29.112  33.135  23.213  1.00  0.00     0.016 C 
ENDBRANCH  17  27
ENDBRANCH  14  16
ENDBRANCH   9  14
ENDBRANCH   6   8
ENDBRANCH   5   6
ENDBRANCH   4   5
ENDBRANCH   3   4
ENDBRANCH   2   3
ENDBRANCH   1   2
BRANCH   1  31
ATOM     31  C   UNL A   1      34.342  36.630  32.902  1.00  0.00     0.188 C 
BRANCH  31  32
ATOM     32  O   UNL A   1      34.791  35.818  33.959  1.00  0.00    -0.376 OA
BRANCH  32  33
ATOM     33  C   UNL A   1      34.344  34.480  34.048  1.00  0.00     0.202 C 
BRANCH  33  34
ATOM     34  C   UNL A   1      34.992  33.317  33.269  1.00  0.00     0.261 C 
BRANCH  34  35
ATOM     35  O   UNL A   1      36.406  33.360  33.047  1.00  0.00    -0.460 OA
BRANCH  35  36
ATOM     36  C   UNL A   1      37.167  32.472  33.727  1.00  0.00     0.338 C 
ATOM     37  O   UNL A   1      37.021  32.103  34.879  1.00  0.00    -0.246 OA
BRANCH  36  38
ATOM     38  C   UNL A   1      38.122  31.869  32.770  1.00  0.00     0.060 A 
ATOM     39  C   UNL A   1      37.977  32.076  31.397  1.00  0.00     0.016 A 
ATOM     40  C   UNL A   1      39.161  31.066  33.260  1.00  0.00     0.016 A 
ATOM     41  C   UNL A   1      38.897  31.503  30.515  1.00  0.00     0.010 A 
ATOM     42  C   UNL A   1      40.077  30.489  32.374  1.00  0.00     0.010 A 
ATOM     43  C   UNL A   1      39.968  30.725  30.995  1.00  0.00    -0.014 A 
BRANCH  43  44
ATOM     44  C   UNL A   1      41.058  30.340  30.064  1.00  0.00     0.031 A 
ATOM     45  C   UNL A   1      42.188  31.261  29.712  1.00  0.00     0.074 A 
ATOM     46  C   UNL A   1      41.018  29.101  29.537  1.00  0.00     0.049 A 
ATOM     47  N   UNL A   1      43.285  30.994  29.048  1.00  0.00    -0.248 NA
ATOM     48  C   UNL A   1      42.065  32.659  30.142  1.00  0.00     0.031 C 
ATOM     49  C   UNL A   1      39.939  28.135  29.753  1.00  0.00     0.029 A 
ATOM     50  N   UNL A   1      41.908  28.435  28.735  1.00  0.00    -0.354 N 
ATOM     51  C   UNL A   1      44.004  32.182  29.005  1.00  0.00     0.074 A 
ATOM     52  C   UNL A   1      43.184  33.185  29.657  1.00  0.00     0.031 C 
ATOM     53  C   UNL A   1      40.252  26.984  29.139  1.00  0.00     0.029 A 
ATOM     54  C   UNL A   1      41.541  27.138  28.474  1.00  0.00     0.049 A 
ATOM     55  H   UNL A   1      42.729  28.848  28.381  1.00  0.00     0.167 HD
ATOM     56  C   UNL A   1      45.239  32.406  28.487  1.00  0.00     0.037 A 
ATOM     57  C   UNL A   1      42.183  26.170  27.795  1.00  0.00     0.037 A 
ATOM     58  C   UNL A   1      46.036  31.409  27.809  1.00  0.00     0.049 A 
ATOM     59  C   UNL A   1      43.539  26.452  27.216  1.00  0.00     0.074 A 
ATOM     60  C   UNL A   1      47.314  31.531  27.287  1.00  0.00     0.029 A 
ATOM     61  N   UNL A   1      45.622  30.113  27.538  1.00  0.00    -0.354 N 
ATOM     62  N   UNL A   1      44.257  27.547  27.278  1.00  0.00    -0.248 NA
ATOM     63  C   UNL A   1      44.183  25.350  26.489  1.00  0.00     0.031 C 
ATOM     64  C   UNL A   1      47.651  30.328  26.655  1.00  0.00     0.029 A 
ATOM     65  C   UNL A   1      46.609  29.434  26.834  1.00  0.00     0.049 A 
ATOM     66  H   UNL A   1      44.757  29.729  27.805  1.00  0.00     0.167 HD
ATOM     67  C   UNL A   1      45.448  27.256  26.626  1.00  0.00     0.074 A 
ATOM     68  C   UNL A   1      45.364  25.875  26.200  1.00  0.00     0.031 C 
ATOM     69  C   UNL A   1      46.516  28.061  26.403  1.00  0.00     0.037 A 
BRANCH  56  70
ATOM     70  C   UNL A   1      45.812  33.788  28.640  1.00  0.00     0.057 A 
ATOM     71  C   UNL A   1      45.578  34.779  27.678  1.00  0.00     0.134 A 
ATOM     72  C   UNL A   1      46.642  34.124  29.719  1.00  0.00     0.134 A 
ATOM     73  F   UNL A   1      44.806  34.523  26.611  1.00  0.00    -0.206 F 
ATOM     74  C   UNL A   1      46.142  36.052  27.785  1.00  0.00     0.040 A 
ATOM     75  C   UNL A   1      47.189  35.402  29.853  1.00  0.00     0.040 A 
ATOM     76  F   UNL A   1      46.910  33.223  30.677  1.00  0.00    -0.206 F 
ATOM     77  C   UNL A   1      46.944  36.369  28.880  1.00  0.00     0.006 A 
ENDBRANCH  56  70
BRANCH  57  78
ATOM     78  C   UNL A   1      41.571  24.825  27.666  1.00  0.00     0.057 A 
ATOM     79  C   UNL A   1      41.964  23.764  28.489  1.00  0.00     0.134 A 
ATOM     80  C   UNL A   1      40.558  24.577  26.731  1.00  0.00     0.134 A 
ATOM     81  F   UNL A   1      42.938  23.934  29.395  1.00  0.00    -0.206 F 
ATOM     82  C   UNL A   1      41.371  22.506  28.390  1.00  0.00     0.040 A 
ATOM     83  C   UNL A   1      39.935  23.332  26.642  1.00  0.00     0.040 A 
ATOM     84  F   UNL A   1      40.130  25.560  25.925  1.00  0.00    -0.206 F 
ATOM     85  C   UNL A   1      40.344  22.291  27.472  1.00  0.00     0.006 A 
ENDBRANCH  57  78
BRANCH  69  86
ATOM     86  C   UNL A   1      47.690  27.445  25.691  1.00  0.00     0.057 A 
ATOM     87  C   UNL A   1      48.720  26.831  26.416  1.00  0.00     0.134 A 
ATOM     88  C   UNL A   1      47.791  27.430  24.293  1.00  0.00     0.134 A 
ATOM     89  F   UNL A   1      48.694  26.815  27.757  1.00  0.00    -0.206 F 
ATOM     90  C   UNL A   1      49.797  26.214  25.778  1.00  0.00     0.040 A 
ATOM     91  C   UNL A   1      48.846  26.787  23.643  1.00  0.00     0.040 A 
ATOM     92  F   UNL A   1      46.832  27.984  23.535  1.00  0.00    -0.206 F 
ATOM     93  C   UNL A   1      49.855  26.178  24.386  1.00  0.00     0.006 A 
ENDBRANCH  69  86
ENDBRANCH  43  44
ENDBRANCH  36  38
ENDBRANCH  35  36
ENDBRANCH  34  35
ENDBRANCH  33  34
ENDBRANCH  32  33
ENDBRANCH  31  32
ENDBRANCH   1  31
TORSDOF 20
ENDMDL
MODEL 2
REMARK VINA RESULT:     -11.1      4.435      8.175
REMARK SMILES CC(C)(C)c1cc(Nc2ccccc2C(=O)OCCOCCOCCOC(=O)c2ccc(-c3c4nc(c(-c5c(F)cccc5F)c5ccc([nH]5)c(-c5c(F)cccc5F)c5nc(c(-c6c(F)cccc6F)c6ccc3[nH]6)C=C5)C=C4)cc2)cc2c1OCC2(C)C
REMARK SMILES IDX 21 1 20 2 19 3 18 4 17 5 15 6 16 7 14 8 9 9 10 10 11 11
REMARK SMILES IDX 13 12 12 13 8 14 7 16 5 17 6 18 85 19 84 20 86 21 83 22
REMARK SMILES IDX 88 23 87 24 89 25 90 26 2 27 1 28 3 29 4 30 22 31 23 32
REMARK SMILES IDX 24 33 25 34 26 35 27 36 28 37 29 38 30 39 82 40 31 41 81 42
REMARK SMILES IDX 32 43 33 44 34 45 75 46 35 47 80 48 74 49 76 50 36 51 79 52
REMARK SMILES IDX 73 53 72 54 37 56 63 57 46 58 62 59 47 60 50 61 61 62 77 63
REMARK SMILES IDX 48 64 49 65 60 67 78 68 51 69 38 70 39 71 44 72 40 73 41 74
REMARK SMILES IDX 43 75 45 76 42 77 64 78 65 79 70 80 66 81 67 82 69 83 71 84
REMARK SMILES IDX 68 85 52 86 53 87 58 88 54 89 55 90 57 91 59 92 56 93
REMARK H PARENT 8 15 76 55 50 66
REMARK Flexibility Score: inf
ROOT
ATOM      1  C   UNL A   1      32.709  28.598  25.454  1.00  0.00     0.188 C 
ENDROOT
BRANCH   1   2
ATOM      2  O   UNL A   1      33.711  27.595  25.581  1.00  0.00    -0.376 OA
BRANCH   2   3
ATOM      3  C   UNL A   1      34.011  26.749  24.476  1.00  0.00     0.202 C 
BRANCH   3   4
ATOM      4  C   UNL A   1      33.771  27.259  23.046  1.00  0.00     0.261 C 
BRANCH   4   5
ATOM      5  O   UNL A   1      34.011  26.286  22.015  1.00  0.00    -0.460 OA
BRANCH   5   6
ATOM      6  C   UNL A   1      32.911  25.826  21.369  1.00  0.00     0.340 C 
ATOM      7  O   UNL A   1      32.887  25.327  20.254  1.00  0.00    -0.246 OA
BRANCH   6   8
ATOM      8  C   UNL A   1      31.718  25.827  22.256  1.00  0.00     0.083 A 
ATOM      9  C   UNL A   1      31.232  24.700  22.949  1.00  0.00     0.053 A 
ATOM     10  C   UNL A   1      30.148  24.903  23.824  1.00  0.00     0.027 A 
ATOM     11  C   UNL A   1      29.465  26.121  23.890  1.00  0.00     0.002 A 
ATOM     12  C   UNL A   1      31.032  27.058  22.333  1.00  0.00     0.018 A 
ATOM     13  C   UNL A   1      29.887  27.191  23.114  1.00  0.00     0.001 A 
BRANCH   9  14
ATOM     14  N   UNL A   1      31.698  23.391  22.679  1.00  0.00    -0.355 N 
ATOM     15  H   UNL A   1      31.274  22.946  21.911  1.00  0.00     0.167 HD
BRANCH  14  16
ATOM     16  C   UNL A   1      32.685  22.626  23.350  1.00  0.00     0.039 A 
ATOM     17  C   UNL A   1      33.454  20.387  24.120  1.00  0.00     0.002 A 
ATOM     18  C   UNL A   1      32.508  21.228  23.482  1.00  0.00     0.034 A 
ATOM     19  C   UNL A   1      34.625  21.015  24.550  1.00  0.00     0.127 A 
ATOM     20  C   UNL A   1      34.824  22.377  24.424  1.00  0.00     0.006 A 
ATOM     21  O   UNL A   1      35.689  20.378  25.132  1.00  0.00    -0.492 OA
ATOM     22  C   UNL A   1      33.855  23.189  23.861  1.00  0.00     0.034 A 
ATOM     23  C   UNL A   1      36.162  22.776  24.942  1.00  0.00     0.028 C 
ATOM     24  C   UNL A   1      36.684  21.397  25.388  1.00  0.00     0.240 C 
ATOM     25  C   UNL A   1      37.033  23.375  23.829  1.00  0.00     0.020 C 
ATOM     26  C   UNL A   1      36.059  23.753  26.117  1.00  0.00     0.020 C 
BRANCH  17  27
ATOM     27  C   UNL A   1      33.210  18.885  24.341  1.00  0.00    -0.009 C 
ATOM     28  C   UNL A   1      34.534  18.103  24.208  1.00  0.00     0.016 C 
ATOM     29  C   UNL A   1      32.216  18.263  23.331  1.00  0.00     0.016 C 
ATOM     30  C   UNL A   1      32.607  18.644  25.745  1.00  0.00     0.016 C 
ENDBRANCH  17  27
ENDBRANCH  14  16
ENDBRANCH   9  14
ENDBRANCH   6   8
ENDBRANCH   5   6
ENDBRANCH   4   5
ENDBRANCH   3   4
ENDBRANCH   2   3
ENDBRANCH   1   2
BRANCH   1  31
ATOM     31  C   UNL A   1      32.212  29.364  26.700  1.00  0.00     0.188 C 
BRANCH  31  32
ATOM     32  O   UNL A   1      31.940  30.720  26.448  1.00  0.00    -0.376 OA
BRANCH  32  33
ATOM     33  C   UNL A   1      32.714  31.715  27.088  1.00  0.00     0.202 C 
BRANCH  33  34
ATOM     34  C   UNL A   1      32.201  33.146  27.351  1.00  0.00     0.261 C 
BRANCH  34  35
ATOM     35  O   UNL A   1      33.162  34.158  27.673  1.00  0.00    -0.460 OA
BRANCH  35  36
ATOM     36  C   UNL A   1      33.413  34.380  28.984  1.00  0.00     0.338 C 
ATOM     37  O   UNL A   1      32.699  34.956  29.786  1.00  0.00    -0.246 OA
BRANCH  36  38
ATOM     38  C   UNL A   1      34.641  33.635  29.340  1.00  0.00     0.060 A 
ATOM     39  C   UNL A   1      35.886  34.049  28.861  1.00  0.00     0.016 A 
ATOM     40  C   UNL A   1      34.537  32.493  30.146  1.00  0.00     0.016 A 
ATOM     41  C   UNL A   1      37.032  33.334  29.219  1.00  0.00     0.010 A 
ATOM     42  C   UNL A   1      35.685  31.777  30.499  1.00  0.00     0.010 A 
ATOM     43  C   UNL A   1      36.946  32.208  30.060  1.00  0.00    -0.014 A 
BRANCH  43  44
ATOM     44  C   UNL A   1      38.191  31.623  30.618  1.00  0.00     0.031 A 
ATOM     45  C   UNL A   1      38.729  31.996  31.966  1.00  0.00     0.074 A 
ATOM     46  C   UNL A   1      38.840  30.711  29.869  1.00  0.00     0.049 A 
ATOM     47  N   UNL A   1      39.707  31.443  32.640  1.00  0.00    -0.248 NA
ATOM     48  C   UNL A   1      38.105  33.143  32.638  1.00  0.00     0.031 C 
ATOM     49  C   UNL A   1      38.452  30.310  28.515  1.00  0.00     0.029 A 
ATOM     50  N   UNL A   1      39.942  29.943  30.143  1.00  0.00    -0.354 N 
ATOM     51  C   UNL A   1      39.800  32.151  33.832  1.00  0.00     0.074 A 
ATOM     52  C   UNL A   1      38.816  33.215  33.757  1.00  0.00     0.031 C 
ATOM     53  C   UNL A   1      39.274  29.337  28.094  1.00  0.00     0.029 A 
ATOM     54  C   UNL A   1      40.253  29.059  29.139  1.00  0.00     0.049 A 
ATOM     55  H   UNL A   1      40.460  30.018  30.977  1.00  0.00     0.167 HD
ATOM     56  C   UNL A   1      40.615  31.921  34.892  1.00  0.00     0.037 A 
ATOM     57  C   UNL A   1      41.207  28.113  29.074  1.00  0.00     0.037 A 
ATOM     58  C   UNL A   1      41.616  30.880  34.945  1.00  0.00     0.049 A 
ATOM     59  C   UNL A   1      42.107  27.892  30.255  1.00  0.00     0.074 A 
ATOM     60  C   UNL A   1      42.460  30.543  35.991  1.00  0.00     0.029 A 
ATOM     61  N   UNL A   1      41.923  30.020  33.900  1.00  0.00    -0.354 N 
ATOM     62  N   UNL A   1      42.111  28.495  31.419  1.00  0.00    -0.248 NA
ATOM     63  C   UNL A   1      43.124  26.842  30.117  1.00  0.00     0.031 C 
ATOM     64  C   UNL A   1      43.312  29.519  35.561  1.00  0.00     0.029 A 
ATOM     65  C   UNL A   1      42.961  29.174  34.267  1.00  0.00     0.049 A 
ATOM     66  H   UNL A   1      41.471  30.012  33.026  1.00  0.00     0.167 HD
ATOM     67  C   UNL A   1      43.109  27.877  32.162  1.00  0.00     0.074 A 
ATOM     68  C   UNL A   1      43.668  26.837  31.325  1.00  0.00     0.031 C 
ATOM     69  C   UNL A   1      43.522  28.145  33.425  1.00  0.00     0.037 A 
BRANCH  56  70
ATOM     70  C   UNL A   1      40.455  32.812  36.093  1.00  0.00     0.057 A 
ATOM     71  C   UNL A   1      39.478  32.551  37.063  1.00  0.00     0.134 A 
ATOM     72  C   UNL A   1      41.240  33.961  36.265  1.00  0.00     0.134 A 
ATOM     73  F   UNL A   1      38.681  31.478  36.956  1.00  0.00    -0.206 F 
ATOM     74  C   UNL A   1      39.290  33.397  38.158  1.00  0.00     0.040 A 
ATOM     75  C   UNL A   1      41.080  34.799  37.370  1.00  0.00     0.040 A 
ATOM     76  F   UNL A   1      42.194  34.272  35.374  1.00  0.00    -0.206 F 
ATOM     77  C   UNL A   1      40.098  34.521  38.319  1.00  0.00     0.006 A 
ENDBRANCH  56  70
BRANCH  57  78
ATOM     78  C   UNL A   1      41.329  27.264  27.863  1.00  0.00     0.057 A 
ATOM     79  C   UNL A   1      40.608  26.072  27.733  1.00  0.00     0.134 A 
ATOM     80  C   UNL A   1      42.152  27.642  26.795  1.00  0.00     0.134 A 
ATOM     81  F   UNL A   1      39.812  25.650  28.726  1.00  0.00    -0.206 F 
ATOM     82  C   UNL A   1      40.698  25.288  26.584  1.00  0.00     0.040 A 
ATOM     83  C   UNL A   1      42.229  26.883  25.628  1.00  0.00     0.040 A 
ATOM     84  F   UNL A   1      42.856  28.782  26.857  1.00  0.00    -0.206 F 
ATOM     85  C   UNL A   1      41.501  25.699  25.521  1.00  0.00     0.006 A 
ENDBRANCH  57  78
BRANCH  69  86
ATOM     86  C   UNL A   1      44.612  27.270  33.981  1.00  0.00     0.057 A 
ATOM     87  C   UNL A   1      44.301  26.058  34.611  1.00  0.00     0.134 A 
ATOM     88  C   UNL A   1      45.969  27.606  33.868  1.00  0.00     0.134 A 
ATOM     89  F   UNL A   1      43.024  25.676  34.762  1.00  0.00    -0.206 F 
ATOM     90  C   UNL A   1      45.297  25.208  35.095  1.00  0.00     0.040 A 
ATOM     91  C   UNL A   1      46.974  26.748  34.319  1.00  0.00     0.040 A 
ATOM     92  F   UNL A   1      46.340  28.744  33.261  1.00  0.00    -0.206 F 
ATOM     93  C   UNL A   1      46.639  25.546  34.936  1.00  0.00     0.006 A 
ENDBRANCH  69  86
ENDBRANCH  43  44
ENDBRANCH  36  38
ENDBRANCH  35  36
ENDBRANCH  34  35
ENDBRANCH  33  34
ENDBRANCH  32  33
ENDBRANCH  31  32
ENDBRANCH   1  31
TORSDOF 20
ENDMDL
MODEL 3
REMARK VINA RESULT:     -11.0      4.403      8.403
REMARK SMILES CC(C)(C)c1cc(Nc2ccccc2C(=O)OCCOCCOCCOC(=O)c2ccc(-c3c4nc(c(-c5c(F)cccc5F)c5ccc([nH]5)c(-c5c(F)cccc5F)c5nc(c(-c6c(F)cccc6F)c6ccc3[nH]6)C=C5)C=C4)cc2)cc2c1OCC2(C)C
REMARK SMILES IDX 21 1 20 2 19 3 18 4 17 5 15 6 16 7 14 8 9 9 10 10 11 11
REMARK SMILES IDX 13 12 12 13 8 14 7 16 5 17 6 18 85 19 84 20 86 21 83 22
REMARK SMILES IDX 88 23 87 24 89 25 90 26 2 27 1 28 3 29 4 30 22 31 23 32
REMARK SMILES IDX 24 33 25 34 26 35 27 36 28 37 29 38 30 39 82 40 31 41 81 42
REMARK SMILES IDX 32 43 33 44 34 45 75 46 35 47 80 48 74 49 76 50 36 51 79 52
REMARK SMILES IDX 73 53 72 54 37 56 63 57 46 58 62 59 47 60 50 61 61 62 77 63
REMARK SMILES IDX 48 64 49 65 60 67 78 68 51 69 38 70 39 71 44 72 40 73 41 74
REMARK SMILES IDX 43 75 45 76 42 77 64 78 65 79 70 80 66 81 67 82 69 83 71 84
REMARK SMILES IDX 68 85 52 86 53 87 58 88 54 89 55 90 57 91 59 92 56 93
REMARK H PARENT 8 15 76 55 50 66
REMARK Flexibility Score: inf
ROOT
ATOM      1  C   UNL A   1      32.855  26.720  26.457  1.00  0.00     0.188 C 
ENDROOT
BRANCH   1   2
ATOM      2  O   UNL A   1      31.819  25.898  26.984  1.00  0.00    -0.376 OA
BRANCH   2   3
ATOM      3  C   UNL A   1      31.816  24.500  26.715  1.00  0.00     0.202 C 
BRANCH   3   4
ATOM      4  C   UNL A   1      30.521  23.824  26.240  1.00  0.00     0.261 C 
BRANCH   4   5
ATOM      5  O   UNL A   1      30.276  23.925  24.827  1.00  0.00    -0.460 OA
BRANCH   5   6
ATOM      6  C   UNL A   1      30.061  25.177  24.352  1.00  0.00     0.340 C 
ATOM      7  O   UNL A   1      29.246  25.980  24.782  1.00  0.00    -0.246 OA
BRANCH   6   8
ATOM      8  C   UNL A   1      31.075  25.555  23.332  1.00  0.00     0.083 A 
ATOM      9  C   UNL A   1      31.792  24.638  22.537  1.00  0.00     0.053 A 
ATOM     10  C   UNL A   1      32.644  25.173  21.552  1.00  0.00     0.027 A 
ATOM     11  C   UNL A   1      32.907  26.543  21.463  1.00  0.00     0.002 A 
ATOM     12  C   UNL A   1      31.337  26.937  23.233  1.00  0.00     0.018 A 
ATOM     13  C   UNL A   1      32.279  27.425  22.331  1.00  0.00     0.001 A 
BRANCH   9  14
ATOM     14  N   UNL A   1      31.787  23.247  22.799  1.00  0.00    -0.355 N 
ATOM     15  H   UNL A   1      30.985  22.767  22.493  1.00  0.00     0.167 HD
BRANCH  14  16
ATOM     16  C   UNL A   1      32.765  22.442  23.435  1.00  0.00     0.039 A 
ATOM     17  C   UNL A   1      33.509  20.163  24.103  1.00  0.00     0.002 A 
ATOM     18  C   UNL A   1      32.573  21.042  23.502  1.00  0.00     0.034 A 
ATOM     19  C   UNL A   1      34.686  20.758  24.562  1.00  0.00     0.127 A 
ATOM     20  C   UNL A   1      34.899  22.122  24.499  1.00  0.00     0.006 A 
ATOM     21  O   UNL A   1      35.743  20.084  25.116  1.00  0.00    -0.492 OA
ATOM     22  C   UNL A   1      33.940  22.969  23.972  1.00  0.00     0.034 A 
ATOM     23  C   UNL A   1      36.241  22.484  25.035  1.00  0.00     0.028 C 
ATOM     24  C   UNL A   1      36.747  21.080  25.420  1.00  0.00     0.240 C 
ATOM     25  C   UNL A   1      37.119  23.124  23.952  1.00  0.00     0.020 C 
ATOM     26  C   UNL A   1      36.146  23.407  26.254  1.00  0.00     0.020 C 
BRANCH  17  27
ATOM     27  C   UNL A   1      33.250  18.655  24.255  1.00  0.00    -0.009 C 
ATOM     28  C   UNL A   1      32.656  18.353  25.647  1.00  0.00     0.016 C 
ATOM     29  C   UNL A   1      34.525  17.788  24.112  1.00  0.00     0.016 C 
ATOM     30  C   UNL A   1      32.272  18.168  23.159  1.00  0.00     0.016 C 
ENDBRANCH  17  27
ENDBRANCH  14  16
ENDBRANCH   9  14
ENDBRANCH   6   8
ENDBRANCH   5   6
ENDBRANCH   4   5
ENDBRANCH   3   4
ENDBRANCH   2   3
ENDBRANCH   1   2
BRANCH   1  31
ATOM     31  C   UNL A   1      32.831  28.247  26.685  1.00  0.00     0.188 C 
BRANCH  31  32
ATOM     32  O   UNL A   1      31.655  28.860  26.217  1.00  0.00    -0.376 OA
BRANCH  32  33
ATOM     33  C   UNL A   1      31.738  30.098  25.539  1.00  0.00     0.202 C 
BRANCH  33  34
ATOM     34  C   UNL A   1      31.769  31.459  26.264  1.00  0.00     0.261 C 
BRANCH  34  35
ATOM     35  O   UNL A   1      32.494  31.551  27.495  1.00  0.00    -0.460 OA
BRANCH  35  36
ATOM     36  C   UNL A   1      33.328  32.605  27.647  1.00  0.00     0.338 C 
ATOM     37  O   UNL A   1      33.048  33.788  27.553  1.00  0.00    -0.246 OA
BRANCH  36  38
ATOM     38  C   UNL A   1      34.625  32.089  28.136  1.00  0.00     0.060 A 
ATOM     39  C   UNL A   1      35.734  32.932  28.231  1.00  0.00     0.016 A 
ATOM     40  C   UNL A   1      34.734  30.734  28.479  1.00  0.00     0.016 A 
ATOM     41  C   UNL A   1      36.946  32.422  28.703  1.00  0.00     0.010 A 
ATOM     42  C   UNL A   1      35.950  30.225  28.946  1.00  0.00     0.010 A 
ATOM     43  C   UNL A   1      37.060  31.072  29.088  1.00  0.00    -0.014 A 
BRANCH  43  44
ATOM     44  C   UNL A   1      38.276  30.624  29.811  1.00  0.00     0.031 A 
ATOM     45  C   UNL A   1      38.583  31.038  31.218  1.00  0.00     0.074 A 
ATOM     46  C   UNL A   1      39.119  29.799  29.160  1.00  0.00     0.049 A 
ATOM     47  N   UNL A   1      39.517  30.590  32.020  1.00  0.00    -0.248 NA
ATOM     48  C   UNL A   1      37.748  32.100  31.795  1.00  0.00     0.031 C 
ATOM     49  C   UNL A   1      38.964  29.374  27.767  1.00  0.00     0.029 A 
ATOM     50  N   UNL A   1      40.253  29.156  29.582  1.00  0.00    -0.354 N 
ATOM     51  C   UNL A   1      39.368  31.290  33.210  1.00  0.00     0.074 A 
ATOM     52  C   UNL A   1      38.290  32.238  33.000  1.00  0.00     0.031 C 
ATOM     53  C   UNL A   1      39.939  28.504  27.464  1.00  0.00     0.029 A 
ATOM     54  C   UNL A   1      40.794  28.325  28.632  1.00  0.00     0.049 A 
ATOM     55  H   UNL A   1      40.642  29.279  30.478  1.00  0.00     0.167 HD
ATOM     56  C   UNL A   1      40.054  31.140  34.372  1.00  0.00     0.037 A 
ATOM     57  C   UNL A   1      41.848  27.492  28.700  1.00  0.00     0.037 A 
ATOM     58  C   UNL A   1      41.150  30.217  34.563  1.00  0.00     0.049 A 
ATOM     59  C   UNL A   1      42.600  27.360  29.992  1.00  0.00     0.074 A 
ATOM     60  C   UNL A   1      41.878  29.965  35.715  1.00  0.00     0.029 A 
ATOM     61  N   UNL A   1      41.690  29.410  33.572  1.00  0.00    -0.354 N 
ATOM     62  N   UNL A   1      42.380  27.945  31.144  1.00  0.00    -0.248 NA
ATOM     63  C   UNL A   1      43.738  26.431  29.996  1.00  0.00     0.031 C 
ATOM     64  C   UNL A   1      42.890  29.048  35.407  1.00  0.00     0.029 A 
ATOM     65  C   UNL A   1      42.757  28.680  34.079  1.00  0.00     0.049 A 
ATOM     66  H   UNL A   1      41.363  29.361  32.645  1.00  0.00     0.167 HD
ATOM     67  C   UNL A   1      43.332  27.434  32.016  1.00  0.00     0.074 A 
ATOM     68  C   UNL A   1      44.112  26.473  31.266  1.00  0.00     0.031 C 
ATOM     69  C   UNL A   1      43.538  27.732  33.323  1.00  0.00     0.037 A 
BRANCH  56  70
ATOM     70  C   UNL A   1      39.635  31.992  35.538  1.00  0.00     0.057 A 
ATOM     71  C   UNL A   1      38.619  31.579  36.409  1.00  0.00     0.134 A 
ATOM     72  C   UNL A   1      40.206  33.252  35.770  1.00  0.00     0.134 A 
ATOM     73  F   UNL A   1      38.017  30.392  36.239  1.00  0.00    -0.206 F 
ATOM     74  C   UNL A   1      38.189  32.383  37.467  1.00  0.00     0.040 A 
ATOM     75  C   UNL A   1      39.805  34.053  36.840  1.00  0.00     0.040 A 
ATOM     76  F   UNL A   1      41.183  33.712  34.973  1.00  0.00    -0.206 F 
ATOM     77  C   UNL A   1      38.789  33.621  37.690  1.00  0.00     0.006 A 
ENDBRANCH  56  70
BRANCH  57  78
ATOM     78  C   UNL A   1      42.227  26.677  27.519  1.00  0.00     0.057 A 
ATOM     79  C   UNL A   1      41.745  25.375  27.348  1.00  0.00     0.134 A 
ATOM     80  C   UNL A   1      43.060  27.195  26.520  1.00  0.00     0.134 A 
ATOM     81  F   UNL A   1      40.952  24.818  28.275  1.00  0.00    -0.206 F 
ATOM     82  C   UNL A   1      42.075  24.617  26.224  1.00  0.00     0.040 A 
ATOM     83  C   UNL A   1      43.375  26.460  25.377  1.00  0.00     0.040 A 
ATOM     84  F   UNL A   1      43.542  28.443  26.623  1.00  0.00    -0.206 F 
ATOM     85  C   UNL A   1      42.883  25.164  25.229  1.00  0.00     0.006 A 
ENDBRANCH  57  78
BRANCH  69  86
ATOM     86  C   UNL A   1      44.636  26.977  34.024  1.00  0.00     0.057 A 
ATOM     87  C   UNL A   1      45.919  27.528  34.136  1.00  0.00     0.134 A 
ATOM     88  C   UNL A   1      44.421  25.723  34.613  1.00  0.00     0.134 A 
ATOM     89  F   UNL A   1      46.200  28.721  33.589  1.00  0.00    -0.206 F 
ATOM     90  C   UNL A   1      46.942  26.868  34.819  1.00  0.00     0.040 A 
ATOM     91  C   UNL A   1      45.427  25.069  35.327  1.00  0.00     0.040 A 
ATOM     92  F   UNL A   1      43.212  25.144  34.559  1.00  0.00    -0.206 F 
ATOM     93  C   UNL A   1      46.692  25.641  35.430  1.00  0.00     0.006 A 
ENDBRANCH  69  86
ENDBRANCH  43  44
ENDBRANCH  36  38
ENDBRANCH  35  36
ENDBRANCH  34  35
ENDBRANCH  33  34
ENDBRANCH  32  33
ENDBRANCH  31  32
ENDBRANCH   1  31
TORSDOF 20
ENDMDL
