MODEL 1
REMARK VINA RESULT:     -16.1      0.000      0.000
REMARK SMILES Cc1ccccc1[C@@H]1[NH2+][C@H](C(=O)OCCOCCOCCOC(=O)c2ccc(-c3c4nc(c(-c5c(F)cccc5F)c5ccc([nH]5)c(-c5c(F)cccc5F)c5nc(c(-c6c(F)cccc6F)c6ccc3[nH]6)C=C5)C=C4)cc2)CC2=c3ccccc3=N[C@@H]21
REMARK SMILES IDX 18 1 17 2 16 3 15 4 14 5 13 6 11 7 12 8 10 9 8 10 9 11 88 12
REMARK SMILES IDX 80 15 87 16 79 17 81 18 86 19 82 20 85 21 83 22 84 23 7 24
REMARK SMILES IDX 1 25 2 26 3 27 4 28 6 29 5 30 19 31 20 32 21 33 22 34 23 35
REMARK SMILES IDX 24 36 25 37 26 38 78 39 27 40 77 41 28 42 29 43 30 44 71 45
REMARK SMILES IDX 31 46 76 47 70 48 72 49 32 50 75 51 69 52 68 53 33 55 59 56
REMARK SMILES IDX 42 57 58 58 43 59 46 60 57 61 73 62 44 63 45 64 56 66 74 67
REMARK SMILES IDX 47 68 34 69 35 70 40 71 36 72 37 73 39 74 41 75 38 76 60 77
REMARK SMILES IDX 61 78 66 79 62 80 63 81 65 82 67 83 64 84 48 85 49 86 54 87
REMARK SMILES IDX 50 88 51 89 53 90 55 91 52 92
REMARK H PARENT 9 13 9 14 72 54 46 65
REMARK Flexibility Score: inf
ROOT
ATOM      1  C   UNL A   1      35.091  30.045  27.653  1.00  0.00     0.188 C 
ENDROOT
BRANCH   1   2
ATOM      2  C   UNL A   1      34.223  29.326  26.649  1.00  0.00     0.188 C 
BRANCH   2   3
ATOM      3  O   UNL A   1      33.564  28.180  27.130  1.00  0.00    -0.376 OA
BRANCH   3   4
ATOM      4  C   UNL A   1      32.181  28.428  27.200  1.00  0.00     0.202 C 
BRANCH   4   5
ATOM      5  C   UNL A   1      31.193  27.237  27.274  1.00  0.00     0.261 C 
BRANCH   5   6
ATOM      6  O   UNL A   1      31.338  25.966  26.374  1.00  0.00    -0.459 OA
BRANCH   6   7
ATOM      7  C   UNL A   1      31.666  24.541  26.483  1.00  0.00     0.365 C 
ATOM      8  O   UNL A   1      31.396  23.721  27.355  1.00  0.00    -0.245 OA
BRANCH   7   9
ATOM      9  C   UNL A   1      31.886  24.011  25.162  1.00  0.00     0.298 C 
ATOM     10  C   UNL A   1      32.211  25.011  23.153  1.00  0.00     0.243 C 
ATOM     11  N   UNL A   1      32.717  25.017  24.524  1.00  0.00    -0.326 N 
ATOM     12  C   UNL A   1      32.935  23.565  22.654  1.00  0.00     0.196 C 
ATOM     13  H   UNL A   1      32.592  25.931  24.960  1.00  0.00     0.347 HD
ATOM     14  H   UNL A   1      33.717  24.827  24.592  1.00  0.00     0.347 HD
ATOM     15  C   UNL A   1      32.869  22.413  23.805  1.00  0.00    -0.024 C 
ATOM     16  N   UNL A   1      34.403  23.729  22.552  1.00  0.00    -0.270 NA
ATOM     17  C   UNL A   1      31.868  22.506  24.901  1.00  0.00     0.111 C 
ATOM     18  C   UNL A   1      34.070  21.968  24.182  1.00  0.00     0.002 A 
ATOM     19  C   UNL A   1      34.911  22.922  23.444  1.00  0.00     0.066 A 
ATOM     20  C   UNL A   1      34.485  21.384  25.444  1.00  0.00     0.010 A 
ATOM     21  C   UNL A   1      36.288  23.053  23.960  1.00  0.00     0.028 A 
ATOM     22  C   UNL A   1      35.688  21.712  25.935  1.00  0.00     0.001 A 
ATOM     23  C   UNL A   1      36.602  22.524  25.156  1.00  0.00     0.002 A 
BRANCH  10  24
ATOM     24  C   UNL A   1      31.436  26.608  22.859  1.00  0.00     0.015 A 
ATOM     25  C   UNL A   1      28.428  26.328  24.232  1.00  0.00     0.045 C 
ATOM     26  C   UNL A   1      29.847  27.199  23.151  1.00  0.00    -0.042 A 
ATOM     27  C   UNL A   1      29.557  28.545  23.006  1.00  0.00     0.004 A 
ATOM     28  C   UNL A   1      30.653  29.387  22.764  1.00  0.00     0.000 A 
ATOM     29  C   UNL A   1      32.414  27.591  22.673  1.00  0.00     0.010 A 
ATOM     30  C   UNL A   1      32.008  28.935  22.639  1.00  0.00     0.001 A 
ENDBRANCH  10  24
ENDBRANCH   7   9
ENDBRANCH   6   7
ENDBRANCH   5   6
ENDBRANCH   4   5
ENDBRANCH   3   4
ENDBRANCH   2   3
ENDBRANCH   1   2
BRANCH   1  31
ATOM     31  O   UNL A   1      35.705  31.562  28.470  1.00  0.00    -0.376 OA
BRANCH  31  32
ATOM     32  C   UNL A   1      35.188  33.383  28.044  1.00  0.00     0.202 C 
BRANCH  32  33
ATOM     33  C   UNL A   1      33.277  33.837  28.003  1.00  0.00     0.261 C 
BRANCH  33  34
ATOM     34  O   UNL A   1      32.708  34.803  29.489  1.00  0.00    -0.460 OA
BRANCH  34  35
ATOM     35  C   UNL A   1      33.178  35.247  31.003  1.00  0.00     0.338 C 
ATOM     36  O   UNL A   1      32.761  36.414  31.283  1.00  0.00    -0.246 OA
BRANCH  35  37
ATOM     37  C   UNL A   1      34.325  34.656  32.266  1.00  0.00     0.060 A 
ATOM     38  C   UNL A   1      35.571  35.178  32.749  1.00  0.00     0.016 A 
ATOM     39  C   UNL A   1      34.323  33.466  32.940  1.00  0.00     0.016 A 
ATOM     40  C   UNL A   1      36.883  34.335  33.273  1.00  0.00     0.010 A 
ATOM     41  C   UNL A   1      35.663  32.706  33.174  1.00  0.00     0.010 A 
ATOM     42  C   UNL A   1      37.059  32.958  33.259  1.00  0.00    -0.014 A 
BRANCH  42  43
ATOM     43  C   UNL A   1      38.505  31.915  32.819  1.00  0.00     0.031 A 
ATOM     44  C   UNL A   1      38.687  30.440  31.746  1.00  0.00     0.074 A 
ATOM     45  C   UNL A   1      39.735  32.492  33.065  1.00  0.00     0.049 A 
ATOM     46  N   UNL A   1      38.734  29.135  32.028  1.00  0.00    -0.248 NA
ATOM     47  C   UNL A   1      38.725  30.416  30.192  1.00  0.00     0.031 C 
ATOM     48  C   UNL A   1      41.104  32.163  32.592  1.00  0.00     0.029 A 
ATOM     49  N   UNL A   1      40.010  33.645  33.833  1.00  0.00    -0.354 N 
ATOM     50  C   UNL A   1      38.833  28.397  30.749  1.00  0.00     0.074 A 
ATOM     51  C   UNL A   1      38.234  29.250  29.798  1.00  0.00     0.031 C 
ATOM     52  C   UNL A   1      42.019  32.806  33.352  1.00  0.00     0.029 A 
ATOM     53  C   UNL A   1      41.280  33.464  34.408  1.00  0.00     0.049 A 
ATOM     54  H   UNL A   1      39.424  34.428  33.943  1.00  0.00     0.167 HD
ATOM     55  C   UNL A   1      39.987  27.828  30.196  1.00  0.00     0.037 A 
ATOM     56  C   UNL A   1      41.273  33.147  35.728  1.00  0.00     0.037 A 
ATOM     57  C   UNL A   1      41.125  28.345  30.917  1.00  0.00     0.049 A 
ATOM     58  C   UNL A   1      41.559  31.655  35.845  1.00  0.00     0.074 A 
ATOM     59  C   UNL A   1      42.198  29.174  30.646  1.00  0.00     0.029 A 
ATOM     60  N   UNL A   1      41.055  28.223  32.275  1.00  0.00    -0.354 N 
ATOM     61  N   UNL A   1      41.376  30.770  34.890  1.00  0.00    -0.248 NA
ATOM     62  C   UNL A   1      42.298  31.092  36.963  1.00  0.00     0.031 C 
ATOM     63  C   UNL A   1      42.820  29.471  31.902  1.00  0.00     0.029 A 
ATOM     64  C   UNL A   1      42.087  28.845  32.900  1.00  0.00     0.049 A 
ATOM     65  H   UNL A   1      40.338  27.740  32.747  1.00  0.00     0.167 HD
ATOM     66  C   UNL A   1      42.052  29.613  35.180  1.00  0.00     0.074 A 
ATOM     67  C   UNL A   1      42.589  29.864  36.500  1.00  0.00     0.031 C 
ATOM     68  C   UNL A   1      42.208  28.563  34.313  1.00  0.00     0.037 A 
BRANCH  55  69
ATOM     69  C   UNL A   1      40.144  27.215  28.755  1.00  0.00     0.057 A 
ATOM     70  C   UNL A   1      39.606  25.942  28.442  1.00  0.00     0.134 A 
ATOM     71  C   UNL A   1      40.763  27.831  27.638  1.00  0.00     0.134 A 
ATOM     72  F   UNL A   1      38.904  25.244  29.343  1.00  0.00    -0.206 F 
ATOM     73  C   UNL A   1      39.726  25.322  27.179  1.00  0.00     0.040 A 
ATOM     74  C   UNL A   1      40.927  27.203  26.379  1.00  0.00     0.040 A 
ATOM     75  F   UNL A   1      41.226  29.089  27.696  1.00  0.00    -0.206 F 
ATOM     76  C   UNL A   1      40.403  25.943  26.142  1.00  0.00     0.006 A 
ENDBRANCH  55  69
BRANCH  56  77
ATOM     77  C   UNL A   1      40.306  34.075  36.432  1.00  0.00     0.057 A 
ATOM     78  C   UNL A   1      39.138  33.462  36.975  1.00  0.00     0.134 A 
ATOM     79  C   UNL A   1      40.651  35.302  36.995  1.00  0.00     0.134 A 
ATOM     80  F   UNL A   1      38.707  32.289  36.479  1.00  0.00    -0.206 F 
ATOM     81  C   UNL A   1      38.503  33.915  38.137  1.00  0.00     0.040 A 
ATOM     82  C   UNL A   1      39.916  35.844  38.078  1.00  0.00     0.040 A 
ATOM     83  F   UNL A   1      41.798  35.910  36.661  1.00  0.00    -0.206 F 
ATOM     84  C   UNL A   1      38.904  35.109  38.703  1.00  0.00     0.006 A 
ENDBRANCH  56  77
BRANCH  68  85
ATOM     85  C   UNL A   1      42.396  27.087  34.691  1.00  0.00     0.057 A 
ATOM     86  C   UNL A   1      43.335  26.247  34.091  1.00  0.00     0.134 A 
ATOM     87  C   UNL A   1      41.756  26.506  35.830  1.00  0.00     0.134 A 
ATOM     88  F   UNL A   1      44.132  26.658  33.102  1.00  0.00    -0.206 F 
ATOM     89  C   UNL A   1      43.558  24.932  34.519  1.00  0.00     0.040 A 
ATOM     90  C   UNL A   1      42.061  25.240  36.336  1.00  0.00     0.040 A 
ATOM     91  F   UNL A   1      40.816  27.136  36.548  1.00  0.00    -0.206 F 
ATOM     92  C   UNL A   1      42.940  24.428  35.653  1.00  0.00     0.006 A 
ENDBRANCH  68  85
ENDBRANCH  42  43
ENDBRANCH  35  37
ENDBRANCH  34  35
ENDBRANCH  33  34
ENDBRANCH  32  33
ENDBRANCH  31  32
ENDBRANCH   1  31
TORSDOF 18
ENDMDL
MODEL 2
REMARK VINA RESULT:     -15.7      5.210     10.564
REMARK SMILES Cc1ccccc1[C@@H]1[NH2+][C@H](C(=O)OCCOCCOCCOC(=O)c2ccc(-c3c4nc(c(-c5c(F)cccc5F)c5ccc([nH]5)c(-c5c(F)cccc5F)c5nc(c(-c6c(F)cccc6F)c6ccc3[nH]6)C=C5)C=C4)cc2)CC2=c3ccccc3=N[C@@H]21
REMARK SMILES IDX 18 1 17 2 16 3 15 4 14 5 13 6 11 7 12 8 10 9 8 10 9 11 88 12
REMARK SMILES IDX 80 15 87 16 79 17 81 18 86 19 82 20 85 21 83 22 84 23 7 24
REMARK SMILES IDX 1 25 2 26 3 27 4 28 6 29 5 30 19 31 20 32 21 33 22 34 23 35
REMARK SMILES IDX 24 36 25 37 26 38 78 39 27 40 77 41 28 42 29 43 30 44 71 45
REMARK SMILES IDX 31 46 76 47 70 48 72 49 32 50 75 51 69 52 68 53 33 55 59 56
REMARK SMILES IDX 42 57 58 58 43 59 46 60 57 61 73 62 44 63 45 64 56 66 74 67
REMARK SMILES IDX 47 68 34 69 35 70 40 71 36 72 37 73 39 74 41 75 38 76 60 77
REMARK SMILES IDX 61 78 66 79 62 80 63 81 65 82 67 83 64 84 48 85 49 86 54 87
REMARK SMILES IDX 50 88 51 89 53 90 55 91 52 92
REMARK H PARENT 9 13 9 14 72 54 46 65
REMARK Flexibility Score: inf
ROOT
ATOM      1  C   UNL A   1      38.819  21.669  26.008  1.00  0.00     0.188 C 
ENDROOT
BRANCH   1   2
ATOM      2  C   UNL A   1      37.461  22.061  25.477  1.00  0.00     0.188 C 
BRANCH   2   3
ATOM      3  O   UNL A   1      37.423  23.256  24.735  1.00  0.00    -0.376 OA
BRANCH   3   4
ATOM      4  C   UNL A   1      36.085  23.629  24.511  1.00  0.00     0.202 C 
BRANCH   4   5
ATOM      5  C   UNL A   1      35.390  23.220  23.189  1.00  0.00     0.261 C 
BRANCH   5   6
ATOM      6  O   UNL A   1      34.139  23.971  22.628  1.00  0.00    -0.459 OA
BRANCH   6   7
ATOM      7  C   UNL A   1      33.566  25.320  22.575  1.00  0.00     0.365 C 
ATOM      8  O   UNL A   1      33.709  26.220  21.754  1.00  0.00    -0.245 OA
BRANCH   7   9
ATOM      9  C   UNL A   1      32.332  25.332  23.318  1.00  0.00     0.298 C 
ATOM     10  C   UNL A   1      31.570  24.051  25.027  1.00  0.00     0.243 C 
ATOM     11  N   UNL A   1      32.722  24.861  24.636  1.00  0.00    -0.326 N 
ATOM     12  C   UNL A   1      30.514  25.325  25.388  1.00  0.00     0.196 C 
ATOM     13  H   UNL A   1      33.572  24.298  24.592  1.00  0.00     0.347 HD
ATOM     14  H   UNL A   1      32.937  25.611  25.293  1.00  0.00     0.347 HD
ATOM     15  C   UNL A   1      30.627  26.542  24.311  1.00  0.00    -0.024 C 
ATOM     16  N   UNL A   1      30.957  26.033  26.611  1.00  0.00    -0.270 NA
ATOM     17  C   UNL A   1      31.204  26.299  22.963  1.00  0.00     0.111 C 
ATOM     18  C   UNL A   1      30.967  27.709  24.862  1.00  0.00     0.002 A 
ATOM     19  C   UNL A   1      31.254  27.245  26.227  1.00  0.00     0.066 A 
ATOM     20  C   UNL A   1      31.648  28.847  24.271  1.00  0.00     0.010 A 
ATOM     21  C   UNL A   1      32.102  28.157  27.019  1.00  0.00     0.028 A 
ATOM     22  C   UNL A   1      32.551  29.506  25.010  1.00  0.00     0.001 A 
ATOM     23  C   UNL A   1      32.741  29.170  26.407  1.00  0.00     0.002 A 
BRANCH  10  24
ATOM     24  C   UNL A   1      32.123  22.342  25.127  1.00  0.00     0.015 A 
ATOM     25  C   UNL A   1      31.958  21.241  22.001  1.00  0.00     0.045 C 
ATOM     26  C   UNL A   1      32.197  21.076  23.965  1.00  0.00    -0.042 A 
ATOM     27  C   UNL A   1      32.852  19.890  24.253  1.00  0.00     0.004 A 
ATOM     28  C   UNL A   1      33.562  19.860  25.463  1.00  0.00     0.000 A 
ATOM     29  C   UNL A   1      32.925  22.160  26.260  1.00  0.00     0.010 A 
ATOM     30  C   UNL A   1      33.620  20.948  26.395  1.00  0.00     0.001 A 
ENDBRANCH  10  24
ENDBRANCH   7   9
ENDBRANCH   6   7
ENDBRANCH   5   6
ENDBRANCH   4   5
ENDBRANCH   3   4
ENDBRANCH   2   3
ENDBRANCH   1   2
BRANCH   1  31
ATOM     31  O   UNL A   1      40.548  21.119  25.781  1.00  0.00    -0.376 OA
BRANCH  31  32
ATOM     32  C   UNL A   1      41.645  20.210  27.099  1.00  0.00     0.202 C 
BRANCH  32  33
ATOM     33  C   UNL A   1      42.730  18.676  26.528  1.00  0.00     0.261 C 
BRANCH  33  34
ATOM     34  O   UNL A   1      44.179  19.145  25.457  1.00  0.00    -0.460 OA
BRANCH  34  35
ATOM     35  C   UNL A   1      45.178  20.406  25.108  1.00  0.00     0.338 C 
ATOM     36  O   UNL A   1      46.377  20.138  25.435  1.00  0.00    -0.246 OA
BRANCH  35  37
ATOM     37  C   UNL A   1      45.014  22.141  24.639  1.00  0.00     0.060 A 
ATOM     38  C   UNL A   1      45.959  23.220  24.611  1.00  0.00     0.016 A 
ATOM     39  C   UNL A   1      43.880  22.850  24.350  1.00  0.00     0.016 A 
ATOM     40  C   UNL A   1      45.682  24.812  24.919  1.00  0.00     0.010 A 
ATOM     41  C   UNL A   1      43.710  24.297  24.901  1.00  0.00     0.010 A 
ATOM     42  C   UNL A   1      44.496  25.392  25.351  1.00  0.00    -0.014 A 
BRANCH  42  43
ATOM     43  C   UNL A   1      44.157  26.689  26.605  1.00  0.00     0.031 A 
ATOM     44  C   UNL A   1      42.613  27.518  27.143  1.00  0.00     0.074 A 
ATOM     45  C   UNL A   1      45.158  26.872  27.540  1.00  0.00     0.049 A 
ATOM     46  N   UNL A   1      42.076  28.697  26.818  1.00  0.00    -0.248 NA
ATOM     47  C   UNL A   1      41.510  26.927  28.066  1.00  0.00     0.031 C 
ATOM     48  C   UNL A   1      45.178  27.551  28.860  1.00  0.00     0.029 A 
ATOM     49  N   UNL A   1      46.481  26.380  27.495  1.00  0.00    -0.354 N 
ATOM     50  C   UNL A   1      40.780  28.816  27.522  1.00  0.00     0.074 A 
ATOM     51  C   UNL A   1      40.358  27.485  27.720  1.00  0.00     0.031 C 
ATOM     52  C   UNL A   1      46.456  27.748  29.255  1.00  0.00     0.029 A 
ATOM     53  C   UNL A   1      47.291  27.320  28.154  1.00  0.00     0.049 A 
ATOM     54  H   UNL A   1      46.779  25.539  27.081  1.00  0.00     0.167 HD
ATOM     55  C   UNL A   1      40.518  29.560  28.679  1.00  0.00     0.037 A 
ATOM     56  C   UNL A   1      48.044  28.103  27.339  1.00  0.00     0.037 A 
ATOM     57  C   UNL A   1      41.784  29.941  29.257  1.00  0.00     0.049 A 
ATOM     58  C   UNL A   1      47.377  29.472  27.273  1.00  0.00     0.074 A 
ATOM     59  C   UNL A   1      42.501  29.644  30.401  1.00  0.00     0.029 A 
ATOM     60  N   UNL A   1      42.651  30.555  28.399  1.00  0.00    -0.354 N 
ATOM     61  N   UNL A   1      46.112  29.714  27.541  1.00  0.00    -0.248 NA
ATOM     62  C   UNL A   1      48.140  30.701  27.134  1.00  0.00     0.031 C 
ATOM     63  C   UNL A   1      43.813  30.188  30.222  1.00  0.00     0.029 A 
ATOM     64  C   UNL A   1      43.867  30.767  28.962  1.00  0.00     0.049 A 
ATOM     65  H   UNL A   1      42.420  30.815  27.478  1.00  0.00     0.167 HD
ATOM     66  C   UNL A   1      45.918  31.057  27.738  1.00  0.00     0.074 A 
ATOM     67  C   UNL A   1      47.216  31.626  27.446  1.00  0.00     0.031 C 
ATOM     68  C   UNL A   1      44.756  31.617  28.202  1.00  0.00     0.037 A 
BRANCH  55  69
ATOM     69  C   UNL A   1      39.202  29.538  29.543  1.00  0.00     0.057 A 
ATOM     70  C   UNL A   1      39.056  28.636  30.625  1.00  0.00     0.134 A 
ATOM     71  C   UNL A   1      38.079  30.392  29.393  1.00  0.00     0.134 A 
ATOM     72  F   UNL A   1      40.048  27.811  30.981  1.00  0.00    -0.206 F 
ATOM     73  C   UNL A   1      37.897  28.547  31.429  1.00  0.00     0.040 A 
ATOM     74  C   UNL A   1      36.896  30.284  30.165  1.00  0.00     0.040 A 
ATOM     75  F   UNL A   1      38.073  31.396  28.504  1.00  0.00    -0.206 F 
ATOM     76  C   UNL A   1      36.802  29.360  31.192  1.00  0.00     0.006 A 
ENDBRANCH  55  69
BRANCH  56  77
ATOM     77  C   UNL A   1      48.695  27.217  26.300  1.00  0.00     0.057 A 
ATOM     78  C   UNL A   1      48.257  27.408  24.955  1.00  0.00     0.134 A 
ATOM     79  C   UNL A   1      49.945  26.616  26.439  1.00  0.00     0.134 A 
ATOM     80  F   UNL A   1      47.052  27.953  24.716  1.00  0.00    -0.206 F 
ATOM     81  C   UNL A   1      49.091  27.233  23.845  1.00  0.00     0.040 A 
ATOM     82  C   UNL A   1      50.733  26.294  25.309  1.00  0.00     0.040 A 
ATOM     83  F   UNL A   1      50.518  26.504  27.646  1.00  0.00    -0.206 F 
ATOM     84  C   UNL A   1      50.346  26.685  24.023  1.00  0.00     0.006 A 
ENDBRANCH  56  77
BRANCH  68  85
ATOM     85  C   UNL A   1      44.244  33.034  27.908  1.00  0.00     0.057 A 
ATOM     86  C   UNL A   1      44.074  34.015  28.886  1.00  0.00     0.134 A 
ATOM     87  C   UNL A   1      44.090  33.525  26.574  1.00  0.00     0.134 A 
ATOM     88  F   UNL A   1      44.313  33.783  30.179  1.00  0.00    -0.206 F 
ATOM     89  C   UNL A   1      43.701  35.331  28.583  1.00  0.00     0.040 A 
ATOM     90  C   UNL A   1      43.838  34.863  26.259  1.00  0.00     0.040 A 
ATOM     91  F   UNL A   1      44.203  32.751  25.486  1.00  0.00    -0.206 F 
ATOM     92  C   UNL A   1      43.601  35.767  27.271  1.00  0.00     0.006 A 
ENDBRANCH  68  85
ENDBRANCH  42  43
ENDBRANCH  35  37
ENDBRANCH  34  35
ENDBRANCH  33  34
ENDBRANCH  32  33
ENDBRANCH  31  32
ENDBRANCH   1  31
TORSDOF 18
ENDMDL
MODEL 3
REMARK VINA RESULT:     -15.0      2.534      3.630
REMARK SMILES Cc1ccccc1[C@@H]1[NH2+][C@H](C(=O)OCCOCCOCCOC(=O)c2ccc(-c3c4nc(c(-c5c(F)cccc5F)c5ccc([nH]5)c(-c5c(F)cccc5F)c5nc(c(-c6c(F)cccc6F)c6ccc3[nH]6)C=C5)C=C4)cc2)CC2=c3ccccc3=N[C@@H]21
REMARK SMILES IDX 18 1 17 2 16 3 15 4 14 5 13 6 11 7 12 8 10 9 8 10 9 11 88 12
REMARK SMILES IDX 80 15 87 16 79 17 81 18 86 19 82 20 85 21 83 22 84 23 7 24
REMARK SMILES IDX 1 25 2 26 3 27 4 28 6 29 5 30 19 31 20 32 21 33 22 34 23 35
REMARK SMILES IDX 24 36 25 37 26 38 78 39 27 40 77 41 28 42 29 43 30 44 71 45
REMARK SMILES IDX 31 46 76 47 70 48 72 49 32 50 75 51 69 52 68 53 33 55 59 56
REMARK SMILES IDX 42 57 58 58 43 59 46 60 57 61 73 62 44 63 45 64 56 66 74 67
REMARK SMILES IDX 47 68 34 69 35 70 40 71 36 72 37 73 39 74 41 75 38 76 60 77
REMARK SMILES IDX 61 78 66 79 62 80 63 81 65 82 67 83 64 84 48 85 49 86 54 87
REMARK SMILES IDX 50 88 51 89 53 90 55 91 52 92
REMARK H PARENT 9 13 9 14 72 54 46 65
REMARK Flexibility Score: inf
ROOT
ATOM      1  C   UNL A   1      33.318  31.349  27.259  1.00  0.00     0.188 C 
ENDROOT
BRANCH   1   2
ATOM      2  C   UNL A   1      32.906  29.897  27.260  1.00  0.00     0.188 C 
BRANCH   2   3
ATOM      3  O   UNL A   1      32.878  29.275  25.998  1.00  0.00    -0.376 OA
BRANCH   3   4
ATOM      4  C   UNL A   1      32.809  27.880  26.162  1.00  0.00     0.202 C 
BRANCH   4   5
ATOM      5  C   UNL A   1      31.513  27.239  26.716  1.00  0.00     0.261 C 
BRANCH   5   6
ATOM      6  O   UNL A   1      31.057  25.793  26.330  1.00  0.00    -0.459 OA
BRANCH   6   7
ATOM      7  C   UNL A   1      31.501  24.402  26.457  1.00  0.00     0.365 C 
ATOM      8  O   UNL A   1      31.295  23.571  27.336  1.00  0.00    -0.245 OA
BRANCH   7   9
ATOM      9  C   UNL A   1      31.771  23.877  25.143  1.00  0.00     0.298 C 
ATOM     10  C   UNL A   1      32.199  24.887  23.158  1.00  0.00     0.243 C 
ATOM     11  N   UNL A   1      32.644  24.875  24.549  1.00  0.00    -0.326 N 
ATOM     12  C   UNL A   1      32.922  23.433  22.680  1.00  0.00     0.196 C 
ATOM     13  H   UNL A   1      32.514  25.788  24.987  1.00  0.00     0.347 HD
ATOM     14  H   UNL A   1      33.637  24.669  24.660  1.00  0.00     0.347 HD
ATOM     15  C   UNL A   1      32.788  22.274  23.818  1.00  0.00    -0.024 C 
ATOM     16  N   UNL A   1      34.396  23.575  22.644  1.00  0.00    -0.270 NA
ATOM     17  C   UNL A   1      31.742  22.375  24.869  1.00  0.00     0.111 C 
ATOM     18  C   UNL A   1      33.964  21.808  24.243  1.00  0.00     0.002 A 
ATOM     19  C   UNL A   1      34.851  22.754  23.551  1.00  0.00     0.066 A 
ATOM     20  C   UNL A   1      34.315  21.208  25.518  1.00  0.00     0.010 A 
ATOM     21  C   UNL A   1      36.206  22.859  24.128  1.00  0.00     0.028 A 
ATOM     22  C   UNL A   1      35.500  21.514  26.065  1.00  0.00     0.001 A 
ATOM     23  C   UNL A   1      36.459  22.318  25.333  1.00  0.00     0.002 A 
BRANCH  10  24
ATOM     24  C   UNL A   1      31.462  26.498  22.841  1.00  0.00     0.015 A 
ATOM     25  C   UNL A   1      28.451  26.310  24.224  1.00  0.00     0.045 C 
ATOM     26  C   UNL A   1      29.889  27.131  23.129  1.00  0.00    -0.042 A 
ATOM     27  C   UNL A   1      29.631  28.481  22.964  1.00  0.00     0.004 A 
ATOM     28  C   UNL A   1      30.747  29.293  22.708  1.00  0.00     0.000 A 
ATOM     29  C   UNL A   1      32.464  27.454  22.640  1.00  0.00     0.010 A 
ATOM     30  C   UNL A   1      32.090  28.806  22.587  1.00  0.00     0.001 A 
ENDBRANCH  10  24
ENDBRANCH   7   9
ENDBRANCH   6   7
ENDBRANCH   5   6
ENDBRANCH   4   5
ENDBRANCH   3   4
ENDBRANCH   2   3
ENDBRANCH   1   2
BRANCH   1  31
ATOM     31  O   UNL A   1      34.498  32.697  27.628  1.00  0.00    -0.376 OA
BRANCH  31  32
ATOM     32  C   UNL A   1      34.043  34.531  28.068  1.00  0.00     0.202 C 
BRANCH  32  33
ATOM     33  C   UNL A   1      33.622  34.978  29.934  1.00  0.00     0.261 C 
BRANCH  33  34
ATOM     34  O   UNL A   1      34.812  34.243  31.163  1.00  0.00    -0.460 OA
BRANCH  34  35
ATOM     35  C   UNL A   1      36.025  33.139  31.290  1.00  0.00     0.338 C 
ATOM     36  O   UNL A   1      36.879  33.502  32.158  1.00  0.00    -0.246 OA
BRANCH  35  37
ATOM     37  C   UNL A   1      36.616  31.701  30.372  1.00  0.00     0.060 A 
ATOM     38  C   UNL A   1      36.632  30.302  30.688  1.00  0.00     0.016 A 
ATOM     39  C   UNL A   1      37.336  31.660  29.210  1.00  0.00     0.016 A 
ATOM     40  C   UNL A   1      37.762  29.185  30.263  1.00  0.00     0.010 A 
ATOM     41  C   UNL A   1      38.514  30.651  29.064  1.00  0.00     0.010 A 
ATOM     42  C   UNL A   1      38.959  29.410  29.594  1.00  0.00    -0.014 A 
BRANCH  42  43
ATOM     43  C   UNL A   1      40.648  28.742  29.855  1.00  0.00     0.031 A 
ATOM     44  C   UNL A   1      41.564  27.354  29.083  1.00  0.00     0.074 A 
ATOM     45  C   UNL A   1      41.517  29.594  30.508  1.00  0.00     0.049 A 
ATOM     46  N   UNL A   1      41.778  26.098  29.481  1.00  0.00    -0.248 NA
ATOM     47  C   UNL A   1      42.229  27.343  27.677  1.00  0.00     0.031 C 
ATOM     48  C   UNL A   1      42.996  29.601  30.642  1.00  0.00     0.029 A 
ATOM     49  N   UNL A   1      41.201  30.778  31.210  1.00  0.00    -0.354 N 
ATOM     50  C   UNL A   1      42.543  25.407  28.419  1.00  0.00     0.074 A 
ATOM     51  C   UNL A   1      42.207  26.095  27.234  1.00  0.00     0.031 C 
ATOM     52  C   UNL A   1      43.363  30.442  31.635  1.00  0.00     0.029 A 
ATOM     53  C   UNL A   1      42.137  30.902  32.250  1.00  0.00     0.049 A 
ATOM     54  H   UNL A   1      40.465  31.399  31.008  1.00  0.00     0.167 HD
ATOM     55  C   UNL A   1      43.915  25.130  28.418  1.00  0.00     0.037 A 
ATOM     56  C   UNL A   1      41.669  30.590  33.486  1.00  0.00     0.037 A 
ATOM     57  C   UNL A   1      44.524  25.900  29.475  1.00  0.00     0.049 A 
ATOM     58  C   UNL A   1      42.203  29.209  33.845  1.00  0.00     0.074 A 
ATOM     59  C   UNL A   1      45.406  26.962  29.570  1.00  0.00     0.029 A 
ATOM     60  N   UNL A   1      43.941  25.763  30.702  1.00  0.00    -0.354 N 
ATOM     61  N   UNL A   1      42.618  28.308  32.982  1.00  0.00    -0.248 NA
ATOM     62  C   UNL A   1      42.532  28.835  35.211  1.00  0.00     0.031 C 
ATOM     63  C   UNL A   1      45.387  27.395  30.934  1.00  0.00     0.029 A 
ATOM     64  C   UNL A   1      44.471  26.611  31.620  1.00  0.00     0.049 A 
ATOM     65  H   UNL A   1      43.220  25.122  30.899  1.00  0.00     0.167 HD
ATOM     66  C   UNL A   1      43.355  27.344  33.621  1.00  0.00     0.074 A 
ATOM     67  C   UNL A   1      43.245  27.712  35.016  1.00  0.00     0.031 C 
ATOM     68  C   UNL A   1      44.071  26.363  32.987  1.00  0.00     0.037 A 
BRANCH  55  69
ATOM     69  C   UNL A   1      44.769  24.575  27.217  1.00  0.00     0.057 A 
ATOM     70  C   UNL A   1      44.721  23.205  26.861  1.00  0.00     0.134 A 
ATOM     71  C   UNL A   1      45.610  25.328  26.359  1.00  0.00     0.134 A 
ATOM     72  F   UNL A   1      43.911  22.349  27.498  1.00  0.00    -0.206 F 
ATOM     73  C   UNL A   1      45.473  22.633  25.811  1.00  0.00     0.040 A 
ATOM     74  C   UNL A   1      46.402  24.761  25.331  1.00  0.00     0.040 A 
ATOM     75  F   UNL A   1      45.695  26.664  26.454  1.00  0.00    -0.206 F 
ATOM     76  C   UNL A   1      46.333  23.406  25.049  1.00  0.00     0.006 A 
ENDBRANCH  55  69
BRANCH  56  77
ATOM     77  C   UNL A   1      40.324  31.260  33.665  1.00  0.00     0.057 A 
ATOM     78  C   UNL A   1      39.195  30.388  33.714  1.00  0.00     0.134 A 
ATOM     79  C   UNL A   1      40.131  32.515  34.239  1.00  0.00     0.134 A 
ATOM     80  F   UNL A   1      39.271  29.165  33.162  1.00  0.00    -0.206 F 
ATOM     81  C   UNL A   1      38.053  30.655  34.478  1.00  0.00     0.040 A 
ATOM     82  C   UNL A   1      38.916  32.848  34.883  1.00  0.00     0.040 A 
ATOM     83  F   UNL A   1      41.155  33.371  34.370  1.00  0.00    -0.206 F 
ATOM     84  C   UNL A   1      37.917  31.890  35.080  1.00  0.00     0.006 A 
ENDBRANCH  56  77
BRANCH  68  85
ATOM     85  C   UNL A   1      44.409  24.973  33.545  1.00  0.00     0.057 A 
ATOM     86  C   UNL A   1      45.688  24.415  33.515  1.00  0.00     0.134 A 
ATOM     87  C   UNL A   1      43.475  24.218  34.322  1.00  0.00     0.134 A 
ATOM     88  F   UNL A   1      46.727  25.042  32.958  1.00  0.00    -0.206 F 
ATOM     89  C   UNL A   1      45.994  23.188  34.118  1.00  0.00     0.040 A 
ATOM     90  C   UNL A   1      43.803  23.057  35.026  1.00  0.00     0.040 A 
ATOM     91  F   UNL A   1      42.191  24.569  34.475  1.00  0.00    -0.206 F 
ATOM     92  C   UNL A   1      45.062  22.514  34.892  1.00  0.00     0.006 A 
ENDBRANCH  68  85
ENDBRANCH  42  43
ENDBRANCH  35  37
ENDBRANCH  34  35
ENDBRANCH  33  34
ENDBRANCH  32  33
ENDBRANCH  31  32
ENDBRANCH   1  31
TORSDOF 18
ENDMDL
