MODEL 1
REMARK VINA RESULT:     -10.2      0.000      0.000
REMARK SMILES O=C(Cn1cnc2c(S)ncnc21)OCCOCCOCCOC(=O)c1ccc(-c2c3nc(c(-c4c(F)cccc4F)c4ccc([nH]4)c(-c4c(F)cccc4F)c4nc(c(-c5c(F)cccc5F)c5ccc2[nH]5)C=C4)C=C3)cc1
REMARK SMILES IDX 18 1 17 2 16 3 15 4 14 5 2 6 1 7 3 8 4 9 5 10 13 11 6 12
REMARK SMILES IDX 7 13 12 14 8 15 11 16 10 17 9 18 19 20 20 21 21 22 22 23
REMARK SMILES IDX 23 24 24 25 25 26 26 27 27 28 79 29 28 30 78 31 29 32 30 33
REMARK SMILES IDX 31 34 72 35 32 36 77 37 71 38 73 39 33 40 76 41 70 42 69 43
REMARK SMILES IDX 34 45 60 46 43 47 59 48 44 49 47 50 58 51 74 52 45 53 46 54
REMARK SMILES IDX 57 56 75 57 48 58 35 59 36 60 41 61 37 62 38 63 40 64 42 65
REMARK SMILES IDX 39 66 61 67 62 68 67 69 63 70 64 71 66 72 68 73 65 74 49 75
REMARK SMILES IDX 50 76 55 77 51 78 52 79 54 80 56 81 53 82
REMARK H PARENT 9 19 73 44 47 55
REMARK Flexibility Score: inf
ROOT
ATOM      1  C   UNL A   1      38.693  22.208  26.127  1.00  0.00     0.188 C 
ENDROOT
BRANCH   1   2
ATOM      2  O   UNL A   1      37.774  21.940  25.082  1.00  0.00    -0.376 OA
BRANCH   2   3
ATOM      3  C   UNL A   1      36.821  20.910  25.322  1.00  0.00     0.202 C 
BRANCH   3   4
ATOM      4  C   UNL A   1      35.419  21.113  24.741  1.00  0.00     0.261 C 
BRANCH   4   5
ATOM      5  O   UNL A   1      34.389  20.211  25.212  1.00  0.00    -0.462 OA
BRANCH   5   6
ATOM      6  C   UNL A   1      33.098  20.085  24.845  1.00  0.00     0.326 C 
ATOM      7  O   UNL A   1      32.443  19.130  25.271  1.00  0.00    -0.250 OA
BRANCH   6   8
ATOM      8  C   UNL A   1      32.508  20.970  23.786  1.00  0.00     0.247 C 
BRANCH   8   9
ATOM      9  N   UNL A   1      32.315  22.361  24.118  1.00  0.00    -0.304 N 
ATOM     10  C   UNL A   1      32.853  23.413  23.426  1.00  0.00     0.202 A 
ATOM     11  C   UNL A   1      31.545  22.878  25.118  1.00  0.00     0.164 A 
ATOM     12  N   UNL A   1      32.504  24.569  23.949  1.00  0.00    -0.232 NA
ATOM     13  C   UNL A   1      31.681  24.253  25.012  1.00  0.00     0.140 A 
ATOM     14  N   UNL A   1      30.848  22.196  26.038  1.00  0.00    -0.217 NA
ATOM     15  C   UNL A   1      30.992  24.997  25.970  1.00  0.00     0.124 A 
ATOM     16  C   UNL A   1      30.250  23.019  26.917  1.00  0.00     0.225 A 
ATOM     17  N   UNL A   1      30.279  24.366  26.937  1.00  0.00    -0.228 NA
BRANCH  15  18
ATOM     18  S   UNL A   1      31.038  26.753  25.958  1.00  0.00    -0.121 SA
ATOM     19  H   UNL A   1      32.307  27.171  25.709  1.00  0.00     0.110 HD
ENDBRANCH  15  18
ENDBRANCH   8   9
ENDBRANCH   6   8
ENDBRANCH   5   6
ENDBRANCH   4   5
ENDBRANCH   3   4
ENDBRANCH   2   3
ENDBRANCH   1   2
BRANCH   1  20
ATOM     20  C   UNL A   1      40.042  21.470  26.017  1.00  0.00     0.188 C 
BRANCH  20  21
ATOM     21  O   UNL A   1      40.433  20.567  27.044  1.00  0.00    -0.376 OA
BRANCH  21  22
ATOM     22  C   UNL A   1      41.787  20.131  27.151  1.00  0.00     0.202 C 
BRANCH  22  23
ATOM     23  C   UNL A   1      42.238  18.929  26.329  1.00  0.00     0.261 C 
BRANCH  23  24
ATOM     24  O   UNL A   1      42.746  19.342  25.059  1.00  0.00    -0.460 OA
BRANCH  24  25
ATOM     25  C   UNL A   1      44.088  19.428  24.965  1.00  0.00     0.338 C 
ATOM     26  O   UNL A   1      44.883  18.505  24.940  1.00  0.00    -0.246 OA
BRANCH  25  27
ATOM     27  C   UNL A   1      44.505  20.841  24.934  1.00  0.00     0.060 A 
ATOM     28  C   UNL A   1      45.563  21.193  25.777  1.00  0.00     0.016 A 
ATOM     29  C   UNL A   1      43.755  21.816  24.260  1.00  0.00     0.016 A 
ATOM     30  C   UNL A   1      45.712  22.516  26.138  1.00  0.00     0.010 A 
ATOM     31  C   UNL A   1      43.907  23.144  24.620  1.00  0.00     0.010 A 
ATOM     32  C   UNL A   1      44.803  23.455  25.643  1.00  0.00    -0.014 A 
BRANCH  32  33
ATOM     33  C   UNL A   1      44.665  24.678  26.415  1.00  0.00     0.031 A 
ATOM     34  C   UNL A   1      45.811  25.608  26.469  1.00  0.00     0.074 A 
ATOM     35  C   UNL A   1      43.517  24.947  27.068  1.00  0.00     0.049 A 
ATOM     36  N   UNL A   1      46.476  25.997  27.509  1.00  0.00    -0.248 NA
ATOM     37  C   UNL A   1      46.286  26.161  25.196  1.00  0.00     0.031 C 
ATOM     38  C   UNL A   1      42.214  24.291  26.913  1.00  0.00     0.029 A 
ATOM     39  N   UNL A   1      43.263  25.943  27.962  1.00  0.00    -0.354 N 
ATOM     40  C   UNL A   1      47.363  26.962  27.049  1.00  0.00     0.074 A 
ATOM     41  C   UNL A   1      47.262  26.969  25.609  1.00  0.00     0.031 C 
ATOM     42  C   UNL A   1      41.269  25.035  27.525  1.00  0.00     0.029 A 
ATOM     43  C   UNL A   1      41.917  26.135  28.221  1.00  0.00     0.049 A 
ATOM     44  H   UNL A   1      43.972  26.478  28.386  1.00  0.00     0.167 HD
ATOM     45  C   UNL A   1      48.021  27.815  27.879  1.00  0.00     0.037 A 
ATOM     46  C   UNL A   1      41.369  27.169  28.898  1.00  0.00     0.037 A 
ATOM     47  C   UNL A   1      48.032  27.374  29.243  1.00  0.00     0.049 A 
ATOM     48  C   UNL A   1      42.424  27.786  29.733  1.00  0.00     0.074 A 
ATOM     49  C   UNL A   1      48.563  26.288  29.912  1.00  0.00     0.029 A 
ATOM     50  N   UNL A   1      47.171  27.969  30.128  1.00  0.00    -0.354 N 
ATOM     51  N   UNL A   1      42.954  27.235  30.788  1.00  0.00    -0.248 NA
ATOM     52  C   UNL A   1      43.160  28.917  29.188  1.00  0.00     0.031 C 
ATOM     53  C   UNL A   1      47.672  26.034  30.994  1.00  0.00     0.029 A 
ATOM     54  C   UNL A   1      46.645  26.976  30.915  1.00  0.00     0.049 A 
ATOM     55  H   UNL A   1      46.967  28.930  30.187  1.00  0.00     0.167 HD
ATOM     56  C   UNL A   1      44.267  27.681  30.803  1.00  0.00     0.074 A 
ATOM     57  C   UNL A   1      44.294  28.809  29.882  1.00  0.00     0.031 C 
ATOM     58  C   UNL A   1      45.266  26.925  31.344  1.00  0.00     0.037 A 
BRANCH  45  59
ATOM     59  C   UNL A   1      48.450  29.190  27.467  1.00  0.00     0.057 A 
ATOM     60  C   UNL A   1      49.807  29.540  27.442  1.00  0.00     0.134 A 
ATOM     61  C   UNL A   1      47.540  30.253  27.309  1.00  0.00     0.134 A 
ATOM     62  F   UNL A   1      50.759  28.616  27.639  1.00  0.00    -0.206 F 
ATOM     63  C   UNL A   1      50.230  30.864  27.266  1.00  0.00     0.040 A 
ATOM     64  C   UNL A   1      47.948  31.569  27.086  1.00  0.00     0.040 A 
ATOM     65  F   UNL A   1      46.217  30.072  27.445  1.00  0.00    -0.206 F 
ATOM     66  C   UNL A   1      49.299  31.881  27.079  1.00  0.00     0.006 A 
ENDBRANCH  45  59
BRANCH  46  67
ATOM     67  C   UNL A   1      40.063  27.816  28.655  1.00  0.00     0.057 A 
ATOM     68  C   UNL A   1      39.086  27.875  29.656  1.00  0.00     0.134 A 
ATOM     69  C   UNL A   1      39.836  28.619  27.521  1.00  0.00     0.134 A 
ATOM     70  F   UNL A   1      39.235  27.181  30.793  1.00  0.00    -0.206 F 
ATOM     71  C   UNL A   1      37.959  28.697  29.546  1.00  0.00     0.040 A 
ATOM     72  C   UNL A   1      38.708  29.433  27.392  1.00  0.00     0.040 A 
ATOM     73  F   UNL A   1      40.744  28.708  26.538  1.00  0.00    -0.206 F 
ATOM     74  C   UNL A   1      37.770  29.484  28.414  1.00  0.00     0.006 A 
ENDBRANCH  46  67
BRANCH  58  75
ATOM     75  C   UNL A   1      44.864  25.761  32.205  1.00  0.00     0.057 A 
ATOM     76  C   UNL A   1      44.538  24.497  31.690  1.00  0.00     0.134 A 
ATOM     77  C   UNL A   1      44.943  25.878  33.597  1.00  0.00     0.134 A 
ATOM     78  F   UNL A   1      44.541  24.269  30.369  1.00  0.00    -0.206 F 
ATOM     79  C   UNL A   1      44.254  23.413  32.525  1.00  0.00     0.040 A 
ATOM     80  C   UNL A   1      44.693  24.793  34.442  1.00  0.00     0.040 A 
ATOM     81  F   UNL A   1      45.312  27.040  34.160  1.00  0.00    -0.206 F 
ATOM     82  C   UNL A   1      44.335  23.559  33.907  1.00  0.00     0.006 A 
ENDBRANCH  58  75
ENDBRANCH  32  33
ENDBRANCH  25  27
ENDBRANCH  24  25
ENDBRANCH  23  24
ENDBRANCH  22  23
ENDBRANCH  21  22
ENDBRANCH  20  21
ENDBRANCH   1  20
TORSDOF 19
ENDMDL
MODEL 2
REMARK VINA RESULT:      -9.9      1.649      2.483
REMARK SMILES O=C(Cn1cnc2c(S)ncnc21)OCCOCCOCCOC(=O)c1ccc(-c2c3nc(c(-c4c(F)cccc4F)c4ccc([nH]4)c(-c4c(F)cccc4F)c4nc(c(-c5c(F)cccc5F)c5ccc2[nH]5)C=C4)C=C3)cc1
REMARK SMILES IDX 18 1 17 2 16 3 15 4 14 5 2 6 1 7 3 8 4 9 5 10 13 11 6 12
REMARK SMILES IDX 7 13 12 14 8 15 11 16 10 17 9 18 19 20 20 21 21 22 22 23
REMARK SMILES IDX 23 24 24 25 25 26 26 27 27 28 79 29 28 30 78 31 29 32 30 33
REMARK SMILES IDX 31 34 72 35 32 36 77 37 71 38 73 39 33 40 76 41 70 42 69 43
REMARK SMILES IDX 34 45 60 46 43 47 59 48 44 49 47 50 58 51 74 52 45 53 46 54
REMARK SMILES IDX 57 56 75 57 48 58 35 59 36 60 41 61 37 62 38 63 40 64 42 65
REMARK SMILES IDX 39 66 61 67 62 68 67 69 63 70 64 71 66 72 68 73 65 74 49 75
REMARK SMILES IDX 50 76 55 77 51 78 52 79 54 80 56 81 53 82
REMARK H PARENT 9 19 73 44 47 55
REMARK Flexibility Score: inf
ROOT
ATOM      1  C   UNL A   1      39.329  22.114  26.177  1.00  0.00     0.188 C 
ENDROOT
BRANCH   1   2
ATOM      2  O   UNL A   1      37.971  22.117  25.774  1.00  0.00    -0.376 OA
BRANCH   2   3
ATOM      3  C   UNL A   1      37.301  23.373  25.803  1.00  0.00     0.202 C 
BRANCH   3   4
ATOM      4  C   UNL A   1      36.206  23.599  24.758  1.00  0.00     0.261 C 
BRANCH   4   5
ATOM      5  O   UNL A   1      35.327  24.729  24.979  1.00  0.00    -0.462 OA
BRANCH   5   6
ATOM      6  C   UNL A   1      34.057  24.944  24.581  1.00  0.00     0.326 C 
ATOM      7  O   UNL A   1      33.786  25.982  23.973  1.00  0.00    -0.250 OA
BRANCH   6   8
ATOM      8  C   UNL A   1      32.945  24.040  25.031  1.00  0.00     0.247 C 
BRANCH   8   9
ATOM      9  N   UNL A   1      32.737  22.824  24.282  1.00  0.00    -0.304 N 
ATOM     10  C   UNL A   1      32.394  22.770  22.957  1.00  0.00     0.202 A 
ATOM     11  C   UNL A   1      32.890  21.542  24.719  1.00  0.00     0.164 A 
ATOM     12  N   UNL A   1      32.280  21.530  22.534  1.00  0.00    -0.232 NA
ATOM     13  C   UNL A   1      32.588  20.744  23.627  1.00  0.00     0.140 A 
ATOM     14  N   UNL A   1      33.212  21.142  25.958  1.00  0.00    -0.217 NA
ATOM     15  C   UNL A   1      32.650  19.369  23.857  1.00  0.00     0.124 A 
ATOM     16  C   UNL A   1      33.215  19.802  26.060  1.00  0.00     0.225 A 
ATOM     17  N   UNL A   1      32.957  18.900  25.093  1.00  0.00    -0.228 NA
BRANCH  15  18
ATOM     18  S   UNL A   1      32.324  18.220  22.570  1.00  0.00    -0.121 SA
ATOM     19  H   UNL A   1      32.741  16.983  22.950  1.00  0.00     0.110 HD
ENDBRANCH  15  18
ENDBRANCH   8   9
ENDBRANCH   6   8
ENDBRANCH   5   6
ENDBRANCH   4   5
ENDBRANCH   3   4
ENDBRANCH   2   3
ENDBRANCH   1   2
BRANCH   1  20
ATOM     20  C   UNL A   1      39.989  20.723  26.247  1.00  0.00     0.188 C 
BRANCH  20  21
ATOM     21  O   UNL A   1      40.720  20.351  27.409  1.00  0.00    -0.376 OA
BRANCH  21  22
ATOM     22  C   UNL A   1      42.060  19.875  27.302  1.00  0.00     0.202 C 
BRANCH  22  23
ATOM     23  C   UNL A   1      42.404  18.894  26.186  1.00  0.00     0.261 C 
BRANCH  23  24
ATOM     24  O   UNL A   1      42.818  19.588  25.007  1.00  0.00    -0.460 OA
BRANCH  24  25
ATOM     25  C   UNL A   1      44.149  19.681  24.818  1.00  0.00     0.338 C 
ATOM     26  O   UNL A   1      44.933  18.763  24.653  1.00  0.00    -0.246 OA
BRANCH  25  27
ATOM     27  C   UNL A   1      44.573  21.091  24.879  1.00  0.00     0.060 A 
ATOM     28  C   UNL A   1      45.595  21.392  25.784  1.00  0.00     0.016 A 
ATOM     29  C   UNL A   1      43.857  22.104  24.225  1.00  0.00     0.016 A 
ATOM     30  C   UNL A   1      45.734  22.694  26.220  1.00  0.00     0.010 A 
ATOM     31  C   UNL A   1      43.999  23.411  24.660  1.00  0.00     0.010 A 
ATOM     32  C   UNL A   1      44.851  23.663  25.735  1.00  0.00    -0.014 A 
BRANCH  32  33
ATOM     33  C   UNL A   1      44.685  24.846  26.564  1.00  0.00     0.031 A 
ATOM     34  C   UNL A   1      45.823  25.777  26.694  1.00  0.00     0.074 A 
ATOM     35  C   UNL A   1      43.518  25.075  27.198  1.00  0.00     0.049 A 
ATOM     36  N   UNL A   1      46.458  26.117  27.770  1.00  0.00    -0.248 NA
ATOM     37  C   UNL A   1      46.328  26.395  25.463  1.00  0.00     0.031 C 
ATOM     38  C   UNL A   1      42.224  24.422  26.976  1.00  0.00     0.029 A 
ATOM     39  N   UNL A   1      43.234  26.024  28.133  1.00  0.00    -0.354 N 
ATOM     40  C   UNL A   1      47.350  27.109  27.382  1.00  0.00     0.074 A 
ATOM     41  C   UNL A   1      47.288  27.187  25.942  1.00  0.00     0.031 C 
ATOM     42  C   UNL A   1      41.258  25.129  27.599  1.00  0.00     0.029 A 
ATOM     43  C   UNL A   1      41.880  26.196  28.365  1.00  0.00     0.049 A 
ATOM     44  H   UNL A   1      43.929  26.541  28.602  1.00  0.00     0.167 HD
ATOM     45  C   UNL A   1      47.981  27.922  28.270  1.00  0.00     0.037 A 
ATOM     46  C   UNL A   1      41.308  27.192  29.078  1.00  0.00     0.037 A 
ATOM     47  C   UNL A   1      47.958  27.414  29.611  1.00  0.00     0.049 A 
ATOM     48  C   UNL A   1      42.337  27.772  29.970  1.00  0.00     0.074 A 
ATOM     49  C   UNL A   1      48.479  26.299  30.239  1.00  0.00     0.029 A 
ATOM     50  N   UNL A   1      47.070  27.960  30.501  1.00  0.00    -0.354 N 
ATOM     51  N   UNL A   1      42.843  27.172  31.011  1.00  0.00    -0.248 NA
ATOM     52  C   UNL A   1      43.080  28.933  29.502  1.00  0.00     0.031 C 
ATOM     53  C   UNL A   1      47.561  25.987  31.282  1.00  0.00     0.029 A 
ATOM     54  C   UNL A   1      46.530  26.926  31.223  1.00  0.00     0.049 A 
ATOM     55  H   UNL A   1      46.859  28.916  30.603  1.00  0.00     0.167 HD
ATOM     56  C   UNL A   1      44.152  27.624  31.083  1.00  0.00     0.074 A 
ATOM     57  C   UNL A   1      44.196  28.797  30.220  1.00  0.00     0.031 C 
ATOM     58  C   UNL A   1      45.141  26.847  31.613  1.00  0.00     0.037 A 
BRANCH  45  59
ATOM     59  C   UNL A   1      48.412  29.318  27.939  1.00  0.00     0.057 A 
ATOM     60  C   UNL A   1      47.466  30.333  27.738  1.00  0.00     0.134 A 
ATOM     61  C   UNL A   1      49.738  29.639  27.590  1.00  0.00     0.134 A 
ATOM     62  F   UNL A   1      46.165  30.117  27.983  1.00  0.00    -0.206 F 
ATOM     63  C   UNL A   1      47.819  31.588  27.226  1.00  0.00     0.040 A 
ATOM     64  C   UNL A   1      50.111  30.902  27.124  1.00  0.00     0.040 A 
ATOM     65  F   UNL A   1      50.713  28.718  27.611  1.00  0.00    -0.206 F 
ATOM     66  C   UNL A   1      49.146  31.877  26.926  1.00  0.00     0.006 A 
ENDBRANCH  45  59
BRANCH  46  67
ATOM     67  C   UNL A   1      40.005  27.844  28.833  1.00  0.00     0.057 A 
ATOM     68  C   UNL A   1      39.017  27.883  29.824  1.00  0.00     0.134 A 
ATOM     69  C   UNL A   1      39.792  28.670  27.712  1.00  0.00     0.134 A 
ATOM     70  F   UNL A   1      39.153  27.166  30.948  1.00  0.00    -0.206 F 
ATOM     71  C   UNL A   1      37.890  28.707  29.717  1.00  0.00     0.040 A 
ATOM     72  C   UNL A   1      38.665  29.486  27.587  1.00  0.00     0.040 A 
ATOM     73  F   UNL A   1      40.711  28.779  26.743  1.00  0.00    -0.206 F 
ATOM     74  C   UNL A   1      37.714  29.517  28.599  1.00  0.00     0.006 A 
ENDBRANCH  46  67
BRANCH  58  75
ATOM     75  C   UNL A   1      44.724  25.639  32.403  1.00  0.00     0.057 A 
ATOM     76  C   UNL A   1      44.404  25.684  33.768  1.00  0.00     0.134 A 
ATOM     77  C   UNL A   1      44.508  24.426  31.740  1.00  0.00     0.134 A 
ATOM     78  F   UNL A   1      44.482  26.830  34.458  1.00  0.00    -0.206 F 
ATOM     79  C   UNL A   1      43.936  24.557  34.452  1.00  0.00     0.040 A 
ATOM     80  C   UNL A   1      44.011  23.302  32.404  1.00  0.00     0.040 A 
ATOM     81  F   UNL A   1      44.733  24.327  30.419  1.00  0.00    -0.206 F 
ATOM     82  C   UNL A   1      43.735  23.362  33.768  1.00  0.00     0.006 A 
ENDBRANCH  58  75
ENDBRANCH  32  33
ENDBRANCH  25  27
ENDBRANCH  24  25
ENDBRANCH  23  24
ENDBRANCH  22  23
ENDBRANCH  21  22
ENDBRANCH  20  21
ENDBRANCH   1  20
TORSDOF 19
ENDMDL
MODEL 3
REMARK VINA RESULT:      -9.8      3.539      7.349
REMARK SMILES O=C(Cn1cnc2c(S)ncnc21)OCCOCCOCCOC(=O)c1ccc(-c2c3nc(c(-c4c(F)cccc4F)c4ccc([nH]4)c(-c4c(F)cccc4F)c4nc(c(-c5c(F)cccc5F)c5ccc2[nH]5)C=C4)C=C3)cc1
REMARK SMILES IDX 18 1 17 2 16 3 15 4 14 5 2 6 1 7 3 8 4 9 5 10 13 11 6 12
REMARK SMILES IDX 7 13 12 14 8 15 11 16 10 17 9 18 19 20 20 21 21 22 22 23
REMARK SMILES IDX 23 24 24 25 25 26 26 27 27 28 79 29 28 30 78 31 29 32 30 33
REMARK SMILES IDX 31 34 72 35 32 36 77 37 71 38 73 39 33 40 76 41 70 42 69 43
REMARK SMILES IDX 34 45 60 46 43 47 59 48 44 49 47 50 58 51 74 52 45 53 46 54
REMARK SMILES IDX 57 56 75 57 48 58 35 59 36 60 41 61 37 62 38 63 40 64 42 65
REMARK SMILES IDX 39 66 61 67 62 68 67 69 63 70 64 71 66 72 68 73 65 74 49 75
REMARK SMILES IDX 50 76 55 77 51 78 52 79 54 80 56 81 53 82
REMARK H PARENT 9 19 73 44 47 55
REMARK Flexibility Score: inf
ROOT
ATOM      1  C   UNL A   1      33.577  27.819  26.527  1.00  0.00     0.188 C 
ENDROOT
BRANCH   1   2
ATOM      2  O   UNL A   1      32.702  26.850  25.977  1.00  0.00    -0.376 OA
BRANCH   2   3
ATOM      3  C   UNL A   1      31.431  27.317  25.535  1.00  0.00     0.202 C 
BRANCH   3   4
ATOM      4  C   UNL A   1      30.264  26.330  25.612  1.00  0.00     0.261 C 
BRANCH   4   5
ATOM      5  O   UNL A   1      30.382  25.268  26.590  1.00  0.00    -0.462 OA
BRANCH   5   6
ATOM      6  C   UNL A   1      30.486  23.933  26.428  1.00  0.00     0.326 C 
ATOM      7  O   UNL A   1      30.333  23.196  27.404  1.00  0.00    -0.250 OA
BRANCH   6   8
ATOM      8  C   UNL A   1      30.971  23.350  25.132  1.00  0.00     0.247 C 
BRANCH   8   9
ATOM      9  N   UNL A   1      32.340  22.895  25.082  1.00  0.00    -0.304 N 
ATOM     10  C   UNL A   1      33.438  23.713  25.116  1.00  0.00     0.202 A 
ATOM     11  C   UNL A   1      32.788  21.608  25.047  1.00  0.00     0.164 A 
ATOM     12  N   UNL A   1      34.559  23.026  25.065  1.00  0.00    -0.232 NA
ATOM     13  C   UNL A   1      34.170  21.701  25.023  1.00  0.00     0.140 A 
ATOM     14  N   UNL A   1      32.044  20.493  24.996  1.00  0.00    -0.217 NA
ATOM     15  C   UNL A   1      34.849  20.484  24.954  1.00  0.00     0.124 A 
ATOM     16  C   UNL A   1      32.809  19.391  24.907  1.00  0.00     0.225 A 
ATOM     17  N   UNL A   1      34.154  19.321  24.885  1.00  0.00    -0.228 NA
BRANCH  15  18
ATOM     18  S   UNL A   1      36.605  20.426  24.943  1.00  0.00    -0.121 SA
ATOM     19  H   UNL A   1      37.086  21.430  24.162  1.00  0.00     0.110 HD
ENDBRANCH  15  18
ENDBRANCH   8   9
ENDBRANCH   6   8
ENDBRANCH   5   6
ENDBRANCH   4   5
ENDBRANCH   3   4
ENDBRANCH   2   3
ENDBRANCH   1   2
BRANCH   1  20
ATOM     20  C   UNL A   1      33.084  29.276  26.428  1.00  0.00     0.188 C 
BRANCH  20  21
ATOM     21  O   UNL A   1      33.052  30.087  27.596  1.00  0.00    -0.376 OA
BRANCH  21  22
ATOM     22  C   UNL A   1      33.685  31.364  27.612  1.00  0.00     0.202 C 
BRANCH  22  23
ATOM     23  C   UNL A   1      34.903  31.568  28.506  1.00  0.00     0.261 C 
BRANCH  23  24
ATOM     24  O   UNL A   1      35.594  30.334  28.717  1.00  0.00    -0.460 OA
BRANCH  24  25
ATOM     25  C   UNL A   1      36.802  30.432  29.305  1.00  0.00     0.338 C 
ATOM     26  O   UNL A   1      37.131  31.210  30.184  1.00  0.00    -0.246 OA
BRANCH  25  27
ATOM     27  C   UNL A   1      37.740  29.468  28.703  1.00  0.00     0.060 A 
ATOM     28  C   UNL A   1      38.194  28.442  29.537  1.00  0.00     0.016 A 
ATOM     29  C   UNL A   1      38.305  29.682  27.437  1.00  0.00     0.016 A 
ATOM     30  C   UNL A   1      39.368  27.793  29.213  1.00  0.00     0.010 A 
ATOM     31  C   UNL A   1      39.480  29.028  27.110  1.00  0.00     0.010 A 
ATOM     32  C   UNL A   1      40.055  28.182  28.059  1.00  0.00    -0.014 A 
BRANCH  32  33
ATOM     33  C   UNL A   1      41.475  27.873  28.028  1.00  0.00     0.031 A 
ATOM     34  C   UNL A   1      41.900  26.585  27.447  1.00  0.00     0.074 A 
ATOM     35  C   UNL A   1      42.373  28.746  28.526  1.00  0.00     0.049 A 
ATOM     36  N   UNL A   1      42.540  25.620  28.025  1.00  0.00    -0.248 NA
ATOM     37  C   UNL A   1      41.552  26.335  26.043  1.00  0.00     0.031 C 
ATOM     38  C   UNL A   1      42.165  30.153  28.885  1.00  0.00     0.029 A 
ATOM     39  N   UNL A   1      43.708  28.564  28.732  1.00  0.00    -0.354 N 
ATOM     40  C   UNL A   1      42.812  24.695  27.024  1.00  0.00     0.074 A 
ATOM     41  C   UNL A   1      42.115  25.144  25.842  1.00  0.00     0.031 C 
ATOM     42  C   UNL A   1      43.364  30.746  29.065  1.00  0.00     0.029 A 
ATOM     43  C   UNL A   1      44.405  29.736  28.965  1.00  0.00     0.049 A 
ATOM     44  H   UNL A   1      44.137  27.678  28.716  1.00  0.00     0.167 HD
ATOM     45  C   UNL A   1      43.719  23.694  27.172  1.00  0.00     0.037 A 
ATOM     46  C   UNL A   1      45.749  29.878  28.999  1.00  0.00     0.037 A 
ATOM     47  C   UNL A   1      44.055  23.438  28.542  1.00  0.00     0.049 A 
ATOM     48  C   UNL A   1      46.348  28.547  29.245  1.00  0.00     0.074 A 
ATOM     49  C   UNL A   1      43.359  22.991  29.649  1.00  0.00     0.029 A 
ATOM     50  N   UNL A   1      45.247  23.915  29.021  1.00  0.00    -0.354 N 
ATOM     51  N   UNL A   1      46.280  27.897  30.373  1.00  0.00    -0.248 NA
ATOM     52  C   UNL A   1      46.757  27.753  28.095  1.00  0.00     0.031 C 
ATOM     53  C   UNL A   1      43.977  23.621  30.767  1.00  0.00     0.029 A 
ATOM     54  C   UNL A   1      45.009  24.422  30.274  1.00  0.00     0.049 A 
ATOM     55  H   UNL A   1      46.113  23.897  28.554  1.00  0.00     0.167 HD
ATOM     56  C   UNL A   1      46.245  26.559  30.012  1.00  0.00     0.074 A 
ATOM     57  C   UNL A   1      46.677  26.529  28.621  1.00  0.00     0.031 C 
ATOM     58  C   UNL A   1      45.608  25.633  30.786  1.00  0.00     0.037 A 
BRANCH  45  59
ATOM     59  C   UNL A   1      44.485  23.108  26.025  1.00  0.00     0.057 A 
ATOM     60  C   UNL A   1      44.346  21.755  25.686  1.00  0.00     0.134 A 
ATOM     61  C   UNL A   1      45.534  23.796  25.383  1.00  0.00     0.134 A 
ATOM     62  F   UNL A   1      43.417  20.990  26.279  1.00  0.00    -0.206 F 
ATOM     63  C   UNL A   1      45.194  21.129  24.764  1.00  0.00     0.040 A 
ATOM     64  C   UNL A   1      46.355  23.196  24.427  1.00  0.00     0.040 A 
ATOM     65  F   UNL A   1      45.855  25.055  25.716  1.00  0.00    -0.206 F 
ATOM     66  C   UNL A   1      46.196  21.853  24.125  1.00  0.00     0.006 A 
ENDBRANCH  45  59
BRANCH  46  67
ATOM     67  C   UNL A   1      46.545  31.044  28.561  1.00  0.00     0.057 A 
ATOM     68  C   UNL A   1      46.624  31.400  27.209  1.00  0.00     0.134 A 
ATOM     69  C   UNL A   1      47.037  31.989  29.481  1.00  0.00     0.134 A 
ATOM     70  F   UNL A   1      46.141  30.584  26.262  1.00  0.00    -0.206 F 
ATOM     71  C   UNL A   1      47.147  32.630  26.796  1.00  0.00     0.040 A 
ATOM     72  C   UNL A   1      47.574  33.215  29.080  1.00  0.00     0.040 A 
ATOM     73  F   UNL A   1      46.934  31.793  30.803  1.00  0.00    -0.206 F 
ATOM     74  C   UNL A   1      47.618  33.546  27.732  1.00  0.00     0.006 A 
ENDBRANCH  46  67
BRANCH  58  75
ATOM     75  C   UNL A   1      45.231  26.039  32.183  1.00  0.00     0.057 A 
ATOM     76  C   UNL A   1      44.040  26.711  32.496  1.00  0.00     0.134 A 
ATOM     77  C   UNL A   1      46.024  25.620  33.256  1.00  0.00     0.134 A 
ATOM     78  F   UNL A   1      43.170  27.057  31.536  1.00  0.00    -0.206 F 
ATOM     79  C   UNL A   1      43.681  26.996  33.816  1.00  0.00     0.040 A 
ATOM     80  C   UNL A   1      45.660  25.870  34.582  1.00  0.00     0.040 A 
ATOM     81  F   UNL A   1      47.146  24.916  33.035  1.00  0.00    -0.206 F 
ATOM     82  C   UNL A   1      44.491  26.571  34.865  1.00  0.00     0.006 A 
ENDBRANCH  58  75
ENDBRANCH  32  33
ENDBRANCH  25  27
ENDBRANCH  24  25
ENDBRANCH  23  24
ENDBRANCH  22  23
ENDBRANCH  21  22
ENDBRANCH  20  21
ENDBRANCH   1  20
TORSDOF 19
ENDMDL
