MODEL 1
REMARK VINA RESULT:      -9.6      0.000      0.000
REMARK SMILES C#CCN(CC(=O)OCCOCCOCCOC(=O)c1ccc(-c2c3nc(c(-c4c(F)cccc4F)c4ccc([nH]4)c(-c4c(F)cccc4F)c4nc(c(-c5c(F)cccc5F)c5ccc2[nH]5)C=C4)C=C3)cc1)C(=O)CCc1ccc(Cl)cc1Cl
REMARK SMILES IDX 11 1 10 2 9 3 8 4 6 5 7 6 5 7 4 8 3 9 2 10 1 11 74 12 75 13
REMARK SMILES IDX 76 14 77 15 78 16 79 17 84 18 80 19 83 20 85 21 81 22 82 23
REMARK SMILES IDX 12 24 13 25 14 26 15 27 16 28 17 29 18 30 19 31 20 32 21 33
REMARK SMILES IDX 73 34 22 35 72 36 23 37 24 38 25 39 66 40 26 41 71 42 65 43
REMARK SMILES IDX 67 44 27 45 70 46 64 47 63 48 28 50 54 51 37 52 53 53 38 54
REMARK SMILES IDX 41 55 52 56 68 57 39 58 40 59 51 61 69 62 42 63 29 64 30 65
REMARK SMILES IDX 35 66 31 67 32 68 34 69 36 70 33 71 55 72 56 73 61 74 57 75
REMARK SMILES IDX 58 76 60 77 62 78 59 79 43 80 44 81 49 82 45 83 46 84 48 85
REMARK SMILES IDX 50 86 47 87
REMARK H PARENT 67 49 41 60
REMARK Flexibility Score: inf
ROOT
ATOM      1  O   UNL A   1      39.360  21.887  26.669  1.00  0.00    -0.376 OA
ENDROOT
BRANCH   1   2
ATOM      2  C   UNL A   1      38.387  22.769  26.120  1.00  0.00     0.202 C 
BRANCH   2   3
ATOM      3  C   UNL A   1      37.460  22.126  25.090  1.00  0.00     0.261 C 
BRANCH   3   4
ATOM      4  O   UNL A   1      36.130  21.909  25.608  1.00  0.00    -0.462 OA
BRANCH   4   5
ATOM      5  C   UNL A   1      35.212  22.802  25.161  1.00  0.00     0.325 C 
ATOM      6  O   UNL A   1      34.863  23.798  25.789  1.00  0.00    -0.250 OA
BRANCH   5   7
ATOM      7  C   UNL A   1      34.847  22.626  23.685  1.00  0.00     0.243 C 
BRANCH   7   8
ATOM      8  N   UNL A   1      33.553  22.969  23.083  1.00  0.00    -0.320 N 
BRANCH   8   9
ATOM      9  C   UNL A   1      32.605  21.885  22.851  1.00  0.00     0.210 C 
BRANCH   9  10
ATOM     10  C   UNL A   1      32.563  20.958  24.055  1.00  0.00    -0.085 C 
ATOM     11  C   UNL A   1      32.526  20.163  25.087  1.00  0.00     0.006 C 
ENDBRANCH   9  10
ENDBRANCH   8   9
BRANCH   8  12
ATOM     12  C   UNL A   1      33.143  24.233  22.708  1.00  0.00     0.224 C 
ATOM     13  O   UNL A   1      33.282  24.638  21.549  1.00  0.00    -0.275 OA
BRANCH  12  14
ATOM     14  C   UNL A   1      32.462  25.138  23.719  1.00  0.00     0.105 C 
BRANCH  14  15
ATOM     15  C   UNL A   1      33.096  26.517  23.951  1.00  0.00     0.047 C 
BRANCH  15  16
ATOM     16  C   UNL A   1      32.155  27.688  23.781  1.00  0.00    -0.029 A 
ATOM     17  C   UNL A   1      31.279  27.688  22.682  1.00  0.00     0.007 A 
ATOM     18  C   UNL A   1      32.049  28.730  24.724  1.00  0.00     0.045 A 
ATOM     19  C   UNL A   1      30.266  28.644  22.581  1.00  0.00     0.021 A 
ATOM     20  C   UNL A   1      31.028  29.677  24.628  1.00  0.00     0.041 A 
ATOM     21  Cl  UNL A   1      33.102  28.842  26.087  1.00  0.00    -0.084 Cl
ATOM     22  C   UNL A   1      30.131  29.617  23.567  1.00  0.00     0.042 A 
ATOM     23  Cl  UNL A   1      28.821  30.728  23.496  1.00  0.00    -0.084 Cl
ENDBRANCH  15  16
ENDBRANCH  14  15
ENDBRANCH  12  14
ENDBRANCH   8  12
ENDBRANCH   7   8
ENDBRANCH   5   7
ENDBRANCH   4   5
ENDBRANCH   3   4
ENDBRANCH   2   3
ENDBRANCH   1   2
BRANCH   1  24
ATOM     24  C   UNL A   1      39.870  20.858  25.820  1.00  0.00     0.188 C 
BRANCH  24  25
ATOM     25  C   UNL A   1      40.755  19.770  26.441  1.00  0.00     0.188 C 
BRANCH  25  26
ATOM     26  O   UNL A   1      42.060  20.281  26.719  1.00  0.00    -0.376 OA
BRANCH  26  27
ATOM     27  C   UNL A   1      43.030  19.898  25.752  1.00  0.00     0.202 C 
BRANCH  27  28
ATOM     28  C   UNL A   1      43.973  21.065  25.484  1.00  0.00     0.261 C 
BRANCH  28  29
ATOM     29  O   UNL A   1      43.492  22.251  26.146  1.00  0.00    -0.460 OA
BRANCH  29  30
ATOM     30  C   UNL A   1      43.382  23.363  25.392  1.00  0.00     0.338 C 
ATOM     31  O   UNL A   1      43.776  23.521  24.251  1.00  0.00    -0.246 OA
BRANCH  30  32
ATOM     32  C   UNL A   1      42.771  24.440  26.200  1.00  0.00     0.060 A 
ATOM     33  C   UNL A   1      43.116  25.779  26.012  1.00  0.00     0.016 A 
ATOM     34  C   UNL A   1      41.900  24.084  27.229  1.00  0.00     0.016 A 
ATOM     35  C   UNL A   1      42.638  26.756  26.897  1.00  0.00     0.010 A 
ATOM     36  C   UNL A   1      41.396  25.065  28.090  1.00  0.00     0.010 A 
ATOM     37  C   UNL A   1      41.795  26.405  27.961  1.00  0.00    -0.014 A 
BRANCH  37  38
ATOM     38  C   UNL A   1      41.449  27.391  29.025  1.00  0.00     0.031 A 
ATOM     39  C   UNL A   1      42.294  27.454  30.270  1.00  0.00     0.074 A 
ATOM     40  C   UNL A   1      40.426  28.258  28.893  1.00  0.00     0.049 A 
ATOM     41  N   UNL A   1      42.071  28.080  31.398  1.00  0.00    -0.248 NA
ATOM     42  C   UNL A   1      43.561  26.705  30.238  1.00  0.00     0.031 C 
ATOM     43  C   UNL A   1      39.571  28.390  27.718  1.00  0.00     0.029 A 
ATOM     44  N   UNL A   1      39.941  29.203  29.767  1.00  0.00    -0.354 N 
ATOM     45  C   UNL A   1      43.135  27.752  32.229  1.00  0.00     0.074 A 
ATOM     46  C   UNL A   1      44.014  26.888  31.470  1.00  0.00     0.031 C 
ATOM     47  C   UNL A   1      38.691  29.384  27.926  1.00  0.00     0.029 A 
ATOM     48  C   UNL A   1      38.865  29.905  29.280  1.00  0.00     0.049 A 
ATOM     49  H   UNL A   1      40.328  29.361  30.658  1.00  0.00     0.167 HD
ATOM     50  C   UNL A   1      43.353  28.124  33.513  1.00  0.00     0.037 A 
ATOM     51  C   UNL A   1      38.083  30.833  29.867  1.00  0.00     0.037 A 
ATOM     52  C   UNL A   1      42.506  29.014  34.262  1.00  0.00     0.049 A 
ATOM     53  C   UNL A   1      38.312  31.193  31.312  1.00  0.00     0.074 A 
ATOM     54  C   UNL A   1      42.625  29.412  35.583  1.00  0.00     0.029 A 
ATOM     55  N   UNL A   1      41.395  29.661  33.748  1.00  0.00    -0.354 N 
ATOM     56  N   UNL A   1      39.256  30.791  32.128  1.00  0.00    -0.248 NA
ATOM     57  C   UNL A   1      37.338  32.108  31.928  1.00  0.00     0.031 C 
ATOM     58  C   UNL A   1      41.567  30.282  35.875  1.00  0.00     0.029 A 
ATOM     59  C   UNL A   1      40.813  30.450  34.726  1.00  0.00     0.049 A 
ATOM     60  H   UNL A   1      41.067  29.573  32.824  1.00  0.00     0.167 HD
ATOM     61  C   UNL A   1      38.987  31.396  33.349  1.00  0.00     0.074 A 
ATOM     62  C   UNL A   1      37.813  32.222  33.160  1.00  0.00     0.031 C 
ATOM     63  C   UNL A   1      39.643  31.265  34.528  1.00  0.00     0.037 A 
BRANCH  50  64
ATOM     64  C   UNL A   1      44.531  27.513  34.208  1.00  0.00     0.057 A 
ATOM     65  C   UNL A   1      45.786  28.134  34.236  1.00  0.00     0.134 A 
ATOM     66  C   UNL A   1      44.400  26.283  34.865  1.00  0.00     0.134 A 
ATOM     67  F   UNL A   1      45.980  29.302  33.607  1.00  0.00    -0.206 F 
ATOM     68  C   UNL A   1      46.874  27.541  34.878  1.00  0.00     0.040 A 
ATOM     69  C   UNL A   1      45.474  25.692  35.528  1.00  0.00     0.040 A 
ATOM     70  F   UNL A   1      43.222  25.639  34.875  1.00  0.00    -0.206 F 
ATOM     71  C   UNL A   1      46.719  26.319  35.531  1.00  0.00     0.006 A 
ENDBRANCH  50  64
BRANCH  51  72
ATOM     72  C   UNL A   1      36.963  31.456  29.117  1.00  0.00     0.057 A 
ATOM     73  C   UNL A   1      37.043  32.780  28.669  1.00  0.00     0.134 A 
ATOM     74  C   UNL A   1      35.772  30.763  28.868  1.00  0.00     0.134 A 
ATOM     75  F   UNL A   1      38.143  33.508  28.909  1.00  0.00    -0.206 F 
ATOM     76  C   UNL A   1      35.977  33.395  28.009  1.00  0.00     0.040 A 
ATOM     77  C   UNL A   1      34.710  31.356  28.185  1.00  0.00     0.040 A 
ATOM     78  F   UNL A   1      35.626  29.495  29.282  1.00  0.00    -0.206 F 
ATOM     79  C   UNL A   1      34.808  32.679  27.759  1.00  0.00     0.006 A 
ENDBRANCH  51  72
BRANCH  63  80
ATOM     80  C   UNL A   1      39.107  32.033  35.699  1.00  0.00     0.057 A 
ATOM     81  C   UNL A   1      38.214  31.454  36.608  1.00  0.00     0.134 A 
ATOM     82  C   UNL A   1      39.509  33.354  35.937  1.00  0.00     0.134 A 
ATOM     83  F   UNL A   1      37.781  30.196  36.428  1.00  0.00    -0.206 F 
ATOM     84  C   UNL A   1      37.720  32.167  37.702  1.00  0.00     0.040 A 
ATOM     85  C   UNL A   1      39.038  34.071  37.038  1.00  0.00     0.040 A 
ATOM     86  F   UNL A   1      40.367  33.965  35.107  1.00  0.00    -0.206 F 
ATOM     87  C   UNL A   1      38.136  33.479  37.921  1.00  0.00     0.006 A 
ENDBRANCH  63  80
ENDBRANCH  37  38
ENDBRANCH  30  32
ENDBRANCH  29  30
ENDBRANCH  28  29
ENDBRANCH  27  28
ENDBRANCH  26  27
ENDBRANCH  25  26
ENDBRANCH  24  25
ENDBRANCH   1  24
TORSDOF 24
ENDMDL
MODEL 2
REMARK VINA RESULT:      -9.6      0.877      1.845
REMARK SMILES C#CCN(CC(=O)OCCOCCOCCOC(=O)c1ccc(-c2c3nc(c(-c4c(F)cccc4F)c4ccc([nH]4)c(-c4c(F)cccc4F)c4nc(c(-c5c(F)cccc5F)c5ccc2[nH]5)C=C4)C=C3)cc1)C(=O)CCc1ccc(Cl)cc1Cl
REMARK SMILES IDX 11 1 10 2 9 3 8 4 6 5 7 6 5 7 4 8 3 9 2 10 1 11 74 12 75 13
REMARK SMILES IDX 76 14 77 15 78 16 79 17 84 18 80 19 83 20 85 21 81 22 82 23
REMARK SMILES IDX 12 24 13 25 14 26 15 27 16 28 17 29 18 30 19 31 20 32 21 33
REMARK SMILES IDX 73 34 22 35 72 36 23 37 24 38 25 39 66 40 26 41 71 42 65 43
REMARK SMILES IDX 67 44 27 45 70 46 64 47 63 48 28 50 54 51 37 52 53 53 38 54
REMARK SMILES IDX 41 55 52 56 68 57 39 58 40 59 51 61 69 62 42 63 29 64 30 65
REMARK SMILES IDX 35 66 31 67 32 68 34 69 36 70 33 71 55 72 56 73 61 74 57 75
REMARK SMILES IDX 58 76 60 77 62 78 59 79 43 80 44 81 49 82 45 83 46 84 48 85
REMARK SMILES IDX 50 86 47 87
REMARK H PARENT 67 49 41 60
REMARK Flexibility Score: inf
ROOT
ATOM      1  O   UNL A   1      38.514  22.394  25.538  1.00  0.00    -0.376 OA
ENDROOT
BRANCH   1   2
ATOM      2  C   UNL A   1      37.184  21.921  25.718  1.00  0.00     0.202 C 
BRANCH   2   3
ATOM      3  C   UNL A   1      36.144  23.023  25.922  1.00  0.00     0.261 C 
BRANCH   3   4
ATOM      4  O   UNL A   1      35.988  23.854  24.752  1.00  0.00    -0.462 OA
BRANCH   4   5
ATOM      5  C   UNL A   1      35.584  23.180  23.647  1.00  0.00     0.325 C 
ATOM      6  O   UNL A   1      36.307  22.953  22.681  1.00  0.00    -0.250 OA
BRANCH   5   7
ATOM      7  C   UNL A   1      34.235  22.476  23.812  1.00  0.00     0.243 C 
BRANCH   7   8
ATOM      8  N   UNL A   1      33.088  22.615  22.907  1.00  0.00    -0.320 N 
BRANCH   8   9
ATOM      9  C   UNL A   1      32.246  21.444  22.694  1.00  0.00     0.210 C 
BRANCH   9  10
ATOM     10  C   UNL A   1      32.455  20.437  23.813  1.00  0.00    -0.085 C 
ATOM     11  C   UNL A   1      32.635  19.574  24.774  1.00  0.00     0.006 C 
ENDBRANCH   9  10
ENDBRANCH   8   9
BRANCH   8  12
ATOM     12  C   UNL A   1      32.728  23.761  22.226  1.00  0.00     0.224 C 
ATOM     13  O   UNL A   1      33.319  24.115  21.200  1.00  0.00    -0.275 OA
BRANCH  12  14
ATOM     14  C   UNL A   1      31.550  24.588  22.710  1.00  0.00     0.105 C 
BRANCH  14  15
ATOM     15  C   UNL A   1      31.345  24.680  24.228  1.00  0.00     0.047 C 
BRANCH  15  16
ATOM     16  C   UNL A   1      31.644  26.033  24.832  1.00  0.00    -0.029 A 
ATOM     17  C   UNL A   1      32.827  26.187  25.576  1.00  0.00     0.007 A 
ATOM     18  C   UNL A   1      30.842  27.169  24.604  1.00  0.00     0.045 A 
ATOM     19  C   UNL A   1      33.244  27.453  25.994  1.00  0.00     0.021 A 
ATOM     20  C   UNL A   1      31.266  28.435  25.011  1.00  0.00     0.041 A 
ATOM     21  Cl  UNL A   1      29.353  27.079  23.736  1.00  0.00    -0.084 Cl
ATOM     22  C   UNL A   1      32.474  28.572  25.687  1.00  0.00     0.042 A 
ATOM     23  Cl  UNL A   1      33.040  30.139  26.111  1.00  0.00    -0.084 Cl
ENDBRANCH  15  16
ENDBRANCH  14  15
ENDBRANCH  12  14
ENDBRANCH   8  12
ENDBRANCH   7   8
ENDBRANCH   5   7
ENDBRANCH   4   5
ENDBRANCH   3   4
ENDBRANCH   2   3
ENDBRANCH   1   2
BRANCH   1  24
ATOM     24  C   UNL A   1      39.488  22.005  26.508  1.00  0.00     0.188 C 
BRANCH  24  25
ATOM     25  C   UNL A   1      40.214  20.666  26.317  1.00  0.00     0.188 C 
BRANCH  25  26
ATOM     26  O   UNL A   1      41.529  20.723  26.874  1.00  0.00    -0.376 OA
BRANCH  26  27
ATOM     27  C   UNL A   1      42.535  20.264  25.981  1.00  0.00     0.202 C 
BRANCH  27  28
ATOM     28  C   UNL A   1      43.461  21.420  25.615  1.00  0.00     0.261 C 
BRANCH  28  29
ATOM     29  O   UNL A   1      42.687  22.602  25.334  1.00  0.00    -0.460 OA
BRANCH  29  30
ATOM     30  C   UNL A   1      43.372  23.754  25.192  1.00  0.00     0.338 C 
ATOM     31  O   UNL A   1      44.379  23.935  24.532  1.00  0.00    -0.246 OA
BRANCH  30  32
ATOM     32  C   UNL A   1      42.761  24.792  26.050  1.00  0.00     0.060 A 
ATOM     33  C   UNL A   1      43.034  26.147  25.862  1.00  0.00     0.016 A 
ATOM     34  C   UNL A   1      41.968  24.384  27.121  1.00  0.00     0.016 A 
ATOM     35  C   UNL A   1      42.566  27.090  26.789  1.00  0.00     0.010 A 
ATOM     36  C   UNL A   1      41.471  25.330  28.024  1.00  0.00     0.010 A 
ATOM     37  C   UNL A   1      41.802  26.689  27.893  1.00  0.00    -0.014 A 
BRANCH  37  38
ATOM     38  C   UNL A   1      41.474  27.644  28.990  1.00  0.00     0.031 A 
ATOM     39  C   UNL A   1      42.332  27.661  30.228  1.00  0.00     0.074 A 
ATOM     40  C   UNL A   1      40.459  28.523  28.895  1.00  0.00     0.049 A 
ATOM     41  N   UNL A   1      42.125  28.255  31.377  1.00  0.00    -0.248 NA
ATOM     42  C   UNL A   1      43.592  26.904  30.161  1.00  0.00     0.031 C 
ATOM     43  C   UNL A   1      39.594  28.699  27.733  1.00  0.00     0.029 A 
ATOM     44  N   UNL A   1      39.990  29.444  29.802  1.00  0.00    -0.354 N 
ATOM     45  C   UNL A   1      43.194  27.893  32.187  1.00  0.00     0.074 A 
ATOM     46  C   UNL A   1      44.058  27.044  31.394  1.00  0.00     0.031 C 
ATOM     47  C   UNL A   1      38.724  29.693  27.980  1.00  0.00     0.029 A 
ATOM     48  C   UNL A   1      38.915  30.170  29.347  1.00  0.00     0.049 A 
ATOM     49  H   UNL A   1      40.386  29.572  30.694  1.00  0.00     0.167 HD
ATOM     50  C   UNL A   1      43.428  28.223  33.480  1.00  0.00     0.037 A 
ATOM     51  C   UNL A   1      38.147  31.086  29.970  1.00  0.00     0.037 A 
ATOM     52  C   UNL A   1      42.596  29.097  34.265  1.00  0.00     0.049 A 
ATOM     53  C   UNL A   1      38.393  31.400  31.423  1.00  0.00     0.074 A 
ATOM     54  C   UNL A   1      42.730  29.453  35.596  1.00  0.00     0.029 A 
ATOM     55  N   UNL A   1      41.485  29.768  33.781  1.00  0.00    -0.354 N 
ATOM     56  N   UNL A   1      39.340  30.966  32.217  1.00  0.00    -0.248 NA
ATOM     57  C   UNL A   1      37.432  32.304  32.077  1.00  0.00     0.031 C 
ATOM     58  C   UNL A   1      41.682  30.322  35.925  1.00  0.00     0.029 A 
ATOM     59  C   UNL A   1      40.919  30.531  34.789  1.00  0.00     0.049 A 
ATOM     60  H   UNL A   1      41.147  29.711  32.858  1.00  0.00     0.167 HD
ATOM     61  C   UNL A   1      39.089  31.535  33.459  1.00  0.00     0.074 A 
ATOM     62  C   UNL A   1      37.920  32.376  33.307  1.00  0.00     0.031 C 
ATOM     63  C   UNL A   1      39.754  31.361  34.627  1.00  0.00     0.037 A 
BRANCH  50  64
ATOM     64  C   UNL A   1      44.607  27.581  34.144  1.00  0.00     0.057 A 
ATOM     65  C   UNL A   1      44.524  26.326  34.760  1.00  0.00     0.134 A 
ATOM     66  C   UNL A   1      45.847  28.231  34.158  1.00  0.00     0.134 A 
ATOM     67  F   UNL A   1      43.359  25.664  34.798  1.00  0.00    -0.206 F 
ATOM     68  C   UNL A   1      45.632  25.751  35.385  1.00  0.00     0.040 A 
ATOM     69  C   UNL A   1      46.966  27.657  34.760  1.00  0.00     0.040 A 
ATOM     70  F   UNL A   1      45.991  29.435  33.583  1.00  0.00    -0.206 F 
ATOM     71  C   UNL A   1      46.858  26.414  35.381  1.00  0.00     0.006 A 
ENDBRANCH  50  64
BRANCH  51  72
ATOM     72  C   UNL A   1      37.025  31.741  29.251  1.00  0.00     0.057 A 
ATOM     73  C   UNL A   1      37.164  33.028  28.716  1.00  0.00     0.134 A 
ATOM     74  C   UNL A   1      35.777  31.120  29.117  1.00  0.00     0.134 A 
ATOM     75  F   UNL A   1      38.324  33.690  28.844  1.00  0.00    -0.206 F 
ATOM     76  C   UNL A   1      36.102  33.676  28.083  1.00  0.00     0.040 A 
ATOM     77  C   UNL A   1      34.715  31.745  28.463  1.00  0.00     0.040 A 
ATOM     78  F   UNL A   1      35.574  29.893  29.618  1.00  0.00    -0.206 F 
ATOM     79  C   UNL A   1      34.874  33.030  27.950  1.00  0.00     0.006 A 
ENDBRANCH  51  72
BRANCH  63  80
ATOM     80  C   UNL A   1      39.236  32.098  35.826  1.00  0.00     0.057 A 
ATOM     81  C   UNL A   1      39.632  33.412  36.105  1.00  0.00     0.134 A 
ATOM     82  C   UNL A   1      38.313  31.502  36.693  1.00  0.00     0.134 A 
ATOM     83  F   UNL A   1      40.524  34.035  35.318  1.00  0.00    -0.206 F 
ATOM     84  C   UNL A   1      39.145  34.101  37.217  1.00  0.00     0.040 A 
ATOM     85  C   UNL A   1      37.803  32.187  37.798  1.00  0.00     0.040 A 
ATOM     86  F   UNL A   1      37.888  30.248  36.479  1.00  0.00    -0.206 F 
ATOM     87  C   UNL A   1      38.224  33.489  38.065  1.00  0.00     0.006 A 
ENDBRANCH  63  80
ENDBRANCH  37  38
ENDBRANCH  30  32
ENDBRANCH  29  30
ENDBRANCH  28  29
ENDBRANCH  27  28
ENDBRANCH  26  27
ENDBRANCH  25  26
ENDBRANCH  24  25
ENDBRANCH   1  24
TORSDOF 24
ENDMDL
MODEL 3
REMARK VINA RESULT:      -9.2      3.862      9.026
REMARK SMILES C#CCN(CC(=O)OCCOCCOCCOC(=O)c1ccc(-c2c3nc(c(-c4c(F)cccc4F)c4ccc([nH]4)c(-c4c(F)cccc4F)c4nc(c(-c5c(F)cccc5F)c5ccc2[nH]5)C=C4)C=C3)cc1)C(=O)CCc1ccc(Cl)cc1Cl
REMARK SMILES IDX 11 1 10 2 9 3 8 4 6 5 7 6 5 7 4 8 3 9 2 10 1 11 74 12 75 13
REMARK SMILES IDX 76 14 77 15 78 16 79 17 84 18 80 19 83 20 85 21 81 22 82 23
REMARK SMILES IDX 12 24 13 25 14 26 15 27 16 28 17 29 18 30 19 31 20 32 21 33
REMARK SMILES IDX 73 34 22 35 72 36 23 37 24 38 25 39 66 40 26 41 71 42 65 43
REMARK SMILES IDX 67 44 27 45 70 46 64 47 63 48 28 50 54 51 37 52 53 53 38 54
REMARK SMILES IDX 41 55 52 56 68 57 39 58 40 59 51 61 69 62 42 63 29 64 30 65
REMARK SMILES IDX 35 66 31 67 32 68 34 69 36 70 33 71 55 72 56 73 61 74 57 75
REMARK SMILES IDX 58 76 60 77 62 78 59 79 43 80 44 81 49 82 45 83 46 84 48 85
REMARK SMILES IDX 50 86 47 87
REMARK H PARENT 67 49 41 60
REMARK Flexibility Score: inf
ROOT
ATOM      1  O   UNL A   1      32.629  31.353  26.952  1.00  0.00    -0.376 OA
ENDROOT
BRANCH   1   2
ATOM      2  C   UNL A   1      31.867  30.160  26.815  1.00  0.00     0.202 C 
BRANCH   2   3
ATOM      3  C   UNL A   1      32.018  29.465  25.462  1.00  0.00     0.261 C 
BRANCH   3   4
ATOM      4  O   UNL A   1      30.943  29.791  24.555  1.00  0.00    -0.462 OA
BRANCH   4   5
ATOM      5  C   UNL A   1      30.935  29.050  23.420  1.00  0.00     0.325 C 
ATOM      6  O   UNL A   1      30.266  29.326  22.426  1.00  0.00    -0.250 OA
BRANCH   5   7
ATOM      7  C   UNL A   1      32.041  27.994  23.364  1.00  0.00     0.243 C 
BRANCH   7   8
ATOM      8  N   UNL A   1      31.900  26.645  22.802  1.00  0.00    -0.320 N 
BRANCH   8   9
ATOM      9  C   UNL A   1      30.695  25.895  23.134  1.00  0.00     0.210 C 
BRANCH   9  10
ATOM     10  C   UNL A   1      30.544  25.786  24.643  1.00  0.00    -0.085 C 
ATOM     11  C   UNL A   1      30.414  25.693  25.937  1.00  0.00     0.006 C 
ENDBRANCH   9  10
ENDBRANCH   8   9
BRANCH   8  12
ATOM     12  C   UNL A   1      32.813  26.009  21.984  1.00  0.00     0.224 C 
ATOM     13  O   UNL A   1      33.732  26.630  21.440  1.00  0.00    -0.275 OA
BRANCH  12  14
ATOM     14  C   UNL A   1      32.726  24.508  21.779  1.00  0.00     0.105 C 
BRANCH  14  15
ATOM     15  C   UNL A   1      33.732  23.644  22.552  1.00  0.00     0.047 C 
BRANCH  15  16
ATOM     16  C   UNL A   1      33.364  23.371  23.993  1.00  0.00    -0.029 A 
ATOM     17  C   UNL A   1      32.652  22.196  24.289  1.00  0.00     0.007 A 
ATOM     18  C   UNL A   1      33.785  24.188  25.060  1.00  0.00     0.045 A 
ATOM     19  C   UNL A   1      32.452  21.801  25.615  1.00  0.00     0.021 A 
ATOM     20  C   UNL A   1      33.596  23.786  26.384  1.00  0.00     0.041 A 
ATOM     21  Cl  UNL A   1      34.632  25.669  24.801  1.00  0.00    -0.084 Cl
ATOM     22  C   UNL A   1      32.947  22.586  26.653  1.00  0.00     0.042 A 
ATOM     23  Cl  UNL A   1      32.791  22.048  28.278  1.00  0.00    -0.084 Cl
ENDBRANCH  15  16
ENDBRANCH  14  15
ENDBRANCH  12  14
ENDBRANCH   8  12
ENDBRANCH   7   8
ENDBRANCH   5   7
ENDBRANCH   4   5
ENDBRANCH   3   4
ENDBRANCH   2   3
ENDBRANCH   1   2
BRANCH   1  24
ATOM     24  C   UNL A   1      33.790  31.302  27.784  1.00  0.00     0.188 C 
BRANCH  24  25
ATOM     25  C   UNL A   1      34.562  32.603  28.042  1.00  0.00     0.188 C 
BRANCH  25  26
ATOM     26  O   UNL A   1      34.062  33.263  29.206  1.00  0.00    -0.376 OA
BRANCH  26  27
ATOM     27  C   UNL A   1      34.100  34.680  29.106  1.00  0.00     0.202 C 
BRANCH  27  28
ATOM     28  C   UNL A   1      32.766  35.262  29.565  1.00  0.00     0.261 C 
BRANCH  28  29
ATOM     29  O   UNL A   1      32.984  36.232  30.608  1.00  0.00    -0.460 OA
BRANCH  29  30
ATOM     30  C   UNL A   1      32.641  35.864  31.858  1.00  0.00     0.338 C 
ATOM     31  O   UNL A   1      31.589  36.086  32.429  1.00  0.00    -0.246 OA
BRANCH  30  32
ATOM     32  C   UNL A   1      33.794  35.201  32.503  1.00  0.00     0.060 A 
ATOM     33  C   UNL A   1      35.052  35.804  32.546  1.00  0.00     0.016 A 
ATOM     34  C   UNL A   1      33.626  33.907  32.995  1.00  0.00     0.016 A 
ATOM     35  C   UNL A   1      36.158  35.084  33.022  1.00  0.00     0.010 A 
ATOM     36  C   UNL A   1      34.723  33.204  33.503  1.00  0.00     0.010 A 
ATOM     37  C   UNL A   1      36.009  33.768  33.481  1.00  0.00    -0.014 A 
BRANCH  37  38
ATOM     38  C   UNL A   1      37.199  32.924  33.794  1.00  0.00     0.031 A 
ATOM     39  C   UNL A   1      37.875  33.079  35.132  1.00  0.00     0.074 A 
ATOM     40  C   UNL A   1      37.667  31.999  32.937  1.00  0.00     0.049 A 
ATOM     41  N   UNL A   1      39.025  32.606  35.543  1.00  0.00    -0.248 NA
ATOM     42  C   UNL A   1      37.158  33.878  36.139  1.00  0.00     0.031 C 
ATOM     43  C   UNL A   1      37.075  31.660  31.646  1.00  0.00     0.029 A 
ATOM     44  N   UNL A   1      38.755  31.163  33.034  1.00  0.00    -0.354 N 
ATOM     45  C   UNL A   1      39.197  33.100  36.831  1.00  0.00     0.074 A 
ATOM     46  C   UNL A   1      38.025  33.892  37.140  1.00  0.00     0.031 C 
ATOM     47  C   UNL A   1      37.782  30.663  31.088  1.00  0.00     0.029 A 
ATOM     48  C   UNL A   1      38.924  30.346  31.941  1.00  0.00     0.049 A 
ATOM     49  H   UNL A   1      39.356  31.150  33.813  1.00  0.00     0.167 HD
ATOM     50  C   UNL A   1      40.243  32.923  37.674  1.00  0.00     0.037 A 
ATOM     51  C   UNL A   1      39.906  29.473  31.642  1.00  0.00     0.037 A 
ATOM     52  C   UNL A   1      41.393  32.106  37.390  1.00  0.00     0.049 A 
ATOM     53  C   UNL A   1      41.084  29.330  32.569  1.00  0.00     0.074 A 
ATOM     54  C   UNL A   1      42.521  31.903  38.166  1.00  0.00     0.029 A 
ATOM     55  N   UNL A   1      41.550  31.339  36.248  1.00  0.00    -0.354 N 
ATOM     56  N   UNL A   1      41.295  29.888  33.736  1.00  0.00    -0.248 NA
ATOM     57  C   UNL A   1      42.183  28.463  32.114  1.00  0.00     0.031 C 
ATOM     58  C   UNL A   1      43.375  31.032  37.479  1.00  0.00     0.029 A 
ATOM     59  C   UNL A   1      42.760  30.667  36.293  1.00  0.00     0.049 A 
ATOM     60  H   UNL A   1      40.899  31.280  35.512  1.00  0.00     0.167 HD
ATOM     61  C   UNL A   1      42.545  29.448  34.150  1.00  0.00     0.074 A 
ATOM     62  C   UNL A   1      43.033  28.546  33.127  1.00  0.00     0.031 C 
ATOM     63  C   UNL A   1      43.237  29.776  35.268  1.00  0.00     0.037 A 
BRANCH  50  64
ATOM     64  C   UNL A   1      40.213  33.683  38.964  1.00  0.00     0.057 A 
ATOM     65  C   UNL A   1      40.893  34.896  39.131  1.00  0.00     0.134 A 
ATOM     66  C   UNL A   1      39.483  33.192  40.053  1.00  0.00     0.134 A 
ATOM     67  F   UNL A   1      41.626  35.407  38.132  1.00  0.00    -0.206 F 
ATOM     68  C   UNL A   1      40.862  35.583  40.346  1.00  0.00     0.040 A 
ATOM     69  C   UNL A   1      39.428  33.880  41.265  1.00  0.00     0.040 A 
ATOM     70  F   UNL A   1      38.809  32.036  39.955  1.00  0.00    -0.206 F 
ATOM     71  C   UNL A   1      40.124  35.078  41.415  1.00  0.00     0.006 A 
ENDBRANCH  50  64
BRANCH  51  72
ATOM     72  C   UNL A   1      39.861  28.696  30.377  1.00  0.00     0.057 A 
ATOM     73  C   UNL A   1      40.470  29.177  29.212  1.00  0.00     0.134 A 
ATOM     74  C   UNL A   1      39.175  27.477  30.288  1.00  0.00     0.134 A 
ATOM     75  F   UNL A   1      41.111  30.355  29.224  1.00  0.00    -0.206 F 
ATOM     76  C   UNL A   1      40.391  28.483  28.003  1.00  0.00     0.040 A 
ATOM     77  C   UNL A   1      39.112  26.759  29.094  1.00  0.00     0.040 A 
ATOM     78  F   UNL A   1      38.560  26.967  31.365  1.00  0.00    -0.206 F 
ATOM     79  C   UNL A   1      39.715  27.265  27.945  1.00  0.00     0.006 A 
ENDBRANCH  51  72
BRANCH  63  80
ATOM     80  C   UNL A   1      44.590  29.153  35.443  1.00  0.00     0.057 A 
ATOM     81  C   UNL A   1      45.750  29.776  34.968  1.00  0.00     0.134 A 
ATOM     82  C   UNL A   1      44.739  27.935  36.118  1.00  0.00     0.134 A 
ATOM     83  F   UNL A   1      45.673  30.939  34.302  1.00  0.00    -0.206 F 
ATOM     84  C   UNL A   1      47.010  29.200  35.137  1.00  0.00     0.040 A 
ATOM     85  C   UNL A   1      45.996  27.358  36.311  1.00  0.00     0.040 A 
ATOM     86  F   UNL A   1      43.669  27.289  36.604  1.00  0.00    -0.206 F 
ATOM     87  C   UNL A   1      47.136  27.989  35.814  1.00  0.00     0.006 A 
ENDBRANCH  63  80
ENDBRANCH  37  38
ENDBRANCH  30  32
ENDBRANCH  29  30
ENDBRANCH  28  29
ENDBRANCH  27  28
ENDBRANCH  26  27
ENDBRANCH  25  26
ENDBRANCH  24  25
ENDBRANCH   1  24
TORSDOF 24
ENDMDL
