MODEL 1
REMARK VINA RESULT:     -11.3      0.000      0.000
REMARK SMILES C[C@H](C(=O)OCCOCCOCCOC(=O)c1ccc(-c2c3nc(c(-c4c(F)cccc4F)c4ccc([nH]4)c(-c4c(F)cccc4F)c4nc(c(-c5c(F)cccc5F)c5ccc2[nH]5)C=C4)C=C3)cc1)c1ccc2c(c1)[nH]c1ccc(Cl)cc12
REMARK SMILES IDX 10 1 9 2 8 3 7 4 6 5 5 6 3 7 4 8 2 9 1 10 71 11 72 12 76 13
REMARK SMILES IDX 73 14 75 15 74 16 77 17 84 18 78 19 83 21 79 22 81 23 80 24
REMARK SMILES IDX 82 25 11 26 12 27 13 28 14 29 15 30 16 31 17 32 18 33 70 34
REMARK SMILES IDX 19 35 69 36 20 37 21 38 22 39 63 40 23 41 68 42 62 43 64 44
REMARK SMILES IDX 24 45 67 46 61 47 60 48 25 50 51 51 34 52 50 53 35 54 38 55
REMARK SMILES IDX 49 56 65 57 36 58 37 59 48 61 66 62 39 63 26 64 27 65 32 66
REMARK SMILES IDX 28 67 29 68 31 69 33 70 30 71 52 72 53 73 58 74 54 75 55 76
REMARK SMILES IDX 57 77 59 78 56 79 40 80 41 81 46 82 42 83 43 84 45 85 47 86
REMARK SMILES IDX 44 87
REMARK H PARENT 77 20 64 49 38 60
REMARK Flexibility Score: inf
ROOT
ATOM      1  C   UNL A   1      41.173  20.887  26.955  1.00  0.00     0.188 C 
ENDROOT
BRANCH   1   2
ATOM      2  C   UNL A   1      39.764  21.233  26.450  1.00  0.00     0.188 C 
BRANCH   2   3
ATOM      3  O   UNL A   1      39.423  22.589  26.163  1.00  0.00    -0.376 OA
BRANCH   3   4
ATOM      4  C   UNL A   1      38.051  22.956  26.130  1.00  0.00     0.202 C 
BRANCH   4   5
ATOM      5  C   UNL A   1      37.271  22.533  24.882  1.00  0.00     0.261 C 
BRANCH   5   6
ATOM      6  O   UNL A   1      36.594  21.263  25.017  1.00  0.00    -0.463 OA
BRANCH   6   7
ATOM      7  C   UNL A   1      35.313  21.308  25.450  1.00  0.00     0.313 C 
ATOM      8  O   UNL A   1      35.005  21.504  26.624  1.00  0.00    -0.252 OA
BRANCH   7   9
ATOM      9  C   UNL A   1      34.234  21.147  24.377  1.00  0.00     0.126 C 
ATOM     10  C   UNL A   1      33.282  20.031  24.841  1.00  0.00     0.025 C 
BRANCH   9  11
ATOM     11  C   UNL A   1      33.503  22.373  23.809  1.00  0.00    -0.032 A 
ATOM     12  C   UNL A   1      34.176  23.431  23.170  1.00  0.00     0.005 A 
ATOM     13  C   UNL A   1      32.128  22.530  24.076  1.00  0.00     0.031 A 
ATOM     14  C   UNL A   1      33.522  24.617  22.783  1.00  0.00     0.011 A 
ATOM     15  C   UNL A   1      31.516  23.761  23.778  1.00  0.00     0.047 A 
ATOM     16  C   UNL A   1      32.169  24.799  23.118  1.00  0.00     0.007 A 
ATOM     17  N   UNL A   1      30.256  24.224  24.089  1.00  0.00    -0.355 N 
ATOM     18  C   UNL A   1      31.246  25.889  22.990  1.00  0.00     0.009 A 
ATOM     19  C   UNL A   1      30.105  25.539  23.712  1.00  0.00     0.047 A 
ATOM     20  H   UNL A   1      29.557  23.685  24.523  1.00  0.00     0.167 HD
ATOM     21  C   UNL A   1      31.298  27.168  22.390  1.00  0.00     0.031 A 
ATOM     22  C   UNL A   1      29.057  26.437  23.959  1.00  0.00     0.028 A 
ATOM     23  C   UNL A   1      30.238  28.057  22.597  1.00  0.00     0.041 A 
ATOM     24  C   UNL A   1      29.152  27.713  23.396  1.00  0.00     0.022 A 
ATOM     25  Cl  UNL A   1      30.284  29.617  21.863  1.00  0.00    -0.084 Cl
ENDBRANCH   9  11
ENDBRANCH   7   9
ENDBRANCH   6   7
ENDBRANCH   5   6
ENDBRANCH   4   5
ENDBRANCH   3   4
ENDBRANCH   2   3
ENDBRANCH   1   2
BRANCH   1  26
ATOM     26  O   UNL A   1      42.000  20.381  25.921  1.00  0.00    -0.376 OA
BRANCH  26  27
ATOM     27  C   UNL A   1      43.365  20.738  26.033  1.00  0.00     0.202 C 
BRANCH  27  28
ATOM     28  C   UNL A   1      43.773  21.596  24.834  1.00  0.00     0.261 C 
BRANCH  28  29
ATOM     29  O   UNL A   1      43.131  22.886  24.778  1.00  0.00    -0.460 OA
BRANCH  29  30
ATOM     30  C   UNL A   1      43.926  23.966  24.954  1.00  0.00     0.338 C 
ATOM     31  O   UNL A   1      44.961  24.218  24.366  1.00  0.00    -0.246 OA
BRANCH  30  32
ATOM     32  C   UNL A   1      43.241  24.907  25.867  1.00  0.00     0.060 A 
ATOM     33  C   UNL A   1      43.546  26.271  25.785  1.00  0.00     0.016 A 
ATOM     34  C   UNL A   1      42.334  24.448  26.823  1.00  0.00     0.016 A 
ATOM     35  C   UNL A   1      42.966  27.180  26.673  1.00  0.00     0.010 A 
ATOM     36  C   UNL A   1      41.771  25.355  27.728  1.00  0.00     0.010 A 
ATOM     37  C   UNL A   1      42.104  26.722  27.677  1.00  0.00    -0.014 A 
BRANCH  37  38
ATOM     38  C   UNL A   1      41.694  27.621  28.785  1.00  0.00     0.031 A 
ATOM     39  C   UNL A   1      42.461  27.564  30.079  1.00  0.00     0.074 A 
ATOM     40  C   UNL A   1      40.663  28.478  28.659  1.00  0.00     0.049 A 
ATOM     41  N   UNL A   1      42.217  28.154  31.221  1.00  0.00    -0.248 NA
ATOM     42  C   UNL A   1      43.667  26.721  30.082  1.00  0.00     0.031 C 
ATOM     43  C   UNL A   1      39.871  28.679  27.449  1.00  0.00     0.029 A 
ATOM     44  N   UNL A   1      40.097  29.328  29.579  1.00  0.00    -0.354 N 
ATOM     45  C   UNL A   1      43.227  27.742  32.081  1.00  0.00     0.074 A 
ATOM     46  C   UNL A   1      44.074  26.835  31.336  1.00  0.00     0.031 C 
ATOM     47  C   UNL A   1      38.906  29.580  27.705  1.00  0.00     0.029 A 
ATOM     48  C   UNL A   1      38.987  29.986  29.108  1.00  0.00     0.049 A 
ATOM     49  H   UNL A   1      40.454  29.454  30.487  1.00  0.00     0.167 HD
ATOM     50  C   UNL A   1      43.436  28.090  33.374  1.00  0.00     0.037 A 
ATOM     51  C   UNL A   1      38.116  30.793  29.747  1.00  0.00     0.037 A 
ATOM     52  C   UNL A   1      42.596  28.991  34.117  1.00  0.00     0.049 A 
ATOM     53  C   UNL A   1      38.316  31.099  31.209  1.00  0.00     0.074 A 
ATOM     54  C   UNL A   1      42.726  29.404  35.431  1.00  0.00     0.029 A 
ATOM     55  N   UNL A   1      41.466  29.616  33.612  1.00  0.00    -0.354 N 
ATOM     56  N   UNL A   1      39.272  30.703  32.016  1.00  0.00    -0.248 NA
ATOM     57  C   UNL A   1      37.314  31.963  31.852  1.00  0.00     0.031 C 
ATOM     58  C   UNL A   1      41.648  30.242  35.736  1.00  0.00     0.029 A 
ATOM     59  C   UNL A   1      40.877  30.394  34.593  1.00  0.00     0.049 A 
ATOM     60  H   UNL A   1      41.131  29.519  32.690  1.00  0.00     0.167 HD
ATOM     61  C   UNL A   1      39.002  31.291  33.247  1.00  0.00     0.074 A 
ATOM     62  C   UNL A   1      37.801  32.081  33.079  1.00  0.00     0.031 C 
ATOM     63  C   UNL A   1      39.688  31.187  34.412  1.00  0.00     0.037 A 
BRANCH  50  64
ATOM     64  C   UNL A   1      44.605  27.463  34.076  1.00  0.00     0.057 A 
ATOM     65  C   UNL A   1      45.861  28.082  34.121  1.00  0.00     0.134 A 
ATOM     66  C   UNL A   1      44.464  26.235  34.734  1.00  0.00     0.134 A 
ATOM     67  F   UNL A   1      46.066  29.251  33.496  1.00  0.00    -0.206 F 
ATOM     68  C   UNL A   1      46.942  27.489  34.778  1.00  0.00     0.040 A 
ATOM     69  C   UNL A   1      45.530  25.647  35.417  1.00  0.00     0.040 A 
ATOM     70  F   UNL A   1      43.288  25.591  34.732  1.00  0.00    -0.206 F 
ATOM     71  C   UNL A   1      46.776  26.272  35.434  1.00  0.00     0.006 A 
ENDBRANCH  50  64
BRANCH  51  72
ATOM     72  C   UNL A   1      36.943  31.348  29.021  1.00  0.00     0.057 A 
ATOM     73  C   UNL A   1      36.921  32.677  28.582  1.00  0.00     0.134 A 
ATOM     74  C   UNL A   1      35.800  30.573  28.785  1.00  0.00     0.134 A 
ATOM     75  F   UNL A   1      37.972  33.479  28.806  1.00  0.00    -0.206 F 
ATOM     76  C   UNL A   1      35.800  33.221  27.951  1.00  0.00     0.040 A 
ATOM     77  C   UNL A   1      34.684  31.096  28.129  1.00  0.00     0.040 A 
ATOM     78  F   UNL A   1      35.753  29.294  29.184  1.00  0.00    -0.206 F 
ATOM     79  C   UNL A   1      34.679  32.427  27.717  1.00  0.00     0.006 A 
ENDBRANCH  51  72
BRANCH  63  80
ATOM     80  C   UNL A   1      39.189  31.980  35.586  1.00  0.00     0.057 A 
ATOM     81  C   UNL A   1      38.326  31.430  36.541  1.00  0.00     0.134 A 
ATOM     82  C   UNL A   1      39.617  33.299  35.787  1.00  0.00     0.134 A 
ATOM     83  F   UNL A   1      37.868  30.176  36.403  1.00  0.00    -0.206 F 
ATOM     84  C   UNL A   1      37.887  32.171  37.642  1.00  0.00     0.040 A 
ATOM     85  C   UNL A   1      39.209  34.040  36.897  1.00  0.00     0.040 A 
ATOM     86  F   UNL A   1      40.453  33.884  34.916  1.00  0.00    -0.206 F 
ATOM     87  C   UNL A   1      38.336  33.477  37.825  1.00  0.00     0.006 A 
ENDBRANCH  63  80
ENDBRANCH  37  38
ENDBRANCH  30  32
ENDBRANCH  29  30
ENDBRANCH  28  29
ENDBRANCH  27  28
ENDBRANCH  26  27
ENDBRANCH   1  26
TORSDOF 18
ENDMDL
MODEL 2
REMARK VINA RESULT:     -11.3      2.379      7.219
REMARK SMILES C[C@H](C(=O)OCCOCCOCCOC(=O)c1ccc(-c2c3nc(c(-c4c(F)cccc4F)c4ccc([nH]4)c(-c4c(F)cccc4F)c4nc(c(-c5c(F)cccc5F)c5ccc2[nH]5)C=C4)C=C3)cc1)c1ccc2c(c1)[nH]c1ccc(Cl)cc12
REMARK SMILES IDX 10 1 9 2 8 3 7 4 6 5 5 6 3 7 4 8 2 9 1 10 71 11 72 12 76 13
REMARK SMILES IDX 73 14 75 15 74 16 77 17 84 18 78 19 83 21 79 22 81 23 80 24
REMARK SMILES IDX 82 25 11 26 12 27 13 28 14 29 15 30 16 31 17 32 18 33 70 34
REMARK SMILES IDX 19 35 69 36 20 37 21 38 22 39 63 40 23 41 68 42 62 43 64 44
REMARK SMILES IDX 24 45 67 46 61 47 60 48 25 50 51 51 34 52 50 53 35 54 38 55
REMARK SMILES IDX 49 56 65 57 36 58 37 59 48 61 66 62 39 63 26 64 27 65 32 66
REMARK SMILES IDX 28 67 29 68 31 69 33 70 30 71 52 72 53 73 58 74 54 75 55 76
REMARK SMILES IDX 57 77 59 78 56 79 40 80 41 81 46 82 42 83 43 84 45 85 47 86
REMARK SMILES IDX 44 87
REMARK H PARENT 77 20 64 49 38 60
REMARK Flexibility Score: inf
ROOT
ATOM      1  C   UNL A   1      33.201  27.138  25.899  1.00  0.00     0.188 C 
ENDROOT
BRANCH   1   2
ATOM      2  C   UNL A   1      32.666  25.721  26.159  1.00  0.00     0.188 C 
BRANCH   2   3
ATOM      3  O   UNL A   1      33.541  24.599  26.053  1.00  0.00    -0.376 OA
BRANCH   3   4
ATOM      4  C   UNL A   1      33.294  23.461  26.867  1.00  0.00     0.202 C 
BRANCH   4   5
ATOM      5  C   UNL A   1      34.403  22.406  26.904  1.00  0.00     0.261 C 
BRANCH   5   6
ATOM      6  O   UNL A   1      34.036  21.150  26.288  1.00  0.00    -0.463 OA
BRANCH   6   7
ATOM      7  C   UNL A   1      34.564  20.904  25.066  1.00  0.00     0.313 C 
ATOM      8  O   UNL A   1      35.754  20.651  24.885  1.00  0.00    -0.252 OA
BRANCH   7   9
ATOM      9  C   UNL A   1      33.580  20.910  23.895  1.00  0.00     0.126 C 
ATOM     10  C   UNL A   1      32.544  19.803  24.154  1.00  0.00     0.025 C 
BRANCH   9  11
ATOM     11  C   UNL A   1      32.956  22.224  23.400  1.00  0.00    -0.032 A 
ATOM     12  C   UNL A   1      33.709  23.235  22.776  1.00  0.00     0.005 A 
ATOM     13  C   UNL A   1      31.613  22.504  23.725  1.00  0.00     0.031 A 
ATOM     14  C   UNL A   1      33.164  24.494  22.458  1.00  0.00     0.011 A 
ATOM     15  C   UNL A   1      31.117  23.801  23.495  1.00  0.00     0.047 A 
ATOM     16  C   UNL A   1      31.848  24.794  22.850  1.00  0.00     0.007 A 
ATOM     17  N   UNL A   1      29.921  24.372  23.871  1.00  0.00    -0.355 N 
ATOM     18  C   UNL A   1      31.034  25.974  22.798  1.00  0.00     0.009 A 
ATOM     19  C   UNL A   1      29.889  25.710  23.549  1.00  0.00     0.047 A 
ATOM     20  H   UNL A   1      29.187  23.887  24.311  1.00  0.00     0.167 HD
ATOM     21  C   UNL A   1      31.192  27.265  22.244  1.00  0.00     0.031 A 
ATOM     22  C   UNL A   1      28.945  26.695  23.869  1.00  0.00     0.028 A 
ATOM     23  C   UNL A   1      30.234  28.246  22.524  1.00  0.00     0.041 A 
ATOM     24  C   UNL A   1      29.147  27.977  23.350  1.00  0.00     0.022 A 
ATOM     25  Cl  UNL A   1      30.410  29.822  21.847  1.00  0.00    -0.084 Cl
ENDBRANCH   9  11
ENDBRANCH   7   9
ENDBRANCH   6   7
ENDBRANCH   5   6
ENDBRANCH   4   5
ENDBRANCH   3   4
ENDBRANCH   2   3
ENDBRANCH   1   2
BRANCH   1  26
ATOM     26  O   UNL A   1      32.172  28.033  25.511  1.00  0.00    -0.376 OA
BRANCH  26  27
ATOM     27  C   UNL A   1      32.631  29.282  25.027  1.00  0.00     0.202 C 
BRANCH  27  28
ATOM     28  C   UNL A   1      31.899  30.414  25.749  1.00  0.00     0.261 C 
BRANCH  28  29
ATOM     29  O   UNL A   1      32.360  30.662  27.093  1.00  0.00    -0.460 OA
BRANCH  29  30
ATOM     30  C   UNL A   1      33.076  31.794  27.287  1.00  0.00     0.338 C 
ATOM     31  O   UNL A   1      32.675  32.939  27.198  1.00  0.00    -0.246 OA
BRANCH  30  32
ATOM     32  C   UNL A   1      34.408  31.420  27.810  1.00  0.00     0.060 A 
ATOM     33  C   UNL A   1      34.656  30.079  28.128  1.00  0.00     0.016 A 
ATOM     34  C   UNL A   1      35.392  32.385  28.024  1.00  0.00     0.016 A 
ATOM     35  C   UNL A   1      35.881  29.699  28.683  1.00  0.00     0.010 A 
ATOM     36  C   UNL A   1      36.610  32.008  28.602  1.00  0.00     0.010 A 
ATOM     37  C   UNL A   1      36.852  30.669  28.961  1.00  0.00    -0.014 A 
BRANCH  37  38
ATOM     38  C   UNL A   1      38.038  30.332  29.790  1.00  0.00     0.031 A 
ATOM     39  C   UNL A   1      39.072  29.400  29.218  1.00  0.00     0.074 A 
ATOM     40  C   UNL A   1      38.205  30.836  31.027  1.00  0.00     0.049 A 
ATOM     41  N   UNL A   1      40.119  28.863  29.791  1.00  0.00    -0.248 NA
ATOM     42  C   UNL A   1      38.896  29.021  27.807  1.00  0.00     0.031 C 
ATOM     43  C   UNL A   1      37.315  31.791  31.681  1.00  0.00     0.029 A 
ATOM     44  N   UNL A   1      39.185  30.592  31.959  1.00  0.00    -0.354 N 
ATOM     45  C   UNL A   1      40.716  28.072  28.817  1.00  0.00     0.074 A 
ATOM     46  C   UNL A   1      39.903  28.181  27.625  1.00  0.00     0.031 C 
ATOM     47  C   UNL A   1      37.777  32.037  32.920  1.00  0.00     0.029 A 
ATOM     48  C   UNL A   1      38.970  31.226  33.159  1.00  0.00     0.049 A 
ATOM     49  H   UNL A   1      39.966  30.019  31.784  1.00  0.00     0.167 HD
ATOM     50  C   UNL A   1      41.843  27.325  28.903  1.00  0.00     0.037 A 
ATOM     51  C   UNL A   1      39.638  31.132  34.327  1.00  0.00     0.037 A 
ATOM     52  C   UNL A   1      42.654  27.214  30.087  1.00  0.00     0.049 A 
ATOM     53  C   UNL A   1      40.839  30.227  34.428  1.00  0.00     0.074 A 
ATOM     54  C   UNL A   1      43.813  26.481  30.272  1.00  0.00     0.029 A 
ATOM     55  N   UNL A   1      42.388  27.851  31.289  1.00  0.00    -0.354 N 
ATOM     56  N   UNL A   1      41.396  29.480  33.504  1.00  0.00    -0.248 NA
ATOM     57  C   UNL A   1      41.506  30.149  35.737  1.00  0.00     0.031 C 
ATOM     58  C   UNL A   1      44.222  26.637  31.600  1.00  0.00     0.029 A 
ATOM     59  C   UNL A   1      43.348  27.511  32.227  1.00  0.00     0.049 A 
ATOM     60  H   UNL A   1      41.627  28.455  31.453  1.00  0.00     0.167 HD
ATOM     61  C   UNL A   1      42.489  28.871  34.111  1.00  0.00     0.074 A 
ATOM     62  C   UNL A   1      42.526  29.343  35.478  1.00  0.00     0.031 C 
ATOM     63  C   UNL A   1      43.382  27.998  33.583  1.00  0.00     0.037 A 
BRANCH  50  64
ATOM     64  C   UNL A   1      42.245  26.541  27.688  1.00  0.00     0.057 A 
ATOM     65  C   UNL A   1      41.818  25.222  27.482  1.00  0.00     0.134 A 
ATOM     66  C   UNL A   1      43.049  27.123  26.700  1.00  0.00     0.134 A 
ATOM     67  F   UNL A   1      41.060  24.602  28.398  1.00  0.00    -0.206 F 
ATOM     68  C   UNL A   1      42.198  24.503  26.347  1.00  0.00     0.040 A 
ATOM     69  C   UNL A   1      43.412  26.423  25.549  1.00  0.00     0.040 A 
ATOM     70  F   UNL A   1      43.489  28.383  26.834  1.00  0.00    -0.206 F 
ATOM     71  C   UNL A   1      42.992  25.105  25.374  1.00  0.00     0.006 A 
ENDBRANCH  50  64
BRANCH  51  72
ATOM     72  C   UNL A   1      39.170  31.889  35.518  1.00  0.00     0.057 A 
ATOM     73  C   UNL A   1      38.266  31.330  36.427  1.00  0.00     0.134 A 
ATOM     74  C   UNL A   1      39.588  33.206  35.752  1.00  0.00     0.134 A 
ATOM     75  F   UNL A   1      37.804  30.085  36.240  1.00  0.00    -0.206 F 
ATOM     76  C   UNL A   1      37.779  32.056  37.516  1.00  0.00     0.040 A 
ATOM     77  C   UNL A   1      39.132  33.933  36.853  1.00  0.00     0.040 A 
ATOM     78  F   UNL A   1      40.450  33.803  34.917  1.00  0.00    -0.206 F 
ATOM     79  C   UNL A   1      38.218  33.360  37.735  1.00  0.00     0.006 A 
ENDBRANCH  51  72
BRANCH  63  80
ATOM     80  C   UNL A   1      44.504  27.532  34.466  1.00  0.00     0.057 A 
ATOM     81  C   UNL A   1      44.412  26.360  35.228  1.00  0.00     0.134 A 
ATOM     82  C   UNL A   1      45.711  28.242  34.517  1.00  0.00     0.134 A 
ATOM     83  F   UNL A   1      43.281  25.639  35.233  1.00  0.00    -0.206 F 
ATOM     84  C   UNL A   1      45.472  25.924  36.027  1.00  0.00     0.040 A 
ATOM     85  C   UNL A   1      46.787  27.802  35.289  1.00  0.00     0.040 A 
ATOM     86  F   UNL A   1      45.871  29.367  33.803  1.00  0.00    -0.206 F 
ATOM     87  C   UNL A   1      46.666  26.643  36.052  1.00  0.00     0.006 A 
ENDBRANCH  63  80
ENDBRANCH  37  38
ENDBRANCH  30  32
ENDBRANCH  29  30
ENDBRANCH  28  29
ENDBRANCH  27  28
ENDBRANCH  26  27
ENDBRANCH   1  26
TORSDOF 18
ENDMDL
MODEL 3
REMARK VINA RESULT:     -11.3      1.215      1.616
REMARK SMILES C[C@H](C(=O)OCCOCCOCCOC(=O)c1ccc(-c2c3nc(c(-c4c(F)cccc4F)c4ccc([nH]4)c(-c4c(F)cccc4F)c4nc(c(-c5c(F)cccc5F)c5ccc2[nH]5)C=C4)C=C3)cc1)c1ccc2c(c1)[nH]c1ccc(Cl)cc12
REMARK SMILES IDX 10 1 9 2 8 3 7 4 6 5 5 6 3 7 4 8 2 9 1 10 71 11 72 12 76 13
REMARK SMILES IDX 73 14 75 15 74 16 77 17 84 18 78 19 83 21 79 22 81 23 80 24
REMARK SMILES IDX 82 25 11 26 12 27 13 28 14 29 15 30 16 31 17 32 18 33 70 34
REMARK SMILES IDX 19 35 69 36 20 37 21 38 22 39 63 40 23 41 68 42 62 43 64 44
REMARK SMILES IDX 24 45 67 46 61 47 60 48 25 50 51 51 34 52 50 53 35 54 38 55
REMARK SMILES IDX 49 56 65 57 36 58 37 59 48 61 66 62 39 63 26 64 27 65 32 66
REMARK SMILES IDX 28 67 29 68 31 69 33 70 30 71 52 72 53 73 58 74 54 75 55 76
REMARK SMILES IDX 57 77 59 78 56 79 40 80 41 81 46 82 42 83 43 84 45 85 47 86
REMARK SMILES IDX 44 87
REMARK H PARENT 77 20 64 49 38 60
REMARK Flexibility Score: inf
ROOT
ATOM      1  C   UNL A   1      40.771  19.836  26.426  1.00  0.00     0.188 C 
ENDROOT
BRANCH   1   2
ATOM      2  C   UNL A   1      40.162  21.187  26.831  1.00  0.00     0.188 C 
BRANCH   2   3
ATOM      3  O   UNL A   1      39.346  21.906  25.908  1.00  0.00    -0.376 OA
BRANCH   3   4
ATOM      4  C   UNL A   1      38.244  21.239  25.307  1.00  0.00     0.202 C 
BRANCH   4   5
ATOM      5  C   UNL A   1      36.857  21.802  25.632  1.00  0.00     0.261 C 
BRANCH   5   6
ATOM      6  O   UNL A   1      35.774  20.884  25.361  1.00  0.00    -0.463 OA
BRANCH   6   7
ATOM      7  C   UNL A   1      34.523  21.396  25.422  1.00  0.00     0.313 C 
ATOM      8  O   UNL A   1      33.771  21.225  26.380  1.00  0.00    -0.252 OA
BRANCH   7   9
ATOM      9  C   UNL A   1      34.091  22.261  24.236  1.00  0.00     0.126 C 
ATOM     10  C   UNL A   1      32.950  21.524  23.516  1.00  0.00     0.025 C 
BRANCH   9  11
ATOM     11  C   UNL A   1      33.827  23.764  24.416  1.00  0.00    -0.032 A 
ATOM     12  C   UNL A   1      34.131  24.453  25.604  1.00  0.00     0.005 A 
ATOM     13  C   UNL A   1      33.106  24.452  23.419  1.00  0.00     0.031 A 
ATOM     14  C   UNL A   1      33.754  25.793  25.817  1.00  0.00     0.011 A 
ATOM     15  C   UNL A   1      32.647  25.754  23.691  1.00  0.00     0.047 A 
ATOM     16  C   UNL A   1      32.971  26.450  24.852  1.00  0.00     0.007 A 
ATOM     17  N   UNL A   1      31.795  26.562  22.972  1.00  0.00    -0.355 N 
ATOM     18  C   UNL A   1      32.331  27.732  24.789  1.00  0.00     0.009 A 
ATOM     19  C   UNL A   1      31.510  27.719  23.662  1.00  0.00     0.047 A 
ATOM     20  H   UNL A   1      31.437  26.342  22.083  1.00  0.00     0.167 HD
ATOM     21  C   UNL A   1      32.314  28.875  25.621  1.00  0.00     0.031 A 
ATOM     22  C   UNL A   1      30.593  28.740  23.377  1.00  0.00     0.028 A 
ATOM     23  C   UNL A   1      31.431  29.918  25.322  1.00  0.00     0.041 A 
ATOM     24  C   UNL A   1      30.560  29.839  24.239  1.00  0.00     0.022 A 
ATOM     25  Cl  UNL A   1      31.408  31.322  26.323  1.00  0.00    -0.084 Cl
ENDBRANCH   9  11
ENDBRANCH   7   9
ENDBRANCH   6   7
ENDBRANCH   5   6
ENDBRANCH   4   5
ENDBRANCH   3   4
ENDBRANCH   2   3
ENDBRANCH   1   2
BRANCH   1  26
ATOM     26  O   UNL A   1      41.726  19.973  25.388  1.00  0.00    -0.376 OA
BRANCH  26  27
ATOM     27  C   UNL A   1      43.071  20.010  25.828  1.00  0.00     0.202 C 
BRANCH  27  28
ATOM     28  C   UNL A   1      43.730  21.310  25.362  1.00  0.00     0.261 C 
BRANCH  28  29
ATOM     29  O   UNL A   1      42.948  22.497  25.609  1.00  0.00    -0.460 OA
BRANCH  29  30
ATOM     30  C   UNL A   1      43.551  23.681  25.356  1.00  0.00     0.338 C 
ATOM     31  O   UNL A   1      44.365  23.917  24.483  1.00  0.00    -0.246 OA
BRANCH  30  32
ATOM     32  C   UNL A   1      42.923  24.716  26.206  1.00  0.00     0.060 A 
ATOM     33  C   UNL A   1      43.473  26.003  26.220  1.00  0.00     0.016 A 
ATOM     34  C   UNL A   1      41.826  24.413  27.014  1.00  0.00     0.016 A 
ATOM     35  C   UNL A   1      42.945  26.989  27.059  1.00  0.00     0.010 A 
ATOM     36  C   UNL A   1      41.312  25.393  27.871  1.00  0.00     0.010 A 
ATOM     37  C   UNL A   1      41.886  26.678  27.920  1.00  0.00    -0.014 A 
BRANCH  37  38
ATOM     38  C   UNL A   1      41.492  27.619  29.000  1.00  0.00     0.031 A 
ATOM     39  C   UNL A   1      42.245  27.574  30.302  1.00  0.00     0.074 A 
ATOM     40  C   UNL A   1      40.488  28.501  28.839  1.00  0.00     0.049 A 
ATOM     41  N   UNL A   1      42.007  28.203  31.425  1.00  0.00    -0.248 NA
ATOM     42  C   UNL A   1      43.425  26.697  30.340  1.00  0.00     0.031 C 
ATOM     43  C   UNL A   1      39.714  28.693  27.616  1.00  0.00     0.029 A 
ATOM     44  N   UNL A   1      39.939  29.393  29.730  1.00  0.00    -0.354 N 
ATOM     45  C   UNL A   1      42.997  27.785  32.307  1.00  0.00     0.074 A 
ATOM     46  C   UNL A   1      43.824  26.833  31.596  1.00  0.00     0.031 C 
ATOM     47  C   UNL A   1      38.774  29.628  27.839  1.00  0.00     0.029 A 
ATOM     48  C   UNL A   1      38.854  30.070  29.231  1.00  0.00     0.049 A 
ATOM     49  H   UNL A   1      40.291  29.533  30.639  1.00  0.00     0.167 HD
ATOM     50  C   UNL A   1      43.204  28.161  33.591  1.00  0.00     0.037 A 
ATOM     51  C   UNL A   1      38.000  30.919  29.838  1.00  0.00     0.037 A 
ATOM     52  C   UNL A   1      42.384  29.107  34.301  1.00  0.00     0.049 A 
ATOM     53  C   UNL A   1      38.196  31.259  31.293  1.00  0.00     0.074 A 
ATOM     54  C   UNL A   1      42.514  29.552  35.605  1.00  0.00     0.029 A 
ATOM     55  N   UNL A   1      41.278  29.751  33.768  1.00  0.00    -0.354 N 
ATOM     56  N   UNL A   1      39.132  30.857  32.121  1.00  0.00    -0.248 NA
ATOM     57  C   UNL A   1      37.214  32.170  31.902  1.00  0.00     0.031 C 
ATOM     58  C   UNL A   1      41.458  30.429  35.876  1.00  0.00     0.029 A 
ATOM     59  C   UNL A   1      40.703  30.572  34.722  1.00  0.00     0.049 A 
ATOM     60  H   UNL A   1      40.949  29.639  32.846  1.00  0.00     0.167 HD
ATOM     61  C   UNL A   1      38.868  31.487  33.332  1.00  0.00     0.074 A 
ATOM     62  C   UNL A   1      37.693  32.307  33.131  1.00  0.00     0.031 C 
ATOM     63  C   UNL A   1      39.539  31.395  34.507  1.00  0.00     0.037 A 
BRANCH  50  64
ATOM     64  C   UNL A   1      44.347  27.520  34.322  1.00  0.00     0.057 A 
ATOM     65  C   UNL A   1      45.609  28.125  34.401  1.00  0.00     0.134 A 
ATOM     66  C   UNL A   1      44.175  26.293  34.975  1.00  0.00     0.134 A 
ATOM     67  F   UNL A   1      45.843  29.292  33.784  1.00  0.00    -0.206 F 
ATOM     68  C   UNL A   1      46.665  27.519  35.084  1.00  0.00     0.040 A 
ATOM     69  C   UNL A   1      45.216  25.691  35.683  1.00  0.00     0.040 A 
ATOM     70  F   UNL A   1      42.992  25.662  34.941  1.00  0.00    -0.206 F 
ATOM     71  C   UNL A   1      46.468  26.302  35.733  1.00  0.00     0.006 A 
ENDBRANCH  50  64
BRANCH  51  72
ATOM     72  C   UNL A   1      36.851  31.489  29.086  1.00  0.00     0.057 A 
ATOM     73  C   UNL A   1      36.849  32.822  28.659  1.00  0.00     0.134 A 
ATOM     74  C   UNL A   1      35.711  30.723  28.810  1.00  0.00     0.134 A 
ATOM     75  F   UNL A   1      37.898  33.615  28.921  1.00  0.00    -0.206 F 
ATOM     76  C   UNL A   1      35.750  33.379  28.002  1.00  0.00     0.040 A 
ATOM     77  C   UNL A   1      34.617  31.259  28.128  1.00  0.00     0.040 A 
ATOM     78  F   UNL A   1      35.646  29.440  29.195  1.00  0.00    -0.206 F 
ATOM     79  C   UNL A   1      34.631  32.593  27.730  1.00  0.00     0.006 A 
ENDBRANCH  51  72
BRANCH  63  80
ATOM     80  C   UNL A   1      39.053  32.234  35.653  1.00  0.00     0.057 A 
ATOM     81  C   UNL A   1      39.412  33.580  35.794  1.00  0.00     0.134 A 
ATOM     82  C   UNL A   1      38.174  31.698  36.605  1.00  0.00     0.134 A 
ATOM     83  F   UNL A   1      40.259  34.153  34.925  1.00  0.00    -0.206 F 
ATOM     84  C   UNL A   1      38.933  34.357  36.852  1.00  0.00     0.040 A 
ATOM     85  C   UNL A   1      37.667  32.471  37.650  1.00  0.00     0.040 A 
ATOM     86  F   UNL A   1      37.781  30.418  36.524  1.00  0.00    -0.206 F 
ATOM     87  C   UNL A   1      38.052  33.804  37.779  1.00  0.00     0.006 A 
ENDBRANCH  63  80
ENDBRANCH  37  38
ENDBRANCH  30  32
ENDBRANCH  29  30
ENDBRANCH  28  29
ENDBRANCH  27  28
ENDBRANCH  26  27
ENDBRANCH   1  26
TORSDOF 18
ENDMDL
