MODEL 1
REMARK VINA RESULT:     -10.6      0.000      0.000
REMARK SMILES CC(C)[C@H](C)CNC(=O)N1CC(n2cc(C(=O)OCCOCCOCCOC(=O)c3ccc(-c4c5nc(c(-c6c(F)cccc6F)c6ccc([nH]6)c(-c6c(F)cccc6F)c6nc(c(-c7c(F)cccc7F)c7ccc4[nH]7)C=C6)C=C5)cc3)nn2)C1
REMARK SMILES IDX 22 1 21 2 20 3 19 4 18 5 16 6 17 7 15 8 13 9 14 10 85 11
REMARK SMILES IDX 84 12 12 13 7 14 8 15 9 17 10 18 11 19 86 20 6 21 4 22 5 23
REMARK SMILES IDX 2 24 1 25 3 26 23 27 24 28 25 29 26 30 27 31 28 32 29 33
REMARK SMILES IDX 30 34 31 35 83 36 32 37 82 38 33 39 34 40 35 41 76 42 36 43
REMARK SMILES IDX 81 44 75 45 77 46 37 47 80 48 74 49 73 50 38 52 64 53 47 54
REMARK SMILES IDX 63 55 48 56 51 57 62 58 78 59 49 60 50 61 61 63 79 64 52 65
REMARK SMILES IDX 39 66 40 67 45 68 41 69 42 70 44 71 46 72 43 73 65 74 66 75
REMARK SMILES IDX 71 76 67 77 68 78 70 79 72 80 69 81 53 82 54 83 59 84 55 85
REMARK SMILES IDX 56 86 58 87 60 88 57 89
REMARK H PARENT 7 16 77 51 51 62
REMARK Flexibility Score: inf
ROOT
ATOM      1  C   UNL A   1      45.095  19.434  24.198  1.00  0.00     0.188 C 
ENDROOT
BRANCH   1   2
ATOM      2  O   UNL A   1      43.689  19.521  24.388  1.00  0.00    -0.376 OA
BRANCH   2   3
ATOM      3  C   UNL A   1      43.078  18.877  25.502  1.00  0.00     0.202 C 
BRANCH   3   4
ATOM      4  C   UNL A   1      42.296  19.684  26.558  1.00  0.00     0.261 C 
BRANCH   4   5
ATOM      5  O   UNL A   1      41.071  20.276  26.097  1.00  0.00    -0.458 OA
BRANCH   5   6
ATOM      6  C   UNL A   1      40.421  21.082  26.986  1.00  0.00     0.360 C 
ATOM      7  O   UNL A   1      40.749  21.207  28.163  1.00  0.00    -0.244 OA
BRANCH   6   8
ATOM      8  C   UNL A   1      39.350  21.862  26.381  1.00  0.00     0.190 A 
ATOM      9  N   UNL A   1      37.644  22.632  25.282  1.00  0.00    -0.245 N 
ATOM     10  C   UNL A   1      38.402  21.501  25.440  1.00  0.00     0.147 A 
ATOM     11  N   UNL A   1      38.129  23.646  26.013  1.00  0.00    -0.066 NA
ATOM     12  N   UNL A   1      39.169  23.190  26.692  1.00  0.00    -0.123 NA
BRANCH   9  13
ATOM     13  C   UNL A   1      36.382  22.663  24.604  1.00  0.00     0.148 C 
ATOM     14  N   UNL A   1      32.775  20.419  24.719  1.00  0.00    -0.338 N 
ATOM     15  C   UNL A   1      33.201  21.689  24.937  1.00  0.00     0.317 C 
ATOM     16  H   UNL A   1      31.903  20.352  24.268  1.00  0.00     0.165 HD
ATOM     17  O   UNL A   1      32.356  22.586  24.965  1.00  0.00    -0.249 OA
ATOM     18  N   UNL A   1      34.517  21.943  25.100  1.00  0.00    -0.320 N 
ATOM     19  C   UNL A   1      35.182  23.206  25.400  1.00  0.00     0.150 C 
ATOM     20  C   UNL A   1      35.731  21.270  24.708  1.00  0.00     0.150 C 
BRANCH  14  21
ATOM     21  C   UNL A   1      33.392  19.135  25.039  1.00  0.00     0.121 C 
BRANCH  21  22
ATOM     22  C   UNL A   1      32.661  17.967  24.339  1.00  0.00     0.008 C 
ATOM     23  C   UNL A   1      32.483  18.282  22.845  1.00  0.00     0.010 C 
BRANCH  22  24
ATOM     24  C   UNL A   1      33.301  16.559  24.559  1.00  0.00    -0.013 C 
ATOM     25  C   UNL A   1      34.825  16.565  24.710  1.00  0.00     0.008 C 
ATOM     26  C   UNL A   1      32.679  15.779  25.721  1.00  0.00     0.008 C 
ENDBRANCH  22  24
ENDBRANCH  21  22
ENDBRANCH  14  21
ENDBRANCH   9  13
ENDBRANCH   6   8
ENDBRANCH   5   6
ENDBRANCH   4   5
ENDBRANCH   3   4
ENDBRANCH   2   3
ENDBRANCH   1   2
BRANCH   1  27
ATOM     27  C   UNL A   1      46.049  19.836  25.342  1.00  0.00     0.188 C 
BRANCH  27  28
ATOM     28  O   UNL A   1      46.041  21.218  25.637  1.00  0.00    -0.376 OA
BRANCH  28  29
ATOM     29  C   UNL A   1      46.255  22.162  24.597  1.00  0.00     0.202 C 
BRANCH  29  30
ATOM     30  C   UNL A   1      45.286  23.324  24.357  1.00  0.00     0.261 C 
BRANCH  30  31
ATOM     31  O   UNL A   1      44.510  23.745  25.466  1.00  0.00    -0.460 OA
BRANCH  31  32
ATOM     32  C   UNL A   1      43.201  23.433  25.398  1.00  0.00     0.338 C 
ATOM     33  O   UNL A   1      42.690  22.561  24.718  1.00  0.00    -0.246 OA
BRANCH  32  34
ATOM     34  C   UNL A   1      42.458  24.373  26.244  1.00  0.00     0.060 A 
ATOM     35  C   UNL A   1      41.853  25.465  25.620  1.00  0.00     0.016 A 
ATOM     36  C   UNL A   1      42.586  24.293  27.640  1.00  0.00     0.016 A 
ATOM     37  C   UNL A   1      41.541  26.568  26.385  1.00  0.00     0.010 A 
ATOM     38  C   UNL A   1      42.286  25.400  28.401  1.00  0.00     0.010 A 
ATOM     39  C   UNL A   1      41.847  26.551  27.750  1.00  0.00    -0.014 A 
BRANCH  39  40
ATOM     40  C   UNL A   1      41.745  27.802  28.471  1.00  0.00     0.031 A 
ATOM     41  C   UNL A   1      42.865  28.746  28.284  1.00  0.00     0.074 A 
ATOM     42  C   UNL A   1      40.650  28.112  29.190  1.00  0.00     0.049 A 
ATOM     43  N   UNL A   1      43.652  29.232  29.185  1.00  0.00    -0.248 NA
ATOM     44  C   UNL A   1      43.191  29.144  26.908  1.00  0.00     0.031 C 
ATOM     45  C   UNL A   1      39.362  27.411  29.210  1.00  0.00     0.029 A 
ATOM     46  N   UNL A   1      40.428  29.200  29.979  1.00  0.00    -0.354 N 
ATOM     47  C   UNL A   1      44.459  30.147  28.518  1.00  0.00     0.074 A 
ATOM     48  C   UNL A   1      44.226  29.958  27.110  1.00  0.00     0.031 C 
ATOM     49  C   UNL A   1      38.440  28.203  29.799  1.00  0.00     0.029 A 
ATOM     50  C   UNL A   1      39.094  29.403  30.293  1.00  0.00     0.049 A 
ATOM     51  H   UNL A   1      41.150  29.790  30.295  1.00  0.00     0.167 HD
ATOM     52  C   UNL A   1      45.084  31.155  29.180  1.00  0.00     0.037 A 
ATOM     53  C   UNL A   1      38.558  30.518  30.845  1.00  0.00     0.037 A 
ATOM     54  C   UNL A   1      45.226  30.876  30.583  1.00  0.00     0.049 A 
ATOM     55  C   UNL A   1      39.657  31.288  31.479  1.00  0.00     0.074 A 
ATOM     56  C   UNL A   1      45.814  29.865  31.321  1.00  0.00     0.029 A 
ATOM     57  N   UNL A   1      44.437  31.566  31.469  1.00  0.00    -0.354 N 
ATOM     58  N   UNL A   1      40.283  30.931  32.564  1.00  0.00    -0.248 NA
ATOM     59  C   UNL A   1      40.325  32.308  30.684  1.00  0.00     0.031 C 
ATOM     60  C   UNL A   1      44.995  29.718  32.478  1.00  0.00     0.029 A 
ATOM     61  C   UNL A   1      43.970  30.659  32.383  1.00  0.00     0.049 A 
ATOM     62  H   UNL A   1      44.242  32.531  31.449  1.00  0.00     0.167 HD
ATOM     63  C   UNL A   1      41.590  31.356  32.375  1.00  0.00     0.074 A 
ATOM     64  C   UNL A   1      41.525  32.302  31.267  1.00  0.00     0.031 C 
ATOM     65  C   UNL A   1      42.638  30.690  32.941  1.00  0.00     0.037 A 
BRANCH  52  66
ATOM     66  C   UNL A   1      45.236  32.538  28.605  1.00  0.00     0.057 A 
ATOM     67  C   UNL A   1      46.516  33.102  28.486  1.00  0.00     0.134 A 
ATOM     68  C   UNL A   1      44.161  33.438  28.440  1.00  0.00     0.134 A 
ATOM     69  F   UNL A   1      47.616  32.352  28.656  1.00  0.00    -0.206 F 
ATOM     70  C   UNL A   1      46.713  34.471  28.276  1.00  0.00     0.040 A 
ATOM     71  C   UNL A   1      44.347  34.796  28.175  1.00  0.00     0.040 A 
ATOM     72  F   UNL A   1      42.886  33.075  28.629  1.00  0.00    -0.206 F 
ATOM     73  C   UNL A   1      45.625  35.324  28.122  1.00  0.00     0.006 A 
ENDBRANCH  52  66
BRANCH  53  74
ATOM     74  C   UNL A   1      37.207  31.086  30.644  1.00  0.00     0.057 A 
ATOM     75  C   UNL A   1      36.345  31.302  31.727  1.00  0.00     0.134 A 
ATOM     76  C   UNL A   1      36.818  31.665  29.422  1.00  0.00     0.134 A 
ATOM     77  F   UNL A   1      36.649  30.829  32.944  1.00  0.00    -0.206 F 
ATOM     78  C   UNL A   1      35.176  32.064  31.609  1.00  0.00     0.040 A 
ATOM     79  C   UNL A   1      35.646  32.414  29.285  1.00  0.00     0.040 A 
ATOM     80  F   UNL A   1      37.605  31.600  28.338  1.00  0.00    -0.206 F 
ATOM     81  C   UNL A   1      34.826  32.628  30.385  1.00  0.00     0.006 A 
ENDBRANCH  53  74
BRANCH  65  82
ATOM     82  C   UNL A   1      42.335  29.703  34.030  1.00  0.00     0.057 A 
ATOM     83  C   UNL A   1      41.980  28.366  33.796  1.00  0.00     0.134 A 
ATOM     84  C   UNL A   1      42.542  30.081  35.362  1.00  0.00     0.134 A 
ATOM     85  F   UNL A   1      41.864  27.888  32.550  1.00  0.00    -0.206 F 
ATOM     86  C   UNL A   1      41.789  27.462  34.845  1.00  0.00     0.040 A 
ATOM     87  C   UNL A   1      42.388  29.179  36.416  1.00  0.00     0.040 A 
ATOM     88  F   UNL A   1      42.943  31.328  35.658  1.00  0.00    -0.206 F 
ATOM     89  C   UNL A   1      41.997  27.867  36.160  1.00  0.00     0.006 A 
ENDBRANCH  65  82
ENDBRANCH  39  40
ENDBRANCH  32  34
ENDBRANCH  31  32
ENDBRANCH  30  31
ENDBRANCH  29  30
ENDBRANCH  28  29
ENDBRANCH  27  28
ENDBRANCH   1  27
TORSDOF 21
ENDMDL
MODEL 2
REMARK VINA RESULT:     -10.4      4.524      9.618
REMARK SMILES CC(C)[C@H](C)CNC(=O)N1CC(n2cc(C(=O)OCCOCCOCCOC(=O)c3ccc(-c4c5nc(c(-c6c(F)cccc6F)c6ccc([nH]6)c(-c6c(F)cccc6F)c6nc(c(-c7c(F)cccc7F)c7ccc4[nH]7)C=C6)C=C5)cc3)nn2)C1
REMARK SMILES IDX 22 1 21 2 20 3 19 4 18 5 16 6 17 7 15 8 13 9 14 10 85 11
REMARK SMILES IDX 84 12 12 13 7 14 8 15 9 17 10 18 11 19 86 20 6 21 4 22 5 23
REMARK SMILES IDX 2 24 1 25 3 26 23 27 24 28 25 29 26 30 27 31 28 32 29 33
REMARK SMILES IDX 30 34 31 35 83 36 32 37 82 38 33 39 34 40 35 41 76 42 36 43
REMARK SMILES IDX 81 44 75 45 77 46 37 47 80 48 74 49 73 50 38 52 64 53 47 54
REMARK SMILES IDX 63 55 48 56 51 57 62 58 78 59 49 60 50 61 61 63 79 64 52 65
REMARK SMILES IDX 39 66 40 67 45 68 41 69 42 70 44 71 46 72 43 73 65 74 66 75
REMARK SMILES IDX 71 76 67 77 68 78 70 79 72 80 69 81 53 82 54 83 59 84 55 85
REMARK SMILES IDX 56 86 58 87 60 88 57 89
REMARK H PARENT 7 16 77 51 51 62
REMARK Flexibility Score: inf
ROOT
ATOM      1  C   UNL A   1      34.579  31.839  27.653  1.00  0.00     0.188 C 
ENDROOT
BRANCH   1   2
ATOM      2  O   UNL A   1      33.266  31.301  27.738  1.00  0.00    -0.376 OA
BRANCH   2   3
ATOM      3  C   UNL A   1      32.931  30.119  27.016  1.00  0.00     0.202 C 
BRANCH   3   4
ATOM      4  C   UNL A   1      31.799  30.120  25.968  1.00  0.00     0.261 C 
BRANCH   4   5
ATOM      5  O   UNL A   1      32.067  29.368  24.774  1.00  0.00    -0.458 OA
BRANCH   5   6
ATOM      6  C   UNL A   1      30.985  29.078  23.992  1.00  0.00     0.360 C 
ATOM      7  O   UNL A   1      30.070  29.866  23.771  1.00  0.00    -0.244 OA
BRANCH   6   8
ATOM      8  C   UNL A   1      31.067  27.769  23.360  1.00  0.00     0.190 A 
ATOM      9  N   UNL A   1      31.220  25.666  22.843  1.00  0.00    -0.245 N 
ATOM     10  C   UNL A   1      31.280  26.518  23.914  1.00  0.00     0.147 A 
ATOM     11  N   UNL A   1      31.056  26.341  21.696  1.00  0.00    -0.066 NA
ATOM     12  N   UNL A   1      30.957  27.625  21.996  1.00  0.00    -0.123 NA
BRANCH   9  13
ATOM     13  C   UNL A   1      31.122  24.241  22.957  1.00  0.00     0.148 C 
ATOM     14  N   UNL A   1      33.538  21.109  24.506  1.00  0.00    -0.338 N 
ATOM     15  C   UNL A   1      32.317  21.662  24.716  1.00  0.00     0.317 C 
ATOM     16  H   UNL A   1      33.561  20.127  24.582  1.00  0.00     0.165 HD
ATOM     17  O   UNL A   1      31.493  21.016  25.365  1.00  0.00    -0.249 OA
ATOM     18  N   UNL A   1      32.030  22.878  24.206  1.00  0.00    -0.320 N 
ATOM     19  C   UNL A   1      30.819  23.678  24.356  1.00  0.00     0.150 C 
ATOM     20  C   UNL A   1      32.541  23.659  23.106  1.00  0.00     0.150 C 
BRANCH  14  21
ATOM     21  C   UNL A   1      34.824  21.721  24.186  1.00  0.00     0.121 C 
BRANCH  21  22
ATOM     22  C   UNL A   1      35.780  21.697  25.400  1.00  0.00     0.008 C 
ATOM     23  C   UNL A   1      37.046  20.897  25.054  1.00  0.00     0.010 C 
BRANCH  22  24
ATOM     24  C   UNL A   1      36.129  23.098  25.996  1.00  0.00    -0.013 C 
ATOM     25  C   UNL A   1      37.355  23.771  25.371  1.00  0.00     0.008 C 
ATOM     26  C   UNL A   1      34.953  24.079  25.985  1.00  0.00     0.008 C 
ENDBRANCH  22  24
ENDBRANCH  21  22
ENDBRANCH  14  21
ENDBRANCH   9  13
ENDBRANCH   6   8
ENDBRANCH   5   6
ENDBRANCH   4   5
ENDBRANCH   3   4
ENDBRANCH   2   3
ENDBRANCH   1   2
BRANCH   1  27
ATOM     27  C   UNL A   1      34.822  33.323  27.998  1.00  0.00     0.188 C 
BRANCH  27  28
ATOM     28  O   UNL A   1      33.702  33.973  28.564  1.00  0.00    -0.376 OA
BRANCH  28  29
ATOM     29  C   UNL A   1      33.787  35.347  28.915  1.00  0.00     0.202 C 
BRANCH  29  30
ATOM     30  C   UNL A   1      32.978  35.930  30.078  1.00  0.00     0.261 C 
BRANCH  30  31
ATOM     31  O   UNL A   1      32.622  35.034  31.118  1.00  0.00    -0.460 OA
BRANCH  31  32
ATOM     32  C   UNL A   1      32.933  35.450  32.361  1.00  0.00     0.338 C 
ATOM     33  O   UNL A   1      32.386  36.335  32.996  1.00  0.00    -0.246 OA
BRANCH  32  34
ATOM     34  C   UNL A   1      34.105  34.698  32.820  1.00  0.00     0.060 A 
ATOM     35  C   UNL A   1      35.263  35.420  33.112  1.00  0.00     0.016 A 
ATOM     36  C   UNL A   1      34.111  33.298  32.711  1.00  0.00     0.016 A 
ATOM     37  C   UNL A   1      36.470  34.753  33.112  1.00  0.00     0.010 A 
ATOM     38  C   UNL A   1      35.318  32.635  32.699  1.00  0.00     0.010 A 
ATOM     39  C   UNL A   1      36.485  33.385  32.816  1.00  0.00    -0.014 A 
BRANCH  39  40
ATOM     40  C   UNL A   1      37.774  32.771  32.574  1.00  0.00     0.031 A 
ATOM     41  C   UNL A   1      38.709  32.766  33.716  1.00  0.00     0.074 A 
ATOM     42  C   UNL A   1      38.055  32.164  31.406  1.00  0.00     0.049 A 
ATOM     43  N   UNL A   1      39.886  33.293  33.781  1.00  0.00    -0.248 NA
ATOM     44  C   UNL A   1      38.243  32.155  34.969  1.00  0.00     0.031 C 
ATOM     45  C   UNL A   1      37.126  31.835  30.320  1.00  0.00     0.029 A 
ATOM     46  N   UNL A   1      39.229  31.611  30.994  1.00  0.00    -0.354 N 
ATOM     47  C   UNL A   1      40.392  32.920  35.020  1.00  0.00     0.074 A 
ATOM     48  C   UNL A   1      39.301  32.338  35.758  1.00  0.00     0.031 C 
ATOM     49  C   UNL A   1      37.723  30.961  29.481  1.00  0.00     0.029 A 
ATOM     50  C   UNL A   1      39.100  30.764  29.905  1.00  0.00     0.049 A 
ATOM     51  H   UNL A   1      40.092  31.794  31.432  1.00  0.00     0.167 HD
ATOM     52  C   UNL A   1      41.728  32.900  35.264  1.00  0.00     0.037 A 
ATOM     53  C   UNL A   1      40.036  29.902  29.441  1.00  0.00     0.037 A 
ATOM     54  C   UNL A   1      42.458  33.735  34.349  1.00  0.00     0.049 A 
ATOM     55  C   UNL A   1      41.354  30.327  29.972  1.00  0.00     0.074 A 
ATOM     56  C   UNL A   1      42.417  35.075  34.008  1.00  0.00     0.029 A 
ATOM     57  N   UNL A   1      43.216  33.132  33.378  1.00  0.00    -0.354 N 
ATOM     58  N   UNL A   1      42.001  31.391  29.589  1.00  0.00    -0.248 NA
ATOM     59  C   UNL A   1      41.805  29.746  31.228  1.00  0.00     0.031 C 
ATOM     60  C   UNL A   1      42.749  35.121  32.623  1.00  0.00     0.029 A 
ATOM     61  C   UNL A   1      42.989  33.811  32.210  1.00  0.00     0.049 A 
ATOM     62  H   UNL A   1      43.810  32.356  33.497  1.00  0.00     0.167 HD
ATOM     63  C   UNL A   1      42.637  31.850  30.733  1.00  0.00     0.074 A 
ATOM     64  C   UNL A   1      42.585  30.734  31.670  1.00  0.00     0.031 C 
ATOM     65  C   UNL A   1      42.892  33.178  30.915  1.00  0.00     0.037 A 
BRANCH  52  66
ATOM     66  C   UNL A   1      42.390  31.840  36.103  1.00  0.00     0.057 A 
ATOM     67  C   UNL A   1      43.329  32.214  37.078  1.00  0.00     0.134 A 
ATOM     68  C   UNL A   1      42.357  30.464  35.793  1.00  0.00     0.134 A 
ATOM     69  F   UNL A   1      43.476  33.499  37.433  1.00  0.00    -0.206 F 
ATOM     70  C   UNL A   1      44.210  31.294  37.658  1.00  0.00     0.040 A 
ATOM     71  C   UNL A   1      43.194  29.529  36.407  1.00  0.00     0.040 A 
ATOM     72  F   UNL A   1      41.592  29.968  34.811  1.00  0.00    -0.206 F 
ATOM     73  C   UNL A   1      44.145  29.947  37.321  1.00  0.00     0.006 A 
ENDBRANCH  52  66
BRANCH  53  74
ATOM     74  C   UNL A   1      39.834  28.595  28.778  1.00  0.00     0.057 A 
ATOM     75  C   UNL A   1      40.368  28.339  27.508  1.00  0.00     0.134 A 
ATOM     76  C   UNL A   1      39.330  27.480  29.471  1.00  0.00     0.134 A 
ATOM     77  F   UNL A   1      40.913  29.328  26.786  1.00  0.00    -0.206 F 
ATOM     78  C   UNL A   1      40.416  27.048  26.967  1.00  0.00     0.040 A 
ATOM     79  C   UNL A   1      39.357  26.188  28.937  1.00  0.00     0.040 A 
ATOM     80  F   UNL A   1      38.874  27.587  30.728  1.00  0.00    -0.206 F 
ATOM     81  C   UNL A   1      39.914  25.966  27.685  1.00  0.00     0.006 A 
ENDBRANCH  53  74
BRANCH  65  82
ATOM     82  C   UNL A   1      42.775  34.084  29.724  1.00  0.00     0.057 A 
ATOM     83  C   UNL A   1      41.596  34.753  29.364  1.00  0.00     0.134 A 
ATOM     84  C   UNL A   1      43.929  34.397  28.996  1.00  0.00     0.134 A 
ATOM     85  F   UNL A   1      40.468  34.597  30.070  1.00  0.00    -0.206 F 
ATOM     86  C   UNL A   1      41.557  35.652  28.295  1.00  0.00     0.040 A 
ATOM     87  C   UNL A   1      43.912  35.319  27.948  1.00  0.00     0.040 A 
ATOM     88  F   UNL A   1      45.107  33.841  29.323  1.00  0.00    -0.206 F 
ATOM     89  C   UNL A   1      42.720  35.940  27.585  1.00  0.00     0.006 A 
ENDBRANCH  65  82
ENDBRANCH  39  40
ENDBRANCH  32  34
ENDBRANCH  31  32
ENDBRANCH  30  31
ENDBRANCH  29  30
ENDBRANCH  28  29
ENDBRANCH  27  28
ENDBRANCH   1  27
TORSDOF 21
ENDMDL
MODEL 3
REMARK VINA RESULT:     -10.3      4.203      9.337
REMARK SMILES CC(C)[C@H](C)CNC(=O)N1CC(n2cc(C(=O)OCCOCCOCCOC(=O)c3ccc(-c4c5nc(c(-c6c(F)cccc6F)c6ccc([nH]6)c(-c6c(F)cccc6F)c6nc(c(-c7c(F)cccc7F)c7ccc4[nH]7)C=C6)C=C5)cc3)nn2)C1
REMARK SMILES IDX 22 1 21 2 20 3 19 4 18 5 16 6 17 7 15 8 13 9 14 10 85 11
REMARK SMILES IDX 84 12 12 13 7 14 8 15 9 17 10 18 11 19 86 20 6 21 4 22 5 23
REMARK SMILES IDX 2 24 1 25 3 26 23 27 24 28 25 29 26 30 27 31 28 32 29 33
REMARK SMILES IDX 30 34 31 35 83 36 32 37 82 38 33 39 34 40 35 41 76 42 36 43
REMARK SMILES IDX 81 44 75 45 77 46 37 47 80 48 74 49 73 50 38 52 64 53 47 54
REMARK SMILES IDX 63 55 48 56 51 57 62 58 78 59 49 60 50 61 61 63 79 64 52 65
REMARK SMILES IDX 39 66 40 67 45 68 41 69 42 70 44 71 46 72 43 73 65 74 66 75
REMARK SMILES IDX 71 76 67 77 68 78 70 79 72 80 69 81 53 82 54 83 59 84 55 85
REMARK SMILES IDX 56 86 58 87 60 88 57 89
REMARK H PARENT 7 16 77 51 51 62
REMARK Flexibility Score: inf
ROOT
ATOM      1  C   UNL A   1      31.286  26.779  26.738  1.00  0.00     0.188 C 
ENDROOT
BRANCH   1   2
ATOM      2  O   UNL A   1      30.806  25.445  26.633  1.00  0.00    -0.376 OA
BRANCH   2   3
ATOM      3  C   UNL A   1      31.701  24.349  26.799  1.00  0.00     0.202 C 
BRANCH   3   4
ATOM      4  C   UNL A   1      31.174  22.912  26.985  1.00  0.00     0.261 C 
BRANCH   4   5
ATOM      5  O   UNL A   1      30.656  22.288  25.798  1.00  0.00    -0.458 OA
BRANCH   5   6
ATOM      6  C   UNL A   1      31.571  21.672  24.995  1.00  0.00     0.360 C 
ATOM      7  O   UNL A   1      31.904  20.496  25.113  1.00  0.00    -0.244 OA
BRANCH   6   8
ATOM      8  C   UNL A   1      32.051  22.520  23.912  1.00  0.00     0.190 A 
ATOM      9  N   UNL A   1      32.472  24.085  22.468  1.00  0.00    -0.245 N 
ATOM     10  C   UNL A   1      31.638  23.779  23.511  1.00  0.00     0.147 A 
ATOM     11  N   UNL A   1      33.294  23.062  22.189  1.00  0.00    -0.066 NA
ATOM     12  N   UNL A   1      33.050  22.101  23.065  1.00  0.00    -0.123 NA
BRANCH   9  13
ATOM     13  C   UNL A   1      32.599  25.394  21.901  1.00  0.00     0.148 C 
ATOM     14  N   UNL A   1      31.189  29.294  22.825  1.00  0.00    -0.338 N 
ATOM     15  C   UNL A   1      32.367  28.633  22.699  1.00  0.00     0.317 C 
ATOM     16  H   UNL A   1      31.196  30.213  22.471  1.00  0.00     0.165 HD
ATOM     17  O   UNL A   1      33.395  29.300  22.574  1.00  0.00    -0.249 OA
ATOM     18  N   UNL A   1      32.387  27.283  22.695  1.00  0.00    -0.320 N 
ATOM     19  C   UNL A   1      33.529  26.378  22.632  1.00  0.00     0.150 C 
ATOM     20  C   UNL A   1      31.419  26.260  22.385  1.00  0.00     0.150 C 
BRANCH  14  21
ATOM     21  C   UNL A   1      29.912  28.876  23.396  1.00  0.00     0.121 C 
BRANCH  21  22
ATOM     22  C   UNL A   1      28.723  29.346  22.528  1.00  0.00     0.008 C 
ATOM     23  C   UNL A   1      27.416  28.734  23.057  1.00  0.00     0.010 C 
BRANCH  22  24
ATOM     24  C   UNL A   1      28.604  30.893  22.349  1.00  0.00    -0.013 C 
ATOM     25  C   UNL A   1      28.144  31.342  20.959  1.00  0.00     0.008 C 
ATOM     26  C   UNL A   1      27.732  31.566  23.414  1.00  0.00     0.008 C 
ENDBRANCH  22  24
ENDBRANCH  21  22
ENDBRANCH  14  21
ENDBRANCH   9  13
ENDBRANCH   6   8
ENDBRANCH   5   6
ENDBRANCH   4   5
ENDBRANCH   3   4
ENDBRANCH   2   3
ENDBRANCH   1   2
BRANCH   1  27
ATOM     27  C   UNL A   1      32.733  27.108  26.315  1.00  0.00     0.188 C 
BRANCH  27  28
ATOM     28  O   UNL A   1      33.309  28.184  27.027  1.00  0.00    -0.376 OA
BRANCH  28  29
ATOM     29  C   UNL A   1      32.566  29.380  27.218  1.00  0.00     0.202 C 
BRANCH  29  30
ATOM     30  C   UNL A   1      33.249  30.751  27.257  1.00  0.00     0.261 C 
BRANCH  30  31
ATOM     31  O   UNL A   1      34.653  30.769  27.061  1.00  0.00    -0.460 OA
BRANCH  31  32
ATOM     32  C   UNL A   1      35.315  31.715  27.756  1.00  0.00     0.338 C 
ATOM     33  O   UNL A   1      35.142  32.919  27.702  1.00  0.00    -0.246 OA
BRANCH  32  34
ATOM     34  C   UNL A   1      36.349  31.056  28.561  1.00  0.00     0.060 A 
ATOM     35  C   UNL A   1      37.418  31.837  29.004  1.00  0.00     0.016 A 
ATOM     36  C   UNL A   1      36.368  29.655  28.645  1.00  0.00     0.016 A 
ATOM     37  C   UNL A   1      38.589  31.203  29.362  1.00  0.00     0.010 A 
ATOM     38  C   UNL A   1      37.542  29.024  28.991  1.00  0.00     0.010 A 
ATOM     39  C   UNL A   1      38.659  29.809  29.264  1.00  0.00    -0.014 A 
BRANCH  39  40
ATOM     40  C   UNL A   1      39.964  29.197  29.400  1.00  0.00     0.031 A 
ATOM     41  C   UNL A   1      40.481  29.082  30.778  1.00  0.00     0.074 A 
ATOM     42  C   UNL A   1      40.616  28.686  28.338  1.00  0.00     0.049 A 
ATOM     43  N   UNL A   1      41.567  29.583  31.263  1.00  0.00    -0.248 NA
ATOM     44  C   UNL A   1      39.644  28.375  31.757  1.00  0.00     0.031 C 
ATOM     45  C   UNL A   1      40.091  28.464  26.987  1.00  0.00     0.029 A 
ATOM     46  N   UNL A   1      41.866  28.151  28.282  1.00  0.00    -0.354 N 
ATOM     47  C   UNL A   1      41.651  29.100  32.563  1.00  0.00     0.074 A 
ATOM     48  C   UNL A   1      40.387  28.476  32.858  1.00  0.00     0.031 C 
ATOM     49  C   UNL A   1      40.938  27.654  26.315  1.00  0.00     0.029 A 
ATOM     50  C   UNL A   1      42.106  27.401  27.142  1.00  0.00     0.049 A 
ATOM     51  H   UNL A   1      42.539  28.284  28.988  1.00  0.00     0.167 HD
ATOM     52  C   UNL A   1      42.837  29.039  33.222  1.00  0.00     0.037 A 
ATOM     53  C   UNL A   1      43.152  26.566  26.934  1.00  0.00     0.037 A 
ATOM     54  C   UNL A   1      43.812  29.937  32.666  1.00  0.00     0.049 A 
ATOM     55  C   UNL A   1      44.223  26.925  27.896  1.00  0.00     0.074 A 
ATOM     56  C   UNL A   1      43.867  31.301  32.444  1.00  0.00     0.029 A 
ATOM     57  N   UNL A   1      44.851  29.406  31.944  1.00  0.00    -0.354 N 
ATOM     58  N   UNL A   1      44.945  28.008  27.833  1.00  0.00    -0.248 NA
ATOM     59  C   UNL A   1      44.251  26.234  29.177  1.00  0.00     0.031 C 
ATOM     60  C   UNL A   1      44.628  31.458  31.250  1.00  0.00     0.029 A 
ATOM     61  C   UNL A   1      45.005  30.184  30.827  1.00  0.00     0.049 A 
ATOM     62  H   UNL A   1      45.384  28.613  32.183  1.00  0.00     0.167 HD
ATOM     63  C   UNL A   1      45.173  28.359  29.156  1.00  0.00     0.074 A 
ATOM     64  C   UNL A   1      44.835  27.169  29.928  1.00  0.00     0.031 C 
ATOM     65  C   UNL A   1      45.339  29.663  29.521  1.00  0.00     0.037 A 
BRANCH  52  66
ATOM     66  C   UNL A   1      43.205  27.902  34.138  1.00  0.00     0.057 A 
ATOM     67  C   UNL A   1      43.502  28.166  35.485  1.00  0.00     0.134 A 
ATOM     68  C   UNL A   1      43.561  26.615  33.681  1.00  0.00     0.134 A 
ATOM     69  F   UNL A   1      43.240  29.366  36.024  1.00  0.00    -0.206 F 
ATOM     70  C   UNL A   1      44.156  27.236  36.301  1.00  0.00     0.040 A 
ATOM     71  C   UNL A   1      44.164  25.661  34.503  1.00  0.00     0.040 A 
ATOM     72  F   UNL A   1      43.440  26.251  32.398  1.00  0.00    -0.206 F 
ATOM     73  C   UNL A   1      44.492  25.980  35.810  1.00  0.00     0.006 A 
ENDBRANCH  52  66
BRANCH  53  74
ATOM     74  C   UNL A   1      43.192  25.323  26.134  1.00  0.00     0.057 A 
ATOM     75  C   UNL A   1      44.199  25.106  25.184  1.00  0.00     0.134 A 
ATOM     76  C   UNL A   1      42.394  24.209  26.451  1.00  0.00     0.134 A 
ATOM     77  F   UNL A   1      45.041  26.093  24.846  1.00  0.00    -0.206 F 
ATOM     78  C   UNL A   1      44.414  23.851  24.600  1.00  0.00     0.040 A 
ATOM     79  C   UNL A   1      42.587  22.955  25.864  1.00  0.00     0.040 A 
ATOM     80  F   UNL A   1      41.456  24.272  27.408  1.00  0.00    -0.206 F 
ATOM     81  C   UNL A   1      43.610  22.769  24.944  1.00  0.00     0.006 A 
ENDBRANCH  53  74
BRANCH  65  82
ATOM     82  C   UNL A   1      45.602  30.667  28.437  1.00  0.00     0.057 A 
ATOM     83  C   UNL A   1      44.593  31.271  27.672  1.00  0.00     0.134 A 
ATOM     84  C   UNL A   1      46.906  31.139  28.254  1.00  0.00     0.134 A 
ATOM     85  F   UNL A   1      43.303  30.960  27.854  1.00  0.00    -0.206 F 
ATOM     86  C   UNL A   1      44.880  32.264  26.730  1.00  0.00     0.040 A 
ATOM     87  C   UNL A   1      47.202  32.154  27.342  1.00  0.00     0.040 A 
ATOM     88  F   UNL A   1      47.913  30.650  28.996  1.00  0.00    -0.206 F 
ATOM     89  C   UNL A   1      46.188  32.710  26.566  1.00  0.00     0.006 A 
ENDBRANCH  65  82
ENDBRANCH  39  40
ENDBRANCH  32  34
ENDBRANCH  31  32
ENDBRANCH  30  31
ENDBRANCH  29  30
ENDBRANCH  28  29
ENDBRANCH  27  28
ENDBRANCH   1  27
TORSDOF 21
ENDMDL
