MODEL 1
REMARK VINA RESULT:     -12.1      0.000      0.000
REMARK SMILES CC[C@H](C)N1C(=O)c2ccccc2[C@@H](C(=O)OCCOCCOCCOC(=O)c2ccc(-c3c4nc(c(-c5c(F)cccc5F)c5ccc([nH]5)c(-c5c(F)cccc5F)c5nc(c(-c6c(F)cccc6F)c6ccc3[nH]6)C=C5)C=C4)cc2)C12CCCCC2
REMARK SMILES IDX 21 1 20 2 19 3 18 4 17 5 15 6 16 7 14 8 5 9 6 10 83 11 7 12
REMARK SMILES IDX 8 13 84 14 88 15 9 16 13 17 85 18 87 19 10 20 12 21 86 22
REMARK SMILES IDX 11 23 3 24 4 25 2 26 1 27 22 28 23 29 24 30 25 31 26 32
REMARK SMILES IDX 27 33 28 34 29 35 30 36 82 37 31 38 81 39 32 40 33 41 34 42
REMARK SMILES IDX 75 43 35 44 80 45 74 46 76 47 36 48 79 49 73 50 72 51 37 53
REMARK SMILES IDX 63 54 46 55 62 56 47 57 50 58 61 59 77 60 48 61 49 62 60 64
REMARK SMILES IDX 78 65 51 66 38 67 39 68 44 69 40 70 41 71 43 72 45 73 42 74
REMARK SMILES IDX 64 75 65 76 70 77 66 78 67 79 69 80 71 81 68 82 52 83 53 84
REMARK SMILES IDX 58 85 54 86 55 87 57 88 59 89 56 90
REMARK H PARENT 76 52 50 63
REMARK Flexibility Score: inf
ROOT
ATOM      1  C   UNL A   1      39.766  21.758  26.341  1.00  0.00     0.188 C 
ENDROOT
BRANCH   1   2
ATOM      2  O   UNL A   1      39.809  23.185  26.372  1.00  0.00    -0.376 OA
BRANCH   2   3
ATOM      3  C   UNL A   1      38.705  23.950  26.832  1.00  0.00     0.202 C 
BRANCH   3   4
ATOM      4  C   UNL A   1      37.356  23.802  26.107  1.00  0.00     0.261 C 
BRANCH   4   5
ATOM      5  O   UNL A   1      37.484  23.779  24.666  1.00  0.00    -0.463 OA
BRANCH   5   6
ATOM      6  C   UNL A   1      36.534  23.107  23.951  1.00  0.00     0.315 C 
ATOM      7  O   UNL A   1      36.602  22.893  22.747  1.00  0.00    -0.251 OA
BRANCH   6   8
ATOM      8  C   UNL A   1      35.338  22.630  24.833  1.00  0.00     0.156 C 
ATOM      9  N   UNL A   1      32.961  22.276  25.592  1.00  0.00    -0.329 N 
ATOM     10  C   UNL A   1      32.963  20.938  25.131  1.00  0.00     0.254 C 
ATOM     11  C   UNL A   1      33.773  23.285  24.680  1.00  0.00     0.061 C 
ATOM     12  O   UNL A   1      31.972  20.223  25.034  1.00  0.00    -0.269 OA
ATOM     13  C   UNL A   1      34.293  20.329  24.867  1.00  0.00     0.044 A 
ATOM     14  C   UNL A   1      33.092  23.114  22.911  1.00  0.00     0.030 C 
ATOM     15  C   UNL A   1      33.794  25.061  25.371  1.00  0.00     0.030 C 
ATOM     16  C   UNL A   1      34.422  18.932  24.757  1.00  0.00     0.014 A 
ATOM     17  C   UNL A   1      35.433  21.115  24.839  1.00  0.00    -0.019 A 
ATOM     18  C   UNL A   1      33.040  24.569  21.643  1.00  0.00     0.002 C 
ATOM     19  C   UNL A   1      33.846  26.598  24.187  1.00  0.00     0.002 C 
ATOM     20  C   UNL A   1      35.679  18.328  24.627  1.00  0.00     0.001 A 
ATOM     21  C   UNL A   1      36.702  20.483  24.798  1.00  0.00     0.005 A 
ATOM     22  C   UNL A   1      33.472  26.368  22.239  1.00  0.00     0.000 C 
ATOM     23  C   UNL A   1      36.825  19.106  24.661  1.00  0.00     0.000 A 
BRANCH   9  24
ATOM     24  C   UNL A   1      32.066  22.614  26.777  1.00  0.00     0.082 C 
ATOM     25  C   UNL A   1      32.800  22.563  28.158  1.00  0.00     0.031 C 
BRANCH  24  26
ATOM     26  C   UNL A   1      31.451  24.050  26.749  1.00  0.00     0.021 C 
ATOM     27  C   UNL A   1      29.949  24.103  26.439  1.00  0.00     0.006 C 
ENDBRANCH  24  26
ENDBRANCH   9  24
ENDBRANCH   6   8
ENDBRANCH   5   6
ENDBRANCH   4   5
ENDBRANCH   3   4
ENDBRANCH   2   3
ENDBRANCH   1   2
BRANCH   1  28
ATOM     28  C   UNL A   1      41.160  20.960  26.680  1.00  0.00     0.188 C 
BRANCH  28  29
ATOM     29  O   UNL A   1      43.031  21.229  26.594  1.00  0.00    -0.376 OA
BRANCH  29  30
ATOM     30  C   UNL A   1      44.270  21.695  25.680  1.00  0.00     0.202 C 
BRANCH  30  31
ATOM     31  C   UNL A   1      44.405  22.592  24.282  1.00  0.00     0.261 C 
BRANCH  31  32
ATOM     32  O   UNL A   1      44.020  24.004  24.271  1.00  0.00    -0.460 OA
BRANCH  32  33
ATOM     33  C   UNL A   1      44.765  24.868  25.020  1.00  0.00     0.338 C 
ATOM     34  O   UNL A   1      45.887  25.243  24.763  1.00  0.00    -0.246 OA
BRANCH  33  35
ATOM     35  C   UNL A   1      43.883  25.590  26.000  1.00  0.00     0.060 A 
ATOM     36  C   UNL A   1      42.692  25.090  26.533  1.00  0.00     0.016 A 
ATOM     37  C   UNL A   1      44.301  26.885  26.356  1.00  0.00     0.016 A 
ATOM     38  C   UNL A   1      41.975  25.858  27.480  1.00  0.00     0.010 A 
ATOM     39  C   UNL A   1      43.563  27.666  27.253  1.00  0.00     0.010 A 
ATOM     40  C   UNL A   1      42.422  27.139  27.870  1.00  0.00    -0.014 A 
BRANCH  40  41
ATOM     41  C   UNL A   1      41.939  27.783  29.127  1.00  0.00     0.031 A 
ATOM     42  C   UNL A   1      42.552  27.566  30.481  1.00  0.00     0.074 A 
ATOM     43  C   UNL A   1      40.806  28.509  29.031  1.00  0.00     0.049 A 
ATOM     44  N   UNL A   1      42.266  28.161  31.616  1.00  0.00    -0.248 NA
ATOM     45  C   UNL A   1      43.593  26.536  30.589  1.00  0.00     0.031 C 
ATOM     46  C   UNL A   1      40.038  28.694  27.797  1.00  0.00     0.029 A 
ATOM     47  N   UNL A   1      40.093  29.204  29.974  1.00  0.00    -0.354 N 
ATOM     48  C   UNL A   1      43.115  27.609  32.568  1.00  0.00     0.074 A 
ATOM     49  C   UNL A   1      43.883  26.584  31.885  1.00  0.00     0.031 C 
ATOM     50  C   UNL A   1      38.970  29.462  28.053  1.00  0.00     0.029 A 
ATOM     51  C   UNL A   1      38.985  29.834  29.463  1.00  0.00     0.049 A 
ATOM     52  H   UNL A   1      40.349  29.246  30.923  1.00  0.00     0.167 HD
ATOM     53  C   UNL A   1      43.250  27.940  33.880  1.00  0.00     0.037 A 
ATOM     54  C   UNL A   1      38.094  30.654  30.049  1.00  0.00     0.037 A 
ATOM     55  C   UNL A   1      42.439  28.926  34.563  1.00  0.00     0.049 A 
ATOM     56  C   UNL A   1      38.282  31.030  31.488  1.00  0.00     0.074 A 
ATOM     57  C   UNL A   1      42.544  29.387  35.867  1.00  0.00     0.029 A 
ATOM     58  N   UNL A   1      41.351  29.582  34.005  1.00  0.00    -0.354 N 
ATOM     59  N   UNL A   1      39.199  30.633  32.334  1.00  0.00    -0.248 NA
ATOM     60  C   UNL A   1      37.327  31.999  32.042  1.00  0.00     0.031 C 
ATOM     61  C   UNL A   1      41.493  30.282  36.109  1.00  0.00     0.029 A 
ATOM     62  C   UNL A   1      40.763  30.423  34.941  1.00  0.00     0.049 A 
ATOM     63  H   UNL A   1      41.040  29.468  33.077  1.00  0.00     0.167 HD
ATOM     64  C   UNL A   1      38.956  31.328  33.510  1.00  0.00     0.074 A 
ATOM     65  C   UNL A   1      37.815  32.186  33.259  1.00  0.00     0.031 C 
ATOM     66  C   UNL A   1      39.620  31.264  34.690  1.00  0.00     0.037 A 
BRANCH  53  67
ATOM     67  C   UNL A   1      44.333  27.251  34.670  1.00  0.00     0.057 A 
ATOM     68  C   UNL A   1      44.108  26.023  35.307  1.00  0.00     0.134 A 
ATOM     69  C   UNL A   1      45.588  27.847  34.860  1.00  0.00     0.134 A 
ATOM     70  F   UNL A   1      42.924  25.402  35.193  1.00  0.00    -0.206 F 
ATOM     71  C   UNL A   1      45.088  25.414  36.095  1.00  0.00     0.040 A 
ATOM     72  C   UNL A   1      46.586  27.235  35.624  1.00  0.00     0.040 A 
ATOM     73  F   UNL A   1      45.872  29.028  34.291  1.00  0.00    -0.206 F 
ATOM     74  C   UNL A   1      46.335  26.016  36.248  1.00  0.00     0.006 A 
ENDBRANCH  53  67
BRANCH  54  75
ATOM     75  C   UNL A   1      37.005  31.252  29.240  1.00  0.00     0.057 A 
ATOM     76  C   UNL A   1      35.859  30.527  28.896  1.00  0.00     0.134 A 
ATOM     77  C   UNL A   1      37.100  32.571  28.778  1.00  0.00     0.134 A 
ATOM     78  F   UNL A   1      35.720  29.252  29.291  1.00  0.00    -0.206 F 
ATOM     79  C   UNL A   1      34.844  31.092  28.123  1.00  0.00     0.040 A 
ATOM     80  C   UNL A   1      36.082  33.157  28.028  1.00  0.00     0.040 A 
ATOM     81  F   UNL A   1      38.173  33.316  29.083  1.00  0.00    -0.206 F 
ATOM     82  C   UNL A   1      34.950  32.415  27.696  1.00  0.00     0.006 A 
ENDBRANCH  54  75
BRANCH  66  83
ATOM     83  C   UNL A   1      39.133  32.172  35.784  1.00  0.00     0.057 A 
ATOM     84  C   UNL A   1      38.288  31.687  36.790  1.00  0.00     0.134 A 
ATOM     85  C   UNL A   1      39.522  33.517  35.863  1.00  0.00     0.134 A 
ATOM     86  F   UNL A   1      37.872  30.412  36.776  1.00  0.00    -0.206 F 
ATOM     87  C   UNL A   1      37.860  32.502  37.841  1.00  0.00     0.040 A 
ATOM     88  C   UNL A   1      39.125  34.332  36.924  1.00  0.00     0.040 A 
ATOM     89  F   UNL A   1      40.346  34.040  34.942  1.00  0.00    -0.206 F 
ATOM     90  C   UNL A   1      38.290  33.824  37.916  1.00  0.00     0.006 A 
ENDBRANCH  66  83
ENDBRANCH  40  41
ENDBRANCH  33  35
ENDBRANCH  32  33
ENDBRANCH  31  32
ENDBRANCH  30  31
ENDBRANCH  29  30
ENDBRANCH  28  29
ENDBRANCH   1  28
TORSDOF 19
ENDMDL
MODEL 2
REMARK VINA RESULT:     -11.3      3.724      4.945
REMARK SMILES CC[C@H](C)N1C(=O)c2ccccc2[C@@H](C(=O)OCCOCCOCCOC(=O)c2ccc(-c3c4nc(c(-c5c(F)cccc5F)c5ccc([nH]5)c(-c5c(F)cccc5F)c5nc(c(-c6c(F)cccc6F)c6ccc3[nH]6)C=C5)C=C4)cc2)C12CCCCC2
REMARK SMILES IDX 21 1 20 2 19 3 18 4 17 5 15 6 16 7 14 8 5 9 6 10 83 11 7 12
REMARK SMILES IDX 8 13 84 14 88 15 9 16 13 17 85 18 87 19 10 20 12 21 86 22
REMARK SMILES IDX 11 23 3 24 4 25 2 26 1 27 22 28 23 29 24 30 25 31 26 32
REMARK SMILES IDX 27 33 28 34 29 35 30 36 82 37 31 38 81 39 32 40 33 41 34 42
REMARK SMILES IDX 75 43 35 44 80 45 74 46 76 47 36 48 79 49 73 50 72 51 37 53
REMARK SMILES IDX 63 54 46 55 62 56 47 57 50 58 61 59 77 60 48 61 49 62 60 64
REMARK SMILES IDX 78 65 51 66 38 67 39 68 44 69 40 70 41 71 43 72 45 73 42 74
REMARK SMILES IDX 64 75 65 76 70 77 66 78 67 79 69 80 71 81 68 82 52 83 53 84
REMARK SMILES IDX 58 85 54 86 55 87 57 88 59 89 56 90
REMARK H PARENT 76 52 50 63
REMARK Flexibility Score: inf
ROOT
ATOM      1  C   UNL A   1      39.691  22.042  26.524  1.00  0.00     0.188 C 
ENDROOT
BRANCH   1   2
ATOM      2  O   UNL A   1      39.711  23.395  26.981  1.00  0.00    -0.376 OA
BRANCH   2   3
ATOM      3  C   UNL A   1      38.570  24.233  26.870  1.00  0.00     0.202 C 
BRANCH   3   4
ATOM      4  C   UNL A   1      37.321  23.681  26.162  1.00  0.00     0.261 C 
BRANCH   4   5
ATOM      5  O   UNL A   1      37.422  23.717  24.719  1.00  0.00    -0.463 OA
BRANCH   5   6
ATOM      6  C   UNL A   1      36.501  23.013  23.997  1.00  0.00     0.315 C 
ATOM      7  O   UNL A   1      36.600  22.777  22.799  1.00  0.00    -0.251 OA
BRANCH   6   8
ATOM      8  C   UNL A   1      35.295  22.531  24.861  1.00  0.00     0.156 C 
ATOM      9  N   UNL A   1      32.909  22.185  25.598  1.00  0.00    -0.329 N 
ATOM     10  C   UNL A   1      32.901  20.856  25.110  1.00  0.00     0.254 C 
ATOM     11  C   UNL A   1      33.736  23.204  24.712  1.00  0.00     0.061 C 
ATOM     12  O   UNL A   1      31.903  20.154  24.993  1.00  0.00    -0.269 OA
ATOM     13  C   UNL A   1      34.226  20.240  24.842  1.00  0.00     0.044 A 
ATOM     14  C   UNL A   1      33.066  23.075  22.934  1.00  0.00     0.030 C 
ATOM     15  C   UNL A   1      33.771  24.965  25.438  1.00  0.00     0.030 C 
ATOM     16  C   UNL A   1      34.343  18.844  24.706  1.00  0.00     0.014 A 
ATOM     17  C   UNL A   1      35.374  21.015  24.838  1.00  0.00    -0.019 A 
ATOM     18  C   UNL A   1      33.037  24.555  21.695  1.00  0.00     0.002 C 
ATOM     19  C   UNL A   1      33.845  26.525  24.284  1.00  0.00     0.002 C 
ATOM     20  C   UNL A   1      35.594  18.230  24.573  1.00  0.00     0.001 A 
ATOM     21  C   UNL A   1      36.638  20.371  24.793  1.00  0.00     0.005 A 
ATOM     22  C   UNL A   1      33.482  26.338  22.330  1.00  0.00     0.000 C 
ATOM     23  C   UNL A   1      36.748  18.996  24.629  1.00  0.00     0.000 A 
BRANCH   9  24
ATOM     24  C   UNL A   1      32.009  22.509  26.784  1.00  0.00     0.082 C 
ATOM     25  C   UNL A   1      32.789  22.767  28.115  1.00  0.00     0.031 C 
BRANCH  24  26
ATOM     26  C   UNL A   1      31.140  23.797  26.618  1.00  0.00     0.021 C 
ATOM     27  C   UNL A   1      30.441  23.933  25.259  1.00  0.00     0.006 C 
ENDBRANCH  24  26
ENDBRANCH   9  24
ENDBRANCH   6   8
ENDBRANCH   5   6
ENDBRANCH   4   5
ENDBRANCH   3   4
ENDBRANCH   2   3
ENDBRANCH   1   2
BRANCH   1  28
ATOM     28  C   UNL A   1      41.131  21.367  26.119  1.00  0.00     0.188 C 
BRANCH  28  29
ATOM     29  O   UNL A   1      41.842  19.690  25.605  1.00  0.00    -0.376 OA
BRANCH  29  30
ATOM     30  C   UNL A   1      43.142  18.742  25.589  1.00  0.00     0.202 C 
BRANCH  30  31
ATOM     31  C   UNL A   1      44.720  18.949  25.096  1.00  0.00     0.261 C 
BRANCH  31  32
ATOM     32  O   UNL A   1      45.372  20.252  25.235  1.00  0.00    -0.460 OA
BRANCH  32  33
ATOM     33  C   UNL A   1      44.927  21.270  24.443  1.00  0.00     0.338 C 
ATOM     34  O   UNL A   1      44.556  21.165  23.296  1.00  0.00    -0.246 OA
BRANCH  33  35
ATOM     35  C   UNL A   1      44.598  22.470  25.286  1.00  0.00     0.060 A 
ATOM     36  C   UNL A   1      44.440  22.461  26.675  1.00  0.00     0.016 A 
ATOM     37  C   UNL A   1      44.403  23.673  24.583  1.00  0.00     0.016 A 
ATOM     38  C   UNL A   1      44.170  23.672  27.353  1.00  0.00     0.010 A 
ATOM     39  C   UNL A   1      44.083  24.861  25.250  1.00  0.00     0.010 A 
ATOM     40  C   UNL A   1      44.020  24.887  26.648  1.00  0.00    -0.014 A 
BRANCH  40  41
ATOM     41  C   UNL A   1      44.142  26.206  27.336  1.00  0.00     0.031 A 
ATOM     42  C   UNL A   1      45.446  26.842  27.726  1.00  0.00     0.074 A 
ATOM     43  C   UNL A   1      42.989  26.788  27.725  1.00  0.00     0.049 A 
ATOM     44  N   UNL A   1      45.659  28.033  28.235  1.00  0.00    -0.248 NA
ATOM     45  C   UNL A   1      46.662  26.037  27.554  1.00  0.00     0.031 C 
ATOM     46  C   UNL A   1      41.656  26.213  27.522  1.00  0.00     0.029 A 
ATOM     47  N   UNL A   1      42.746  27.967  28.382  1.00  0.00    -0.354 N 
ATOM     48  C   UNL A   1      47.033  28.141  28.411  1.00  0.00     0.074 A 
ATOM     49  C   UNL A   1      47.596  26.864  28.011  1.00  0.00     0.031 C 
ATOM     50  C   UNL A   1      40.736  27.044  28.031  1.00  0.00     0.029 A 
ATOM     51  C   UNL A   1      41.410  28.213  28.582  1.00  0.00     0.049 A 
ATOM     52  H   UNL A   1      43.459  28.575  28.683  1.00  0.00     0.167 HD
ATOM     53  C   UNL A   1      47.753  29.209  28.847  1.00  0.00     0.037 A 
ATOM     54  C   UNL A   1      40.785  29.278  29.116  1.00  0.00     0.037 A 
ATOM     55  C   UNL A   1      47.174  30.458  29.295  1.00  0.00     0.049 A 
ATOM     56  C   UNL A   1      41.597  30.456  29.560  1.00  0.00     0.074 A 
ATOM     57  C   UNL A   1      47.815  31.624  29.685  1.00  0.00     0.029 A 
ATOM     58  N   UNL A   1      45.814  30.694  29.443  1.00  0.00    -0.354 N 
ATOM     59  N   UNL A   1      42.897  30.614  29.557  1.00  0.00    -0.248 NA
ATOM     60  C   UNL A   1      40.848  31.622  30.050  1.00  0.00     0.031 C 
ATOM     61  C   UNL A   1      46.848  32.544  30.113  1.00  0.00     0.029 A 
ATOM     62  C   UNL A   1      45.599  31.973  29.939  1.00  0.00     0.049 A 
ATOM     63  H   UNL A   1      45.104  30.046  29.227  1.00  0.00     0.167 HD
ATOM     64  C   UNL A   1      43.123  31.906  30.009  1.00  0.00     0.074 A 
ATOM     65  C   UNL A   1      41.823  32.495  30.258  1.00  0.00     0.031 C 
ATOM     66  C   UNL A   1      44.303  32.548  30.198  1.00  0.00     0.037 A 
BRANCH  53  67
ATOM     67  C   UNL A   1      49.255  29.093  28.840  1.00  0.00     0.057 A 
ATOM     68  C   UNL A   1      50.013  29.433  27.712  1.00  0.00     0.134 A 
ATOM     69  C   UNL A   1      49.950  28.568  29.940  1.00  0.00     0.134 A 
ATOM     70  F   UNL A   1      49.417  29.918  26.611  1.00  0.00    -0.206 F 
ATOM     71  C   UNL A   1      51.400  29.263  27.679  1.00  0.00     0.040 A 
ATOM     72  C   UNL A   1      51.340  28.418  29.929  1.00  0.00     0.040 A 
ATOM     73  F   UNL A   1      49.291  28.209  31.051  1.00  0.00    -0.206 F 
ATOM     74  C   UNL A   1      52.068  28.762  28.794  1.00  0.00     0.006 A 
ENDBRANCH  53  67
BRANCH  54  75
ATOM     75  C   UNL A   1      39.304  29.312  29.161  1.00  0.00     0.057 A 
ATOM     76  C   UNL A   1      38.598  29.121  30.354  1.00  0.00     0.134 A 
ATOM     77  C   UNL A   1      38.558  29.524  27.994  1.00  0.00     0.134 A 
ATOM     78  F   UNL A   1      39.256  28.892  31.500  1.00  0.00    -0.206 F 
ATOM     79  C   UNL A   1      37.203  29.142  30.386  1.00  0.00     0.040 A 
ATOM     80  C   UNL A   1      37.165  29.574  28.017  1.00  0.00     0.040 A 
ATOM     81  F   UNL A   1      39.181  29.720  26.823  1.00  0.00    -0.206 F 
ATOM     82  C   UNL A   1      36.483  29.379  29.216  1.00  0.00     0.006 A 
ENDBRANCH  54  75
BRANCH  66  83
ATOM     83  C   UNL A   1      44.223  33.972  30.674  1.00  0.00     0.057 A 
ATOM     84  C   UNL A   1      44.108  35.024  29.757  1.00  0.00     0.134 A 
ATOM     85  C   UNL A   1      44.229  34.302  32.037  1.00  0.00     0.134 A 
ATOM     86  F   UNL A   1      44.100  34.782  28.438  1.00  0.00    -0.206 F 
ATOM     87  C   UNL A   1      43.988  36.351  30.179  1.00  0.00     0.040 A 
ATOM     88  C   UNL A   1      44.079  35.621  32.470  1.00  0.00     0.040 A 
ATOM     89  F   UNL A   1      44.318  33.341  32.968  1.00  0.00    -0.206 F 
ATOM     90  C   UNL A   1      43.960  36.650  31.538  1.00  0.00     0.006 A 
ENDBRANCH  66  83
ENDBRANCH  40  41
ENDBRANCH  33  35
ENDBRANCH  32  33
ENDBRANCH  31  32
ENDBRANCH  30  31
ENDBRANCH  29  30
ENDBRANCH  28  29
ENDBRANCH   1  28
TORSDOF 19
ENDMDL
MODEL 3
REMARK VINA RESULT:     -11.1      1.809      6.596
REMARK SMILES CC[C@H](C)N1C(=O)c2ccccc2[C@@H](C(=O)OCCOCCOCCOC(=O)c2ccc(-c3c4nc(c(-c5c(F)cccc5F)c5ccc([nH]5)c(-c5c(F)cccc5F)c5nc(c(-c6c(F)cccc6F)c6ccc3[nH]6)C=C5)C=C4)cc2)C12CCCCC2
REMARK SMILES IDX 21 1 20 2 19 3 18 4 17 5 15 6 16 7 14 8 5 9 6 10 83 11 7 12
REMARK SMILES IDX 8 13 84 14 88 15 9 16 13 17 85 18 87 19 10 20 12 21 86 22
REMARK SMILES IDX 11 23 3 24 4 25 2 26 1 27 22 28 23 29 24 30 25 31 26 32
REMARK SMILES IDX 27 33 28 34 29 35 30 36 82 37 31 38 81 39 32 40 33 41 34 42
REMARK SMILES IDX 75 43 35 44 80 45 74 46 76 47 36 48 79 49 73 50 72 51 37 53
REMARK SMILES IDX 63 54 46 55 62 56 47 57 50 58 61 59 77 60 48 61 49 62 60 64
REMARK SMILES IDX 78 65 51 66 38 67 39 68 44 69 40 70 41 71 43 72 45 73 42 74
REMARK SMILES IDX 64 75 65 76 70 77 66 78 67 79 69 80 71 81 68 82 52 83 53 84
REMARK SMILES IDX 58 85 54 86 55 87 57 88 59 89 56 90
REMARK H PARENT 76 52 50 63
REMARK Flexibility Score: inf
ROOT
ATOM      1  C   UNL A   1      37.702  21.972  25.396  1.00  0.00     0.188 C 
ENDROOT
BRANCH   1   2
ATOM      2  O   UNL A   1      36.314  21.717  25.609  1.00  0.00    -0.376 OA
BRANCH   2   3
ATOM      3  C   UNL A   1      35.352  22.760  25.557  1.00  0.00     0.202 C 
BRANCH   3   4
ATOM      4  C   UNL A   1      34.627  23.154  26.856  1.00  0.00     0.261 C 
BRANCH   4   5
ATOM      5  O   UNL A   1      33.694  24.247  26.678  1.00  0.00    -0.463 OA
BRANCH   5   6
ATOM      6  C   UNL A   1      32.360  23.960  26.722  1.00  0.00     0.315 C 
ATOM      7  O   UNL A   1      31.817  23.352  27.637  1.00  0.00    -0.251 OA
BRANCH   6   8
ATOM      8  C   UNL A   1      31.584  24.493  25.478  1.00  0.00     0.156 C 
ATOM      9  N   UNL A   1      30.920  26.026  23.591  1.00  0.00    -0.329 N 
ATOM     10  C   UNL A   1      31.603  25.230  22.640  1.00  0.00     0.254 C 
ATOM     11  C   UNL A   1      31.638  26.127  24.998  1.00  0.00     0.061 C 
ATOM     12  O   UNL A   1      31.829  25.554  21.480  1.00  0.00    -0.269 OA
ATOM     13  C   UNL A   1      31.954  23.848  23.061  1.00  0.00     0.044 A 
ATOM     14  C   UNL A   1      33.418  26.724  24.679  1.00  0.00     0.030 C 
ATOM     15  C   UNL A   1      30.655  27.157  26.264  1.00  0.00     0.030 C 
ATOM     16  C   UNL A   1      32.299  22.881  22.099  1.00  0.00     0.014 A 
ATOM     17  C   UNL A   1      31.836  23.467  24.388  1.00  0.00    -0.019 A 
ATOM     18  C   UNL A   1      34.420  27.807  25.924  1.00  0.00     0.002 C 
ATOM     19  C   UNL A   1      31.560  28.204  27.626  1.00  0.00     0.002 C 
ATOM     20  C   UNL A   1      32.517  21.546  22.459  1.00  0.00     0.001 A 
ATOM     21  C   UNL A   1      31.971  22.094  24.722  1.00  0.00     0.005 A 
ATOM     22  C   UNL A   1      33.521  28.545  27.482  1.00  0.00     0.000 C 
ATOM     23  C   UNL A   1      32.340  21.148  23.775  1.00  0.00     0.000 A 
BRANCH   9  24
ATOM     24  C   UNL A   1      29.703  26.809  23.114  1.00  0.00     0.082 C 
ATOM     25  C   UNL A   1      28.384  26.452  23.877  1.00  0.00     0.031 C 
BRANCH  24  26
ATOM     26  C   UNL A   1      29.810  28.358  23.285  1.00  0.00     0.021 C 
ATOM     27  C   UNL A   1      31.026  29.000  22.603  1.00  0.00     0.006 C 
ENDBRANCH  24  26
ENDBRANCH   9  24
ENDBRANCH   6   8
ENDBRANCH   5   6
ENDBRANCH   4   5
ENDBRANCH   3   4
ENDBRANCH   2   3
ENDBRANCH   1   2
BRANCH   1  28
ATOM     28  C   UNL A   1      38.708  20.674  25.379  1.00  0.00     0.188 C 
BRANCH  28  29
ATOM     29  O   UNL A   1      40.304  20.078  26.202  1.00  0.00    -0.376 OA
BRANCH  29  30
ATOM     30  C   UNL A   1      41.891  20.301  26.352  1.00  0.00     0.202 C 
BRANCH  30  31
ATOM     31  C   UNL A   1      42.963  21.429  25.755  1.00  0.00     0.261 C 
BRANCH  31  32
ATOM     32  O   UNL A   1      43.296  22.618  26.540  1.00  0.00    -0.460 OA
BRANCH  32  33
ATOM     33  C   UNL A   1      43.270  23.825  25.901  1.00  0.00     0.338 C 
ATOM     34  O   UNL A   1      43.517  24.012  24.731  1.00  0.00    -0.246 OA
BRANCH  33  35
ATOM     35  C   UNL A   1      42.532  24.832  26.738  1.00  0.00     0.060 A 
ATOM     36  C   UNL A   1      41.336  24.591  27.421  1.00  0.00     0.016 A 
ATOM     37  C   UNL A   1      43.098  26.119  26.782  1.00  0.00     0.016 A 
ATOM     38  C   UNL A   1      40.765  25.618  28.208  1.00  0.00     0.010 A 
ATOM     39  C   UNL A   1      42.503  27.149  27.518  1.00  0.00     0.010 A 
ATOM     40  C   UNL A   1      41.361  26.896  28.287  1.00  0.00    -0.014 A 
BRANCH  40  41
ATOM     41  C   UNL A   1      41.030  27.843  29.393  1.00  0.00     0.031 A 
ATOM     42  C   UNL A   1      39.958  28.892  29.319  1.00  0.00     0.074 A 
ATOM     43  C   UNL A   1      41.839  27.808  30.472  1.00  0.00     0.049 A 
ATOM     44  N   UNL A   1      39.528  29.693  30.266  1.00  0.00    -0.248 NA
ATOM     45  C   UNL A   1      39.306  29.093  28.020  1.00  0.00     0.031 C 
ATOM     46  C   UNL A   1      42.998  26.923  30.617  1.00  0.00     0.029 A 
ATOM     47  N   UNL A   1      41.831  28.538  31.633  1.00  0.00    -0.354 N 
ATOM     48  C   UNL A   1      38.528  30.470  29.693  1.00  0.00     0.074 A 
ATOM     49  C   UNL A   1      38.462  30.083  28.295  1.00  0.00     0.031 C 
ATOM     50  C   UNL A   1      43.581  27.150  31.801  1.00  0.00     0.029 A 
ATOM     51  C   UNL A   1      42.832  28.184  32.505  1.00  0.00     0.049 A 
ATOM     52  H   UNL A   1      41.174  29.246  31.823  1.00  0.00     0.167 HD
ATOM     53  C   UNL A   1      37.732  31.401  30.283  1.00  0.00     0.037 A 
ATOM     54  C   UNL A   1      43.103  28.614  33.750  1.00  0.00     0.037 A 
ATOM     55  C   UNL A   1      37.845  31.817  31.665  1.00  0.00     0.049 A 
ATOM     56  C   UNL A   1      42.192  29.618  34.392  1.00  0.00     0.074 A 
ATOM     57  C   UNL A   1      37.043  32.696  32.377  1.00  0.00     0.029 A 
ATOM     58  N   UNL A   1      38.843  31.406  32.538  1.00  0.00    -0.354 N 
ATOM     59  N   UNL A   1      41.139  30.216  33.894  1.00  0.00    -0.248 NA
ATOM     60  C   UNL A   1      42.490  29.977  35.785  1.00  0.00     0.031 C 
ATOM     61  C   UNL A   1      37.583  32.852  33.661  1.00  0.00     0.029 A 
ATOM     62  C   UNL A   1      38.692  32.029  33.770  1.00  0.00     0.049 A 
ATOM     63  H   UNL A   1      39.557  30.765  32.315  1.00  0.00     0.167 HD
ATOM     64  C   UNL A   1      40.627  30.996  34.921  1.00  0.00     0.074 A 
ATOM     65  C   UNL A   1      41.476  30.777  36.075  1.00  0.00     0.031 C 
ATOM     66  C   UNL A   1      39.548  31.818  34.910  1.00  0.00     0.037 A 
BRANCH  53  67
ATOM     67  C   UNL A   1      36.643  32.024  29.448  1.00  0.00     0.057 A 
ATOM     68  C   UNL A   1      35.435  31.359  29.202  1.00  0.00     0.134 A 
ATOM     69  C   UNL A   1      36.826  33.266  28.821  1.00  0.00     0.134 A 
ATOM     70  F   UNL A   1      35.196  30.155  29.746  1.00  0.00    -0.206 F 
ATOM     71  C   UNL A   1      34.451  31.904  28.373  1.00  0.00     0.040 A 
ATOM     72  C   UNL A   1      35.839  33.834  28.012  1.00  0.00     0.040 A 
ATOM     73  F   UNL A   1      37.963  33.956  29.000  1.00  0.00    -0.206 F 
ATOM     74  C   UNL A   1      34.648  33.151  27.782  1.00  0.00     0.006 A 
ENDBRANCH  53  67
BRANCH  54  75
ATOM     75  C   UNL A   1      44.229  28.015  34.504  1.00  0.00     0.057 A 
ATOM     76  C   UNL A   1      44.072  26.846  35.257  1.00  0.00     0.134 A 
ATOM     77  C   UNL A   1      45.494  28.617  34.498  1.00  0.00     0.134 A 
ATOM     78  F   UNL A   1      42.879  26.236  35.319  1.00  0.00    -0.206 F 
ATOM     79  C   UNL A   1      45.133  26.294  35.976  1.00  0.00     0.040 A 
ATOM     80  C   UNL A   1      46.569  28.061  35.190  1.00  0.00     0.040 A 
ATOM     81  F   UNL A   1      45.705  29.735  33.789  1.00  0.00    -0.206 F 
ATOM     82  C   UNL A   1      46.390  26.898  35.934  1.00  0.00     0.006 A 
ENDBRANCH  54  75
BRANCH  66  83
ATOM     83  C   UNL A   1      39.221  32.514  36.201  1.00  0.00     0.057 A 
ATOM     84  C   UNL A   1      39.766  33.772  36.490  1.00  0.00     0.134 A 
ATOM     85  C   UNL A   1      38.347  31.958  37.146  1.00  0.00     0.134 A 
ATOM     86  F   UNL A   1      40.613  34.362  35.634  1.00  0.00    -0.206 F 
ATOM     87  C   UNL A   1      39.441  34.457  37.664  1.00  0.00     0.040 A 
ATOM     88  C   UNL A   1      37.992  32.647  38.307  1.00  0.00     0.040 A 
ATOM     89  F   UNL A   1      37.776  30.765  36.922  1.00  0.00    -0.206 F 
ATOM     90  C   UNL A   1      38.541  33.900  38.569  1.00  0.00     0.006 A 
ENDBRANCH  66  83
ENDBRANCH  40  41
ENDBRANCH  33  35
ENDBRANCH  32  33
ENDBRANCH  31  32
ENDBRANCH  30  31
ENDBRANCH  29  30
ENDBRANCH  28  29
ENDBRANCH   1  28
TORSDOF 19
ENDMDL
