MODEL 1
REMARK VINA RESULT:      -9.4      0.000      0.000
REMARK SMILES CCCCc1[nH]ncc1C(=O)OCCOCCOCCOC(=O)c1ccc(-c2c3nc(c(-c4c(F)cccc4F)c4ccc([nH]4)c(-c4c(F)cccc4F)c4nc(c(-c5c(F)cccc5F)c5ccc2[nH]5)C=C4)C=C3)cc1
REMARK SMILES IDX 16 1 15 2 14 3 13 4 12 5 10 6 11 7 9 8 5 9 6 10 7 11 8 13
REMARK SMILES IDX 4 14 3 15 2 16 1 17 17 18 18 19 19 20 20 21 21 22 22 23
REMARK SMILES IDX 23 24 24 25 25 26 77 27 26 28 76 29 27 30 28 31 29 32 70 33
REMARK SMILES IDX 30 34 75 35 69 36 71 37 31 38 74 39 68 40 67 41 32 43 58 44
REMARK SMILES IDX 41 45 57 46 42 47 45 48 56 49 72 50 43 51 44 52 55 54 73 55
REMARK SMILES IDX 46 56 33 57 34 58 39 59 35 60 36 61 38 62 40 63 37 64 59 65
REMARK SMILES IDX 60 66 65 67 61 68 62 69 64 70 66 71 63 72 47 73 48 74 53 75
REMARK SMILES IDX 49 76 50 77 52 78 54 79 51 80
REMARK H PARENT 6 12 71 42 45 53
REMARK Flexibility Score: inf
ROOT
ATOM      1  C   UNL A   1      39.149  22.243  26.251  1.00  0.00     0.188 C 
ENDROOT
BRANCH   1   2
ATOM      2  O   UNL A   1      37.867  21.730  25.903  1.00  0.00    -0.376 OA
BRANCH   2   3
ATOM      3  C   UNL A   1      36.873  22.613  25.396  1.00  0.00     0.202 C 
BRANCH   3   4
ATOM      4  C   UNL A   1      35.670  21.960  24.712  1.00  0.00     0.261 C 
BRANCH   4   5
ATOM      5  O   UNL A   1      34.452  22.199  25.436  1.00  0.00    -0.460 OA
BRANCH   5   6
ATOM      6  C   UNL A   1      33.501  22.926  24.777  1.00  0.00     0.341 C 
ATOM      7  O   UNL A   1      33.372  22.962  23.566  1.00  0.00    -0.246 OA
BRANCH   6   8
ATOM      8  C   UNL A   1      32.532  23.524  25.679  1.00  0.00     0.100 A 
ATOM      9  C   UNL A   1      32.261  24.850  25.989  1.00  0.00     0.050 A 
ATOM     10  N   UNL A   1      31.312  24.810  26.979  1.00  0.00    -0.282 N 
ATOM     11  N   UNL A   1      30.926  23.572  27.311  1.00  0.00    -0.183 NA
ATOM     12  H   UNL A   1      30.948  25.618  27.407  1.00  0.00     0.190 HD
ATOM     13  C   UNL A   1      31.644  22.793  26.503  1.00  0.00     0.150 A 
BRANCH   9  14
ATOM     14  C   UNL A   1      32.775  26.154  25.473  1.00  0.00     0.056 C 
BRANCH  14  15
ATOM     15  C   UNL A   1      31.671  27.207  25.317  1.00  0.00     0.006 C 
BRANCH  15  16
ATOM     16  C   UNL A   1      31.748  28.403  26.275  1.00  0.00    -0.003 C 
ATOM     17  C   UNL A   1      32.782  28.243  27.379  1.00  0.00     0.004 C 
ENDBRANCH  15  16
ENDBRANCH  14  15
ENDBRANCH   9  14
ENDBRANCH   6   8
ENDBRANCH   5   6
ENDBRANCH   4   5
ENDBRANCH   3   4
ENDBRANCH   2   3
ENDBRANCH   1   2
BRANCH   1  18
ATOM     18  C   UNL A   1      40.277  21.267  26.636  1.00  0.00     0.188 C 
BRANCH  18  19
ATOM     19  O   UNL A   1      41.260  21.097  25.626  1.00  0.00    -0.376 OA
BRANCH  19  20
ATOM     20  C   UNL A   1      42.566  20.774  26.079  1.00  0.00     0.202 C 
BRANCH  20  21
ATOM     21  C   UNL A   1      43.613  21.797  25.632  1.00  0.00     0.261 C 
BRANCH  21  22
ATOM     22  O   UNL A   1      43.066  23.009  25.089  1.00  0.00    -0.460 OA
BRANCH  22  23
ATOM     23  C   UNL A   1      43.842  24.113  25.157  1.00  0.00     0.338 C 
ATOM     24  O   UNL A   1      44.824  24.367  24.484  1.00  0.00    -0.246 OA
BRANCH  23  25
ATOM     25  C   UNL A   1      43.207  25.056  26.099  1.00  0.00     0.060 A 
ATOM     26  C   UNL A   1      43.695  26.366  26.179  1.00  0.00     0.016 A 
ATOM     27  C   UNL A   1      42.142  24.646  26.905  1.00  0.00     0.016 A 
ATOM     28  C   UNL A   1      43.133  27.262  27.091  1.00  0.00     0.010 A 
ATOM     29  C   UNL A   1      41.590  25.540  27.826  1.00  0.00     0.010 A 
ATOM     30  C   UNL A   1      42.100  26.843  27.943  1.00  0.00    -0.014 A 
BRANCH  30  31
ATOM     31  C   UNL A   1      41.654  27.708  29.061  1.00  0.00     0.031 A 
ATOM     32  C   UNL A   1      42.392  27.634  30.369  1.00  0.00     0.074 A 
ATOM     33  C   UNL A   1      40.604  28.537  28.928  1.00  0.00     0.049 A 
ATOM     34  N   UNL A   1      42.155  28.261  31.493  1.00  0.00    -0.248 NA
ATOM     35  C   UNL A   1      43.551  26.729  30.415  1.00  0.00     0.031 C 
ATOM     36  C   UNL A   1      39.817  28.720  27.711  1.00  0.00     0.029 A 
ATOM     37  N   UNL A   1      40.015  29.376  29.841  1.00  0.00    -0.354 N 
ATOM     38  C   UNL A   1      43.135  27.830  32.377  1.00  0.00     0.074 A 
ATOM     39  C   UNL A   1      43.952  26.866  31.669  1.00  0.00     0.031 C 
ATOM     40  C   UNL A   1      38.837  29.608  27.956  1.00  0.00     0.029 A 
ATOM     41  C   UNL A   1      38.915  30.037  29.352  1.00  0.00     0.049 A 
ATOM     42  H   UNL A   1      40.349  29.491  30.760  1.00  0.00     0.167 HD
ATOM     43  C   UNL A   1      43.342  28.204  33.661  1.00  0.00     0.037 A 
ATOM     44  C   UNL A   1      38.062  30.878  29.968  1.00  0.00     0.037 A 
ATOM     45  C   UNL A   1      42.530  29.152  34.374  1.00  0.00     0.049 A 
ATOM     46  C   UNL A   1      38.271  31.226  31.418  1.00  0.00     0.074 A 
ATOM     47  C   UNL A   1      42.677  29.610  35.672  1.00  0.00     0.029 A 
ATOM     48  N   UNL A   1      41.411  29.780  33.852  1.00  0.00    -0.354 N 
ATOM     49  N   UNL A   1      39.223  30.842  32.234  1.00  0.00    -0.248 NA
ATOM     50  C   UNL A   1      37.284  32.128  32.034  1.00  0.00     0.031 C 
ATOM     51  C   UNL A   1      41.622  30.488  35.948  1.00  0.00     0.029 A 
ATOM     52  C   UNL A   1      40.842  30.604  34.809  1.00  0.00     0.049 A 
ATOM     53  H   UNL A   1      41.069  29.659  32.936  1.00  0.00     0.167 HD
ATOM     54  C   UNL A   1      38.967  31.472  33.445  1.00  0.00     0.074 A 
ATOM     55  C   UNL A   1      37.774  32.271  33.258  1.00  0.00     0.031 C 
ATOM     56  C   UNL A   1      39.660  31.400  34.608  1.00  0.00     0.037 A 
BRANCH  43  57
ATOM     57  C   UNL A   1      44.489  27.567  34.382  1.00  0.00     0.057 A 
ATOM     58  C   UNL A   1      45.782  28.102  34.325  1.00  0.00     0.134 A 
ATOM     59  C   UNL A   1      44.295  26.420  35.160  1.00  0.00     0.134 A 
ATOM     60  F   UNL A   1      46.035  29.191  33.582  1.00  0.00    -0.206 F 
ATOM     61  C   UNL A   1      46.847  27.508  35.002  1.00  0.00     0.040 A 
ATOM     62  C   UNL A   1      45.348  25.827  35.858  1.00  0.00     0.040 A 
ATOM     63  F   UNL A   1      43.080  25.859  35.257  1.00  0.00    -0.206 F 
ATOM     64  C   UNL A   1      46.630  26.369  35.777  1.00  0.00     0.006 A 
ENDBRANCH  43  57
BRANCH  44  65
ATOM     65  C   UNL A   1      36.913  31.451  29.223  1.00  0.00     0.057 A 
ATOM     66  C   UNL A   1      35.771  30.688  28.955  1.00  0.00     0.134 A 
ATOM     67  C   UNL A   1      36.946  32.761  28.733  1.00  0.00     0.134 A 
ATOM     68  F   UNL A   1      35.696  29.417  29.375  1.00  0.00    -0.206 F 
ATOM     69  C   UNL A   1      34.707  31.203  28.213  1.00  0.00     0.040 A 
ATOM     70  C   UNL A   1      35.881  33.296  28.007  1.00  0.00     0.040 A 
ATOM     71  F   UNL A   1      38.017  33.540  28.949  1.00  0.00    -0.206 F 
ATOM     72  C   UNL A   1      34.760  32.513  27.740  1.00  0.00     0.006 A 
ENDBRANCH  44  65
BRANCH  56  73
ATOM     73  C   UNL A   1      39.168  32.227  35.757  1.00  0.00     0.057 A 
ATOM     74  C   UNL A   1      38.301  31.705  36.725  1.00  0.00     0.134 A 
ATOM     75  C   UNL A   1      39.607  33.546  35.925  1.00  0.00     0.134 A 
ATOM     76  F   UNL A   1      37.835  30.452  36.614  1.00  0.00    -0.206 F 
ATOM     77  C   UNL A   1      37.873  32.473  37.810  1.00  0.00     0.040 A 
ATOM     78  C   UNL A   1      39.205  34.317  37.017  1.00  0.00     0.040 A 
ATOM     79  F   UNL A   1      40.446  34.103  35.039  1.00  0.00    -0.206 F 
ATOM     80  C   UNL A   1      38.331  33.781  37.962  1.00  0.00     0.006 A 
ENDBRANCH  56  73
ENDBRANCH  30  31
ENDBRANCH  23  25
ENDBRANCH  22  23
ENDBRANCH  21  22
ENDBRANCH  20  21
ENDBRANCH  19  20
ENDBRANCH  18  19
ENDBRANCH   1  18
TORSDOF 20
ENDMDL
MODEL 2
REMARK VINA RESULT:      -9.1      4.830      9.895
REMARK SMILES CCCCc1[nH]ncc1C(=O)OCCOCCOCCOC(=O)c1ccc(-c2c3nc(c(-c4c(F)cccc4F)c4ccc([nH]4)c(-c4c(F)cccc4F)c4nc(c(-c5c(F)cccc5F)c5ccc2[nH]5)C=C4)C=C3)cc1
REMARK SMILES IDX 16 1 15 2 14 3 13 4 12 5 10 6 11 7 9 8 5 9 6 10 7 11 8 13
REMARK SMILES IDX 4 14 3 15 2 16 1 17 17 18 18 19 19 20 20 21 21 22 22 23
REMARK SMILES IDX 23 24 24 25 25 26 77 27 26 28 76 29 27 30 28 31 29 32 70 33
REMARK SMILES IDX 30 34 75 35 69 36 71 37 31 38 74 39 68 40 67 41 32 43 58 44
REMARK SMILES IDX 41 45 57 46 42 47 45 48 56 49 72 50 43 51 44 52 55 54 73 55
REMARK SMILES IDX 46 56 33 57 34 58 39 59 35 60 36 61 38 62 40 63 37 64 59 65
REMARK SMILES IDX 60 66 65 67 61 68 62 69 64 70 66 71 63 72 47 73 48 74 53 75
REMARK SMILES IDX 49 76 50 77 52 78 54 79 51 80
REMARK H PARENT 6 12 71 42 45 53
REMARK Flexibility Score: inf
ROOT
ATOM      1  C   UNL A   1      34.935  31.545  27.655  1.00  0.00     0.188 C 
ENDROOT
BRANCH   1   2
ATOM      2  O   UNL A   1      33.915  30.552  27.700  1.00  0.00    -0.376 OA
BRANCH   2   3
ATOM      3  C   UNL A   1      32.809  30.642  26.810  1.00  0.00     0.202 C 
BRANCH   3   4
ATOM      4  C   UNL A   1      31.905  29.411  26.724  1.00  0.00     0.261 C 
BRANCH   4   5
ATOM      5  O   UNL A   1      32.100  28.692  25.495  1.00  0.00    -0.460 OA
BRANCH   5   6
ATOM      6  C   UNL A   1      32.905  27.592  25.571  1.00  0.00     0.341 C 
ATOM      7  O   UNL A   1      33.202  27.019  26.606  1.00  0.00    -0.246 OA
BRANCH   6   8
ATOM      8  C   UNL A   1      33.239  27.052  24.264  1.00  0.00     0.100 A 
ATOM      9  C   UNL A   1      33.770  25.827  23.884  1.00  0.00     0.050 A 
ATOM     10  N   UNL A   1      33.964  25.915  22.528  1.00  0.00    -0.282 N 
ATOM     11  N   UNL A   1      33.574  27.080  21.999  1.00  0.00    -0.183 NA
ATOM     12  H   UNL A   1      34.355  25.187  21.994  1.00  0.00     0.190 HD
ATOM     13  C   UNL A   1      33.107  27.760  23.046  1.00  0.00     0.150 A 
BRANCH   9  14
ATOM     14  C   UNL A   1      34.117  24.579  24.628  1.00  0.00     0.056 C 
BRANCH  14  15
ATOM     15  C   UNL A   1      34.282  23.365  23.706  1.00  0.00     0.006 C 
BRANCH  15  16
ATOM     16  C   UNL A   1      35.726  22.995  23.340  1.00  0.00    -0.003 C 
ATOM     17  C   UNL A   1      36.759  23.471  24.350  1.00  0.00     0.004 C 
ENDBRANCH  15  16
ENDBRANCH  14  15
ENDBRANCH   9  14
ENDBRANCH   6   8
ENDBRANCH   5   6
ENDBRANCH   4   5
ENDBRANCH   3   4
ENDBRANCH   2   3
ENDBRANCH   1   2
BRANCH   1  18
ATOM     18  C   UNL A   1      34.625  32.972  28.146  1.00  0.00     0.188 C 
BRANCH  18  19
ATOM     19  O   UNL A   1      33.972  33.018  29.406  1.00  0.00    -0.376 OA
BRANCH  19  20
ATOM     20  C   UNL A   1      34.186  34.193  30.173  1.00  0.00     0.202 C 
BRANCH  20  21
ATOM     21  C   UNL A   1      34.573  33.886  31.622  1.00  0.00     0.261 C 
BRANCH  21  22
ATOM     22  O   UNL A   1      34.912  32.512  31.868  1.00  0.00    -0.460 OA
BRANCH  22  23
ATOM     23  C   UNL A   1      35.904  32.279  32.756  1.00  0.00     0.338 C 
ATOM     24  O   UNL A   1      35.890  32.501  33.952  1.00  0.00    -0.246 OA
BRANCH  23  25
ATOM     25  C   UNL A   1      36.981  31.554  32.053  1.00  0.00     0.060 A 
ATOM     26  C   UNL A   1      38.017  30.984  32.803  1.00  0.00     0.016 A 
ATOM     27  C   UNL A   1      36.973  31.446  30.660  1.00  0.00     0.016 A 
ATOM     28  C   UNL A   1      39.064  30.327  32.154  1.00  0.00     0.010 A 
ATOM     29  C   UNL A   1      38.029  30.801  30.012  1.00  0.00     0.010 A 
ATOM     30  C   UNL A   1      39.093  30.262  30.754  1.00  0.00    -0.014 A 
BRANCH  30  31
ATOM     31  C   UNL A   1      40.303  29.772  30.051  1.00  0.00     0.031 A 
ATOM     32  C   UNL A   1      41.440  30.728  29.821  1.00  0.00     0.074 A 
ATOM     33  C   UNL A   1      40.390  28.505  29.610  1.00  0.00     0.049 A 
ATOM     34  N   UNL A   1      42.573  30.535  29.194  1.00  0.00    -0.248 NA
ATOM     35  C   UNL A   1      41.275  32.083  30.370  1.00  0.00     0.031 C 
ATOM     36  C   UNL A   1      39.370  27.473  29.785  1.00  0.00     0.029 A 
ATOM     37  N   UNL A   1      41.390  27.876  28.910  1.00  0.00    -0.354 N 
ATOM     38  C   UNL A   1      43.256  31.741  29.276  1.00  0.00     0.074 A 
ATOM     39  C   UNL A   1      42.401  32.668  29.987  1.00  0.00     0.031 C 
ATOM     40  C   UNL A   1      39.793  26.340  29.196  1.00  0.00     0.029 A 
ATOM     41  C   UNL A   1      41.100  26.574  28.584  1.00  0.00     0.049 A 
ATOM     42  H   UNL A   1      42.235  28.318  28.665  1.00  0.00     0.167 HD
ATOM     43  C   UNL A   1      44.488  32.051  28.808  1.00  0.00     0.037 A 
ATOM     44  C   UNL A   1      41.803  25.682  27.860  1.00  0.00     0.037 A 
ATOM     45  C   UNL A   1      45.340  31.140  28.093  1.00  0.00     0.049 A 
ATOM     46  C   UNL A   1      43.141  26.071  27.289  1.00  0.00     0.074 A 
ATOM     47  C   UNL A   1      46.614  31.359  27.599  1.00  0.00     0.029 A 
ATOM     48  N   UNL A   1      44.999  29.839  27.761  1.00  0.00    -0.354 N 
ATOM     49  N   UNL A   1      43.794  27.202  27.404  1.00  0.00    -0.248 NA
ATOM     50  C   UNL A   1      43.840  25.057  26.484  1.00  0.00     0.031 C 
ATOM     51  C   UNL A   1      47.029  30.200  26.933  1.00  0.00     0.029 A 
ATOM     52  C   UNL A   1      46.029  29.249  27.047  1.00  0.00     0.049 A 
ATOM     53  H   UNL A   1      44.151  29.399  27.997  1.00  0.00     0.167 HD
ATOM     54  C   UNL A   1      44.987  27.027  26.714  1.00  0.00     0.074 A 
ATOM     55  C   UNL A   1      44.973  25.679  26.187  1.00  0.00     0.031 C 
ATOM     56  C   UNL A   1      46.006  27.904  26.535  1.00  0.00     0.037 A 
BRANCH  43  57
ATOM     57  C   UNL A   1      44.978  33.447  29.043  1.00  0.00     0.057 A 
ATOM     58  C   UNL A   1      44.706  34.482  28.140  1.00  0.00     0.134 A 
ATOM     59  C   UNL A   1      45.708  33.763  30.194  1.00  0.00     0.134 A 
ATOM     60  F   UNL A   1      44.024  34.238  27.010  1.00  0.00    -0.206 F 
ATOM     61  C   UNL A   1      45.160  35.782  28.365  1.00  0.00     0.040 A 
ATOM     62  C   UNL A   1      46.152  35.063  30.439  1.00  0.00     0.040 A 
ATOM     63  F   UNL A   1      46.000  32.816  31.098  1.00  0.00    -0.206 F 
ATOM     64  C   UNL A   1      45.882  36.076  29.521  1.00  0.00     0.006 A 
ENDBRANCH  43  57
BRANCH  44  65
ATOM     65  C   UNL A   1      41.257  24.324  27.617  1.00  0.00     0.057 A 
ATOM     66  C   UNL A   1      40.217  24.114  26.704  1.00  0.00     0.134 A 
ATOM     67  C   UNL A   1      41.737  23.211  28.317  1.00  0.00     0.134 A 
ATOM     68  F   UNL A   1      39.697  25.148  26.026  1.00  0.00    -0.206 F 
ATOM     69  C   UNL A   1      39.664  22.849  26.506  1.00  0.00     0.040 A 
ATOM     70  C   UNL A   1      41.207  21.936  28.114  1.00  0.00     0.040 A 
ATOM     71  F   UNL A   1      42.727  23.349  29.212  1.00  0.00    -0.206 F 
ATOM     72  C   UNL A   1      40.163  21.754  27.210  1.00  0.00     0.006 A 
ENDBRANCH  44  65
BRANCH  56  73
ATOM     73  C   UNL A   1      47.202  27.426  25.768  1.00  0.00     0.057 A 
ATOM     74  C   UNL A   1      48.251  26.738  26.390  1.00  0.00     0.134 A 
ATOM     75  C   UNL A   1      47.281  27.613  24.382  1.00  0.00     0.134 A 
ATOM     76  F   UNL A   1      48.240  26.537  27.717  1.00  0.00    -0.206 F 
ATOM     77  C   UNL A   1      49.346  26.268  25.663  1.00  0.00     0.040 A 
ATOM     78  C   UNL A   1      48.360  27.130  23.641  1.00  0.00     0.040 A 
ATOM     79  F   UNL A   1      46.305  28.256  23.725  1.00  0.00    -0.206 F 
ATOM     80  C   UNL A   1      49.399  26.457  24.282  1.00  0.00     0.006 A 
ENDBRANCH  56  73
ENDBRANCH  30  31
ENDBRANCH  23  25
ENDBRANCH  22  23
ENDBRANCH  21  22
ENDBRANCH  20  21
ENDBRANCH  19  20
ENDBRANCH  18  19
ENDBRANCH   1  18
TORSDOF 20
ENDMDL
MODEL 3
REMARK VINA RESULT:      -9.1      3.135      8.270
REMARK SMILES CCCCc1[nH]ncc1C(=O)OCCOCCOCCOC(=O)c1ccc(-c2c3nc(c(-c4c(F)cccc4F)c4ccc([nH]4)c(-c4c(F)cccc4F)c4nc(c(-c5c(F)cccc5F)c5ccc2[nH]5)C=C4)C=C3)cc1
REMARK SMILES IDX 16 1 15 2 14 3 13 4 12 5 10 6 11 7 9 8 5 9 6 10 7 11 8 13
REMARK SMILES IDX 4 14 3 15 2 16 1 17 17 18 18 19 19 20 20 21 21 22 22 23
REMARK SMILES IDX 23 24 24 25 25 26 77 27 26 28 76 29 27 30 28 31 29 32 70 33
REMARK SMILES IDX 30 34 75 35 69 36 71 37 31 38 74 39 68 40 67 41 32 43 58 44
REMARK SMILES IDX 41 45 57 46 42 47 45 48 56 49 72 50 43 51 44 52 55 54 73 55
REMARK SMILES IDX 46 56 33 57 34 58 39 59 35 60 36 61 38 62 40 63 37 64 59 65
REMARK SMILES IDX 60 66 65 67 61 68 62 69 64 70 66 71 63 72 47 73 48 74 53 75
REMARK SMILES IDX 49 76 50 77 52 78 54 79 51 80
REMARK H PARENT 6 12 71 42 45 53
REMARK Flexibility Score: inf
ROOT
ATOM      1  C   UNL A   1      32.496  28.807  27.194  1.00  0.00     0.188 C 
ENDROOT
BRANCH   1   2
ATOM      2  O   UNL A   1      31.409  28.223  26.482  1.00  0.00    -0.376 OA
BRANCH   2   3
ATOM      3  C   UNL A   1      31.248  26.810  26.484  1.00  0.00     0.202 C 
BRANCH   3   4
ATOM      4  C   UNL A   1      30.959  26.158  25.131  1.00  0.00     0.261 C 
BRANCH   4   5
ATOM      5  O   UNL A   1      31.551  26.893  24.048  1.00  0.00    -0.460 OA
BRANCH   5   6
ATOM      6  C   UNL A   1      32.828  26.538  23.716  1.00  0.00     0.341 C 
ATOM      7  O   UNL A   1      33.816  26.802  24.380  1.00  0.00    -0.246 OA
BRANCH   6   8
ATOM      8  C   UNL A   1      32.880  25.648  22.569  1.00  0.00     0.100 A 
ATOM      9  C   UNL A   1      33.080  24.277  22.478  1.00  0.00     0.050 A 
ATOM     10  N   UNL A   1      33.130  24.001  21.135  1.00  0.00    -0.282 N 
ATOM     11  N   UNL A   1      32.947  25.073  20.354  1.00  0.00    -0.183 NA
ATOM     12  H   UNL A   1      33.286  23.098  20.778  1.00  0.00     0.190 HD
ATOM     13  C   UNL A   1      32.767  26.067  21.223  1.00  0.00     0.150 A 
BRANCH   9  14
ATOM     14  C   UNL A   1      33.226  23.188  23.490  1.00  0.00     0.056 C 
BRANCH  14  15
ATOM     15  C   UNL A   1      34.686  22.776  23.711  1.00  0.00     0.006 C 
BRANCH  15  16
ATOM     16  C   UNL A   1      35.555  23.778  24.483  1.00  0.00    -0.003 C 
ATOM     17  C   UNL A   1      35.820  23.378  25.927  1.00  0.00     0.004 C 
ENDBRANCH  15  16
ENDBRANCH  14  15
ENDBRANCH   9  14
ENDBRANCH   6   8
ENDBRANCH   5   6
ENDBRANCH   4   5
ENDBRANCH   3   4
ENDBRANCH   2   3
ENDBRANCH   1   2
BRANCH   1  18
ATOM     18  C   UNL A   1      33.045  30.176  26.751  1.00  0.00     0.188 C 
BRANCH  18  19
ATOM     19  O   UNL A   1      32.100  30.977  26.057  1.00  0.00    -0.376 OA
BRANCH  19  20
ATOM     20  C   UNL A   1      31.393  31.924  26.844  1.00  0.00     0.202 C 
BRANCH  20  21
ATOM     21  C   UNL A   1      32.093  33.284  26.896  1.00  0.00     0.261 C 
BRANCH  21  22
ATOM     22  O   UNL A   1      32.260  33.816  28.220  1.00  0.00    -0.460 OA
BRANCH  22  23
ATOM     23  C   UNL A   1      33.333  34.611  28.427  1.00  0.00     0.338 C 
ATOM     24  O   UNL A   1      33.359  35.827  28.436  1.00  0.00    -0.246 OA
BRANCH  23  25
ATOM     25  C   UNL A   1      34.473  33.748  28.798  1.00  0.00     0.060 A 
ATOM     26  C   UNL A   1      34.219  32.456  29.273  1.00  0.00     0.016 A 
ATOM     27  C   UNL A   1      35.784  34.217  28.686  1.00  0.00     0.016 A 
ATOM     28  C   UNL A   1      35.281  31.639  29.666  1.00  0.00     0.010 A 
ATOM     29  C   UNL A   1      36.845  33.403  29.091  1.00  0.00     0.010 A 
ATOM     30  C   UNL A   1      36.597  32.121  29.608  1.00  0.00    -0.014 A 
BRANCH  30  31
ATOM     31  C   UNL A   1      37.704  31.355  30.230  1.00  0.00     0.031 A 
ATOM     32  C   UNL A   1      38.039  31.614  31.672  1.00  0.00     0.074 A 
ATOM     33  C   UNL A   1      38.410  30.453  29.527  1.00  0.00     0.049 A 
ATOM     34  N   UNL A   1      38.989  31.097  32.410  1.00  0.00    -0.248 NA
ATOM     35  C   UNL A   1      37.191  32.589  32.375  1.00  0.00     0.031 C 
ATOM     36  C   UNL A   1      38.176  30.092  28.130  1.00  0.00     0.029 A 
ATOM     37  N   UNL A   1      39.484  29.681  29.899  1.00  0.00    -0.354 N 
ATOM     38  C   UNL A   1      38.852  31.681  33.662  1.00  0.00     0.074 A 
ATOM     39  C   UNL A   1      37.745  32.611  33.578  1.00  0.00     0.031 C 
ATOM     40  C   UNL A   1      39.087  29.176  27.758  1.00  0.00     0.029 A 
ATOM     41  C   UNL A   1      39.983  28.905  28.882  1.00  0.00     0.049 A 
ATOM     42  H   UNL A   1      39.860  29.686  30.809  1.00  0.00     0.167 HD
ATOM     43  C   UNL A   1      39.574  31.459  34.784  1.00  0.00     0.037 A 
ATOM     44  C   UNL A   1      41.050  28.083  28.860  1.00  0.00     0.037 A 
ATOM     45  C   UNL A   1      40.680  30.544  34.874  1.00  0.00     0.049 A 
ATOM     46  C   UNL A   1      41.883  27.905  30.102  1.00  0.00     0.074 A 
ATOM     47  C   UNL A   1      41.459  30.238  35.976  1.00  0.00     0.029 A 
ATOM     48  N   UNL A   1      41.170  29.796  33.816  1.00  0.00    -0.354 N 
ATOM     49  N   UNL A   1      41.721  28.433  31.291  1.00  0.00    -0.248 NA
ATOM     50  C   UNL A   1      43.050  27.016  29.998  1.00  0.00     0.031 C 
ATOM     51  C   UNL A   1      42.446  29.331  35.574  1.00  0.00     0.029 A 
ATOM     52  C   UNL A   1      42.256  29.045  34.232  1.00  0.00     0.049 A 
ATOM     53  H   UNL A   1      40.801  29.797  32.903  1.00  0.00     0.167 HD
ATOM     54  C   UNL A   1      42.743  27.921  32.080  1.00  0.00     0.074 A 
ATOM     55  C   UNL A   1      43.519  27.035  31.238  1.00  0.00     0.031 C 
ATOM     56  C   UNL A   1      43.014  28.160  33.387  1.00  0.00     0.037 A 
BRANCH  43  57
ATOM     57  C   UNL A   1      39.198  32.240  36.006  1.00  0.00     0.057 A 
ATOM     58  C   UNL A   1      39.713  33.519  36.247  1.00  0.00     0.134 A 
ATOM     59  C   UNL A   1      38.294  31.717  36.937  1.00  0.00     0.134 A 
ATOM     60  F   UNL A   1      40.597  34.068  35.399  1.00  0.00    -0.206 F 
ATOM     61  C   UNL A   1      39.356  34.245  37.384  1.00  0.00     0.040 A 
ATOM     62  C   UNL A   1      37.914  32.441  38.068  1.00  0.00     0.040 A 
ATOM     63  F   UNL A   1      37.763  30.497  36.762  1.00  0.00    -0.206 F 
ATOM     64  C   UNL A   1      38.449  33.707  38.296  1.00  0.00     0.006 A 
ENDBRANCH  43  57
BRANCH  44  65
ATOM     65  C   UNL A   1      41.410  27.364  27.613  1.00  0.00     0.057 A 
ATOM     66  C   UNL A   1      40.987  26.049  27.388  1.00  0.00     0.134 A 
ATOM     67  C   UNL A   1      42.214  27.961  26.636  1.00  0.00     0.134 A 
ATOM     68  F   UNL A   1      40.239  25.416  28.304  1.00  0.00    -0.206 F 
ATOM     69  C   UNL A   1      41.361  25.348  26.242  1.00  0.00     0.040 A 
ATOM     70  C   UNL A   1      42.580  27.278  25.474  1.00  0.00     0.040 A 
ATOM     71  F   UNL A   1      42.659  29.216  26.797  1.00  0.00    -0.206 F 
ATOM     72  C   UNL A   1      42.158  25.965  25.279  1.00  0.00     0.006 A 
ENDBRANCH  44  65
BRANCH  56  73
ATOM     73  C   UNL A   1      44.174  27.432  33.996  1.00  0.00     0.057 A 
ATOM     74  C   UNL A   1      45.460  27.987  34.029  1.00  0.00     0.134 A 
ATOM     75  C   UNL A   1      43.993  26.181  34.600  1.00  0.00     0.134 A 
ATOM     76  F   UNL A   1      45.701  29.176  33.457  1.00  0.00    -0.206 F 
ATOM     77  C   UNL A   1      46.527  27.315  34.627  1.00  0.00     0.040 A 
ATOM     78  C   UNL A   1      45.047  25.510  35.220  1.00  0.00     0.040 A 
ATOM     79  F   UNL A   1      42.784  25.599  34.611  1.00  0.00    -0.206 F 
ATOM     80  C   UNL A   1      46.321  26.076  35.231  1.00  0.00     0.006 A 
ENDBRANCH  56  73
ENDBRANCH  30  31
ENDBRANCH  23  25
ENDBRANCH  22  23
ENDBRANCH  21  22
ENDBRANCH  20  21
ENDBRANCH  19  20
ENDBRANCH  18  19
ENDBRANCH   1  18
TORSDOF 20
ENDMDL
