MODEL 1
REMARK VINA RESULT:     -11.1      0.000      0.000
REMARK SMILES Cc1ccc(Cl)c(Nc2ccccc2C(=O)NCC(=O)OCCOCCOCCOC(=O)c2ccc(-c3c4nc(c(-c5c(F)cccc5F)c5ccc([nH]5)c(-c5c(F)cccc5F)c5nc(c(-c6c(F)cccc6F)c6ccc3[nH]6)C=C5)C=C4)cc2)c1Cl
REMARK SMILES IDX 25 1 24 2 23 3 22 4 21 5 19 6 20 7 18 8 17 9 15 10 16 11
REMARK SMILES IDX 14 13 9 14 10 15 11 16 13 17 12 18 8 19 7 21 1 22 2 23 3 24
REMARK SMILES IDX 87 25 4 26 88 27 5 28 6 29 26 30 27 31 28 32 29 33 30 34
REMARK SMILES IDX 31 35 32 36 33 37 34 38 86 39 35 40 85 41 36 42 37 43 38 44
REMARK SMILES IDX 79 45 39 46 84 47 78 48 80 49 40 50 83 51 77 52 76 53 41 55
REMARK SMILES IDX 67 56 50 57 66 58 51 59 54 60 65 61 81 62 52 63 53 64 64 66
REMARK SMILES IDX 82 67 55 68 42 69 43 70 48 71 44 72 45 73 47 74 49 75 46 76
REMARK SMILES IDX 68 77 69 78 74 79 70 80 71 81 73 82 75 83 72 84 56 85 57 86
REMARK SMILES IDX 62 87 58 88 59 89 61 90 63 91 60 92
REMARK H PARENT 17 12 8 20 80 54 54 65
REMARK Flexibility Score: inf
ROOT
ATOM      1  C   UNL A   1      41.149  20.306  27.320  1.00  0.00     0.188 C 
ENDROOT
BRANCH   1   2
ATOM      2  O   UNL A   1      40.063  21.200  27.215  1.00  0.00    -0.376 OA
BRANCH   2   3
ATOM      3  C   UNL A   1      39.506  21.467  25.935  1.00  0.00     0.202 C 
BRANCH   3   4
ATOM      4  C   UNL A   1      37.990  21.551  25.675  1.00  0.00     0.261 C 
BRANCH   4   5
ATOM      5  O   UNL A   1      37.528  22.728  25.000  1.00  0.00    -0.462 OA
BRANCH   5   6
ATOM      6  C   UNL A   1      37.198  23.732  25.848  1.00  0.00     0.325 C 
ATOM      7  O   UNL A   1      37.997  24.298  26.594  1.00  0.00    -0.250 OA
BRANCH   6   8
ATOM      8  C   UNL A   1      35.826  24.332  25.633  1.00  0.00     0.239 C 
BRANCH   8   9
ATOM      9  N   UNL A   1      35.029  24.456  24.436  1.00  0.00    -0.341 N 
ATOM     10  C   UNL A   1      34.117  25.477  24.211  1.00  0.00     0.253 C 
ATOM     11  O   UNL A   1      33.761  25.733  23.062  1.00  0.00    -0.269 OA
ATOM     12  H   UNL A   1      35.141  23.775  23.735  1.00  0.00     0.164 HD
BRANCH  10  13
ATOM     13  C   UNL A   1      33.393  26.098  25.367  1.00  0.00     0.063 A 
ATOM     14  C   UNL A   1      32.214  25.632  25.994  1.00  0.00     0.051 A 
ATOM     15  C   UNL A   1      31.508  26.544  26.807  1.00  0.00     0.027 A 
ATOM     16  C   UNL A   1      31.984  27.832  27.060  1.00  0.00     0.002 A 
ATOM     17  C   UNL A   1      33.901  27.373  25.690  1.00  0.00     0.016 A 
ATOM     18  C   UNL A   1      33.203  28.233  26.534  1.00  0.00     0.001 A 
BRANCH  14  19
ATOM     19  N   UNL A   1      31.657  24.334  25.910  1.00  0.00    -0.352 N 
ATOM     20  H   UNL A   1      30.903  24.197  26.529  1.00  0.00     0.167 HD
BRANCH  19  21
ATOM     21  C   UNL A   1      31.948  23.187  25.131  1.00  0.00     0.077 A 
ATOM     22  C   UNL A   1      34.135  20.031  25.054  1.00  0.00     0.046 C 
ATOM     23  C   UNL A   1      33.183  21.120  24.643  1.00  0.00    -0.030 A 
ATOM     24  C   UNL A   1      32.679  21.123  23.334  1.00  0.00     0.006 A 
ATOM     25  C   UNL A   1      32.794  22.138  25.543  1.00  0.00     0.069 A 
ATOM     26  C   UNL A   1      31.781  22.103  22.928  1.00  0.00     0.023 A 
ATOM     27  Cl  UNL A   1      33.244  21.976  27.217  1.00  0.00    -0.082 Cl
ATOM     28  C   UNL A   1      31.417  23.113  23.819  1.00  0.00     0.066 A 
ATOM     29  Cl  UNL A   1      30.304  24.314  23.241  1.00  0.00    -0.082 Cl
ENDBRANCH  19  21
ENDBRANCH  14  19
ENDBRANCH  10  13
ENDBRANCH   8   9
ENDBRANCH   6   8
ENDBRANCH   5   6
ENDBRANCH   4   5
ENDBRANCH   3   4
ENDBRANCH   2   3
ENDBRANCH   1   2
BRANCH   1  30
ATOM     30  C   UNL A   1      41.285  19.362  26.111  1.00  0.00     0.188 C 
BRANCH  30  31
ATOM     31  O   UNL A   1      42.360  19.495  25.192  1.00  0.00    -0.376 OA
BRANCH  31  32
ATOM     32  C   UNL A   1      43.661  19.783  25.707  1.00  0.00     0.202 C 
BRANCH  32  33
ATOM     33  C   UNL A   1      44.342  21.155  25.488  1.00  0.00     0.261 C 
BRANCH  33  34
ATOM     34  O   UNL A   1      43.750  22.275  26.164  1.00  0.00    -0.460 OA
BRANCH  34  35
ATOM     35  C   UNL A   1      43.545  23.373  25.391  1.00  0.00     0.338 C 
ATOM     36  O   UNL A   1      43.662  23.464  24.183  1.00  0.00    -0.246 OA
BRANCH  35  37
ATOM     37  C   UNL A   1      42.929  24.435  26.214  1.00  0.00     0.060 A 
ATOM     38  C   UNL A   1      43.517  25.712  26.199  1.00  0.00     0.016 A 
ATOM     39  C   UNL A   1      41.829  24.173  27.028  1.00  0.00     0.016 A 
ATOM     40  C   UNL A   1      43.006  26.732  26.997  1.00  0.00     0.010 A 
ATOM     41  C   UNL A   1      41.346  25.186  27.863  1.00  0.00     0.010 A 
ATOM     42  C   UNL A   1      41.948  26.459  27.867  1.00  0.00    -0.014 A 
BRANCH  42  43
ATOM     43  C   UNL A   1      41.614  27.427  28.938  1.00  0.00     0.031 A 
ATOM     44  C   UNL A   1      42.404  27.368  30.214  1.00  0.00     0.074 A 
ATOM     45  C   UNL A   1      40.635  28.334  28.789  1.00  0.00     0.049 A 
ATOM     46  N   UNL A   1      42.218  28.011  31.337  1.00  0.00    -0.248 NA
ATOM     47  C   UNL A   1      43.557  26.455  30.220  1.00  0.00     0.031 C 
ATOM     48  C   UNL A   1      39.843  28.536  27.580  1.00  0.00     0.029 A 
ATOM     49  N   UNL A   1      40.127  29.241  29.685  1.00  0.00    -0.354 N 
ATOM     50  C   UNL A   1      43.217  27.561  32.193  1.00  0.00     0.074 A 
ATOM     51  C   UNL A   1      43.995  26.584  31.463  1.00  0.00     0.031 C 
ATOM     52  C   UNL A   1      38.920  29.484  27.820  1.00  0.00     0.029 A 
ATOM     53  C   UNL A   1      39.033  29.921  29.212  1.00  0.00     0.049 A 
ATOM     54  H   UNL A   1      40.510  29.389  30.580  1.00  0.00     0.167 HD
ATOM     55  C   UNL A   1      43.457  27.923  33.474  1.00  0.00     0.037 A 
ATOM     56  C   UNL A   1      38.194  30.764  29.846  1.00  0.00     0.037 A 
ATOM     57  C   UNL A   1      42.674  28.887  34.201  1.00  0.00     0.049 A 
ATOM     58  C   UNL A   1      38.425  31.092  31.299  1.00  0.00     0.074 A 
ATOM     59  C   UNL A   1      42.845  29.337  35.498  1.00  0.00     0.029 A 
ATOM     60  N   UNL A   1      41.558  29.538  33.696  1.00  0.00    -0.354 N 
ATOM     61  N   UNL A   1      39.373  30.671  32.102  1.00  0.00    -0.248 NA
ATOM     62  C   UNL A   1      37.469  32.012  31.933  1.00  0.00     0.031 C 
ATOM     63  C   UNL A   1      41.797  30.213  35.798  1.00  0.00     0.029 A 
ATOM     64  C   UNL A   1      41.010  30.361  34.666  1.00  0.00     0.049 A 
ATOM     65  H   UNL A   1      41.207  29.431  32.782  1.00  0.00     0.167 HD
ATOM     66  C   UNL A   1      39.144  31.294  33.325  1.00  0.00     0.074 A 
ATOM     67  C   UNL A   1      37.972  32.127  33.154  1.00  0.00     0.031 C 
ATOM     68  C   UNL A   1      39.843  31.189  34.483  1.00  0.00     0.037 A 
BRANCH  55  69
ATOM     69  C   UNL A   1      44.581  27.224  34.183  1.00  0.00     0.057 A 
ATOM     70  C   UNL A   1      45.891  27.718  34.177  1.00  0.00     0.134 A 
ATOM     71  C   UNL A   1      44.345  26.029  34.873  1.00  0.00     0.134 A 
ATOM     72  F   UNL A   1      46.190  28.849  33.518  1.00  0.00    -0.206 F 
ATOM     73  C   UNL A   1      46.933  27.030  34.800  1.00  0.00     0.040 A 
ATOM     74  C   UNL A   1      45.373  25.347  35.526  1.00  0.00     0.040 A 
ATOM     75  F   UNL A   1      43.113  25.500  34.922  1.00  0.00    -0.206 F 
ATOM     76  C   UNL A   1      46.674  25.843  35.481  1.00  0.00     0.006 A 
ENDBRANCH  55  69
BRANCH  56  77
ATOM     77  C   UNL A   1      37.031  31.331  29.117  1.00  0.00     0.057 A 
ATOM     78  C   UNL A   1      37.042  32.648  28.646  1.00  0.00     0.134 A 
ATOM     79  C   UNL A   1      35.881  30.568  28.876  1.00  0.00     0.134 A 
ATOM     80  F   UNL A   1      38.104  33.436  28.869  1.00  0.00    -0.206 F 
ATOM     81  C   UNL A   1      35.949  33.190  27.967  1.00  0.00     0.040 A 
ATOM     82  C   UNL A   1      34.791  31.089  28.176  1.00  0.00     0.040 A 
ATOM     83  F   UNL A   1      35.808  29.299  29.304  1.00  0.00    -0.206 F 
ATOM     84  C   UNL A   1      34.823  32.405  27.723  1.00  0.00     0.006 A 
ENDBRANCH  56  77
BRANCH  68  85
ATOM     85  C   UNL A   1      39.392  32.026  35.647  1.00  0.00     0.057 A 
ATOM     86  C   UNL A   1      39.837  33.340  35.838  1.00  0.00     0.134 A 
ATOM     87  C   UNL A   1      38.454  31.524  36.560  1.00  0.00     0.134 A 
ATOM     88  F   UNL A   1      40.743  33.879  35.006  1.00  0.00    -0.206 F 
ATOM     89  C   UNL A   1      39.383  34.116  36.906  1.00  0.00     0.040 A 
ATOM     90  C   UNL A   1      37.971  32.301  37.614  1.00  0.00     0.040 A 
ATOM     91  F   UNL A   1      37.977  30.276  36.430  1.00  0.00    -0.206 F 
ATOM     92  C   UNL A   1      38.440  33.600  37.792  1.00  0.00     0.006 A 
ENDBRANCH  68  85
ENDBRANCH  42  43
ENDBRANCH  35  37
ENDBRANCH  34  35
ENDBRANCH  33  34
ENDBRANCH  32  33
ENDBRANCH  31  32
ENDBRANCH  30  31
ENDBRANCH   1  30
TORSDOF 21
ENDMDL
MODEL 2
REMARK VINA RESULT:     -10.8      1.695      3.355
REMARK SMILES Cc1ccc(Cl)c(Nc2ccccc2C(=O)NCC(=O)OCCOCCOCCOC(=O)c2ccc(-c3c4nc(c(-c5c(F)cccc5F)c5ccc([nH]5)c(-c5c(F)cccc5F)c5nc(c(-c6c(F)cccc6F)c6ccc3[nH]6)C=C5)C=C4)cc2)c1Cl
REMARK SMILES IDX 25 1 24 2 23 3 22 4 21 5 19 6 20 7 18 8 17 9 15 10 16 11
REMARK SMILES IDX 14 13 9 14 10 15 11 16 13 17 12 18 8 19 7 21 1 22 2 23 3 24
REMARK SMILES IDX 87 25 4 26 88 27 5 28 6 29 26 30 27 31 28 32 29 33 30 34
REMARK SMILES IDX 31 35 32 36 33 37 34 38 86 39 35 40 85 41 36 42 37 43 38 44
REMARK SMILES IDX 79 45 39 46 84 47 78 48 80 49 40 50 83 51 77 52 76 53 41 55
REMARK SMILES IDX 67 56 50 57 66 58 51 59 54 60 65 61 81 62 52 63 53 64 64 66
REMARK SMILES IDX 82 67 55 68 42 69 43 70 48 71 44 72 45 73 47 74 49 75 46 76
REMARK SMILES IDX 68 77 69 78 74 79 70 80 71 81 73 82 75 83 72 84 56 85 57 86
REMARK SMILES IDX 62 87 58 88 59 89 61 90 63 91 60 92
REMARK H PARENT 17 12 8 20 80 54 54 65
REMARK Flexibility Score: inf
ROOT
ATOM      1  C   UNL A   1      38.313  20.553  25.180  1.00  0.00     0.188 C 
ENDROOT
BRANCH   1   2
ATOM      2  O   UNL A   1      37.185  21.345  25.478  1.00  0.00    -0.376 OA
BRANCH   2   3
ATOM      3  C   UNL A   1      36.027  21.238  24.660  1.00  0.00     0.202 C 
BRANCH   3   4
ATOM      4  C   UNL A   1      34.799  20.391  25.044  1.00  0.00     0.261 C 
BRANCH   4   5
ATOM      5  O   UNL A   1      33.701  20.415  24.123  1.00  0.00    -0.462 OA
BRANCH   5   6
ATOM      6  C   UNL A   1      32.505  20.183  24.717  1.00  0.00     0.325 C 
ATOM      7  O   UNL A   1      32.176  19.105  25.212  1.00  0.00    -0.250 OA
BRANCH   6   8
ATOM      8  C   UNL A   1      31.675  21.416  24.999  1.00  0.00     0.239 C 
BRANCH   8   9
ATOM      9  N   UNL A   1      30.972  21.826  26.192  1.00  0.00    -0.341 N 
ATOM     10  C   UNL A   1      31.033  23.102  26.731  1.00  0.00     0.253 C 
ATOM     11  O   UNL A   1      30.150  23.481  27.499  1.00  0.00    -0.269 OA
ATOM     12  H   UNL A   1      30.414  21.157  26.650  1.00  0.00     0.164 HD
BRANCH  10  13
ATOM     13  C   UNL A   1      32.278  23.920  26.573  1.00  0.00     0.063 A 
ATOM     14  C   UNL A   1      32.391  25.217  26.018  1.00  0.00     0.051 A 
ATOM     15  C   UNL A   1      33.678  25.648  25.634  1.00  0.00     0.027 A 
ATOM     16  C   UNL A   1      34.817  24.873  25.861  1.00  0.00     0.002 A 
ATOM     17  C   UNL A   1      33.443  23.180  26.865  1.00  0.00     0.016 A 
ATOM     18  C   UNL A   1      34.704  23.655  26.515  1.00  0.00     0.001 A 
BRANCH  14  19
ATOM     19  N   UNL A   1      31.349  26.152  25.812  1.00  0.00    -0.352 N 
ATOM     20  H   UNL A   1      30.466  25.810  26.080  1.00  0.00     0.167 HD
BRANCH  19  21
ATOM     21  C   UNL A   1      31.300  27.473  25.303  1.00  0.00     0.077 A 
ATOM     22  C   UNL A   1      31.559  31.157  26.356  1.00  0.00     0.046 C 
ATOM     23  C   UNL A   1      31.327  29.918  25.535  1.00  0.00    -0.030 A 
ATOM     24  C   UNL A   1      30.850  30.053  24.223  1.00  0.00     0.006 A 
ATOM     25  C   UNL A   1      31.575  28.629  26.059  1.00  0.00     0.069 A 
ATOM     26  C   UNL A   1      30.645  28.930  23.430  1.00  0.00     0.023 A 
ATOM     27  Cl  UNL A   1      32.387  28.504  27.594  1.00  0.00    -0.082 Cl
ATOM     28  C   UNL A   1      30.876  27.661  23.963  1.00  0.00     0.066 A 
ATOM     29  Cl  UNL A   1      30.586  26.302  22.923  1.00  0.00    -0.082 Cl
ENDBRANCH  19  21
ENDBRANCH  14  19
ENDBRANCH  10  13
ENDBRANCH   8   9
ENDBRANCH   6   8
ENDBRANCH   5   6
ENDBRANCH   4   5
ENDBRANCH   3   4
ENDBRANCH   2   3
ENDBRANCH   1   2
BRANCH   1  30
ATOM     30  C   UNL A   1      39.563  20.934  25.995  1.00  0.00     0.188 C 
BRANCH  30  31
ATOM     31  O   UNL A   1      40.675  20.056  26.090  1.00  0.00    -0.376 OA
BRANCH  31  32
ATOM     32  C   UNL A   1      41.854  20.523  26.748  1.00  0.00     0.202 C 
BRANCH  32  33
ATOM     33  C   UNL A   1      43.127  20.916  25.963  1.00  0.00     0.261 C 
BRANCH  33  34
ATOM     34  O   UNL A   1      43.676  22.213  26.246  1.00  0.00    -0.460 OA
BRANCH  34  35
ATOM     35  C   UNL A   1      43.270  23.206  25.413  1.00  0.00     0.338 C 
ATOM     36  O   UNL A   1      43.189  23.172  24.199  1.00  0.00    -0.246 OA
BRANCH  35  37
ATOM     37  C   UNL A   1      42.709  24.312  26.218  1.00  0.00     0.060 A 
ATOM     38  C   UNL A   1      43.408  25.531  26.247  1.00  0.00     0.016 A 
ATOM     39  C   UNL A   1      41.551  24.142  26.973  1.00  0.00     0.016 A 
ATOM     40  C   UNL A   1      42.950  26.587  27.031  1.00  0.00     0.010 A 
ATOM     41  C   UNL A   1      41.119  25.188  27.797  1.00  0.00     0.010 A 
ATOM     42  C   UNL A   1      41.830  26.402  27.845  1.00  0.00    -0.014 A 
BRANCH  42  43
ATOM     43  C   UNL A   1      41.530  27.388  28.910  1.00  0.00     0.031 A 
ATOM     44  C   UNL A   1      42.334  27.326  30.176  1.00  0.00     0.074 A 
ATOM     45  C   UNL A   1      40.568  28.313  28.764  1.00  0.00     0.049 A 
ATOM     46  N   UNL A   1      42.177  27.984  31.295  1.00  0.00    -0.248 NA
ATOM     47  C   UNL A   1      43.469  26.388  30.177  1.00  0.00     0.031 C 
ATOM     48  C   UNL A   1      39.765  28.520  27.562  1.00  0.00     0.029 A 
ATOM     49  N   UNL A   1      40.091  29.240  29.656  1.00  0.00    -0.354 N 
ATOM     50  C   UNL A   1      43.176  27.521  32.142  1.00  0.00     0.074 A 
ATOM     51  C   UNL A   1      43.925  26.521  31.413  1.00  0.00     0.031 C 
ATOM     52  C   UNL A   1      38.866  29.490  27.804  1.00  0.00     0.029 A 
ATOM     53  C   UNL A   1      39.005  29.939  29.190  1.00  0.00     0.049 A 
ATOM     54  H   UNL A   1      40.488  29.390  30.545  1.00  0.00     0.167 HD
ATOM     55  C   UNL A   1      43.441  27.891  33.417  1.00  0.00     0.037 A 
ATOM     56  C   UNL A   1      38.192  30.805  29.825  1.00  0.00     0.037 A 
ATOM     57  C   UNL A   1      42.686  28.879  34.144  1.00  0.00     0.049 A 
ATOM     58  C   UNL A   1      38.449  31.143  31.272  1.00  0.00     0.074 A 
ATOM     59  C   UNL A   1      42.884  29.338  35.433  1.00  0.00     0.029 A 
ATOM     60  N   UNL A   1      41.578  29.548  33.645  1.00  0.00    -0.354 N 
ATOM     61  N   UNL A   1      39.397  30.711  32.068  1.00  0.00    -0.248 NA
ATOM     62  C   UNL A   1      37.520  32.089  31.908  1.00  0.00     0.031 C 
ATOM     63  C   UNL A   1      41.858  30.239  35.737  1.00  0.00     0.029 A 
ATOM     64  C   UNL A   1      41.060  30.392  34.614  1.00  0.00     0.049 A 
ATOM     65  H   UNL A   1      41.214  29.439  32.737  1.00  0.00     0.167 HD
ATOM     66  C   UNL A   1      39.197  31.350  33.287  1.00  0.00     0.074 A 
ATOM     67  C   UNL A   1      38.041  32.206  33.122  1.00  0.00     0.031 C 
ATOM     68  C   UNL A   1      39.909  31.243  34.437  1.00  0.00     0.037 A 
BRANCH  55  69
ATOM     69  C   UNL A   1      44.558  27.176  34.119  1.00  0.00     0.057 A 
ATOM     70  C   UNL A   1      44.367  25.956  34.779  1.00  0.00     0.134 A 
ATOM     71  C   UNL A   1      45.844  27.729  34.144  1.00  0.00     0.134 A 
ATOM     72  F   UNL A   1      43.154  25.381  34.811  1.00  0.00    -0.206 F 
ATOM     73  C   UNL A   1      45.406  25.329  35.469  1.00  0.00     0.040 A 
ATOM     74  C   UNL A   1      46.899  27.096  34.804  1.00  0.00     0.040 A 
ATOM     75  F   UNL A   1      46.099  28.895  33.530  1.00  0.00    -0.206 F 
ATOM     76  C   UNL A   1      46.678  25.898  35.478  1.00  0.00     0.006 A 
ENDBRANCH  55  69
BRANCH  56  77
ATOM     77  C   UNL A   1      37.032  31.389  29.105  1.00  0.00     0.057 A 
ATOM     78  C   UNL A   1      37.057  32.707  28.637  1.00  0.00     0.134 A 
ATOM     79  C   UNL A   1      35.871  30.642  28.869  1.00  0.00     0.134 A 
ATOM     80  F   UNL A   1      38.130  33.481  28.857  1.00  0.00    -0.206 F 
ATOM     81  C   UNL A   1      35.967  33.265  27.966  1.00  0.00     0.040 A 
ATOM     82  C   UNL A   1      34.784  31.178  28.177  1.00  0.00     0.040 A 
ATOM     83  F   UNL A   1      35.784  29.372  29.294  1.00  0.00    -0.206 F 
ATOM     84  C   UNL A   1      34.829  32.495  27.727  1.00  0.00     0.006 A 
ENDBRANCH  56  77
BRANCH  68  85
ATOM     85  C   UNL A   1      39.490  32.100  35.598  1.00  0.00     0.057 A 
ATOM     86  C   UNL A   1      38.607  31.641  36.584  1.00  0.00     0.134 A 
ATOM     87  C   UNL A   1      40.024  33.387  35.759  1.00  0.00     0.134 A 
ATOM     88  F   UNL A   1      38.052  30.423  36.485  1.00  0.00    -0.206 F 
ATOM     89  C   UNL A   1      38.255  32.438  37.675  1.00  0.00     0.040 A 
ATOM     90  C   UNL A   1      39.701  34.180  36.861  1.00  0.00     0.040 A 
ATOM     91  F   UNL A   1      40.885  33.885  34.858  1.00  0.00    -0.206 F 
ATOM     92  C   UNL A   1      38.809  33.707  37.820  1.00  0.00     0.006 A 
ENDBRANCH  68  85
ENDBRANCH  42  43
ENDBRANCH  35  37
ENDBRANCH  34  35
ENDBRANCH  33  34
ENDBRANCH  32  33
ENDBRANCH  31  32
ENDBRANCH  30  31
ENDBRANCH   1  30
TORSDOF 21
ENDMDL
MODEL 3
REMARK VINA RESULT:     -10.4      4.145      8.081
REMARK SMILES Cc1ccc(Cl)c(Nc2ccccc2C(=O)NCC(=O)OCCOCCOCCOC(=O)c2ccc(-c3c4nc(c(-c5c(F)cccc5F)c5ccc([nH]5)c(-c5c(F)cccc5F)c5nc(c(-c6c(F)cccc6F)c6ccc3[nH]6)C=C5)C=C4)cc2)c1Cl
REMARK SMILES IDX 25 1 24 2 23 3 22 4 21 5 19 6 20 7 18 8 17 9 15 10 16 11
REMARK SMILES IDX 14 13 9 14 10 15 11 16 13 17 12 18 8 19 7 21 1 22 2 23 3 24
REMARK SMILES IDX 87 25 4 26 88 27 5 28 6 29 26 30 27 31 28 32 29 33 30 34
REMARK SMILES IDX 31 35 32 36 33 37 34 38 86 39 35 40 85 41 36 42 37 43 38 44
REMARK SMILES IDX 79 45 39 46 84 47 78 48 80 49 40 50 83 51 77 52 76 53 41 55
REMARK SMILES IDX 67 56 50 57 66 58 51 59 54 60 65 61 81 62 52 63 53 64 64 66
REMARK SMILES IDX 82 67 55 68 42 69 43 70 48 71 44 72 45 73 47 74 49 75 46 76
REMARK SMILES IDX 68 77 69 78 74 79 70 80 71 81 73 82 75 83 72 84 56 85 57 86
REMARK SMILES IDX 62 87 58 88 59 89 61 90 63 91 60 92
REMARK H PARENT 17 12 8 20 80 54 54 65
REMARK Flexibility Score: inf
ROOT
ATOM      1  C   UNL A   1      33.779  20.069  24.479  1.00  0.00     0.188 C 
ENDROOT
BRANCH   1   2
ATOM      2  O   UNL A   1      33.709  21.344  23.879  1.00  0.00    -0.376 OA
BRANCH   2   3
ATOM      3  C   UNL A   1      32.459  21.810  23.386  1.00  0.00     0.202 C 
BRANCH   3   4
ATOM      4  C   UNL A   1      32.214  23.268  22.955  1.00  0.00     0.261 C 
BRANCH   4   5
ATOM      5  O   UNL A   1      33.372  24.014  22.558  1.00  0.00    -0.462 OA
BRANCH   5   6
ATOM      6  C   UNL A   1      33.074  25.080  21.777  1.00  0.00     0.325 C 
ATOM      7  O   UNL A   1      33.164  25.085  20.549  1.00  0.00    -0.250 OA
BRANCH   6   8
ATOM      8  C   UNL A   1      32.344  26.206  22.474  1.00  0.00     0.239 C 
BRANCH   8   9
ATOM      9  N   UNL A   1      30.939  26.540  22.507  1.00  0.00    -0.341 N 
ATOM     10  C   UNL A   1      30.402  27.574  23.260  1.00  0.00     0.253 C 
ATOM     11  O   UNL A   1      29.301  28.033  22.965  1.00  0.00    -0.269 OA
ATOM     12  H   UNL A   1      30.325  26.001  21.959  1.00  0.00     0.164 HD
BRANCH  10  13
ATOM     13  C   UNL A   1      31.044  27.963  24.557  1.00  0.00     0.063 A 
ATOM     14  C   UNL A   1      31.242  27.149  25.697  1.00  0.00     0.051 A 
ATOM     15  C   UNL A   1      31.526  27.799  26.917  1.00  0.00     0.027 A 
ATOM     16  C   UNL A   1      31.692  29.183  26.997  1.00  0.00     0.002 A 
ATOM     17  C   UNL A   1      31.289  29.350  24.635  1.00  0.00     0.016 A 
ATOM     18  C   UNL A   1      31.614  29.955  25.846  1.00  0.00     0.001 A 
BRANCH  14  19
ATOM     19  N   UNL A   1      31.199  25.736  25.757  1.00  0.00    -0.352 N 
ATOM     20  H   UNL A   1      30.367  25.359  25.390  1.00  0.00     0.167 HD
BRANCH  19  21
ATOM     21  C   UNL A   1      32.093  24.744  26.231  1.00  0.00     0.077 A 
ATOM     22  C   UNL A   1      35.784  23.684  26.162  1.00  0.00     0.046 C 
ATOM     23  C   UNL A   1      34.298  23.674  26.396  1.00  0.00    -0.030 A 
ATOM     24  C   UNL A   1      33.707  22.532  26.957  1.00  0.00     0.006 A 
ATOM     25  C   UNL A   1      33.491  24.785  26.061  1.00  0.00     0.069 A 
ATOM     26  C   UNL A   1      32.340  22.499  27.206  1.00  0.00     0.023 A 
ATOM     27  Cl  UNL A   1      34.277  26.266  25.593  1.00  0.00    -0.082 Cl
ATOM     28  C   UNL A   1      31.550  23.593  26.855  1.00  0.00     0.066 A 
ATOM     29  Cl  UNL A   1      29.849  23.477  27.182  1.00  0.00    -0.082 Cl
ENDBRANCH  19  21
ENDBRANCH  14  19
ENDBRANCH  10  13
ENDBRANCH   8   9
ENDBRANCH   6   8
ENDBRANCH   5   6
ENDBRANCH   4   5
ENDBRANCH   3   4
ENDBRANCH   2   3
ENDBRANCH   1   2
BRANCH   1  30
ATOM     30  C   UNL A   1      35.194  19.694  24.958  1.00  0.00     0.188 C 
BRANCH  30  31
ATOM     31  O   UNL A   1      36.254  20.639  24.932  1.00  0.00    -0.376 OA
BRANCH  31  32
ATOM     32  C   UNL A   1      37.595  20.153  24.871  1.00  0.00     0.202 C 
BRANCH  32  33
ATOM     33  C   UNL A   1      38.772  20.918  25.520  1.00  0.00     0.261 C 
BRANCH  33  34
ATOM     34  O   UNL A   1      39.507  20.215  26.535  1.00  0.00    -0.460 OA
BRANCH  34  35
ATOM     35  C   UNL A   1      40.791  19.910  26.212  1.00  0.00     0.338 C 
ATOM     36  O   UNL A   1      41.190  18.952  25.576  1.00  0.00    -0.246 OA
BRANCH  35  37
ATOM     37  C   UNL A   1      41.662  21.053  26.561  1.00  0.00     0.060 A 
ATOM     38  C   UNL A   1      41.863  21.342  27.922  1.00  0.00     0.016 A 
ATOM     39  C   UNL A   1      42.226  21.859  25.575  1.00  0.00     0.016 A 
ATOM     40  C   UNL A   1      42.632  22.438  28.303  1.00  0.00     0.010 A 
ATOM     41  C   UNL A   1      42.959  22.988  25.960  1.00  0.00     0.010 A 
ATOM     42  C   UNL A   1      43.143  23.292  27.322  1.00  0.00    -0.014 A 
BRANCH  42  43
ATOM     43  C   UNL A   1      43.675  24.618  27.714  1.00  0.00     0.031 A 
ATOM     44  C   UNL A   1      42.696  25.674  28.139  1.00  0.00     0.074 A 
ATOM     45  C   UNL A   1      44.991  24.885  27.691  1.00  0.00     0.049 A 
ATOM     46  N   UNL A   1      42.898  26.940  28.397  1.00  0.00    -0.248 NA
ATOM     47  C   UNL A   1      41.298  25.239  28.287  1.00  0.00     0.031 C 
ATOM     48  C   UNL A   1      46.044  23.930  27.363  1.00  0.00     0.029 A 
ATOM     49  N   UNL A   1      45.659  26.060  27.929  1.00  0.00    -0.354 N 
ATOM     50  C   UNL A   1      41.648  27.459  28.714  1.00  0.00     0.074 A 
ATOM     51  C   UNL A   1      40.696  26.375  28.604  1.00  0.00     0.031 C 
ATOM     52  C   UNL A   1      47.229  24.566  27.385  1.00  0.00     0.029 A 
ATOM     53  C   UNL A   1      47.007  25.981  27.686  1.00  0.00     0.049 A 
ATOM     54  H   UNL A   1      45.214  26.880  28.244  1.00  0.00     0.167 HD
ATOM     55  C   UNL A   1      41.323  28.727  29.058  1.00  0.00     0.037 A 
ATOM     56  C   UNL A   1      47.944  26.950  27.665  1.00  0.00     0.037 A 
ATOM     57  C   UNL A   1      42.271  29.805  29.156  1.00  0.00     0.049 A 
ATOM     58  C   UNL A   1      47.550  28.373  27.967  1.00  0.00     0.074 A 
ATOM     59  C   UNL A   1      42.045  31.122  29.513  1.00  0.00     0.029 A 
ATOM     60  N   UNL A   1      43.625  29.691  28.878  1.00  0.00    -0.354 N 
ATOM     61  N   UNL A   1      46.371  28.859  28.273  1.00  0.00    -0.248 NA
ATOM     62  C   UNL A   1      48.618  29.383  27.919  1.00  0.00     0.031 C 
ATOM     63  C   UNL A   1      43.252  31.819  29.392  1.00  0.00     0.029 A 
ATOM     64  C   UNL A   1      44.243  30.922  29.024  1.00  0.00     0.049 A 
ATOM     65  H   UNL A   1      44.080  28.858  28.617  1.00  0.00     0.167 HD
ATOM     66  C   UNL A   1      46.559  30.222  28.480  1.00  0.00     0.074 A 
ATOM     67  C   UNL A   1      47.968  30.483  28.273  1.00  0.00     0.031 C 
ATOM     68  C   UNL A   1      45.649  31.170  28.817  1.00  0.00     0.037 A 
BRANCH  55  69
ATOM     69  C   UNL A   1      39.869  29.020  29.293  1.00  0.00     0.057 A 
ATOM     70  C   UNL A   1      39.298  28.993  30.572  1.00  0.00     0.134 A 
ATOM     71  C   UNL A   1      39.027  29.322  28.217  1.00  0.00     0.134 A 
ATOM     72  F   UNL A   1      40.046  28.691  31.645  1.00  0.00    -0.206 F 
ATOM     73  C   UNL A   1      37.935  29.220  30.767  1.00  0.00     0.040 A 
ATOM     74  C   UNL A   1      37.668  29.582  28.402  1.00  0.00     0.040 A 
ATOM     75  F   UNL A   1      39.508  29.367  26.965  1.00  0.00    -0.206 F 
ATOM     76  C   UNL A   1      37.117  29.520  29.680  1.00  0.00     0.006 A 
ENDBRANCH  55  69
BRANCH  56  77
ATOM     77  C   UNL A   1      49.345  26.610  27.309  1.00  0.00     0.057 A 
ATOM     78  C   UNL A   1      49.762  26.556  25.975  1.00  0.00     0.134 A 
ATOM     79  C   UNL A   1      50.298  26.329  28.296  1.00  0.00     0.134 A 
ATOM     80  F   UNL A   1      48.889  26.789  24.984  1.00  0.00    -0.206 F 
ATOM     81  C   UNL A   1      51.076  26.230  25.634  1.00  0.00     0.040 A 
ATOM     82  C   UNL A   1      51.622  26.027  27.970  1.00  0.00     0.040 A 
ATOM     83  F   UNL A   1      49.960  26.363  29.594  1.00  0.00    -0.206 F 
ATOM     84  C   UNL A   1      52.012  25.972  26.634  1.00  0.00     0.006 A 
ENDBRANCH  56  77
BRANCH  68  85
ATOM     85  C   UNL A   1      46.149  32.572  29.027  1.00  0.00     0.057 A 
ATOM     86  C   UNL A   1      46.642  33.010  30.262  1.00  0.00     0.134 A 
ATOM     87  C   UNL A   1      46.187  33.479  27.958  1.00  0.00     0.134 A 
ATOM     88  F   UNL A   1      46.625  32.196  31.329  1.00  0.00    -0.206 F 
ATOM     89  C   UNL A   1      47.135  34.306  30.432  1.00  0.00     0.040 A 
ATOM     90  C   UNL A   1      46.704  34.766  28.110  1.00  0.00     0.040 A 
ATOM     91  F   UNL A   1      45.741  33.120  26.744  1.00  0.00    -0.206 F 
ATOM     92  C   UNL A   1      47.175  35.184  29.352  1.00  0.00     0.006 A 
ENDBRANCH  68  85
ENDBRANCH  42  43
ENDBRANCH  35  37
ENDBRANCH  34  35
ENDBRANCH  33  34
ENDBRANCH  32  33
ENDBRANCH  31  32
ENDBRANCH  30  31
ENDBRANCH   1  30
TORSDOF 21
ENDMDL
