MODEL 1
REMARK VINA RESULT:     -12.0      0.000      0.000
REMARK SMILES COc1ccc(-n2ncc([C@H]3CC(=O)Nc4n[nH]c(C(=O)OCCOCCOCCOC(=O)c5ccc(-c6c7nc(c(-c8c(F)cccc8F)c8ccc([nH]8)c(-c8c(F)cccc8F)c8nc(c(-c9c(F)cccc9F)c9ccc6[nH]9)C=C8)C=C7)cc5)c43)c2C)cc1
REMARK SMILES IDX 26 1 25 2 24 3 23 4 22 5 20 6 21 7 19 8 11 9 12 10 88 11
REMARK SMILES IDX 13 12 16 13 14 14 15 15 17 16 18 17 10 20 7 21 8 22 89 23
REMARK SMILES IDX 9 24 90 25 6 26 3 27 4 28 92 29 5 30 91 31 2 32 1 33 27 34
REMARK SMILES IDX 28 35 29 36 30 37 31 38 32 39 33 40 34 41 35 42 87 43 36 44
REMARK SMILES IDX 86 45 37 46 38 47 39 48 80 49 40 50 85 51 79 52 81 53 41 54
REMARK SMILES IDX 84 55 78 56 77 57 42 59 68 60 51 61 67 62 52 63 55 64 66 65
REMARK SMILES IDX 82 66 53 67 54 68 65 70 83 71 56 72 43 73 44 74 49 75 45 76
REMARK SMILES IDX 46 77 48 78 50 79 47 80 69 81 70 82 75 83 71 84 72 85 74 86
REMARK SMILES IDX 76 87 73 88 57 89 58 90 63 91 59 92 60 93 62 94 64 95 61 96
REMARK H PARENT 15 18 18 19 81 58 55 69
REMARK Flexibility Score: inf
ROOT
ATOM      1  C   UNL A   1      40.453  20.976  26.496  1.00  0.00     0.188 C 
ENDROOT
BRANCH   1   2
ATOM      2  O   UNL A   1      39.328  21.741  26.100  1.00  0.00    -0.376 OA
BRANCH   2   3
ATOM      3  C   UNL A   1      39.132  22.963  26.807  1.00  0.00     0.202 C 
BRANCH   3   4
ATOM      4  C   UNL A   1      38.215  24.011  26.148  1.00  0.00     0.261 C 
BRANCH   4   5
ATOM      5  O   UNL A   1      36.860  23.577  25.934  1.00  0.00    -0.459 OA
BRANCH   5   6
ATOM      6  C   UNL A   1      36.570  23.024  24.734  1.00  0.00     0.356 C 
ATOM      7  O   UNL A   1      36.793  23.552  23.656  1.00  0.00    -0.244 OA
BRANCH   6   8
ATOM      8  C   UNL A   1      36.121  21.661  24.887  1.00  0.00     0.149 A 
ATOM      9  C   UNL A   1      33.497  21.511  25.329  1.00  0.00     0.068 C 
ATOM     10  C   UNL A   1      32.449  20.377  25.335  1.00  0.00     0.114 C 
ATOM     11  C   UNL A   1      34.903  21.024  25.129  1.00  0.00     0.037 A 
ATOM     12  C   UNL A   1      32.912  18.962  25.015  1.00  0.00     0.226 C 
ATOM     13  C   UNL A   1      35.194  19.658  25.004  1.00  0.00     0.159 A 
ATOM     14  O   UNL A   1      32.093  18.057  24.839  1.00  0.00    -0.275 OA
ATOM     15  N   UNL A   1      34.243  18.688  24.969  1.00  0.00    -0.309 N 
ATOM     16  N   UNL A   1      36.485  19.410  24.834  1.00  0.00    -0.157 NA
ATOM     17  N   UNL A   1      37.024  20.636  24.751  1.00  0.00    -0.269 N 
ATOM     18  H   UNL A   1      34.530  17.748  24.907  1.00  0.00     0.171 HD
ATOM     19  H   UNL A   1      37.985  20.788  24.605  1.00  0.00     0.190 HD
BRANCH   9  20
ATOM     20  C   UNL A   1      33.181  22.581  24.328  1.00  0.00     0.002 A 
ATOM     21  N   UNL A   1      32.276  24.331  23.333  1.00  0.00    -0.238 N 
ATOM     22  N   UNL A   1      32.465  23.431  22.341  1.00  0.00    -0.176 NA
ATOM     23  C   UNL A   1      32.748  23.880  24.555  1.00  0.00     0.045 A 
ATOM     24  C   UNL A   1      33.086  22.413  22.931  1.00  0.00     0.140 A 
ATOM     25  C   UNL A   1      32.588  24.601  25.850  1.00  0.00     0.067 C 
BRANCH  21  26
ATOM     26  C   UNL A   1      31.429  25.438  23.135  1.00  0.00     0.065 A 
ATOM     27  C   UNL A   1      29.912  27.750  23.046  1.00  0.00     0.119 A 
ATOM     28  C   UNL A   1      31.090  27.665  22.302  1.00  0.00     0.048 A 
ATOM     29  C   UNL A   1      29.455  26.655  23.784  1.00  0.00     0.048 A 
ATOM     30  C   UNL A   1      31.869  26.512  22.360  1.00  0.00     0.032 A 
ATOM     31  C   UNL A   1      30.210  25.482  23.820  1.00  0.00     0.032 A 
BRANCH  27  32
ATOM     32  O   UNL A   1      29.225  28.930  22.972  1.00  0.00    -0.497 OA
ATOM     33  C   UNL A   1      29.865  29.973  23.706  1.00  0.00     0.278 C 
ENDBRANCH  27  32
ENDBRANCH  21  26
ENDBRANCH   9  20
ENDBRANCH   6   8
ENDBRANCH   5   6
ENDBRANCH   4   5
ENDBRANCH   3   4
ENDBRANCH   2   3
ENDBRANCH   1   2
BRANCH   1  34
ATOM     34  C   UNL A   1      40.423  19.498  26.051  1.00  0.00     0.188 C 
BRANCH  34  35
ATOM     35  O   UNL A   1      41.607  18.772  25.730  1.00  0.00    -0.376 OA
BRANCH  35  36
ATOM     36  C   UNL A   1      42.898  19.233  26.113  1.00  0.00     0.202 C 
BRANCH  36  37
ATOM     37  C   UNL A   1      44.073  19.142  25.146  1.00  0.00     0.261 C 
BRANCH  37  38
ATOM     38  O   UNL A   1      44.190  20.261  24.289  1.00  0.00    -0.460 OA
BRANCH  38  39
ATOM     39  C   UNL A   1      45.392  20.868  24.357  1.00  0.00     0.338 C 
ATOM     40  O   UNL A   1      46.485  20.344  24.474  1.00  0.00    -0.246 OA
BRANCH  39  41
ATOM     41  C   UNL A   1      45.187  22.318  24.332  1.00  0.00     0.060 A 
ATOM     42  C   UNL A   1      46.298  23.103  24.651  1.00  0.00     0.016 A 
ATOM     43  C   UNL A   1      43.883  22.829  24.313  1.00  0.00     0.016 A 
ATOM     44  C   UNL A   1      46.072  24.329  25.227  1.00  0.00     0.010 A 
ATOM     45  C   UNL A   1      43.657  24.045  24.905  1.00  0.00     0.010 A 
ATOM     46  C   UNL A   1      44.749  24.718  25.449  1.00  0.00    -0.014 A 
BRANCH  46  47
ATOM     47  C   UNL A   1      44.527  25.825  26.347  1.00  0.00     0.031 A 
ATOM     48  C   UNL A   1      45.536  26.894  26.260  1.00  0.00     0.074 A 
ATOM     49  C   UNL A   1      43.423  25.884  27.113  1.00  0.00     0.049 A 
ATOM     50  N   UNL A   1      46.363  27.284  27.168  1.00  0.00    -0.248 NA
ATOM     51  C   UNL A   1      45.724  27.527  24.946  1.00  0.00     0.031 C 
ATOM     52  C   UNL A   1      42.225  25.043  27.036  1.00  0.00     0.029 A 
ATOM     53  N   UNL A   1      43.096  26.803  28.058  1.00  0.00    -0.354 N 
ATOM     54  C   UNL A   1      47.047  28.354  26.602  1.00  0.00     0.074 A 
ATOM     55  C   UNL A   1      46.746  28.343  25.195  1.00  0.00     0.031 C 
ATOM     56  C   UNL A   1      41.229  25.630  27.736  1.00  0.00     0.029 A 
ATOM     57  C   UNL A   1      41.754  26.812  28.400  1.00  0.00     0.049 A 
ATOM     58  H   UNL A   1      43.756  27.411  28.464  1.00  0.00     0.167 HD
ATOM     59  C   UNL A   1      47.596  29.327  27.372  1.00  0.00     0.037 A 
ATOM     60  C   UNL A   1      41.119  27.783  29.100  1.00  0.00     0.037 A 
ATOM     61  C   UNL A   1      47.789  28.891  28.730  1.00  0.00     0.049 A 
ATOM     62  C   UNL A   1      42.153  28.589  29.798  1.00  0.00     0.074 A 
ATOM     63  C   UNL A   1      48.493  27.863  29.329  1.00  0.00     0.029 A 
ATOM     64  N   UNL A   1      46.918  29.352  29.686  1.00  0.00    -0.354 N 
ATOM     65  N   UNL A   1      42.871  28.162  30.798  1.00  0.00    -0.248 NA
ATOM     66  C   UNL A   1      42.687  29.754  29.105  1.00  0.00     0.031 C 
ATOM     67  C   UNL A   1      47.696  27.461  30.440  1.00  0.00     0.029 A 
ATOM     68  C   UNL A   1      46.569  28.284  30.471  1.00  0.00     0.049 A 
ATOM     69  H   UNL A   1      46.602  30.279  29.788  1.00  0.00     0.167 HD
ATOM     70  C   UNL A   1      44.126  28.724  30.603  1.00  0.00     0.074 A 
ATOM     71  C   UNL A   1      43.921  29.776  29.614  1.00  0.00     0.031 C 
ATOM     72  C   UNL A   1      45.256  28.097  31.044  1.00  0.00     0.037 A 
BRANCH  59  73
ATOM     73  C   UNL A   1      47.604  30.776  26.971  1.00  0.00     0.057 A 
ATOM     74  C   UNL A   1      48.798  31.508  27.059  1.00  0.00     0.134 A 
ATOM     75  C   UNL A   1      46.438  31.547  26.770  1.00  0.00     0.134 A 
ATOM     76  F   UNL A   1      49.967  30.890  27.282  1.00  0.00    -0.206 F 
ATOM     77  C   UNL A   1      48.823  32.906  27.004  1.00  0.00     0.040 A 
ATOM     78  C   UNL A   1      46.459  32.937  26.655  1.00  0.00     0.040 A 
ATOM     79  F   UNL A   1      45.210  31.011  26.778  1.00  0.00    -0.206 F 
ATOM     80  C   UNL A   1      47.651  33.625  26.802  1.00  0.00     0.006 A 
ENDBRANCH  59  73
BRANCH  60  81
ATOM     81  C   UNL A   1      39.720  28.244  28.959  1.00  0.00     0.057 A 
ATOM     82  C   UNL A   1      38.834  28.201  30.044  1.00  0.00     0.134 A 
ATOM     83  C   UNL A   1      39.289  28.977  27.839  1.00  0.00     0.134 A 
ATOM     84  F   UNL A   1      39.172  27.564  31.174  1.00  0.00    -0.206 F 
ATOM     85  C   UNL A   1      37.601  28.864  30.023  1.00  0.00     0.040 A 
ATOM     86  C   UNL A   1      38.056  29.633  27.800  1.00  0.00     0.040 A 
ATOM     87  F   UNL A   1      40.087  29.156  26.776  1.00  0.00    -0.206 F 
ATOM     88  C   UNL A   1      37.212  29.591  28.902  1.00  0.00     0.006 A 
ENDBRANCH  60  81
BRANCH  72  89
ATOM     89  C   UNL A   1      45.090  26.944  31.994  1.00  0.00     0.057 A 
ATOM     90  C   UNL A   1      44.884  25.619  31.582  1.00  0.00     0.134 A 
ATOM     91  C   UNL A   1      45.291  27.160  33.361  1.00  0.00     0.134 A 
ATOM     92  F   UNL A   1      44.789  25.302  30.284  1.00  0.00    -0.206 F 
ATOM     93  C   UNL A   1      44.831  24.564  32.497  1.00  0.00     0.040 A 
ATOM     94  C   UNL A   1      45.275  26.110  34.282  1.00  0.00     0.040 A 
ATOM     95  F   UNL A   1      45.553  28.394  33.820  1.00  0.00    -0.206 F 
ATOM     96  C   UNL A   1      45.032  24.807  33.853  1.00  0.00     0.006 A 
ENDBRANCH  72  89
ENDBRANCH  46  47
ENDBRANCH  39  41
ENDBRANCH  38  39
ENDBRANCH  37  38
ENDBRANCH  36  37
ENDBRANCH  35  36
ENDBRANCH  34  35
ENDBRANCH   1  34
TORSDOF 20
ENDMDL
MODEL 2
REMARK VINA RESULT:     -12.0      4.796     10.463
REMARK SMILES COc1ccc(-n2ncc([C@H]3CC(=O)Nc4n[nH]c(C(=O)OCCOCCOCCOC(=O)c5ccc(-c6c7nc(c(-c8c(F)cccc8F)c8ccc([nH]8)c(-c8c(F)cccc8F)c8nc(c(-c9c(F)cccc9F)c9ccc6[nH]9)C=C8)C=C7)cc5)c43)c2C)cc1
REMARK SMILES IDX 26 1 25 2 24 3 23 4 22 5 20 6 21 7 19 8 11 9 12 10 88 11
REMARK SMILES IDX 13 12 16 13 14 14 15 15 17 16 18 17 10 20 7 21 8 22 89 23
REMARK SMILES IDX 9 24 90 25 6 26 3 27 4 28 92 29 5 30 91 31 2 32 1 33 27 34
REMARK SMILES IDX 28 35 29 36 30 37 31 38 32 39 33 40 34 41 35 42 87 43 36 44
REMARK SMILES IDX 86 45 37 46 38 47 39 48 80 49 40 50 85 51 79 52 81 53 41 54
REMARK SMILES IDX 84 55 78 56 77 57 42 59 68 60 51 61 67 62 52 63 55 64 66 65
REMARK SMILES IDX 82 66 53 67 54 68 65 70 83 71 56 72 43 73 44 74 49 75 45 76
REMARK SMILES IDX 46 77 48 78 50 79 47 80 69 81 70 82 75 83 71 84 72 85 74 86
REMARK SMILES IDX 76 87 73 88 57 89 58 90 63 91 59 92 60 93 62 94 64 95 61 96
REMARK H PARENT 15 18 18 19 81 58 55 69
REMARK Flexibility Score: inf
ROOT
ATOM      1  C   UNL A   1      34.305  32.809  28.578  1.00  0.00     0.188 C 
ENDROOT
BRANCH   1   2
ATOM      2  O   UNL A   1      34.015  31.513  28.086  1.00  0.00    -0.376 OA
BRANCH   2   3
ATOM      3  C   UNL A   1      35.107  30.823  27.482  1.00  0.00     0.202 C 
BRANCH   3   4
ATOM      4  C   UNL A   1      35.013  29.287  27.420  1.00  0.00     0.261 C 
BRANCH   4   5
ATOM      5  O   UNL A   1      34.152  28.777  26.386  1.00  0.00    -0.459 OA
BRANCH   5   6
ATOM      6  C   UNL A   1      32.843  28.625  26.691  1.00  0.00     0.356 C 
ATOM      7  O   UNL A   1      32.425  28.013  27.661  1.00  0.00    -0.244 OA
BRANCH   6   8
ATOM      8  C   UNL A   1      32.012  29.420  25.819  1.00  0.00     0.149 A 
ATOM      9  C   UNL A   1      31.564  28.217  23.484  1.00  0.00     0.068 C 
ATOM     10  C   UNL A   1      30.606  28.449  22.296  1.00  0.00     0.114 C 
ATOM     11  C   UNL A   1      31.488  29.288  24.533  1.00  0.00     0.037 A 
ATOM     12  C   UNL A   1      29.628  29.613  22.373  1.00  0.00     0.226 C 
ATOM     13  C   UNL A   1      30.640  30.396  24.387  1.00  0.00     0.159 A 
ATOM     14  O   UNL A   1      28.731  29.739  21.536  1.00  0.00    -0.275 OA
ATOM     15  N   UNL A   1      29.775  30.548  23.350  1.00  0.00    -0.309 N 
ATOM     16  N   UNL A   1      30.701  31.240  25.407  1.00  0.00    -0.157 NA
ATOM     17  N   UNL A   1      31.524  30.623  26.267  1.00  0.00    -0.269 N 
ATOM     18  H   UNL A   1      29.234  31.369  23.304  1.00  0.00     0.171 HD
ATOM     19  H   UNL A   1      31.759  30.999  27.146  1.00  0.00     0.190 HD
BRANCH   9  20
ATOM     20  C   UNL A   1      31.381  26.870  24.117  1.00  0.00     0.002 A 
ATOM     21  N   UNL A   1      31.547  24.715  24.566  1.00  0.00    -0.238 N 
ATOM     22  N   UNL A   1      30.240  25.008  24.761  1.00  0.00    -0.176 NA
ATOM     23  C   UNL A   1      32.295  25.831  24.224  1.00  0.00     0.045 A 
ATOM     24  C   UNL A   1      30.163  26.322  24.571  1.00  0.00     0.140 A 
ATOM     25  C   UNL A   1      33.736  25.808  23.844  1.00  0.00     0.067 C 
BRANCH  21  26
ATOM     26  C   UNL A   1      31.963  23.376  24.445  1.00  0.00     0.065 A 
ATOM     27  C   UNL A   1      32.438  20.655  24.279  1.00  0.00     0.119 A 
ATOM     28  C   UNL A   1      32.185  21.387  23.118  1.00  0.00     0.048 A 
ATOM     29  C   UNL A   1      32.521  21.294  25.519  1.00  0.00     0.048 A 
ATOM     30  C   UNL A   1      31.924  22.752  23.198  1.00  0.00     0.032 A 
ATOM     31  C   UNL A   1      32.296  22.668  25.606  1.00  0.00     0.032 A 
BRANCH  27  32
ATOM     32  O   UNL A   1      32.642  19.312  24.124  1.00  0.00    -0.497 OA
ATOM     33  C   UNL A   1      32.817  18.645  25.374  1.00  0.00     0.278 C 
ENDBRANCH  27  32
ENDBRANCH  21  26
ENDBRANCH   9  20
ENDBRANCH   6   8
ENDBRANCH   5   6
ENDBRANCH   4   5
ENDBRANCH   3   4
ENDBRANCH   2   3
ENDBRANCH   1   2
BRANCH   1  34
ATOM     34  C   UNL A   1      33.409  33.934  28.016  1.00  0.00     0.188 C 
BRANCH  34  35
ATOM     35  O   UNL A   1      32.553  34.716  28.843  1.00  0.00    -0.376 OA
BRANCH  35  36
ATOM     36  C   UNL A   1      33.046  35.805  29.616  1.00  0.00     0.202 C 
BRANCH  36  37
ATOM     37  C   UNL A   1      32.516  36.060  31.023  1.00  0.00     0.261 C 
BRANCH  37  38
ATOM     38  O   UNL A   1      32.837  35.036  31.944  1.00  0.00    -0.460 OA
BRANCH  38  39
ATOM     39  C   UNL A   1      33.704  35.423  32.901  1.00  0.00     0.338 C 
ATOM     40  O   UNL A   1      33.823  36.531  33.393  1.00  0.00    -0.246 OA
BRANCH  39  41
ATOM     41  C   UNL A   1      34.565  34.289  33.241  1.00  0.00     0.060 A 
ATOM     42  C   UNL A   1      35.621  34.557  34.114  1.00  0.00     0.016 A 
ATOM     43  C   UNL A   1      34.504  33.122  32.468  1.00  0.00     0.016 A 
ATOM     44  C   UNL A   1      36.755  33.791  34.004  1.00  0.00     0.010 A 
ATOM     45  C   UNL A   1      35.642  32.368  32.344  1.00  0.00     0.010 A 
ATOM     46  C   UNL A   1      36.779  32.787  33.033  1.00  0.00    -0.014 A 
BRANCH  46  47
ATOM     47  C   UNL A   1      38.064  32.226  32.692  1.00  0.00     0.031 A 
ATOM     48  C   UNL A   1      39.004  32.124  33.820  1.00  0.00     0.074 A 
ATOM     49  C   UNL A   1      38.307  31.754  31.457  1.00  0.00     0.049 A 
ATOM     50  N   UNL A   1      40.135  32.725  33.971  1.00  0.00    -0.248 NA
ATOM     51  C   UNL A   1      38.566  31.341  34.985  1.00  0.00     0.031 C 
ATOM     52  C   UNL A   1      37.346  31.520  30.374  1.00  0.00     0.029 A 
ATOM     53  N   UNL A   1      39.470  31.269  30.949  1.00  0.00    -0.354 N 
ATOM     54  C   UNL A   1      40.648  32.240  35.168  1.00  0.00     0.074 A 
ATOM     55  C   UNL A   1      39.576  31.541  35.828  1.00  0.00     0.031 C 
ATOM     56  C   UNL A   1      37.924  30.739  29.434  1.00  0.00     0.029 A 
ATOM     57  C   UNL A   1      39.316  30.523  29.792  1.00  0.00     0.049 A 
ATOM     58  H   UNL A   1      40.346  31.432  31.368  1.00  0.00     0.167 HD
ATOM     59  C   UNL A   1      41.984  32.220  35.406  1.00  0.00     0.037 A 
ATOM     60  C   UNL A   1      40.252  29.716  29.237  1.00  0.00     0.037 A 
ATOM     61  C   UNL A   1      42.695  33.132  34.549  1.00  0.00     0.049 A 
ATOM     62  C   UNL A   1      41.571  30.094  29.806  1.00  0.00     0.074 A 
ATOM     63  C   UNL A   1      42.641  34.494  34.325  1.00  0.00     0.029 A 
ATOM     64  N   UNL A   1      43.403  32.608  33.496  1.00  0.00    -0.354 N 
ATOM     65  N   UNL A   1      42.196  31.207  29.546  1.00  0.00    -0.248 NA
ATOM     66  C   UNL A   1      42.016  29.401  31.008  1.00  0.00     0.031 C 
ATOM     67  C   UNL A   1      42.912  34.656  32.936  1.00  0.00     0.029 A 
ATOM     68  C   UNL A   1      43.142  33.388  32.400  1.00  0.00     0.049 A 
ATOM     69  H   UNL A   1      43.991  31.818  33.524  1.00  0.00     0.167 HD
ATOM     70  C   UNL A   1      42.801  31.566  30.742  1.00  0.00     0.074 A 
ATOM     71  C   UNL A   1      42.747  30.366  31.570  1.00  0.00     0.031 C 
ATOM     72  C   UNL A   1      43.028  32.877  31.053  1.00  0.00     0.037 A 
BRANCH  59  73
ATOM     73  C   UNL A   1      42.661  31.103  36.152  1.00  0.00     0.057 A 
ATOM     74  C   UNL A   1      43.549  31.412  37.195  1.00  0.00     0.134 A 
ATOM     75  C   UNL A   1      42.693  29.762  35.710  1.00  0.00     0.134 A 
ATOM     76  F   UNL A   1      43.634  32.660  37.677  1.00  0.00    -0.206 F 
ATOM     77  C   UNL A   1      44.438  30.469  37.722  1.00  0.00     0.040 A 
ATOM     78  C   UNL A   1      43.534  28.800  36.269  1.00  0.00     0.040 A 
ATOM     79  F   UNL A   1      41.992  29.337  34.651  1.00  0.00    -0.206 F 
ATOM     80  C   UNL A   1      44.433  29.158  37.259  1.00  0.00     0.006 A 
ENDBRANCH  59  73
BRANCH  60  81
ATOM     81  C   UNL A   1      40.045  28.454  28.494  1.00  0.00     0.057 A 
ATOM     82  C   UNL A   1      40.619  28.258  27.230  1.00  0.00     0.134 A 
ATOM     83  C   UNL A   1      39.500  27.312  29.108  1.00  0.00     0.134 A 
ATOM     84  F   UNL A   1      41.203  29.276  26.584  1.00  0.00    -0.206 F 
ATOM     85  C   UNL A   1      40.665  26.997  26.622  1.00  0.00     0.040 A 
ATOM     86  C   UNL A   1      39.528  26.050  28.507  1.00  0.00     0.040 A 
ATOM     87  F   UNL A   1      38.999  27.362  30.351  1.00  0.00    -0.206 F 
ATOM     88  C   UNL A   1      40.126  25.887  27.264  1.00  0.00     0.006 A 
ENDBRANCH  60  81
BRANCH  72  89
ATOM     89  C   UNL A   1      42.879  33.891  29.954  1.00  0.00     0.057 A 
ATOM     90  C   UNL A   1      41.664  34.511  29.626  1.00  0.00     0.134 A 
ATOM     91  C   UNL A   1      44.027  34.362  29.308  1.00  0.00     0.134 A 
ATOM     92  F   UNL A   1      40.531  34.201  30.269  1.00  0.00    -0.206 F 
ATOM     93  C   UNL A   1      41.590  35.519  28.661  1.00  0.00     0.040 A 
ATOM     94  C   UNL A   1      43.971  35.393  28.367  1.00  0.00     0.040 A 
ATOM     95  F   UNL A   1      45.232  33.857  29.616  1.00  0.00    -0.206 F 
ATOM     96  C   UNL A   1      42.747  35.968  28.031  1.00  0.00     0.006 A 
ENDBRANCH  72  89
ENDBRANCH  46  47
ENDBRANCH  39  41
ENDBRANCH  38  39
ENDBRANCH  37  38
ENDBRANCH  36  37
ENDBRANCH  35  36
ENDBRANCH  34  35
ENDBRANCH   1  34
TORSDOF 20
ENDMDL
MODEL 3
REMARK VINA RESULT:     -11.8      1.711      4.330
REMARK SMILES COc1ccc(-n2ncc([C@H]3CC(=O)Nc4n[nH]c(C(=O)OCCOCCOCCOC(=O)c5ccc(-c6c7nc(c(-c8c(F)cccc8F)c8ccc([nH]8)c(-c8c(F)cccc8F)c8nc(c(-c9c(F)cccc9F)c9ccc6[nH]9)C=C8)C=C7)cc5)c43)c2C)cc1
REMARK SMILES IDX 26 1 25 2 24 3 23 4 22 5 20 6 21 7 19 8 11 9 12 10 88 11
REMARK SMILES IDX 13 12 16 13 14 14 15 15 17 16 18 17 10 20 7 21 8 22 89 23
REMARK SMILES IDX 9 24 90 25 6 26 3 27 4 28 92 29 5 30 91 31 2 32 1 33 27 34
REMARK SMILES IDX 28 35 29 36 30 37 31 38 32 39 33 40 34 41 35 42 87 43 36 44
REMARK SMILES IDX 86 45 37 46 38 47 39 48 80 49 40 50 85 51 79 52 81 53 41 54
REMARK SMILES IDX 84 55 78 56 77 57 42 59 68 60 51 61 67 62 52 63 55 64 66 65
REMARK SMILES IDX 82 66 53 67 54 68 65 70 83 71 56 72 43 73 44 74 49 75 45 76
REMARK SMILES IDX 46 77 48 78 50 79 47 80 69 81 70 82 75 83 71 84 72 85 74 86
REMARK SMILES IDX 76 87 73 88 57 89 58 90 63 91 59 92 60 93 62 94 64 95 61 96
REMARK H PARENT 15 18 18 19 81 58 55 69
REMARK Flexibility Score: inf
ROOT
ATOM      1  C   UNL A   1      39.162  22.111  26.419  1.00  0.00     0.188 C 
ENDROOT
BRANCH   1   2
ATOM      2  O   UNL A   1      38.129  21.852  25.485  1.00  0.00    -0.376 OA
BRANCH   2   3
ATOM      3  C   UNL A   1      36.934  22.609  25.659  1.00  0.00     0.202 C 
BRANCH   3   4
ATOM      4  C   UNL A   1      36.289  23.197  24.390  1.00  0.00     0.261 C 
BRANCH   4   5
ATOM      5  O   UNL A   1      35.638  24.467  24.577  1.00  0.00    -0.459 OA
BRANCH   5   6
ATOM      6  C   UNL A   1      34.701  24.821  23.669  1.00  0.00     0.356 C 
ATOM      7  O   UNL A   1      34.741  24.532  22.484  1.00  0.00    -0.244 OA
BRANCH   6   8
ATOM      8  C   UNL A   1      33.564  25.438  24.310  1.00  0.00     0.149 A 
ATOM      9  C   UNL A   1      31.564  23.717  24.684  1.00  0.00     0.068 C 
ATOM     10  C   UNL A   1      30.248  23.722  25.491  1.00  0.00     0.114 C 
ATOM     11  C   UNL A   1      32.297  25.026  24.725  1.00  0.00     0.037 A 
ATOM     12  C   UNL A   1      29.913  24.955  26.320  1.00  0.00     0.226 C 
ATOM     13  C   UNL A   1      31.778  26.134  25.410  1.00  0.00     0.159 A 
ATOM     14  O   UNL A   1      28.968  24.944  27.112  1.00  0.00    -0.275 OA
ATOM     15  N   UNL A   1      30.638  26.093  26.149  1.00  0.00    -0.309 N 
ATOM     16  N   UNL A   1      32.556  27.205  25.341  1.00  0.00    -0.157 NA
ATOM     17  N   UNL A   1      33.636  26.757  24.685  1.00  0.00    -0.269 N 
ATOM     18  H   UNL A   1      30.324  26.922  26.578  1.00  0.00     0.171 HD
ATOM     19  H   UNL A   1      34.416  27.325  24.488  1.00  0.00     0.190 HD
BRANCH   9  20
ATOM     20  C   UNL A   1      32.485  22.605  25.091  1.00  0.00     0.002 A 
ATOM     21  N   UNL A   1      33.368  20.603  25.379  1.00  0.00    -0.238 N 
ATOM     22  N   UNL A   1      33.610  21.256  26.539  1.00  0.00    -0.176 NA
ATOM     23  C   UNL A   1      32.732  21.403  24.443  1.00  0.00     0.045 A 
ATOM     24  C   UNL A   1      33.150  22.487  26.329  1.00  0.00     0.140 A 
ATOM     25  C   UNL A   1      32.240  20.936  23.115  1.00  0.00     0.067 C 
BRANCH  21  26
ATOM     26  C   UNL A   1      33.501  19.203  25.312  1.00  0.00     0.065 A 
ATOM     27  C   UNL A   1      33.554  16.470  24.884  1.00  0.00     0.119 A 
ATOM     28  C   UNL A   1      34.598  17.267  24.410  1.00  0.00     0.048 A 
ATOM     29  C   UNL A   1      32.514  17.030  25.631  1.00  0.00     0.048 A 
ATOM     30  C   UNL A   1      34.565  18.645  24.603  1.00  0.00     0.032 A 
ATOM     31  C   UNL A   1      32.490  18.405  25.862  1.00  0.00     0.032 A 
BRANCH  27  32
ATOM     32  O   UNL A   1      33.636  15.132  24.617  1.00  0.00    -0.497 OA
ATOM     33  C   UNL A   1      32.833  14.354  25.504  1.00  0.00     0.278 C 
ENDBRANCH  27  32
ENDBRANCH  21  26
ENDBRANCH   9  20
ENDBRANCH   6   8
ENDBRANCH   5   6
ENDBRANCH   4   5
ENDBRANCH   3   4
ENDBRANCH   2   3
ENDBRANCH   1   2
BRANCH   1  34
ATOM     34  C   UNL A   1      40.534  21.503  26.057  1.00  0.00     0.188 C 
BRANCH  34  35
ATOM     35  O   UNL A   1      41.421  20.977  27.041  1.00  0.00    -0.376 OA
BRANCH  35  36
ATOM     36  C   UNL A   1      41.749  19.593  27.092  1.00  0.00     0.202 C 
BRANCH  36  37
ATOM     37  C   UNL A   1      42.850  19.023  26.204  1.00  0.00     0.261 C 
BRANCH  37  38
ATOM     38  O   UNL A   1      43.034  19.740  24.999  1.00  0.00    -0.460 OA
BRANCH  38  39
ATOM     39  C   UNL A   1      44.325  19.850  24.629  1.00  0.00     0.338 C 
ATOM     40  O   UNL A   1      45.095  18.952  24.338  1.00  0.00    -0.246 OA
BRANCH  39  41
ATOM     41  C   UNL A   1      44.711  21.261  24.687  1.00  0.00     0.060 A 
ATOM     42  C   UNL A   1      45.782  21.573  25.529  1.00  0.00     0.016 A 
ATOM     43  C   UNL A   1      43.838  22.235  24.186  1.00  0.00     0.016 A 
ATOM     44  C   UNL A   1      45.809  22.824  26.095  1.00  0.00     0.010 A 
ATOM     45  C   UNL A   1      43.854  23.478  24.765  1.00  0.00     0.010 A 
ATOM     46  C   UNL A   1      44.772  23.707  25.789  1.00  0.00    -0.014 A 
BRANCH  46  47
ATOM     47  C   UNL A   1      44.620  24.867  26.634  1.00  0.00     0.031 A 
ATOM     48  C   UNL A   1      45.741  25.819  26.572  1.00  0.00     0.074 A 
ATOM     49  C   UNL A   1      43.486  25.074  27.327  1.00  0.00     0.049 A 
ATOM     50  N   UNL A   1      46.552  26.156  27.516  1.00  0.00    -0.248 NA
ATOM     51  C   UNL A   1      46.072  26.375  25.251  1.00  0.00     0.031 C 
ATOM     52  C   UNL A   1      42.210  24.361  27.205  1.00  0.00     0.029 A 
ATOM     53  N   UNL A   1      43.207  26.060  28.218  1.00  0.00    -0.354 N 
ATOM     54  C   UNL A   1      47.379  27.123  26.956  1.00  0.00     0.074 A 
ATOM     55  C   UNL A   1      47.160  27.087  25.535  1.00  0.00     0.031 C 
ATOM     56  C   UNL A   1      41.245  25.079  27.823  1.00  0.00     0.029 A 
ATOM     57  C   UNL A   1      41.855  26.224  28.477  1.00  0.00     0.049 A 
ATOM     58  H   UNL A   1      43.904  26.610  28.644  1.00  0.00     0.167 HD
ATOM     59  C   UNL A   1      47.985  28.063  27.725  1.00  0.00     0.037 A 
ATOM     60  C   UNL A   1      41.291  27.284  29.103  1.00  0.00     0.037 A 
ATOM     61  C   UNL A   1      48.051  27.664  29.107  1.00  0.00     0.049 A 
ATOM     62  C   UNL A   1      42.364  28.004  29.835  1.00  0.00     0.074 A 
ATOM     63  C   UNL A   1      48.604  26.592  29.782  1.00  0.00     0.029 A 
ATOM     64  N   UNL A   1      47.182  28.253  29.991  1.00  0.00    -0.354 N 
ATOM     65  N   UNL A   1      42.973  27.544  30.892  1.00  0.00    -0.248 NA
ATOM     66  C   UNL A   1      43.059  29.077  29.138  1.00  0.00     0.031 C 
ATOM     67  C   UNL A   1      47.706  26.323  30.855  1.00  0.00     0.029 A 
ATOM     68  C   UNL A   1      46.675  27.261  30.789  1.00  0.00     0.049 A 
ATOM     69  H   UNL A   1      46.962  29.212  30.042  1.00  0.00     0.167 HD
ATOM     70  C   UNL A   1      44.290  27.962  30.755  1.00  0.00     0.074 A 
ATOM     71  C   UNL A   1      44.257  28.989  29.720  1.00  0.00     0.031 C 
ATOM     72  C   UNL A   1      45.319  27.237  31.286  1.00  0.00     0.037 A 
BRANCH  59  73
ATOM     73  C   UNL A   1      48.172  29.486  27.277  1.00  0.00     0.057 A 
ATOM     74  C   UNL A   1      49.443  30.075  27.368  1.00  0.00     0.134 A 
ATOM     75  C   UNL A   1      47.110  30.382  27.024  1.00  0.00     0.134 A 
ATOM     76  F   UNL A   1      50.526  29.331  27.637  1.00  0.00    -0.206 F 
ATOM     77  C   UNL A   1      49.635  31.457  27.266  1.00  0.00     0.040 A 
ATOM     78  C   UNL A   1      47.298  31.754  26.863  1.00  0.00     0.040 A 
ATOM     79  F   UNL A   1      45.828  29.995  27.022  1.00  0.00    -0.206 F 
ATOM     80  C   UNL A   1      48.561  32.301  27.014  1.00  0.00     0.006 A 
ENDBRANCH  59  73
BRANCH  60  81
ATOM     81  C   UNL A   1      39.960  27.885  28.861  1.00  0.00     0.057 A 
ATOM     82  C   UNL A   1      38.990  27.920  29.872  1.00  0.00     0.134 A 
ATOM     83  C   UNL A   1      39.695  28.669  27.724  1.00  0.00     0.134 A 
ATOM     84  F   UNL A   1      39.172  27.241  31.013  1.00  0.00    -0.206 F 
ATOM     85  C   UNL A   1      37.834  28.704  29.766  1.00  0.00     0.040 A 
ATOM     86  C   UNL A   1      38.540  29.446  27.600  1.00  0.00     0.040 A 
ATOM     87  F   UNL A   1      40.590  28.778  26.731  1.00  0.00    -0.206 F 
ATOM     88  C   UNL A   1      37.611  29.477  28.631  1.00  0.00     0.006 A 
ENDBRANCH  60  81
BRANCH  72  89
ATOM     89  C   UNL A   1      44.974  26.148  32.263  1.00  0.00     0.057 A 
ATOM     90  C   UNL A   1      44.765  26.365  33.632  1.00  0.00     0.134 A 
ATOM     91  C   UNL A   1      44.702  24.865  31.775  1.00  0.00     0.134 A 
ATOM     92  F   UNL A   1      44.897  27.586  34.169  1.00  0.00    -0.206 F 
ATOM     93  C   UNL A   1      44.352  25.339  34.487  1.00  0.00     0.040 A 
ATOM     94  C   UNL A   1      44.255  23.839  32.612  1.00  0.00     0.040 A 
ATOM     95  F   UNL A   1      44.822  24.599  30.465  1.00  0.00    -0.206 F 
ATOM     96  C   UNL A   1      44.091  24.071  33.976  1.00  0.00     0.006 A 
ENDBRANCH  72  89
ENDBRANCH  46  47
ENDBRANCH  39  41
ENDBRANCH  38  39
ENDBRANCH  37  38
ENDBRANCH  36  37
ENDBRANCH  35  36
ENDBRANCH  34  35
ENDBRANCH   1  34
TORSDOF 20
ENDMDL
