MODEL 1
REMARK VINA RESULT:     -12.2      0.000      0.000
REMARK SMILES Cc1ccc(NC(=O)c2cnn3c2NC2=C(C(=O)CCC2)[C@H]3c2ccc(C(=O)OCCOCCOCCOC(=O)c3ccc(-c4c5nc(c(-c6c(F)cccc6F)c6ccc([nH]6)c(-c6c(F)cccc6F)c6nc(c(-c7c(F)cccc7F)c7ccc4[nH]7)C=C6)C=C5)cc3)cc2)cc1
REMARK SMILES IDX 33 1 32 2 31 3 30 4 29 5 27 6 28 7 26 8 23 9 24 10 96 11
REMARK SMILES IDX 25 12 95 13 22 14 9 15 10 16 13 17 11 18 12 19 14 20 15 21
REMARK SMILES IDX 16 23 21 24 17 25 20 26 18 27 19 28 7 29 6 30 8 32 5 33 1 34
REMARK SMILES IDX 2 35 3 36 98 37 4 38 97 39 34 40 35 41 36 42 37 43 38 44
REMARK SMILES IDX 39 45 40 46 41 47 42 48 94 49 43 50 93 51 44 52 45 53 46 54
REMARK SMILES IDX 87 55 47 56 92 57 86 58 88 59 48 60 91 61 85 62 84 63 49 65
REMARK SMILES IDX 75 66 58 67 74 68 59 69 62 70 73 71 89 72 60 73 61 74 72 76
REMARK SMILES IDX 90 77 63 78 50 79 51 80 56 81 52 82 53 83 55 84 57 85 54 86
REMARK SMILES IDX 76 87 77 88 82 89 78 90 79 91 81 92 83 93 80 94 64 95 65 96
REMARK SMILES IDX 70 97 66 98 67 99 69 100 71 101 68 102
REMARK H PARENT 14 22 6 31 88 64 62 75
REMARK Flexibility Score: inf
ROOT
ATOM      1  C   UNL A   1      43.058  22.701  26.010  1.00  0.00     0.188 C 
ENDROOT
BRANCH   1   2
ATOM      2  O   UNL A   1      42.091  21.850  25.375  1.00  0.00    -0.376 OA
BRANCH   2   3
ATOM      3  C   UNL A   1      41.429  20.942  26.274  1.00  0.00     0.202 C 
BRANCH   3   4
ATOM      4  C   UNL A   1      40.134  20.180  25.760  1.00  0.00     0.261 C 
BRANCH   4   5
ATOM      5  O   UNL A   1      38.650  20.701  25.711  1.00  0.00    -0.460 OA
BRANCH   5   6
ATOM      6  C   UNL A   1      38.491  22.039  25.989  1.00  0.00     0.338 C 
ATOM      7  O   UNL A   1      38.997  22.282  27.075  1.00  0.00    -0.246 OA
BRANCH   6   8
ATOM      8  C   UNL A   1      37.514  23.285  25.272  1.00  0.00     0.060 A 
ATOM      9  C   UNL A   1      34.917  24.435  24.072  1.00  0.00    -0.019 A 
ATOM     10  C   UNL A   1      35.653  23.483  23.443  1.00  0.00     0.007 A 
ATOM     11  C   UNL A   1      35.423  24.710  25.377  1.00  0.00     0.007 A 
ATOM     12  C   UNL A   1      36.884  23.048  23.999  1.00  0.00     0.016 A 
ATOM     13  C   UNL A   1      36.685  24.157  25.969  1.00  0.00     0.016 A 
BRANCH   9  14
ATOM     14  C   UNL A   1      33.844  25.265  23.233  1.00  0.00     0.175 C 
ATOM     15  C   UNL A   1      31.345  23.848  25.177  1.00  0.00     0.102 A 
ATOM     16  C   UNL A   1      30.955  23.458  23.857  1.00  0.00     0.151 A 
ATOM     17  C   UNL A   1      32.120  24.969  24.960  1.00  0.00     0.142 A 
ATOM     18  N   UNL A   1      31.738  23.991  22.916  1.00  0.00    -0.178 NA
ATOM     19  N   UNL A   1      32.560  24.732  23.664  1.00  0.00    -0.237 N 
ATOM     20  N   UNL A   1      32.658  26.051  25.624  1.00  0.00    -0.343 N 
ATOM     21  C   UNL A   1      33.313  27.063  24.884  1.00  0.00     0.026 C 
ATOM     22  H   UNL A   1      32.587  26.119  26.604  1.00  0.00     0.168 HD
ATOM     23  C   UNL A   1      33.647  26.764  23.600  1.00  0.00     0.044 C 
ATOM     24  C   UNL A   1      33.262  28.521  25.286  1.00  0.00     0.055 C 
ATOM     25  C   UNL A   1      32.680  27.560  22.724  1.00  0.00     0.163 C 
ATOM     26  C   UNL A   1      32.144  29.246  24.539  1.00  0.00     0.014 C 
ATOM     27  O   UNL A   1      32.699  27.430  21.503  1.00  0.00    -0.294 OA
ATOM     28  C   UNL A   1      31.564  28.364  23.436  1.00  0.00     0.081 C 
BRANCH  15  29
ATOM     29  C   UNL A   1      31.016  23.193  26.415  1.00  0.00     0.261 C 
ATOM     30  N   UNL A   1      31.563  21.942  26.677  1.00  0.00    -0.322 N 
ATOM     31  H   UNL A   1      31.086  21.442  27.379  1.00  0.00     0.170 HD
ATOM     32  O   UNL A   1      30.241  23.698  27.229  1.00  0.00    -0.269 OA
BRANCH  30  33
ATOM     33  C   UNL A   1      32.673  21.240  26.133  1.00  0.00     0.041 A 
ATOM     34  C   UNL A   1      36.144  19.135  24.567  1.00  0.00     0.044 C 
ATOM     35  C   UNL A   1      34.965  19.887  25.106  1.00  0.00    -0.051 A 
ATOM     36  C   UNL A   1      33.692  19.576  24.649  1.00  0.00     0.005 A 
ATOM     37  C   UNL A   1      35.088  20.889  26.072  1.00  0.00     0.005 A 
ATOM     38  C   UNL A   1      32.579  20.269  25.143  1.00  0.00     0.026 A 
ATOM     39  C   UNL A   1      33.955  21.562  26.574  1.00  0.00     0.026 A 
ENDBRANCH  30  33
ENDBRANCH  15  29
ENDBRANCH   9  14
ENDBRANCH   6   8
ENDBRANCH   5   6
ENDBRANCH   4   5
ENDBRANCH   3   4
ENDBRANCH   2   3
ENDBRANCH   1   2
BRANCH   1  40
ATOM     40  C   UNL A   1      44.113  23.220  25.035  1.00  0.00     0.188 C 
BRANCH  40  41
ATOM     41  O   UNL A   1      44.203  24.637  25.065  1.00  0.00    -0.376 OA
BRANCH  41  42
ATOM     42  C   UNL A   1      43.844  25.279  26.273  1.00  0.00     0.202 C 
BRANCH  42  43
ATOM     43  C   UNL A   1      42.914  26.496  26.116  1.00  0.00     0.261 C 
BRANCH  43  44
ATOM     44  O   UNL A   1      42.022  26.615  27.250  1.00  0.00    -0.460 OA
BRANCH  44  45
ATOM     45  C   UNL A   1      40.759  26.092  27.170  1.00  0.00     0.338 C 
ATOM     46  O   UNL A   1      40.448  25.078  26.531  1.00  0.00    -0.246 OA
BRANCH  45  47
ATOM     47  C   UNL A   1      39.761  27.087  27.693  1.00  0.00     0.060 A 
ATOM     48  C   UNL A   1      39.664  28.416  27.262  1.00  0.00     0.016 A 
ATOM     49  C   UNL A   1      39.301  26.868  28.941  1.00  0.00     0.016 A 
ATOM     50  C   UNL A   1      39.502  29.526  28.199  1.00  0.00     0.010 A 
ATOM     51  C   UNL A   1      39.318  27.985  29.795  1.00  0.00     0.010 A 
ATOM     52  C   UNL A   1      39.522  29.378  29.585  1.00  0.00    -0.014 A 
BRANCH  52  53
ATOM     53  C   UNL A   1      40.035  30.608  30.663  1.00  0.00     0.031 A 
ATOM     54  C   UNL A   1      41.120  30.742  31.954  1.00  0.00     0.074 A 
ATOM     55  C   UNL A   1      39.555  31.846  30.434  1.00  0.00     0.049 A 
ATOM     56  N   UNL A   1      40.901  30.845  33.261  1.00  0.00    -0.248 NA
ATOM     57  C   UNL A   1      42.580  30.612  31.839  1.00  0.00     0.031 C 
ATOM     58  C   UNL A   1      40.048  33.095  31.006  1.00  0.00     0.029 A 
ATOM     59  N   UNL A   1      38.424  32.216  29.718  1.00  0.00    -0.354 N 
ATOM     60  C   UNL A   1      42.200  30.830  33.899  1.00  0.00     0.074 A 
ATOM     61  C   UNL A   1      43.049  30.155  32.993  1.00  0.00     0.031 C 
ATOM     62  C   UNL A   1      39.101  34.034  30.863  1.00  0.00     0.029 A 
ATOM     63  C   UNL A   1      37.927  33.378  30.323  1.00  0.00     0.049 A 
ATOM     64  H   UNL A   1      38.044  31.752  28.936  1.00  0.00     0.167 HD
ATOM     65  C   UNL A   1      42.772  31.834  34.662  1.00  0.00     0.037 A 
ATOM     66  C   UNL A   1      36.683  33.377  30.883  1.00  0.00     0.037 A 
ATOM     67  C   UNL A   1      41.902  32.973  34.627  1.00  0.00     0.049 A 
ATOM     68  C   UNL A   1      36.717  33.644  32.368  1.00  0.00     0.074 A 
ATOM     69  C   UNL A   1      41.946  34.192  33.975  1.00  0.00     0.029 A 
ATOM     70  N   UNL A   1      40.640  32.809  35.120  1.00  0.00    -0.354 N 
ATOM     71  N   UNL A   1      37.809  33.570  33.081  1.00  0.00    -0.248 NA
ATOM     72  C   UNL A   1      35.573  34.056  33.177  1.00  0.00     0.031 C 
ATOM     73  C   UNL A   1      40.655  34.768  34.085  1.00  0.00     0.029 A 
ATOM     74  C   UNL A   1      39.867  33.892  34.810  1.00  0.00     0.049 A 
ATOM     75  H   UNL A   1      40.331  32.025  35.628  1.00  0.00     0.167 HD
ATOM     76  C   UNL A   1      37.546  33.907  34.382  1.00  0.00     0.074 A 
ATOM     77  C   UNL A   1      36.132  34.201  34.393  1.00  0.00     0.031 C 
ATOM     78  C   UNL A   1      38.524  33.902  35.330  1.00  0.00     0.037 A 
BRANCH  65  79
ATOM     79  C   UNL A   1      44.272  31.996  35.087  1.00  0.00     0.057 A 
ATOM     80  C   UNL A   1      44.775  31.320  36.227  1.00  0.00     0.134 A 
ATOM     81  C   UNL A   1      45.267  32.760  34.433  1.00  0.00     0.134 A 
ATOM     82  F   UNL A   1      44.040  30.413  36.883  1.00  0.00    -0.206 F 
ATOM     83  C   UNL A   1      46.075  31.498  36.742  1.00  0.00     0.040 A 
ATOM     84  C   UNL A   1      46.556  32.990  34.966  1.00  0.00     0.040 A 
ATOM     85  F   UNL A   1      45.069  33.281  33.215  1.00  0.00    -0.206 F 
ATOM     86  C   UNL A   1      46.963  32.367  36.134  1.00  0.00     0.006 A 
ENDBRANCH  65  79
BRANCH  66  87
ATOM     87  C   UNL A   1      35.722  32.569  30.074  1.00  0.00     0.057 A 
ATOM     88  C   UNL A   1      35.140  33.239  28.974  1.00  0.00     0.134 A 
ATOM     89  C   UNL A   1      35.748  31.172  30.010  1.00  0.00     0.134 A 
ATOM     90  F   UNL A   1      35.077  34.581  28.968  1.00  0.00    -0.206 F 
ATOM     91  C   UNL A   1      34.782  32.578  27.797  1.00  0.00     0.040 A 
ATOM     92  C   UNL A   1      35.327  30.490  28.850  1.00  0.00     0.040 A 
ATOM     93  F   UNL A   1      36.347  30.454  30.969  1.00  0.00    -0.206 F 
ATOM     94  C   UNL A   1      34.903  31.198  27.723  1.00  0.00     0.006 A 
ENDBRANCH  66  87
BRANCH  78  95
ATOM     95  C   UNL A   1      38.367  33.822  36.833  1.00  0.00     0.057 A 
ATOM     96  C   UNL A   1      37.952  32.668  37.503  1.00  0.00     0.134 A 
ATOM     97  C   UNL A   1      38.894  34.844  37.671  1.00  0.00     0.134 A 
ATOM     98  F   UNL A   1      37.522  31.588  36.839  1.00  0.00    -0.206 F 
ATOM     99  C   UNL A   1      38.031  32.543  38.896  1.00  0.00     0.040 A 
ATOM    100  C   UNL A   1      39.048  34.697  39.051  1.00  0.00     0.040 A 
ATOM    101  F   UNL A   1      39.338  36.010  37.177  1.00  0.00    -0.206 F 
ATOM    102  C   UNL A   1      38.601  33.545  39.672  1.00  0.00     0.006 A 
ENDBRANCH  78  95
ENDBRANCH  52  53
ENDBRANCH  45  47
ENDBRANCH  44  45
ENDBRANCH  43  44
ENDBRANCH  42  43
ENDBRANCH  41  42
ENDBRANCH  40  41
ENDBRANCH   1  40
TORSDOF 20
ENDMDL
MODEL 2
REMARK VINA RESULT:     -12.0      1.570      2.315
REMARK SMILES Cc1ccc(NC(=O)c2cnn3c2NC2=C(C(=O)CCC2)[C@H]3c2ccc(C(=O)OCCOCCOCCOC(=O)c3ccc(-c4c5nc(c(-c6c(F)cccc6F)c6ccc([nH]6)c(-c6c(F)cccc6F)c6nc(c(-c7c(F)cccc7F)c7ccc4[nH]7)C=C6)C=C5)cc3)cc2)cc1
REMARK SMILES IDX 33 1 32 2 31 3 30 4 29 5 27 6 28 7 26 8 23 9 24 10 96 11
REMARK SMILES IDX 25 12 95 13 22 14 9 15 10 16 13 17 11 18 12 19 14 20 15 21
REMARK SMILES IDX 16 23 21 24 17 25 20 26 18 27 19 28 7 29 6 30 8 32 5 33 1 34
REMARK SMILES IDX 2 35 3 36 98 37 4 38 97 39 34 40 35 41 36 42 37 43 38 44
REMARK SMILES IDX 39 45 40 46 41 47 42 48 94 49 43 50 93 51 44 52 45 53 46 54
REMARK SMILES IDX 87 55 47 56 92 57 86 58 88 59 48 60 91 61 85 62 84 63 49 65
REMARK SMILES IDX 75 66 58 67 74 68 59 69 62 70 73 71 89 72 60 73 61 74 72 76
REMARK SMILES IDX 90 77 63 78 50 79 51 80 56 81 52 82 53 83 55 84 57 85 54 86
REMARK SMILES IDX 76 87 77 88 82 89 78 90 79 91 81 92 83 93 80 94 64 95 65 96
REMARK SMILES IDX 70 97 66 98 67 99 69 100 71 101 68 102
REMARK H PARENT 14 22 6 31 88 64 62 75
REMARK Flexibility Score: inf
ROOT
ATOM      1  C   UNL A   1      42.763  21.601  26.418  1.00  0.00     0.188 C 
ENDROOT
BRANCH   1   2
ATOM      2  O   UNL A   1      41.823  20.840  25.642  1.00  0.00    -0.376 OA
BRANCH   2   3
ATOM      3  C   UNL A   1      40.896  20.074  26.433  1.00  0.00     0.202 C 
BRANCH   3   4
ATOM      4  C   UNL A   1      39.604  19.485  25.723  1.00  0.00     0.261 C 
BRANCH   4   5
ATOM      5  O   UNL A   1      38.258  20.224  25.376  1.00  0.00    -0.460 OA
BRANCH   5   6
ATOM      6  C   UNL A   1      38.253  21.576  25.626  1.00  0.00     0.338 C 
ATOM      7  O   UNL A   1      38.861  21.791  26.665  1.00  0.00    -0.246 OA
BRANCH   6   8
ATOM      8  C   UNL A   1      37.352  22.898  24.947  1.00  0.00     0.060 A 
ATOM      9  C   UNL A   1      34.816  24.250  23.830  1.00  0.00    -0.019 A 
ATOM     10  C   UNL A   1      35.461  23.252  23.173  1.00  0.00     0.007 A 
ATOM     11  C   UNL A   1      35.378  24.475  25.122  1.00  0.00     0.007 A 
ATOM     12  C   UNL A   1      36.670  22.721  23.690  1.00  0.00     0.016 A 
ATOM     13  C   UNL A   1      36.611  23.824  25.673  1.00  0.00     0.016 A 
BRANCH   9  14
ATOM     14  C   UNL A   1      33.786  25.166  23.027  1.00  0.00     0.175 C 
ATOM     15  C   UNL A   1      31.275  24.064  25.153  1.00  0.00     0.102 A 
ATOM     16  C   UNL A   1      30.770  23.683  23.870  1.00  0.00     0.151 A 
ATOM     17  C   UNL A   1      32.146  25.093  24.858  1.00  0.00     0.142 A 
ATOM     18  N   UNL A   1      31.545  24.109  22.870  1.00  0.00    -0.178 NA
ATOM     19  N   UNL A   1      32.482  24.780  23.547  1.00  0.00    -0.237 N 
ATOM     20  N   UNL A   1      32.830  26.130  25.457  1.00  0.00    -0.343 N 
ATOM     21  C   UNL A   1      33.540  27.050  24.650  1.00  0.00     0.026 C 
ATOM     22  H   UNL A   1      32.825  26.229  26.437  1.00  0.00     0.168 HD
ATOM     23  C   UNL A   1      33.764  26.686  23.359  1.00  0.00     0.044 C 
ATOM     24  C   UNL A   1      33.662  28.514  25.009  1.00  0.00     0.055 C 
ATOM     25  C   UNL A   1      32.833  27.555  22.515  1.00  0.00     0.163 C 
ATOM     26  C   UNL A   1      32.581  29.332  24.304  1.00  0.00     0.014 C 
ATOM     27  O   UNL A   1      32.766  27.394  21.299  1.00  0.00    -0.294 OA
ATOM     28  C   UNL A   1      31.849  28.489  23.264  1.00  0.00     0.081 C 
BRANCH  15  29
ATOM     29  C   UNL A   1      30.955  23.477  26.427  1.00  0.00     0.261 C 
ATOM     30  N   UNL A   1      31.428  22.202  26.715  1.00  0.00    -0.322 N 
ATOM     31  H   UNL A   1      30.949  21.761  27.454  1.00  0.00     0.170 HD
ATOM     32  O   UNL A   1      30.251  24.063  27.251  1.00  0.00    -0.269 OA
BRANCH  30  33
ATOM     33  C   UNL A   1      32.465  21.407  26.155  1.00  0.00     0.041 A 
ATOM     34  C   UNL A   1      35.561  18.950  24.336  1.00  0.00     0.044 C 
ATOM     35  C   UNL A   1      34.475  19.772  24.960  1.00  0.00    -0.051 A 
ATOM     36  C   UNL A   1      34.785  20.629  26.007  1.00  0.00     0.005 A 
ATOM     37  C   UNL A   1      33.149  19.727  24.521  1.00  0.00     0.005 A 
ATOM     38  C   UNL A   1      33.781  21.405  26.601  1.00  0.00     0.026 A 
ATOM     39  C   UNL A   1      32.155  20.530  25.116  1.00  0.00     0.026 A 
ENDBRANCH  30  33
ENDBRANCH  15  29
ENDBRANCH   9  14
ENDBRANCH   6   8
ENDBRANCH   5   6
ENDBRANCH   4   5
ENDBRANCH   3   4
ENDBRANCH   2   3
ENDBRANCH   1   2
BRANCH   1  40
ATOM     40  C   UNL A   1      43.969  22.054  25.597  1.00  0.00     0.188 C 
BRANCH  40  41
ATOM     41  O   UNL A   1      44.107  23.467  25.605  1.00  0.00    -0.376 OA
BRANCH  41  42
ATOM     42  C   UNL A   1      43.525  24.165  26.688  1.00  0.00     0.202 C 
BRANCH  42  43
ATOM     43  C   UNL A   1      42.773  25.453  26.309  1.00  0.00     0.261 C 
BRANCH  43  44
ATOM     44  O   UNL A   1      41.772  25.778  27.303  1.00  0.00    -0.460 OA
BRANCH  44  45
ATOM     45  C   UNL A   1      40.446  25.630  26.997  1.00  0.00     0.338 C 
ATOM     46  O   UNL A   1      39.999  24.895  26.107  1.00  0.00    -0.246 OA
BRANCH  45  47
ATOM     47  C   UNL A   1      39.644  26.712  27.666  1.00  0.00     0.060 A 
ATOM     48  C   UNL A   1      39.917  28.082  27.562  1.00  0.00     0.016 A 
ATOM     49  C   UNL A   1      38.980  26.355  28.784  1.00  0.00     0.016 A 
ATOM     50  C   UNL A   1      39.890  28.968  28.724  1.00  0.00     0.010 A 
ATOM     51  C   UNL A   1      39.139  27.220  29.881  1.00  0.00     0.010 A 
ATOM     52  C   UNL A   1      39.687  28.526  30.030  1.00  0.00    -0.014 A 
BRANCH  52  53
ATOM     53  C   UNL A   1      40.319  29.321  31.410  1.00  0.00     0.031 A 
ATOM     54  C   UNL A   1      41.024  28.867  32.880  1.00  0.00     0.074 A 
ATOM     55  C   UNL A   1      40.384  30.666  31.352  1.00  0.00     0.049 A 
ATOM     56  N   UNL A   1      40.539  28.896  34.117  1.00  0.00    -0.248 NA
ATOM     57  C   UNL A   1      42.322  28.190  33.013  1.00  0.00     0.031 C 
ATOM     58  C   UNL A   1      41.131  31.546  32.246  1.00  0.00     0.029 A 
ATOM     59  N   UNL A   1      39.674  31.530  30.528  1.00  0.00    -0.354 N 
ATOM     60  C   UNL A   1      41.546  28.298  34.969  1.00  0.00     0.074 A 
ATOM     61  C   UNL A   1      42.296  27.454  34.117  1.00  0.00     0.031 C 
ATOM     62  C   UNL A   1      40.647  32.790  32.122  1.00  0.00     0.029 A 
ATOM     63  C   UNL A   1      39.489  32.716  31.254  1.00  0.00     0.049 A 
ATOM     64  H   UNL A   1      39.361  31.346  29.613  1.00  0.00     0.167 HD
ATOM     65  C   UNL A   1      42.229  28.901  36.011  1.00  0.00     0.037 A 
ATOM     66  C   UNL A   1      38.229  33.137  31.562  1.00  0.00     0.037 A 
ATOM     67  C   UNL A   1      41.860  30.286  36.046  1.00  0.00     0.049 A 
ATOM     68  C   UNL A   1      37.987  33.195  33.050  1.00  0.00     0.074 A 
ATOM     69  C   UNL A   1      42.494  31.457  35.673  1.00  0.00     0.029 A 
ATOM     70  N   UNL A   1      40.542  30.574  36.254  1.00  0.00    -0.354 N 
ATOM     71  N   UNL A   1      38.768  32.616  33.923  1.00  0.00    -0.248 NA
ATOM     72  C   UNL A   1      36.902  33.926  33.700  1.00  0.00     0.031 C 
ATOM     73  C   UNL A   1      41.509  32.476  35.657  1.00  0.00     0.029 A 
ATOM     74  C   UNL A   1      40.308  31.902  36.032  1.00  0.00     0.049 A 
ATOM     75  H   UNL A   1      39.859  29.921  36.526  1.00  0.00     0.167 HD
ATOM     76  C   UNL A   1      38.328  32.876  35.193  1.00  0.00     0.074 A 
ATOM     77  C   UNL A   1      37.155  33.697  35.002  1.00  0.00     0.031 C 
ATOM     78  C   UNL A   1      38.972  32.377  36.285  1.00  0.00     0.037 A 
BRANCH  65  79
ATOM     79  C   UNL A   1      43.533  28.411  36.730  1.00  0.00     0.057 A 
ATOM     80  C   UNL A   1      43.520  27.239  37.527  1.00  0.00     0.134 A 
ATOM     81  C   UNL A   1      44.815  29.007  36.673  1.00  0.00     0.134 A 
ATOM     82  F   UNL A   1      42.449  26.436  37.571  1.00  0.00    -0.206 F 
ATOM     83  C   UNL A   1      44.614  26.793  38.295  1.00  0.00     0.040 A 
ATOM     84  C   UNL A   1      45.905  28.602  37.478  1.00  0.00     0.040 A 
ATOM     85  F   UNL A   1      45.104  29.977  35.794  1.00  0.00    -0.206 F 
ATOM     86  C   UNL A   1      45.804  27.497  38.306  1.00  0.00     0.006 A 
ENDBRANCH  65  79
BRANCH  66  87
ATOM     87  C   UNL A   1      37.276  32.871  30.443  1.00  0.00     0.057 A 
ATOM     88  C   UNL A   1      36.220  31.981  30.742  1.00  0.00     0.134 A 
ATOM     89  C   UNL A   1      37.063  33.758  29.381  1.00  0.00     0.134 A 
ATOM     90  F   UNL A   1      36.355  31.099  31.746  1.00  0.00    -0.206 F 
ATOM     91  C   UNL A   1      34.957  32.092  30.155  1.00  0.00     0.040 A 
ATOM     92  C   UNL A   1      35.811  33.832  28.738  1.00  0.00     0.040 A 
ATOM     93  F   UNL A   1      37.976  34.688  29.073  1.00  0.00    -0.206 F 
ATOM     94  C   UNL A   1      34.742  33.042  29.167  1.00  0.00     0.006 A 
ENDBRANCH  66  87
BRANCH  78  95
ATOM     95  C   UNL A   1      38.429  32.191  37.686  1.00  0.00     0.057 A 
ATOM     96  C   UNL A   1      38.501  33.175  38.675  1.00  0.00     0.134 A 
ATOM     97  C   UNL A   1      37.574  31.097  37.991  1.00  0.00     0.134 A 
ATOM     98  F   UNL A   1      39.191  34.307  38.490  1.00  0.00    -0.206 F 
ATOM     99  C   UNL A   1      37.799  33.074  39.884  1.00  0.00     0.040 A 
ATOM    100  C   UNL A   1      36.810  31.025  39.158  1.00  0.00     0.040 A 
ATOM    101  F   UNL A   1      37.396  30.074  37.140  1.00  0.00    -0.206 F 
ATOM    102  C   UNL A   1      36.933  32.012  40.119  1.00  0.00     0.006 A 
ENDBRANCH  78  95
ENDBRANCH  52  53
ENDBRANCH  45  47
ENDBRANCH  44  45
ENDBRANCH  43  44
ENDBRANCH  42  43
ENDBRANCH  41  42
ENDBRANCH  40  41
ENDBRANCH   1  40
TORSDOF 20
ENDMDL
MODEL 3
REMARK VINA RESULT:     -11.9      5.236     10.750
REMARK SMILES Cc1ccc(NC(=O)c2cnn3c2NC2=C(C(=O)CCC2)[C@H]3c2ccc(C(=O)OCCOCCOCCOC(=O)c3ccc(-c4c5nc(c(-c6c(F)cccc6F)c6ccc([nH]6)c(-c6c(F)cccc6F)c6nc(c(-c7c(F)cccc7F)c7ccc4[nH]7)C=C6)C=C5)cc3)cc2)cc1
REMARK SMILES IDX 33 1 32 2 31 3 30 4 29 5 27 6 28 7 26 8 23 9 24 10 96 11
REMARK SMILES IDX 25 12 95 13 22 14 9 15 10 16 13 17 11 18 12 19 14 20 15 21
REMARK SMILES IDX 16 23 21 24 17 25 20 26 18 27 19 28 7 29 6 30 8 32 5 33 1 34
REMARK SMILES IDX 2 35 3 36 98 37 4 38 97 39 34 40 35 41 36 42 37 43 38 44
REMARK SMILES IDX 39 45 40 46 41 47 42 48 94 49 43 50 93 51 44 52 45 53 46 54
REMARK SMILES IDX 87 55 47 56 92 57 86 58 88 59 48 60 91 61 85 62 84 63 49 65
REMARK SMILES IDX 75 66 58 67 74 68 59 69 62 70 73 71 89 72 60 73 61 74 72 76
REMARK SMILES IDX 90 77 63 78 50 79 51 80 56 81 52 82 53 83 55 84 57 85 54 86
REMARK SMILES IDX 76 87 77 88 82 89 78 90 79 91 81 92 83 93 80 94 64 95 65 96
REMARK SMILES IDX 70 97 66 98 67 99 69 100 71 101 68 102
REMARK H PARENT 14 22 6 31 88 64 62 75
REMARK Flexibility Score: inf
ROOT
ATOM      1  C   UNL A   1      34.799  32.647  30.726  1.00  0.00     0.188 C 
ENDROOT
BRANCH   1   2
ATOM      2  O   UNL A   1      35.284  33.880  30.174  1.00  0.00    -0.376 OA
BRANCH   2   3
ATOM      3  C   UNL A   1      34.598  34.298  28.980  1.00  0.00     0.202 C 
BRANCH   3   4
ATOM      4  C   UNL A   1      33.708  33.233  28.209  1.00  0.00     0.261 C 
BRANCH   4   5
ATOM      5  O   UNL A   1      34.181  32.052  27.282  1.00  0.00    -0.460 OA
BRANCH   5   6
ATOM      6  C   UNL A   1      33.221  31.108  27.003  1.00  0.00     0.338 C 
ATOM      7  O   UNL A   1      32.161  31.674  26.775  1.00  0.00    -0.246 OA
BRANCH   6   8
ATOM      8  C   UNL A   1      33.172  29.382  27.199  1.00  0.00     0.060 A 
ATOM      9  C   UNL A   1      32.281  26.525  26.458  1.00  0.00    -0.019 A 
ATOM     10  C   UNL A   1      31.424  27.448  26.965  1.00  0.00     0.007 A 
ATOM     11  C   UNL A   1      33.566  27.089  26.198  1.00  0.00     0.007 A 
ATOM     12  C   UNL A   1      31.903  28.722  27.367  1.00  0.00     0.016 A 
ATOM     13  C   UNL A   1      34.008  28.476  26.556  1.00  0.00     0.016 A 
BRANCH   9  14
ATOM     14  C   UNL A   1      31.866  24.985  26.488  1.00  0.00     0.175 C 
ATOM     15  C   UNL A   1      32.047  24.952  23.024  1.00  0.00     0.102 A 
ATOM     16  C   UNL A   1      30.697  24.540  23.257  1.00  0.00     0.151 A 
ATOM     17  C   UNL A   1      32.688  24.619  24.199  1.00  0.00     0.142 A 
ATOM     18  N   UNL A   1      30.430  24.381  24.556  1.00  0.00    -0.178 NA
ATOM     19  N   UNL A   1      31.623  24.651  25.092  1.00  0.00    -0.237 N 
ATOM     20  N   UNL A   1      33.950  24.442  24.725  1.00  0.00    -0.343 N 
ATOM     21  C   UNL A   1      34.089  23.937  26.040  1.00  0.00     0.026 C 
ATOM     22  H   UNL A   1      34.747  24.665  24.191  1.00  0.00     0.168 HD
ATOM     23  C   UNL A   1      32.976  23.946  26.820  1.00  0.00     0.044 C 
ATOM     24  C   UNL A   1      35.234  23.034  26.442  1.00  0.00     0.055 C 
ATOM     25  C   UNL A   1      32.534  22.487  26.931  1.00  0.00     0.163 C 
ATOM     26  C   UNL A   1      34.822  21.567  26.343  1.00  0.00     0.014 C 
ATOM     27  O   UNL A   1      31.500  22.195  27.525  1.00  0.00    -0.294 OA
ATOM     28  C   UNL A   1      33.319  21.437  26.106  1.00  0.00     0.081 C 
BRANCH  15  29
ATOM     29  C   UNL A   1      32.576  25.585  21.845  1.00  0.00     0.261 C 
ATOM     30  N   UNL A   1      32.133  26.861  21.514  1.00  0.00    -0.322 N 
ATOM     31  H   UNL A   1      32.307  27.108  20.576  1.00  0.00     0.170 HD
ATOM     32  O   UNL A   1      33.385  25.015  21.110  1.00  0.00    -0.269 OA
BRANCH  30  33
ATOM     33  C   UNL A   1      31.477  27.879  22.258  1.00  0.00     0.041 A 
ATOM     34  C   UNL A   1      29.586  31.050  24.562  1.00  0.00     0.044 C 
ATOM     35  C   UNL A   1      30.255  29.950  23.793  1.00  0.00    -0.051 A 
ATOM     36  C   UNL A   1      29.500  29.157  22.941  1.00  0.00     0.005 A 
ATOM     37  C   UNL A   1      31.626  29.695  23.883  1.00  0.00     0.005 A 
ATOM     38  C   UNL A   1      30.110  28.126  22.216  1.00  0.00     0.026 A 
ATOM     39  C   UNL A   1      32.228  28.666  23.129  1.00  0.00     0.026 A 
ENDBRANCH  30  33
ENDBRANCH  15  29
ENDBRANCH   9  14
ENDBRANCH   6   8
ENDBRANCH   5   6
ENDBRANCH   4   5
ENDBRANCH   3   4
ENDBRANCH   2   3
ENDBRANCH   1   2
BRANCH   1  40
ATOM     40  C   UNL A   1      35.859  31.546  30.724  1.00  0.00     0.188 C 
BRANCH  40  41
ATOM     41  O   UNL A   1      35.867  30.829  29.500  1.00  0.00    -0.376 OA
BRANCH  41  42
ATOM     42  C   UNL A   1      36.558  29.594  29.481  1.00  0.00     0.202 C 
BRANCH  42  43
ATOM     43  C   UNL A   1      37.526  29.367  30.656  1.00  0.00     0.261 C 
BRANCH  43  44
ATOM     44  O   UNL A   1      38.596  28.468  30.277  1.00  0.00    -0.460 OA
BRANCH  44  45
ATOM     45  C   UNL A   1      38.781  28.162  28.955  1.00  0.00     0.338 C 
ATOM     46  O   UNL A   1      38.402  27.119  28.407  1.00  0.00    -0.246 OA
BRANCH  45  47
ATOM     47  C   UNL A   1      39.778  29.109  28.348  1.00  0.00     0.060 A 
ATOM     48  C   UNL A   1      40.430  28.900  27.125  1.00  0.00     0.016 A 
ATOM     49  C   UNL A   1      40.443  29.905  29.208  1.00  0.00     0.016 A 
ATOM     50  C   UNL A   1      41.862  29.142  26.958  1.00  0.00     0.010 A 
ATOM     51  C   UNL A   1      41.837  29.953  29.032  1.00  0.00     0.010 A 
ATOM     52  C   UNL A   1      42.712  29.505  28.001  1.00  0.00    -0.014 A 
BRANCH  52  53
ATOM     53  C   UNL A   1      44.381  29.121  28.041  1.00  0.00     0.031 A 
ATOM     54  C   UNL A   1      45.843  29.956  27.870  1.00  0.00     0.074 A 
ATOM     55  C   UNL A   1      44.699  27.855  28.374  1.00  0.00     0.049 A 
ATOM     56  N   UNL A   1      46.722  29.966  26.873  1.00  0.00    -0.248 NA
ATOM     57  C   UNL A   1      46.335  30.984  28.800  1.00  0.00     0.031 C 
ATOM     58  C   UNL A   1      46.016  27.355  28.759  1.00  0.00     0.029 A 
ATOM     59  N   UNL A   1      43.902  26.719  28.313  1.00  0.00    -0.354 N 
ATOM     60  C   UNL A   1      47.737  30.936  27.227  1.00  0.00     0.074 A 
ATOM     61  C   UNL A   1      47.098  31.829  28.119  1.00  0.00     0.031 C 
ATOM     62  C   UNL A   1      46.019  26.020  28.631  1.00  0.00     0.029 A 
ATOM     63  C   UNL A   1      44.756  25.644  28.031  1.00  0.00     0.049 A 
ATOM     64  H   UNL A   1      42.926  26.677  28.441  1.00  0.00     0.167 HD
ATOM     65  C   UNL A   1      49.085  30.702  27.435  1.00  0.00     0.037 A 
ATOM     66  C   UNL A   1      44.598  24.932  26.877  1.00  0.00     0.037 A 
ATOM     67  C   UNL A   1      49.311  29.288  27.357  1.00  0.00     0.049 A 
ATOM     68  C   UNL A   1      45.805  25.017  25.976  1.00  0.00     0.074 A 
ATOM     69  C   UNL A   1      49.552  28.303  28.298  1.00  0.00     0.029 A 
ATOM     70  N   UNL A   1      49.008  28.673  26.177  1.00  0.00    -0.354 N 
ATOM     71  N   UNL A   1      46.748  25.909  26.129  1.00  0.00    -0.248 NA
ATOM     72  C   UNL A   1      46.097  24.109  24.870  1.00  0.00     0.031 C 
ATOM     73  C   UNL A   1      49.379  27.056  27.646  1.00  0.00     0.029 A 
ATOM     74  C   UNL A   1      49.052  27.316  26.327  1.00  0.00     0.049 A 
ATOM     75  H   UNL A   1      48.791  29.139  25.338  1.00  0.00     0.167 HD
ATOM     76  C   UNL A   1      47.733  25.716  25.198  1.00  0.00     0.074 A 
ATOM     77  C   UNL A   1      47.279  24.580  24.430  1.00  0.00     0.031 C 
ATOM     78  C   UNL A   1      48.829  26.524  25.144  1.00  0.00     0.037 A 
BRANCH  65  79
ATOM     79  C   UNL A   1      50.137  31.635  28.128  1.00  0.00     0.057 A 
ATOM     80  C   UNL A   1      50.958  32.493  27.355  1.00  0.00     0.134 A 
ATOM     81  C   UNL A   1      50.384  31.761  29.515  1.00  0.00     0.134 A 
ATOM     82  F   UNL A   1      50.763  32.650  26.039  1.00  0.00    -0.206 F 
ATOM     83  C   UNL A   1      52.002  33.278  27.886  1.00  0.00     0.040 A 
ATOM     84  C   UNL A   1      51.460  32.501  30.057  1.00  0.00     0.040 A 
ATOM     85  F   UNL A   1      49.564  31.224  30.429  1.00  0.00    -0.206 F 
ATOM     86  C   UNL A   1      52.285  33.256  29.240  1.00  0.00     0.006 A 
ENDBRANCH  65  79
BRANCH  66  87
ATOM     87  C   UNL A   1      43.154  24.760  26.536  1.00  0.00     0.057 A 
ATOM     88  C   UNL A   1      42.395  24.011  27.464  1.00  0.00     0.134 A 
ATOM     89  C   UNL A   1      42.442  25.642  25.716  1.00  0.00     0.134 A 
ATOM     90  F   UNL A   1      43.010  23.142  28.282  1.00  0.00    -0.206 F 
ATOM     91  C   UNL A   1      41.041  24.262  27.701  1.00  0.00     0.040 A 
ATOM     92  C   UNL A   1      41.061  25.853  25.903  1.00  0.00     0.040 A 
ATOM     93  F   UNL A   1      43.083  26.448  24.859  1.00  0.00    -0.206 F 
ATOM     94  C   UNL A   1      40.376  25.209  26.936  1.00  0.00     0.006 A 
ENDBRANCH  66  87
BRANCH  78  95
ATOM     95  C   UNL A   1      49.771  26.744  23.980  1.00  0.00     0.057 A 
ATOM     96  C   UNL A   1      49.387  27.359  22.785  1.00  0.00     0.134 A 
ATOM     97  C   UNL A   1      51.174  26.577  24.143  1.00  0.00     0.134 A 
ATOM     98  F   UNL A   1      48.109  27.667  22.534  1.00  0.00    -0.206 F 
ATOM     99  C   UNL A   1      50.317  27.757  21.816  1.00  0.00     0.040 A 
ATOM    100  C   UNL A   1      52.112  27.041  23.219  1.00  0.00     0.040 A 
ATOM    101  F   UNL A   1      51.699  26.007  25.239  1.00  0.00    -0.206 F 
ATOM    102  C   UNL A   1      51.683  27.622  22.040  1.00  0.00     0.006 A 
ENDBRANCH  78  95
ENDBRANCH  52  53
ENDBRANCH  45  47
ENDBRANCH  44  45
ENDBRANCH  43  44
ENDBRANCH  42  43
ENDBRANCH  41  42
ENDBRANCH  40  41
ENDBRANCH   1  40
TORSDOF 20
ENDMDL
