MODEL 1
REMARK VINA RESULT:      -7.1      0.000      0.000
REMARK SMILES Cc1ccc(S(=O)(=O)n2cc(C(=O)C(=O)N[C@@H](Cc3c[nH]c4ccccc34)C(=O)NCC(=O)OCCOCCOCCOC(=O)c3ccc(-c4c5nc(c(-c6c(F)cccc6F)c6ccc([nH]6)c(-c6c(F)cccc6F)c6nc(c(-c7c(F)cccc7F)c7ccc4[nH]7)C=C6)C=C5)cc3)c3ccccc32)cc1
REMARK SMILES IDX 36 1 35 2 34 3 32 4 33 5 31 6 30 7 28 8 29 9 17 11 16 12
REMARK SMILES IDX 14 13 15 14 12 16 13 17 11 18 9 19 10 20 105 21 100 22
REMARK SMILES IDX 104 23 101 24 103 25 102 26 6 27 7 28 8 29 5 30 1 31 2 32
REMARK SMILES IDX 3 33 107 34 4 35 106 36 18 37 19 38 20 39 27 40 21 41 22 42
REMARK SMILES IDX 26 43 23 45 25 46 24 47 37 48 38 49 39 50 40 51 41 52 42 53
REMARK SMILES IDX 43 54 44 55 45 56 46 57 47 58 99 59 48 60 98 61 49 62 50 63
REMARK SMILES IDX 51 64 92 65 52 66 97 67 91 68 93 69 53 70 96 71 90 72 89 73
REMARK SMILES IDX 54 75 80 76 63 77 79 78 64 79 67 80 78 81 94 82 65 83 66 84
REMARK SMILES IDX 77 86 95 87 68 88 55 89 56 90 61 91 57 92 58 93 60 94 62 95
REMARK SMILES IDX 59 96 81 97 82 98 87 99 83 100 84 101 86 102 88 103 85 104
REMARK SMILES IDX 69 105 70 106 75 107 71 108 72 109 74 110 76 111 73 112
REMARK H PARENT 30 10 16 15 21 44 93 74 67 85
REMARK Flexibility Score: inf
ROOT
ATOM      1  C   UNL A   1      43.433  24.036  29.352  1.00  0.00     0.202 C 
ENDROOT
BRANCH   1   2
ATOM      2  C   UNL A   1      43.023  22.744  28.656  1.00  0.00     0.261 C 
BRANCH   2   3
ATOM      3  O   UNL A   1      42.835  22.839  27.050  1.00  0.00    -0.462 OA
BRANCH   3   4
ATOM      4  C   UNL A   1      42.832  22.418  25.721  1.00  0.00     0.325 C 
ATOM      5  O   UNL A   1      41.861  21.725  25.383  1.00  0.00    -0.250 OA
BRANCH   4   6
ATOM      6  C   UNL A   1      43.972  22.706  24.495  1.00  0.00     0.238 C 
BRANCH   6   7
ATOM      7  N   UNL A   1      45.004  23.840  24.760  1.00  0.00    -0.343 N 
ATOM      8  C   UNL A   1      45.117  25.199  24.995  1.00  0.00     0.243 C 
ATOM      9  O   UNL A   1      46.250  25.618  24.675  1.00  0.00    -0.273 OA
ATOM     10  H   UNL A   1      45.907  23.446  24.761  1.00  0.00     0.164 HD
BRANCH   8  11
ATOM     11  C   UNL A   1      44.134  26.330  25.676  1.00  0.00     0.176 C 
BRANCH  11  12
ATOM     12  N   UNL A   1      42.753  25.914  26.173  1.00  0.00    -0.337 N 
ATOM     13  C   UNL A   1      41.470  26.429  26.457  1.00  0.00     0.293 C 
ATOM     14  O   UNL A   1      40.583  25.644  26.794  1.00  0.00    -0.265 OA
ATOM     15  H   UNL A   1      42.758  24.948  26.361  1.00  0.00     0.164 HD
BRANCH  13  16
ATOM     16  C   UNL A   1      41.084  27.894  26.359  1.00  0.00     0.252 C 
ATOM     17  O   UNL A   1      41.649  28.480  25.429  1.00  0.00    -0.283 OA
BRANCH  16  18
ATOM     18  C   UNL A   1      40.062  28.655  27.175  1.00  0.00     0.054 A 
ATOM     19  N   UNL A   1      38.103  29.316  28.152  1.00  0.00    -0.240 N 
ATOM     20  C   UNL A   1      38.899  29.452  26.980  1.00  0.00     0.117 A 
ATOM     21  C   UNL A   1      38.844  28.496  29.030  1.00  0.00     0.065 A 
ATOM     22  C   UNL A   1      40.153  28.589  28.594  1.00  0.00     0.012 A 
ATOM     23  C   UNL A   1      38.539  27.963  30.298  1.00  0.00     0.028 A 
ATOM     24  C   UNL A   1      41.195  28.427  29.524  1.00  0.00     0.011 A 
ATOM     25  C   UNL A   1      39.575  27.858  31.220  1.00  0.00     0.002 A 
ATOM     26  C   UNL A   1      40.881  28.154  30.856  1.00  0.00     0.001 A 
BRANCH  19  27
ATOM     27  S   UNL A   1      37.089  30.393  29.089  1.00  0.00     0.268 S 
ATOM     28  O   UNL A   1      35.807  29.705  28.996  1.00  0.00    -0.201 OA
ATOM     29  O   UNL A   1      37.336  31.632  28.353  1.00  0.00    -0.201 OA
BRANCH  27  30
ATOM     30  C   UNL A   1      36.992  31.125  30.692  1.00  0.00     0.088 A 
ATOM     31  C   UNL A   1      37.976  32.089  34.826  1.00  0.00     0.044 C 
ATOM     32  C   UNL A   1      37.594  31.824  33.394  1.00  0.00    -0.051 A 
ATOM     33  C   UNL A   1      38.628  31.648  32.492  1.00  0.00     0.005 A 
ATOM     34  C   UNL A   1      36.265  31.685  32.928  1.00  0.00     0.005 A 
ATOM     35  C   UNL A   1      38.324  31.323  31.180  1.00  0.00     0.022 A 
ATOM     36  C   UNL A   1      35.951  31.325  31.579  1.00  0.00     0.022 A 
ENDBRANCH  27  30
ENDBRANCH  19  27
ENDBRANCH  16  18
ENDBRANCH  13  16
ENDBRANCH  11  12
BRANCH  11  37
ATOM     37  C   UNL A   1      44.959  27.376  26.509  1.00  0.00     0.072 C 
BRANCH  37  38
ATOM     38  C   UNL A   1      45.184  27.008  27.957  1.00  0.00    -0.020 A 
ATOM     39  C   UNL A   1      44.343  27.193  29.043  1.00  0.00     0.087 A 
ATOM     40  C   UNL A   1      46.418  26.564  28.494  1.00  0.00     0.003 A 
ATOM     41  N   UNL A   1      45.093  27.085  30.190  1.00  0.00    -0.361 N 
ATOM     42  C   UNL A   1      46.402  26.869  29.850  1.00  0.00     0.046 A 
ATOM     43  C   UNL A   1      47.606  26.170  27.891  1.00  0.00     0.010 A 
ATOM     44  H   UNL A   1      44.745  27.150  31.108  1.00  0.00     0.166 HD
ATOM     45  C   UNL A   1      47.563  26.998  30.596  1.00  0.00     0.026 A 
ATOM     46  C   UNL A   1      48.749  26.596  28.535  1.00  0.00     0.001 A 
ATOM     47  C   UNL A   1      48.722  27.038  29.843  1.00  0.00     0.002 A 
ENDBRANCH  37  38
ENDBRANCH  11  37
ENDBRANCH   8  11
ENDBRANCH   6   7
ENDBRANCH   4   6
ENDBRANCH   3   4
ENDBRANCH   2   3
ENDBRANCH   1   2
BRANCH   1  48
ATOM     48  O   UNL A   1      44.514  23.809  30.220  1.00  0.00    -0.376 OA
BRANCH  48  49
ATOM     49  C   UNL A   1      44.103  23.497  31.548  1.00  0.00     0.188 C 
BRANCH  49  50
ATOM     50  C   UNL A   1      44.866  24.159  32.709  1.00  0.00     0.188 C 
BRANCH  50  51
ATOM     51  O   UNL A   1      45.449  23.246  33.631  1.00  0.00    -0.376 OA
BRANCH  51  52
ATOM     52  C   UNL A   1      45.686  23.656  34.968  1.00  0.00     0.202 C 
BRANCH  52  53
ATOM     53  C   UNL A   1      44.402  23.618  35.796  1.00  0.00     0.261 C 
BRANCH  53  54
ATOM     54  O   UNL A   1      43.942  24.972  35.987  1.00  0.00    -0.460 OA
BRANCH  54  55
ATOM     55  C   UNL A   1      42.599  25.050  36.207  1.00  0.00     0.338 C 
ATOM     56  O   UNL A   1      41.861  24.106  36.325  1.00  0.00    -0.246 OA
BRANCH  55  57
ATOM     57  C   UNL A   1      42.157  26.464  35.943  1.00  0.00     0.060 A 
ATOM     58  C   UNL A   1      41.440  26.649  34.805  1.00  0.00     0.016 A 
ATOM     59  C   UNL A   1      42.633  27.627  36.569  1.00  0.00     0.016 A 
ATOM     60  C   UNL A   1      41.455  27.933  34.231  1.00  0.00     0.010 A 
ATOM     61  C   UNL A   1      42.623  28.917  35.913  1.00  0.00     0.010 A 
ATOM     62  C   UNL A   1      42.150  29.092  34.610  1.00  0.00    -0.014 A 
BRANCH  62  63
ATOM     63  C   UNL A   1      42.512  30.386  33.742  1.00  0.00     0.031 A 
ATOM     64  C   UNL A   1      43.629  30.288  32.746  1.00  0.00     0.074 A 
ATOM     65  C   UNL A   1      42.218  31.756  33.759  1.00  0.00     0.049 A 
ATOM     66  N   UNL A   1      43.617  30.448  31.456  1.00  0.00    -0.248 NA
ATOM     67  C   UNL A   1      44.959  30.272  33.317  1.00  0.00     0.031 C 
ATOM     68  C   UNL A   1      42.142  32.528  32.502  1.00  0.00     0.029 A 
ATOM     69  N   UNL A   1      41.630  32.707  34.633  1.00  0.00    -0.354 N 
ATOM     70  C   UNL A   1      44.936  30.582  31.057  1.00  0.00     0.074 A 
ATOM     71  C   UNL A   1      45.734  30.318  32.244  1.00  0.00     0.031 C 
ATOM     72  C   UNL A   1      41.669  33.756  32.713  1.00  0.00     0.029 A 
ATOM     73  C   UNL A   1      41.513  33.985  34.120  1.00  0.00     0.049 A 
ATOM     74  H   UNL A   1      41.328  32.474  35.540  1.00  0.00     0.167 HD
ATOM     75  C   UNL A   1      45.469  31.527  30.230  1.00  0.00     0.037 A 
ATOM     76  C   UNL A   1      41.385  35.180  34.757  1.00  0.00     0.037 A 
ATOM     77  C   UNL A   1      44.896  32.873  30.232  1.00  0.00     0.049 A 
ATOM     78  C   UNL A   1      42.284  36.198  34.073  1.00  0.00     0.074 A 
ATOM     79  C   UNL A   1      43.735  33.434  29.736  1.00  0.00     0.029 A 
ATOM     80  N   UNL A   1      45.540  33.931  30.891  1.00  0.00    -0.354 N 
ATOM     81  N   UNL A   1      42.752  36.041  32.857  1.00  0.00    -0.248 NA
ATOM     82  C   UNL A   1      42.906  37.343  34.735  1.00  0.00     0.031 C 
ATOM     83  C   UNL A   1      43.611  34.760  30.260  1.00  0.00     0.029 A 
ATOM     84  C   UNL A   1      44.689  35.034  31.092  1.00  0.00     0.049 A 
ATOM     85  H   UNL A   1      46.480  33.906  31.179  1.00  0.00     0.167 HD
ATOM     86  C   UNL A   1      43.963  36.678  32.775  1.00  0.00     0.074 A 
ATOM     87  C   UNL A   1      43.871  37.660  33.848  1.00  0.00     0.031 C 
ATOM     88  C   UNL A   1      45.013  36.166  32.029  1.00  0.00     0.037 A 
BRANCH  75  89
ATOM     89  C   UNL A   1      46.316  30.879  29.157  1.00  0.00     0.057 A 
ATOM     90  C   UNL A   1      47.675  30.636  29.372  1.00  0.00     0.134 A 
ATOM     91  C   UNL A   1      45.861  30.605  27.838  1.00  0.00     0.134 A 
ATOM     92  F   UNL A   1      48.229  30.825  30.577  1.00  0.00    -0.206 F 
ATOM     93  C   UNL A   1      48.532  30.225  28.341  1.00  0.00     0.040 A 
ATOM     94  C   UNL A   1      46.705  30.197  26.804  1.00  0.00     0.040 A 
ATOM     95  F   UNL A   1      44.576  30.742  27.480  1.00  0.00    -0.206 F 
ATOM     96  C   UNL A   1      48.055  30.025  27.049  1.00  0.00     0.006 A 
ENDBRANCH  75  89
BRANCH  76  97
ATOM     97  C   UNL A   1      40.886  35.151  36.170  1.00  0.00     0.057 A 
ATOM     98  C   UNL A   1      39.501  35.019  36.379  1.00  0.00     0.134 A 
ATOM     99  C   UNL A   1      41.680  34.931  37.299  1.00  0.00     0.134 A 
ATOM    100  F   UNL A   1      38.650  35.258  35.370  1.00  0.00    -0.206 F 
ATOM    101  C   UNL A   1      38.953  34.584  37.598  1.00  0.00     0.040 A 
ATOM    102  C   UNL A   1      41.153  34.486  38.524  1.00  0.00     0.040 A 
ATOM    103  F   UNL A   1      43.005  35.055  37.224  1.00  0.00    -0.206 F 
ATOM    104  C   UNL A   1      39.785  34.277  38.666  1.00  0.00     0.006 A 
ENDBRANCH  76  97
BRANCH  88 105
ATOM    105  C   UNL A   1      46.445  36.664  32.223  1.00  0.00     0.057 A 
ATOM    106  C   UNL A   1      47.266  36.387  33.338  1.00  0.00     0.134 A 
ATOM    107  C   UNL A   1      47.083  37.422  31.222  1.00  0.00     0.134 A 
ATOM    108  F   UNL A   1      46.909  35.512  34.287  1.00  0.00    -0.206 F 
ATOM    109  C   UNL A   1      48.538  36.950  33.516  1.00  0.00     0.040 A 
ATOM    110  C   UNL A   1      48.389  37.916  31.347  1.00  0.00     0.040 A 
ATOM    111  F   UNL A   1      46.472  37.696  30.060  1.00  0.00    -0.206 F 
ATOM    112  C   UNL A   1      49.106  37.722  32.517  1.00  0.00     0.006 A 
ENDBRANCH  88 105
ENDBRANCH  62  63
ENDBRANCH  55  57
ENDBRANCH  54  55
ENDBRANCH  53  54
ENDBRANCH  52  53
ENDBRANCH  51  52
ENDBRANCH  50  51
ENDBRANCH  49  50
ENDBRANCH  48  49
ENDBRANCH   1  48
TORSDOF 26
ENDMDL
MODEL 2
REMARK VINA RESULT:      -6.8      9.040     14.126
REMARK SMILES Cc1ccc(S(=O)(=O)n2cc(C(=O)C(=O)N[C@@H](Cc3c[nH]c4ccccc34)C(=O)NCC(=O)OCCOCCOCCOC(=O)c3ccc(-c4c5nc(c(-c6c(F)cccc6F)c6ccc([nH]6)c(-c6c(F)cccc6F)c6nc(c(-c7c(F)cccc7F)c7ccc4[nH]7)C=C6)C=C5)cc3)c3ccccc32)cc1
REMARK SMILES IDX 36 1 35 2 34 3 32 4 33 5 31 6 30 7 28 8 29 9 17 11 16 12
REMARK SMILES IDX 14 13 15 14 12 16 13 17 11 18 9 19 10 20 105 21 100 22
REMARK SMILES IDX 104 23 101 24 103 25 102 26 6 27 7 28 8 29 5 30 1 31 2 32
REMARK SMILES IDX 3 33 107 34 4 35 106 36 18 37 19 38 20 39 27 40 21 41 22 42
REMARK SMILES IDX 26 43 23 45 25 46 24 47 37 48 38 49 39 50 40 51 41 52 42 53
REMARK SMILES IDX 43 54 44 55 45 56 46 57 47 58 99 59 48 60 98 61 49 62 50 63
REMARK SMILES IDX 51 64 92 65 52 66 97 67 91 68 93 69 53 70 96 71 90 72 89 73
REMARK SMILES IDX 54 75 80 76 63 77 79 78 64 79 67 80 78 81 94 82 65 83 66 84
REMARK SMILES IDX 77 86 95 87 68 88 55 89 56 90 61 91 57 92 58 93 60 94 62 95
REMARK SMILES IDX 59 96 81 97 82 98 87 99 83 100 84 101 86 102 88 103 85 104
REMARK SMILES IDX 69 105 70 106 75 107 71 108 72 109 74 110 76 111 73 112
REMARK H PARENT 30 10 16 15 21 44 93 74 67 85
REMARK Flexibility Score: inf
ROOT
ATOM      1  C   UNL A   1      43.520  36.142  27.225  1.00  0.00     0.202 C 
ENDROOT
BRANCH   1   2
ATOM      2  C   UNL A   1      42.192  36.856  27.005  1.00  0.00     0.261 C 
BRANCH   2   3
ATOM      3  O   UNL A   1      42.081  38.345  27.634  1.00  0.00    -0.462 OA
BRANCH   3   4
ATOM      4  C   UNL A   1      41.842  39.717  27.672  1.00  0.00     0.325 C 
ATOM      5  O   UNL A   1      41.500  40.169  28.775  1.00  0.00    -0.250 OA
BRANCH   4   6
ATOM      6  C   UNL A   1      41.940  40.866  26.424  1.00  0.00     0.238 C 
BRANCH   6   7
ATOM      7  N   UNL A   1      43.365  41.177  25.880  1.00  0.00    -0.343 N 
ATOM      8  C   UNL A   1      44.041  41.786  24.838  1.00  0.00     0.243 C 
ATOM      9  O   UNL A   1      45.191  41.313  24.710  1.00  0.00    -0.273 OA
ATOM     10  H   UNL A   1      44.027  40.802  26.505  1.00  0.00     0.164 HD
BRANCH   8  11
ATOM     11  C   UNL A   1      43.695  43.034  23.821  1.00  0.00     0.176 C 
BRANCH  11  12
ATOM     12  N   UNL A   1      42.438  42.966  22.960  1.00  0.00    -0.337 N 
ATOM     13  C   UNL A   1      42.004  43.018  21.617  1.00  0.00     0.293 C 
ATOM     14  O   UNL A   1      40.811  42.831  21.378  1.00  0.00    -0.265 OA
ATOM     15  H   UNL A   1      41.656  42.841  23.544  1.00  0.00     0.164 HD
BRANCH  13  16
ATOM     16  C   UNL A   1      42.909  43.269  20.424  1.00  0.00     0.252 C 
ATOM     17  O   UNL A   1      42.653  42.536  19.463  1.00  0.00    -0.283 OA
BRANCH  16  18
ATOM     18  C   UNL A   1      43.974  44.331  20.258  1.00  0.00     0.054 A 
ATOM     19  N   UNL A   1      45.956  45.383  19.820  1.00  0.00    -0.240 N 
ATOM     20  C   UNL A   1      45.217  44.713  20.835  1.00  0.00     0.117 A 
ATOM     21  C   UNL A   1      45.107  45.433  18.693  1.00  0.00     0.065 A 
ATOM     22  C   UNL A   1      43.830  45.265  19.194  1.00  0.00     0.012 A 
ATOM     23  C   UNL A   1      45.315  45.907  17.382  1.00  0.00     0.028 A 
ATOM     24  C   UNL A   1      42.746  45.842  18.508  1.00  0.00     0.011 A 
ATOM     25  C   UNL A   1      44.243  46.519  16.740  1.00  0.00     0.002 A 
ATOM     26  C   UNL A   1      42.986  46.547  17.329  1.00  0.00     0.001 A 
BRANCH  19  27
ATOM     27  S   UNL A   1      47.042  46.756  19.783  1.00  0.00     0.268 S 
ATOM     28  O   UNL A   1      48.242  46.136  19.236  1.00  0.00    -0.201 OA
ATOM     29  O   UNL A   1      46.965  47.141  21.191  1.00  0.00    -0.201 OA
BRANCH  27  30
ATOM     30  C   UNL A   1      47.150  48.393  19.131  1.00  0.00     0.088 A 
ATOM     31  C   UNL A   1      46.023  52.084  17.108  1.00  0.00     0.044 C 
ATOM     32  C   UNL A   1      46.469  50.850  17.846  1.00  0.00    -0.051 A 
ATOM     33  C   UNL A   1      45.512  50.188  18.596  1.00  0.00     0.005 A 
ATOM     34  C   UNL A   1      47.769  50.296  17.775  1.00  0.00     0.005 A 
ATOM     35  C   UNL A   1      45.858  49.004  19.227  1.00  0.00     0.022 A 
ATOM     36  C   UNL A   1      48.120  49.059  18.406  1.00  0.00     0.022 A 
ENDBRANCH  27  30
ENDBRANCH  19  27
ENDBRANCH  16  18
ENDBRANCH  13  16
ENDBRANCH  11  12
BRANCH  11  37
ATOM     37  C   UNL A   1      44.114  44.413  24.447  1.00  0.00     0.072 C 
BRANCH  37  38
ATOM     38  C   UNL A   1      45.555  44.503  24.893  1.00  0.00    -0.020 A 
ATOM     39  C   UNL A   1      46.708  44.421  24.129  1.00  0.00     0.087 A 
ATOM     40  C   UNL A   1      45.983  44.499  26.243  1.00  0.00     0.003 A 
ATOM     41  N   UNL A   1      47.762  44.155  24.972  1.00  0.00    -0.361 N 
ATOM     42  C   UNL A   1      47.292  44.031  26.252  1.00  0.00     0.046 A 
ATOM     43  C   UNL A   1      45.286  44.614  27.440  1.00  0.00     0.010 A 
ATOM     44  H   UNL A   1      48.704  44.069  24.699  1.00  0.00     0.166 HD
ATOM     45  C   UNL A   1      47.876  43.476  27.380  1.00  0.00     0.026 A 
ATOM     46  C   UNL A   1      45.740  43.796  28.453  1.00  0.00     0.001 A 
ATOM     47  C   UNL A   1      46.988  43.209  28.407  1.00  0.00     0.002 A 
ENDBRANCH  37  38
ENDBRANCH  11  37
ENDBRANCH   8  11
ENDBRANCH   6   7
ENDBRANCH   4   6
ENDBRANCH   3   4
ENDBRANCH   2   3
ENDBRANCH   1   2
BRANCH   1  48
ATOM     48  O   UNL A   1      43.368  35.085  28.138  1.00  0.00    -0.376 OA
BRANCH  48  49
ATOM     49  C   UNL A   1      44.368  35.081  29.153  1.00  0.00     0.188 C 
BRANCH  49  50
ATOM     50  C   UNL A   1      44.859  36.440  29.681  1.00  0.00     0.188 C 
BRANCH  50  51
ATOM     51  O   UNL A   1      46.000  36.369  30.528  1.00  0.00    -0.376 OA
BRANCH  51  52
ATOM     52  C   UNL A   1      45.938  36.916  31.835  1.00  0.00     0.202 C 
BRANCH  52  53
ATOM     53  C   UNL A   1      47.136  36.480  32.677  1.00  0.00     0.261 C 
BRANCH  53  54
ATOM     54  O   UNL A   1      47.353  35.069  32.464  1.00  0.00    -0.460 OA
BRANCH  54  55
ATOM     55  C   UNL A   1      47.786  34.424  33.584  1.00  0.00     0.338 C 
ATOM     56  O   UNL A   1      48.919  34.429  33.991  1.00  0.00    -0.246 OA
BRANCH  55  57
ATOM     57  C   UNL A   1      46.717  33.457  34.017  1.00  0.00     0.060 A 
ATOM     58  C   UNL A   1      46.682  32.282  33.337  1.00  0.00     0.016 A 
ATOM     59  C   UNL A   1      45.601  33.738  34.821  1.00  0.00     0.016 A 
ATOM     60  C   UNL A   1      45.458  31.591  33.299  1.00  0.00     0.010 A 
ATOM     61  C   UNL A   1      44.369  32.987  34.723  1.00  0.00     0.010 A 
ATOM     62  C   UNL A   1      44.199  31.939  33.815  1.00  0.00    -0.014 A 
BRANCH  62  63
ATOM     63  C   UNL A   1      42.751  31.394  33.408  1.00  0.00     0.031 A 
ATOM     64  C   UNL A   1      42.589  30.724  32.076  1.00  0.00     0.074 A 
ATOM     65  C   UNL A   1      41.432  31.529  33.860  1.00  0.00     0.049 A 
ATOM     66  N   UNL A   1      42.213  29.513  31.787  1.00  0.00    -0.248 NA
ATOM     67  C   UNL A   1      42.596  31.617  30.936  1.00  0.00     0.031 C 
ATOM     68  C   UNL A   1      40.466  30.422  33.715  1.00  0.00     0.029 A 
ATOM     69  N   UNL A   1      40.694  32.345  34.757  1.00  0.00    -0.354 N 
ATOM     70  C   UNL A   1      41.908  29.500  30.437  1.00  0.00     0.074 A 
ATOM     71  C   UNL A   1      42.306  30.805  29.932  1.00  0.00     0.031 C 
ATOM     72  C   UNL A   1      39.333  30.676  34.371  1.00  0.00     0.029 A 
ATOM     73  C   UNL A   1      39.361  32.009  34.897  1.00  0.00     0.049 A 
ATOM     74  H   UNL A   1      41.102  33.096  35.244  1.00  0.00     0.167 HD
ATOM     75  C   UNL A   1      40.796  28.989  29.834  1.00  0.00     0.037 A 
ATOM     76  C   UNL A   1      38.306  32.756  35.323  1.00  0.00     0.037 A 
ATOM     77  C   UNL A   1      39.520  29.034  30.548  1.00  0.00     0.049 A 
ATOM     78  C   UNL A   1      37.118  32.488  34.412  1.00  0.00     0.074 A 
ATOM     79  C   UNL A   1      38.977  28.335  31.609  1.00  0.00     0.029 A 
ATOM     80  N   UNL A   1      38.542  29.984  30.220  1.00  0.00    -0.354 N 
ATOM     81  N   UNL A   1      37.027  31.429  33.642  1.00  0.00    -0.248 NA
ATOM     82  C   UNL A   1      36.057  33.449  34.116  1.00  0.00     0.031 C 
ATOM     83  C   UNL A   1      37.774  28.993  32.018  1.00  0.00     0.029 A 
ATOM     84  C   UNL A   1      37.561  30.111  31.221  1.00  0.00     0.049 A 
ATOM     85  H   UNL A   1      38.541  30.503  29.384  1.00  0.00     0.167 HD
ATOM     86  C   UNL A   1      36.291  31.762  32.535  1.00  0.00     0.074 A 
ATOM     87  C   UNL A   1      35.517  32.903  33.008  1.00  0.00     0.031 C 
ATOM     88  C   UNL A   1      36.583  31.253  31.279  1.00  0.00     0.037 A 
BRANCH  75  89
ATOM     89  C   UNL A   1      41.181  28.095  28.676  1.00  0.00     0.057 A 
ATOM     90  C   UNL A   1      40.604  28.273  27.415  1.00  0.00     0.134 A 
ATOM     91  C   UNL A   1      42.019  26.952  28.793  1.00  0.00     0.134 A 
ATOM     92  F   UNL A   1      39.816  29.325  27.158  1.00  0.00    -0.206 F 
ATOM     93  C   UNL A   1      40.782  27.348  26.376  1.00  0.00     0.040 A 
ATOM     94  C   UNL A   1      42.202  26.025  27.766  1.00  0.00     0.040 A 
ATOM     95  F   UNL A   1      42.684  26.663  29.922  1.00  0.00    -0.206 F 
ATOM     96  C   UNL A   1      41.563  26.211  26.554  1.00  0.00     0.006 A 
ENDBRANCH  75  89
BRANCH  76  97
ATOM     97  C   UNL A   1      38.616  33.967  36.149  1.00  0.00     0.057 A 
ATOM     98  C   UNL A   1      38.529  33.853  37.548  1.00  0.00     0.134 A 
ATOM     99  C   UNL A   1      39.279  35.108  35.687  1.00  0.00     0.134 A 
ATOM    100  F   UNL A   1      37.868  32.820  38.091  1.00  0.00    -0.206 F 
ATOM    101  C   UNL A   1      39.159  34.751  38.426  1.00  0.00     0.040 A 
ATOM    102  C   UNL A   1      39.926  36.012  36.548  1.00  0.00     0.040 A 
ATOM    103  F   UNL A   1      39.398  35.333  34.379  1.00  0.00    -0.206 F 
ATOM    104  C   UNL A   1      39.896  35.815  37.924  1.00  0.00     0.006 A 
ENDBRANCH  76  97
BRANCH  88 105
ATOM    105  C   UNL A   1      36.013  31.888  30.011  1.00  0.00     0.057 A 
ATOM    106  C   UNL A   1      36.107  33.254  29.663  1.00  0.00     0.134 A 
ATOM    107  C   UNL A   1      35.376  31.096  29.036  1.00  0.00     0.134 A 
ATOM    108  F   UNL A   1      36.858  34.117  30.359  1.00  0.00    -0.206 F 
ATOM    109  C   UNL A   1      35.481  33.806  28.536  1.00  0.00     0.040 A 
ATOM    110  C   UNL A   1      34.824  31.622  27.859  1.00  0.00     0.040 A 
ATOM    111  F   UNL A   1      35.284  29.766  29.171  1.00  0.00    -0.206 F 
ATOM    112  C   UNL A   1      34.833  32.988  27.627  1.00  0.00     0.006 A 
ENDBRANCH  88 105
ENDBRANCH  62  63
ENDBRANCH  55  57
ENDBRANCH  54  55
ENDBRANCH  53  54
ENDBRANCH  52  53
ENDBRANCH  51  52
ENDBRANCH  50  51
ENDBRANCH  49  50
ENDBRANCH  48  49
ENDBRANCH   1  48
TORSDOF 26
ENDMDL
MODEL 3
REMARK VINA RESULT:      -6.7      8.259     14.936
REMARK SMILES Cc1ccc(S(=O)(=O)n2cc(C(=O)C(=O)N[C@@H](Cc3c[nH]c4ccccc34)C(=O)NCC(=O)OCCOCCOCCOC(=O)c3ccc(-c4c5nc(c(-c6c(F)cccc6F)c6ccc([nH]6)c(-c6c(F)cccc6F)c6nc(c(-c7c(F)cccc7F)c7ccc4[nH]7)C=C6)C=C5)cc3)c3ccccc32)cc1
REMARK SMILES IDX 36 1 35 2 34 3 32 4 33 5 31 6 30 7 28 8 29 9 17 11 16 12
REMARK SMILES IDX 14 13 15 14 12 16 13 17 11 18 9 19 10 20 105 21 100 22
REMARK SMILES IDX 104 23 101 24 103 25 102 26 6 27 7 28 8 29 5 30 1 31 2 32
REMARK SMILES IDX 3 33 107 34 4 35 106 36 18 37 19 38 20 39 27 40 21 41 22 42
REMARK SMILES IDX 26 43 23 45 25 46 24 47 37 48 38 49 39 50 40 51 41 52 42 53
REMARK SMILES IDX 43 54 44 55 45 56 46 57 47 58 99 59 48 60 98 61 49 62 50 63
REMARK SMILES IDX 51 64 92 65 52 66 97 67 91 68 93 69 53 70 96 71 90 72 89 73
REMARK SMILES IDX 54 75 80 76 63 77 79 78 64 79 67 80 78 81 94 82 65 83 66 84
REMARK SMILES IDX 77 86 95 87 68 88 55 89 56 90 61 91 57 92 58 93 60 94 62 95
REMARK SMILES IDX 59 96 81 97 82 98 87 99 83 100 84 101 86 102 88 103 85 104
REMARK SMILES IDX 69 105 70 106 75 107 71 108 72 109 74 110 76 111 73 112
REMARK H PARENT 30 10 16 15 21 44 93 74 67 85
REMARK Flexibility Score: inf
ROOT
ATOM      1  C   UNL A   1      50.382  43.275  28.812  1.00  0.00     0.202 C 
ENDROOT
BRANCH   1   2
ATOM      2  C   UNL A   1      51.245  44.265  28.041  1.00  0.00     0.261 C 
BRANCH   2   3
ATOM      3  O   UNL A   1      50.441  45.337  27.128  1.00  0.00    -0.462 OA
BRANCH   3   4
ATOM      4  C   UNL A   1      49.615  45.802  26.108  1.00  0.00     0.325 C 
ATOM      5  O   UNL A   1      49.368  47.017  26.133  1.00  0.00    -0.250 OA
BRANCH   4   6
ATOM      6  C   UNL A   1      48.885  44.947  24.834  1.00  0.00     0.238 C 
BRANCH   6   7
ATOM      7  N   UNL A   1      48.155  45.799  23.756  1.00  0.00    -0.343 N 
ATOM      8  C   UNL A   1      47.459  45.712  22.563  1.00  0.00     0.243 C 
ATOM      9  O   UNL A   1      47.512  46.789  21.932  1.00  0.00    -0.273 OA
ATOM     10  H   UNL A   1      48.208  46.747  24.018  1.00  0.00     0.164 HD
BRANCH   8  11
ATOM     11  C   UNL A   1      46.522  44.552  21.865  1.00  0.00     0.176 C 
BRANCH  11  12
ATOM     12  N   UNL A   1      46.685  43.100  22.303  1.00  0.00    -0.337 N 
ATOM     13  C   UNL A   1      46.064  42.093  23.074  1.00  0.00     0.293 C 
ATOM     14  O   UNL A   1      46.562  40.967  23.079  1.00  0.00    -0.265 OA
ATOM     15  H   UNL A   1      47.511  42.738  21.910  1.00  0.00     0.164 HD
BRANCH  13  16
ATOM     16  C   UNL A   1      44.801  42.286  23.895  1.00  0.00     0.252 C 
ATOM     17  O   UNL A   1      43.796  42.459  23.198  1.00  0.00    -0.283 OA
BRANCH  16  18
ATOM     18  C   UNL A   1      44.632  42.199  25.396  1.00  0.00     0.054 A 
ATOM     19  N   UNL A   1      44.875  41.597  27.588  1.00  0.00    -0.240 N 
ATOM     20  C   UNL A   1      44.193  41.271  26.382  1.00  0.00     0.117 A 
ATOM     21  C   UNL A   1      45.648  42.742  27.299  1.00  0.00     0.065 A 
ATOM     22  C   UNL A   1      45.056  43.305  26.183  1.00  0.00     0.012 A 
ATOM     23  C   UNL A   1      46.575  43.468  28.073  1.00  0.00     0.028 A 
ATOM     24  C   UNL A   1      45.152  44.695  25.989  1.00  0.00     0.011 A 
ATOM     25  C   UNL A   1      46.618  44.848  27.901  1.00  0.00     0.002 A 
ATOM     26  C   UNL A   1      45.861  45.463  26.913  1.00  0.00     0.001 A 
BRANCH  19  27
ATOM     27  S   UNL A   1      44.448  41.604  29.286  1.00  0.00     0.268 S 
ATOM     28  O   UNL A   1      45.499  40.754  29.832  1.00  0.00    -0.201 OA
ATOM     29  O   UNL A   1      43.071  41.126  29.174  1.00  0.00    -0.201 OA
BRANCH  27  30
ATOM     30  C   UNL A   1      44.164  42.730  30.616  1.00  0.00     0.088 A 
ATOM     31  C   UNL A   1      42.075  44.989  33.702  1.00  0.00     0.044 C 
ATOM     32  C   UNL A   1      42.865  44.221  32.675  1.00  0.00    -0.051 A 
ATOM     33  C   UNL A   1      42.485  42.911  32.443  1.00  0.00     0.005 A 
ATOM     34  C   UNL A   1      43.918  44.763  31.901  1.00  0.00     0.005 A 
ATOM     35  C   UNL A   1      43.132  42.192  31.451  1.00  0.00     0.022 A 
ATOM     36  C   UNL A   1      44.570  44.029  30.858  1.00  0.00     0.022 A 
ENDBRANCH  27  30
ENDBRANCH  19  27
ENDBRANCH  16  18
ENDBRANCH  13  16
ENDBRANCH  11  12
BRANCH  11  37
ATOM     37  C   UNL A   1      45.081  45.095  21.551  1.00  0.00     0.072 C 
BRANCH  37  38
ATOM     38  C   UNL A   1      44.719  45.140  20.086  1.00  0.00    -0.020 A 
ATOM     39  C   UNL A   1      45.224  45.959  19.089  1.00  0.00     0.087 A 
ATOM     40  C   UNL A   1      43.625  44.452  19.504  1.00  0.00     0.003 A 
ATOM     41  N   UNL A   1      44.347  45.937  18.029  1.00  0.00    -0.361 N 
ATOM     42  C   UNL A   1      43.277  45.145  18.350  1.00  0.00     0.046 A 
ATOM     43  C   UNL A   1      42.776  43.469  19.998  1.00  0.00     0.010 A 
ATOM     44  H   UNL A   1      44.471  46.412  17.177  1.00  0.00     0.166 HD
ATOM     45  C   UNL A   1      42.019  45.049  17.776  1.00  0.00     0.026 A 
ATOM     46  C   UNL A   1      41.456  43.606  19.624  1.00  0.00     0.001 A 
ATOM     47  C   UNL A   1      41.081  44.408  18.565  1.00  0.00     0.002 A 
ENDBRANCH  37  38
ENDBRANCH  11  37
ENDBRANCH   8  11
ENDBRANCH   6   7
ENDBRANCH   4   6
ENDBRANCH   3   4
ENDBRANCH   2   3
ENDBRANCH   1   2
BRANCH   1  48
ATOM     48  O   UNL A   1      50.519  41.981  28.280  1.00  0.00    -0.376 OA
BRANCH  48  49
ATOM     49  C   UNL A   1      49.316  41.220  28.354  1.00  0.00     0.188 C 
BRANCH  49  50
ATOM     50  C   UNL A   1      49.441  39.701  28.562  1.00  0.00     0.188 C 
BRANCH  50  51
ATOM     51  O   UNL A   1      48.717  38.914  27.624  1.00  0.00    -0.376 OA
BRANCH  51  52
ATOM     52  C   UNL A   1      47.782  39.538  26.759  1.00  0.00     0.202 C 
BRANCH  52  53
ATOM     53  C   UNL A   1      47.182  38.536  25.775  1.00  0.00     0.261 C 
BRANCH  53  54
ATOM     54  O   UNL A   1      47.157  37.237  26.403  1.00  0.00    -0.460 OA
BRANCH  54  55
ATOM     55  C   UNL A   1      45.896  36.740  26.546  1.00  0.00     0.338 C 
ATOM     56  O   UNL A   1      44.991  37.301  27.109  1.00  0.00    -0.246 OA
BRANCH  55  57
ATOM     57  C   UNL A   1      45.920  35.277  26.195  1.00  0.00     0.060 A 
ATOM     58  C   UNL A   1      44.720  34.736  25.862  1.00  0.00     0.016 A 
ATOM     59  C   UNL A   1      46.959  34.367  26.446  1.00  0.00     0.016 A 
ATOM     60  C   UNL A   1      44.561  33.350  26.043  1.00  0.00     0.010 A 
ATOM     61  C   UNL A   1      46.720  32.952  26.627  1.00  0.00     0.010 A 
ATOM     62  C   UNL A   1      45.439  32.395  26.577  1.00  0.00    -0.014 A 
BRANCH  62  63
ATOM     63  C   UNL A   1      45.119  30.947  27.178  1.00  0.00     0.031 A 
ATOM     64  C   UNL A   1      43.753  30.696  27.744  1.00  0.00     0.074 A 
ATOM     65  C   UNL A   1      45.835  29.802  27.552  1.00  0.00     0.049 A 
ATOM     66  N   UNL A   1      42.845  29.836  27.389  1.00  0.00    -0.248 NA
ATOM     67  C   UNL A   1      43.500  31.309  29.030  1.00  0.00     0.031 C 
ATOM     68  C   UNL A   1      45.233  28.460  27.428  1.00  0.00     0.029 A 
ATOM     69  N   UNL A   1      47.183  29.415  27.769  1.00  0.00    -0.354 N 
ATOM     70  C   UNL A   1      41.923  29.779  28.420  1.00  0.00     0.074 A 
ATOM     71  C   UNL A   1      42.309  30.828  29.351  1.00  0.00     0.031 C 
ATOM     72  C   UNL A   1      46.131  27.501  27.651  1.00  0.00     0.029 A 
ATOM     73  C   UNL A   1      47.371  28.082  28.077  1.00  0.00     0.049 A 
ATOM     74  H   UNL A   1      47.931  30.051  27.706  1.00  0.00     0.167 HD
ATOM     75  C   UNL A   1      41.405  28.669  29.021  1.00  0.00     0.037 A 
ATOM     76  C   UNL A   1      48.402  27.462  28.711  1.00  0.00     0.037 A 
ATOM     77  C   UNL A   1      42.243  27.476  29.146  1.00  0.00     0.049 A 
ATOM     78  C   UNL A   1      47.836  26.451  29.696  1.00  0.00     0.074 A 
ATOM     79  C   UNL A   1      42.687  26.506  28.269  1.00  0.00     0.029 A 
ATOM     80  N   UNL A   1      42.842  27.139  30.369  1.00  0.00    -0.354 N 
ATOM     81  N   UNL A   1      46.611  25.986  29.624  1.00  0.00    -0.248 NA
ATOM     82  C   UNL A   1      48.484  26.042  30.942  1.00  0.00     0.031 C 
ATOM     83  C   UNL A   1      43.683  25.718  28.928  1.00  0.00     0.029 A 
ATOM     84  C   UNL A   1      43.875  26.196  30.218  1.00  0.00     0.049 A 
ATOM     85  H   UNL A   1      42.570  27.520  31.235  1.00  0.00     0.167 HD
ATOM     86  C   UNL A   1      46.187  25.685  30.892  1.00  0.00     0.074 A 
ATOM     87  C   UNL A   1      47.446  25.489  31.602  1.00  0.00     0.031 C 
ATOM     88  C   UNL A   1      44.878  25.891  31.297  1.00  0.00     0.037 A 
BRANCH  75  89
ATOM     89  C   UNL A   1      39.896  28.755  29.090  1.00  0.00     0.057 A 
ATOM     90  C   UNL A   1      39.150  29.106  27.961  1.00  0.00     0.134 A 
ATOM     91  C   UNL A   1      39.144  28.636  30.290  1.00  0.00     0.134 A 
ATOM     92  F   UNL A   1      39.729  29.225  26.759  1.00  0.00    -0.206 F 
ATOM     93  C   UNL A   1      37.778  29.391  28.033  1.00  0.00     0.040 A 
ATOM     94  C   UNL A   1      37.780  28.918  30.373  1.00  0.00     0.040 A 
ATOM     95  F   UNL A   1      39.701  28.261  31.452  1.00  0.00    -0.206 F 
ATOM     96  C   UNL A   1      37.093  29.319  29.242  1.00  0.00     0.006 A 
ENDBRANCH  75  89
BRANCH  76  97
ATOM     97  C   UNL A   1      49.718  28.180  28.738  1.00  0.00     0.057 A 
ATOM     98  C   UNL A   1      50.542  28.093  27.602  1.00  0.00     0.134 A 
ATOM     99  C   UNL A   1      50.071  29.177  29.652  1.00  0.00     0.134 A 
ATOM    100  F   UNL A   1      50.317  27.137  26.688  1.00  0.00    -0.206 F 
ATOM    101  C   UNL A   1      51.573  29.010  27.338  1.00  0.00     0.040 A 
ATOM    102  C   UNL A   1      51.093  30.110  29.402  1.00  0.00     0.040 A 
ATOM    103  F   UNL A   1      49.377  29.333  30.779  1.00  0.00    -0.206 F 
ATOM    104  C   UNL A   1      51.826  30.049  28.222  1.00  0.00     0.006 A 
ENDBRANCH  76  97
BRANCH  88 105
ATOM    105  C   UNL A   1      44.495  25.903  32.777  1.00  0.00     0.057 A 
ATOM    106  C   UNL A   1      44.078  24.781  33.526  1.00  0.00     0.134 A 
ATOM    107  C   UNL A   1      44.597  27.086  33.535  1.00  0.00     0.134 A 
ATOM    108  F   UNL A   1      44.126  23.536  33.034  1.00  0.00    -0.206 F 
ATOM    109  C   UNL A   1      43.643  24.862  34.857  1.00  0.00     0.040 A 
ATOM    110  C   UNL A   1      44.250  27.162  34.891  1.00  0.00     0.040 A 
ATOM    111  F   UNL A   1      45.063  28.221  32.995  1.00  0.00    -0.206 F 
ATOM    112  C   UNL A   1      43.725  26.059  35.546  1.00  0.00     0.006 A 
ENDBRANCH  88 105
ENDBRANCH  62  63
ENDBRANCH  55  57
ENDBRANCH  54  55
ENDBRANCH  53  54
ENDBRANCH  52  53
ENDBRANCH  51  52
ENDBRANCH  50  51
ENDBRANCH  49  50
ENDBRANCH  48  49
ENDBRANCH   1  48
TORSDOF 26
ENDMDL
