MODEL 1
REMARK VINA RESULT:     -12.7      0.000      0.000
REMARK SMILES Cc1ccc(NC(=O)c2ccccc2NC(=O)[C@H]2CCCC[C@H]2C(=O)OCCOCCOCCOC(=O)c2ccc(-c3c4nc(c(-c5c(F)cccc5F)c5ccc([nH]5)c(-c5c(F)cccc5F)c5nc(c(-c6c(F)cccc6F)c6ccc3[nH]6)C=C5)C=C4)cc2)cc1
REMARK SMILES IDX 30 1 29 2 28 3 27 4 26 5 24 6 25 7 23 8 18 9 19 10 20 11
REMARK SMILES IDX 22 12 21 13 16 14 15 15 17 17 14 18 9 19 10 20 11 21 13 22
REMARK SMILES IDX 12 23 7 24 6 25 8 27 5 28 1 29 2 30 3 31 93 32 4 33 92 34
REMARK SMILES IDX 31 35 32 36 33 37 34 38 35 39 36 40 37 41 38 42 39 43 91 44
REMARK SMILES IDX 40 45 90 46 41 47 42 48 43 49 84 50 44 51 89 52 83 53 85 54
REMARK SMILES IDX 45 55 88 56 82 57 81 58 46 60 72 61 55 62 71 63 56 64 59 65
REMARK SMILES IDX 70 66 86 67 57 68 58 69 69 71 87 72 60 73 47 74 48 75 53 76
REMARK SMILES IDX 49 77 50 78 52 79 54 80 51 81 73 82 74 83 79 84 75 85 76 86
REMARK SMILES IDX 78 87 80 88 77 89 61 90 62 91 67 92 63 93 64 94 66 95 68 96
REMARK SMILES IDX 65 97
REMARK H PARENT 15 16 6 26 85 59 59 70
REMARK Flexibility Score: inf
ROOT
ATOM      1  C   UNL A   1      33.799  29.759  27.169  1.00  0.00     0.188 C 
ENDROOT
BRANCH   1   2
ATOM      2  O   UNL A   1      32.582  29.444  26.528  1.00  0.00    -0.376 OA
BRANCH   2   3
ATOM      3  C   UNL A   1      31.787  30.574  26.104  1.00  0.00     0.202 C 
BRANCH   3   4
ATOM      4  C   UNL A   1      30.881  30.281  24.832  1.00  0.00     0.261 C 
BRANCH   4   5
ATOM      5  O   UNL A   1      30.996  29.138  23.586  1.00  0.00    -0.463 OA
BRANCH   5   6
ATOM      6  C   UNL A   1      31.113  27.866  22.982  1.00  0.00     0.309 C 
ATOM      7  O   UNL A   1      30.654  27.828  21.828  1.00  0.00    -0.252 OA
BRANCH   6   8
ATOM      8  C   UNL A   1      31.667  26.315  23.475  1.00  0.00     0.111 C 
ATOM      9  C   UNL A   1      33.164  25.633  23.742  1.00  0.00     0.093 C 
ATOM     10  C   UNL A   1      33.126  24.143  23.244  1.00  0.00     0.014 C 
ATOM     11  C   UNL A   1      31.949  23.311  23.778  1.00  0.00     0.001 C 
ATOM     12  C   UNL A   1      30.535  25.402  24.023  1.00  0.00     0.016 C 
ATOM     13  C   UNL A   1      30.607  23.967  23.479  1.00  0.00     0.001 C 
BRANCH   9  14
ATOM     14  C   UNL A   1      33.760  25.498  25.200  1.00  0.00     0.228 C 
ATOM     15  N   UNL A   1      34.627  24.548  25.705  1.00  0.00    -0.325 N 
ATOM     16  H   UNL A   1      34.911  24.797  26.614  1.00  0.00     0.169 HD
ATOM     17  O   UNL A   1      33.442  26.355  26.038  1.00  0.00    -0.274 OA
BRANCH  15  18
ATOM     18  C   UNL A   1      35.238  23.319  25.316  1.00  0.00     0.054 A 
ATOM     19  C   UNL A   1      34.717  22.009  25.660  1.00  0.00     0.063 A 
ATOM     20  C   UNL A   1      35.533  20.878  25.388  1.00  0.00     0.016 A 
ATOM     21  C   UNL A   1      36.799  20.991  24.829  1.00  0.00     0.001 A 
ATOM     22  C   UNL A   1      36.469  23.374  24.639  1.00  0.00     0.027 A 
ATOM     23  C   UNL A   1      37.259  22.236  24.443  1.00  0.00     0.002 A 
BRANCH  19  24
ATOM     24  C   UNL A   1      33.557  21.573  26.560  1.00  0.00     0.257 C 
ATOM     25  N   UNL A   1      32.587  20.657  26.252  1.00  0.00    -0.322 N 
ATOM     26  H   UNL A   1      31.722  20.800  26.701  1.00  0.00     0.170 HD
ATOM     27  O   UNL A   1      33.375  22.172  27.630  1.00  0.00    -0.269 OA
BRANCH  25  28
ATOM     28  C   UNL A   1      32.633  19.562  25.409  1.00  0.00     0.041 A 
ATOM     29  C   UNL A   1      34.025  16.577  22.749  1.00  0.00     0.044 C 
ATOM     30  C   UNL A   1      33.349  17.562  23.652  1.00  0.00    -0.051 A 
ATOM     31  C   UNL A   1      33.286  17.297  25.025  1.00  0.00     0.005 A 
ATOM     32  C   UNL A   1      32.909  18.796  23.159  1.00  0.00     0.005 A 
ATOM     33  C   UNL A   1      32.910  18.295  25.905  1.00  0.00     0.026 A 
ATOM     34  C   UNL A   1      32.519  19.797  24.041  1.00  0.00     0.026 A 
ENDBRANCH  25  28
ENDBRANCH  19  24
ENDBRANCH  15  18
ENDBRANCH   9  14
ENDBRANCH   6   8
ENDBRANCH   5   6
ENDBRANCH   4   5
ENDBRANCH   3   4
ENDBRANCH   2   3
ENDBRANCH   1   2
BRANCH   1  35
ATOM     35  C   UNL A   1      33.722  31.239  27.517  1.00  0.00     0.188 C 
BRANCH  35  36
ATOM     36  O   UNL A   1      34.906  31.926  27.819  1.00  0.00    -0.376 OA
BRANCH  36  37
ATOM     37  C   UNL A   1      34.878  32.585  29.064  1.00  0.00     0.202 C 
BRANCH  37  38
ATOM     38  C   UNL A   1      35.789  32.212  30.258  1.00  0.00     0.261 C 
BRANCH  38  39
ATOM     39  O   UNL A   1      36.288  30.874  30.649  1.00  0.00    -0.460 OA
BRANCH  39  40
ATOM     40  C   UNL A   1      36.821  29.711  30.973  1.00  0.00     0.338 C 
ATOM     41  O   UNL A   1      36.659  29.336  32.135  1.00  0.00    -0.246 OA
BRANCH  40  42
ATOM     42  C   UNL A   1      37.811  28.940  30.131  1.00  0.00     0.060 A 
ATOM     43  C   UNL A   1      38.498  27.993  30.829  1.00  0.00     0.016 A 
ATOM     44  C   UNL A   1      38.189  29.016  28.777  1.00  0.00     0.016 A 
ATOM     45  C   UNL A   1      39.651  27.416  30.262  1.00  0.00     0.010 A 
ATOM     46  C   UNL A   1      39.415  28.466  28.250  1.00  0.00     0.010 A 
ATOM     47  C   UNL A   1      40.294  27.747  29.049  1.00  0.00    -0.014 A 
BRANCH  47  48
ATOM     48  C   UNL A   1      41.834  27.746  28.699  1.00  0.00     0.031 A 
ATOM     49  C   UNL A   1      42.596  29.020  28.532  1.00  0.00     0.074 A 
ATOM     50  C   UNL A   1      42.733  26.692  28.655  1.00  0.00     0.049 A 
ATOM     51  N   UNL A   1      43.753  29.102  27.941  1.00  0.00    -0.248 NA
ATOM     52  C   UNL A   1      42.054  30.315  28.890  1.00  0.00     0.031 C 
ATOM     53  C   UNL A   1      44.085  26.649  29.258  1.00  0.00     0.029 A 
ATOM     54  N   UNL A   1      42.675  25.417  28.125  1.00  0.00    -0.354 N 
ATOM     55  C   UNL A   1      44.222  30.378  28.132  1.00  0.00     0.074 A 
ATOM     56  C   UNL A   1      43.053  31.126  28.535  1.00  0.00     0.031 C 
ATOM     57  C   UNL A   1      44.654  25.434  29.084  1.00  0.00     0.029 A 
ATOM     58  C   UNL A   1      43.780  24.603  28.269  1.00  0.00     0.049 A 
ATOM     59  H   UNL A   1      41.869  25.099  27.659  1.00  0.00     0.167 HD
ATOM     60  C   UNL A   1      45.565  30.635  28.149  1.00  0.00     0.037 A 
ATOM     61  C   UNL A   1      44.040  23.511  27.483  1.00  0.00     0.037 A 
ATOM     62  C   UNL A   1      46.364  29.415  27.950  1.00  0.00     0.049 A 
ATOM     63  C   UNL A   1      45.192  23.944  26.633  1.00  0.00     0.074 A 
ATOM     64  C   UNL A   1      47.020  28.594  28.855  1.00  0.00     0.029 A 
ATOM     65  N   UNL A   1      46.348  28.710  26.742  1.00  0.00    -0.354 N 
ATOM     66  N   UNL A   1      45.600  25.178  26.670  1.00  0.00    -0.248 NA
ATOM     67  C   UNL A   1      45.959  23.127  25.704  1.00  0.00     0.031 C 
ATOM     68  C   UNL A   1      47.391  27.398  28.196  1.00  0.00     0.029 A 
ATOM     69  C   UNL A   1      46.992  27.486  26.873  1.00  0.00     0.049 A 
ATOM     70  H   UNL A   1      45.935  29.038  25.911  1.00  0.00     0.167 HD
ATOM     71  C   UNL A   1      46.647  25.347  25.842  1.00  0.00     0.074 A 
ATOM     72  C   UNL A   1      46.838  24.038  25.240  1.00  0.00     0.031 C 
ATOM     73  C   UNL A   1      47.219  26.577  25.745  1.00  0.00     0.037 A 
BRANCH  60  74
ATOM     74  C   UNL A   1      46.109  31.919  28.775  1.00  0.00     0.057 A 
ATOM     75  C   UNL A   1      46.395  33.064  28.005  1.00  0.00     0.134 A 
ATOM     76  C   UNL A   1      46.439  32.061  30.137  1.00  0.00     0.134 A 
ATOM     77  F   UNL A   1      46.013  33.170  26.727  1.00  0.00    -0.206 F 
ATOM     78  C   UNL A   1      47.087  34.177  28.509  1.00  0.00     0.040 A 
ATOM     79  C   UNL A   1      47.189  33.135  30.643  1.00  0.00     0.040 A 
ATOM     80  F   UNL A   1      46.001  31.186  31.053  1.00  0.00    -0.206 F 
ATOM     81  C   UNL A   1      47.532  34.196  29.821  1.00  0.00     0.006 A 
ENDBRANCH  60  74
BRANCH  61  82
ATOM     82  C   UNL A   1      42.877  22.649  27.044  1.00  0.00     0.057 A 
ATOM     83  C   UNL A   1      42.242  21.828  27.992  1.00  0.00     0.134 A 
ATOM     84  C   UNL A   1      42.161  22.822  25.861  1.00  0.00     0.134 A 
ATOM     85  F   UNL A   1      42.888  21.492  29.121  1.00  0.00    -0.206 F 
ATOM     86  C   UNL A   1      40.879  21.471  27.907  1.00  0.00     0.040 A 
ATOM     87  C   UNL A   1      40.794  22.475  25.761  1.00  0.00     0.040 A 
ATOM     88  F   UNL A   1      42.736  23.427  24.814  1.00  0.00    -0.206 F 
ATOM     89  C   UNL A   1      40.122  21.884  26.826  1.00  0.00     0.006 A 
ENDBRANCH  61  82
BRANCH  73  90
ATOM     90  C   UNL A   1      48.159  26.947  24.653  1.00  0.00     0.057 A 
ATOM     91  C   UNL A   1      49.510  26.576  24.647  1.00  0.00     0.134 A 
ATOM     92  C   UNL A   1      47.684  27.579  23.491  1.00  0.00     0.134 A 
ATOM     93  F   UNL A   1      50.052  25.869  25.649  1.00  0.00    -0.206 F 
ATOM     94  C   UNL A   1      50.354  26.872  23.577  1.00  0.00     0.040 A 
ATOM     95  C   UNL A   1      48.503  27.826  22.393  1.00  0.00     0.040 A 
ATOM     96  F   UNL A   1      46.403  27.957  23.364  1.00  0.00    -0.206 F 
ATOM     97  C   UNL A   1      49.848  27.488  22.440  1.00  0.00     0.006 A 
ENDBRANCH  73  90
ENDBRANCH  47  48
ENDBRANCH  40  42
ENDBRANCH  39  40
ENDBRANCH  38  39
ENDBRANCH  37  38
ENDBRANCH  36  37
ENDBRANCH  35  36
ENDBRANCH   1  35
TORSDOF 21
ENDMDL
MODEL 2
REMARK VINA RESULT:     -11.9      4.523      9.669
REMARK SMILES Cc1ccc(NC(=O)c2ccccc2NC(=O)[C@H]2CCCC[C@H]2C(=O)OCCOCCOCCOC(=O)c2ccc(-c3c4nc(c(-c5c(F)cccc5F)c5ccc([nH]5)c(-c5c(F)cccc5F)c5nc(c(-c6c(F)cccc6F)c6ccc3[nH]6)C=C5)C=C4)cc2)cc1
REMARK SMILES IDX 30 1 29 2 28 3 27 4 26 5 24 6 25 7 23 8 18 9 19 10 20 11
REMARK SMILES IDX 22 12 21 13 16 14 15 15 17 17 14 18 9 19 10 20 11 21 13 22
REMARK SMILES IDX 12 23 7 24 6 25 8 27 5 28 1 29 2 30 3 31 93 32 4 33 92 34
REMARK SMILES IDX 31 35 32 36 33 37 34 38 35 39 36 40 37 41 38 42 39 43 91 44
REMARK SMILES IDX 40 45 90 46 41 47 42 48 43 49 84 50 44 51 89 52 83 53 85 54
REMARK SMILES IDX 45 55 88 56 82 57 81 58 46 60 72 61 55 62 71 63 56 64 59 65
REMARK SMILES IDX 70 66 86 67 57 68 58 69 69 71 87 72 60 73 47 74 48 75 53 76
REMARK SMILES IDX 49 77 50 78 52 79 54 80 51 81 73 82 74 83 79 84 75 85 76 86
REMARK SMILES IDX 78 87 80 88 77 89 61 90 62 91 67 92 63 93 64 94 66 95 68 96
REMARK SMILES IDX 65 97
REMARK H PARENT 15 16 6 26 85 59 59 70
REMARK Flexibility Score: inf
ROOT
ATOM      1  C   UNL A   1      41.676  21.591  27.586  1.00  0.00     0.188 C 
ENDROOT
BRANCH   1   2
ATOM      2  O   UNL A   1      40.436  21.901  26.987  1.00  0.00    -0.376 OA
BRANCH   2   3
ATOM      3  C   UNL A   1      39.991  23.267  27.141  1.00  0.00     0.202 C 
BRANCH   3   4
ATOM      4  C   UNL A   1      38.592  23.568  26.448  1.00  0.00     0.261 C 
BRANCH   4   5
ATOM      5  O   UNL A   1      37.413  22.559  25.769  1.00  0.00    -0.463 OA
BRANCH   5   6
ATOM      6  C   UNL A   1      36.130  22.008  25.546  1.00  0.00     0.309 C 
ATOM      7  O   UNL A   1      36.167  20.842  25.118  1.00  0.00    -0.252 OA
BRANCH   6   8
ATOM      8  C   UNL A   1      34.511  22.578  25.643  1.00  0.00     0.111 C 
ATOM      9  C   UNL A   1      33.587  23.643  24.755  1.00  0.00     0.093 C 
ATOM     10  C   UNL A   1      32.667  24.445  25.744  1.00  0.00     0.014 C 
ATOM     11  C   UNL A   1      31.863  23.580  26.728  1.00  0.00     0.001 C 
ATOM     12  C   UNL A   1      33.628  21.761  26.626  1.00  0.00     0.016 C 
ATOM     13  C   UNL A   1      32.762  22.650  27.533  1.00  0.00     0.001 C 
BRANCH   9  14
ATOM     14  C   UNL A   1      32.564  23.134  23.663  1.00  0.00     0.228 C 
ATOM     15  N   UNL A   1      31.555  23.826  23.020  1.00  0.00    -0.325 N 
ATOM     16  H   UNL A   1      31.166  23.272  22.306  1.00  0.00     0.169 HD
ATOM     17  O   UNL A   1      32.653  21.955  23.290  1.00  0.00    -0.274 OA
BRANCH  15  18
ATOM     18  C   UNL A   1      30.905  25.095  23.071  1.00  0.00     0.054 A 
ATOM     19  C   UNL A   1      31.569  26.357  22.807  1.00  0.00     0.063 A 
ATOM     20  C   UNL A   1      30.859  27.554  23.094  1.00  0.00     0.016 A 
ATOM     21  C   UNL A   1      29.577  27.548  23.630  1.00  0.00     0.001 A 
ATOM     22  C   UNL A   1      29.565  25.138  23.493  1.00  0.00     0.027 A 
ATOM     23  C   UNL A   1      28.928  26.341  23.814  1.00  0.00     0.002 A 
BRANCH  19  24
ATOM     24  C   UNL A   1      33.038  26.708  22.551  1.00  0.00     0.257 C 
ATOM     25  N   UNL A   1      33.757  27.700  23.161  1.00  0.00    -0.322 N 
ATOM     26  H   UNL A   1      34.489  28.077  22.620  1.00  0.00     0.170 HD
ATOM     27  O   UNL A   1      33.633  26.141  21.623  1.00  0.00    -0.269 OA
BRANCH  25  28
ATOM     28  C   UNL A   1      33.617  28.255  24.420  1.00  0.00     0.041 A 
ATOM     29  C   UNL A   1      34.299  30.538  27.919  1.00  0.00     0.044 C 
ATOM     30  C   UNL A   1      33.909  29.644  26.784  1.00  0.00    -0.051 A 
ATOM     31  C   UNL A   1      33.071  30.142  25.780  1.00  0.00     0.005 A 
ATOM     32  C   UNL A   1      34.482  28.373  26.648  1.00  0.00     0.005 A 
ATOM     33  C   UNL A   1      32.910  29.436  24.600  1.00  0.00     0.026 A 
ATOM     34  C   UNL A   1      34.312  27.657  25.469  1.00  0.00     0.026 A 
ENDBRANCH  25  28
ENDBRANCH  19  24
ENDBRANCH  15  18
ENDBRANCH   9  14
ENDBRANCH   6   8
ENDBRANCH   5   6
ENDBRANCH   4   5
ENDBRANCH   3   4
ENDBRANCH   2   3
ENDBRANCH   1   2
BRANCH   1  35
ATOM     35  C   UNL A   1      42.602  21.182  26.449  1.00  0.00     0.188 C 
BRANCH  35  36
ATOM     36  O   UNL A   1      43.577  22.090  26.011  1.00  0.00    -0.376 OA
BRANCH  36  37
ATOM     37  C   UNL A   1      43.115  22.990  25.030  1.00  0.00     0.202 C 
BRANCH  37  38
ATOM     38  C   UNL A   1      43.604  24.452  24.903  1.00  0.00     0.261 C 
BRANCH  38  39
ATOM     39  O   UNL A   1      42.853  25.698  25.178  1.00  0.00    -0.460 OA
BRANCH  39  40
ATOM     40  C   UNL A   1      42.217  26.844  25.340  1.00  0.00     0.338 C 
ATOM     41  O   UNL A   1      42.568  27.775  24.613  1.00  0.00    -0.246 OA
BRANCH  40  42
ATOM     42  C   UNL A   1      41.295  27.176  26.490  1.00  0.00     0.060 A 
ATOM     43  C   UNL A   1      40.840  28.460  26.469  1.00  0.00     0.016 A 
ATOM     44  C   UNL A   1      40.831  26.440  27.596  1.00  0.00     0.016 A 
ATOM     45  C   UNL A   1      40.231  28.997  27.619  1.00  0.00     0.010 A 
ATOM     46  C   UNL A   1      40.274  27.038  28.786  1.00  0.00     0.010 A 
ATOM     47  C   UNL A   1      40.090  28.409  28.895  1.00  0.00    -0.014 A 
BRANCH  47  48
ATOM     48  C   UNL A   1      40.140  29.086  30.321  1.00  0.00     0.031 A 
ATOM     49  C   UNL A   1      39.325  30.297  30.638  1.00  0.00     0.074 A 
ATOM     50  C   UNL A   1      40.740  28.647  31.491  1.00  0.00     0.049 A 
ATOM     51  N   UNL A   1      39.552  31.080  31.653  1.00  0.00    -0.248 NA
ATOM     52  C   UNL A   1      38.285  30.797  29.763  1.00  0.00     0.031 C 
ATOM     53  C   UNL A   1      40.136  28.609  32.843  1.00  0.00     0.029 A 
ATOM     54  N   UNL A   1      41.977  28.101  31.776  1.00  0.00    -0.354 N 
ATOM     55  C   UNL A   1      38.509  31.970  31.725  1.00  0.00     0.074 A 
ATOM     56  C   UNL A   1      37.880  31.882  30.427  1.00  0.00     0.031 C 
ATOM     57  C   UNL A   1      40.983  28.050  33.736  1.00  0.00     0.029 A 
ATOM     58  C   UNL A   1      42.253  27.763  33.085  1.00  0.00     0.049 A 
ATOM     59  H   UNL A   1      42.643  27.956  31.065  1.00  0.00     0.167 HD
ATOM     60  C   UNL A   1      38.144  32.526  32.920  1.00  0.00     0.037 A 
ATOM     61  C   UNL A   1      43.516  27.605  33.591  1.00  0.00     0.037 A 
ATOM     62  C   UNL A   1      38.983  32.046  34.031  1.00  0.00     0.049 A 
ATOM     63  C   UNL A   1      43.706  28.800  34.468  1.00  0.00     0.074 A 
ATOM     64  C   UNL A   1      38.758  31.069  34.990  1.00  0.00     0.029 A 
ATOM     65  N   UNL A   1      40.344  32.355  34.116  1.00  0.00    -0.354 N 
ATOM     66  N   UNL A   1      42.814  29.747  34.481  1.00  0.00    -0.248 NA
ATOM     67  C   UNL A   1      44.827  29.074  35.356  1.00  0.00     0.031 C 
ATOM     68  C   UNL A   1      39.980  30.787  35.645  1.00  0.00     0.029 A 
ATOM     69  C   UNL A   1      40.960  31.610  35.114  1.00  0.00     0.049 A 
ATOM     70  H   UNL A   1      40.803  33.013  33.546  1.00  0.00     0.167 HD
ATOM     71  C   UNL A   1      43.175  30.716  35.343  1.00  0.00     0.074 A 
ATOM     72  C   UNL A   1      44.454  30.265  35.867  1.00  0.00     0.031 C 
ATOM     73  C   UNL A   1      42.363  31.795  35.499  1.00  0.00     0.037 A 
BRANCH  60  74
ATOM     74  C   UNL A   1      36.764  33.155  33.102  1.00  0.00     0.057 A 
ATOM     75  C   UNL A   1      35.576  32.445  32.832  1.00  0.00     0.134 A 
ATOM     76  C   UNL A   1      36.544  34.494  33.479  1.00  0.00     0.134 A 
ATOM     77  F   UNL A   1      35.577  31.126  32.607  1.00  0.00    -0.206 F 
ATOM     78  C   UNL A   1      34.311  33.051  32.788  1.00  0.00     0.040 A 
ATOM     79  C   UNL A   1      35.297  35.132  33.376  1.00  0.00     0.040 A 
ATOM     80  F   UNL A   1      37.523  35.233  34.020  1.00  0.00    -0.206 F 
ATOM     81  C   UNL A   1      34.172  34.411  33.011  1.00  0.00     0.006 A 
ENDBRANCH  60  74
BRANCH  61  82
ATOM     82  C   UNL A   1      44.567  26.964  32.710  1.00  0.00     0.057 A 
ATOM     83  C   UNL A   1      44.538  25.571  32.521  1.00  0.00     0.134 A 
ATOM     84  C   UNL A   1      45.375  27.652  31.808  1.00  0.00     0.134 A 
ATOM     85  F   UNL A   1      43.889  24.791  33.402  1.00  0.00    -0.206 F 
ATOM     86  C   UNL A   1      45.011  24.947  31.345  1.00  0.00     0.040 A 
ATOM     87  C   UNL A   1      45.853  27.043  30.623  1.00  0.00     0.040 A 
ATOM     88  F   UNL A   1      45.631  28.952  31.995  1.00  0.00    -0.206 F 
ATOM     89  C   UNL A   1      45.586  25.707  30.343  1.00  0.00     0.006 A 
ENDBRANCH  61  82
BRANCH  73  90
ATOM     90  C   UNL A   1      42.803  33.046  36.172  1.00  0.00     0.057 A 
ATOM     91  C   UNL A   1      43.624  34.000  35.557  1.00  0.00     0.134 A 
ATOM     92  C   UNL A   1      42.283  33.394  37.431  1.00  0.00     0.134 A 
ATOM     93  F   UNL A   1      44.088  33.832  34.310  1.00  0.00    -0.206 F 
ATOM     94  C   UNL A   1      43.962  35.199  36.182  1.00  0.00     0.040 A 
ATOM     95  C   UNL A   1      42.567  34.615  38.039  1.00  0.00     0.040 A 
ATOM     96  F   UNL A   1      41.462  32.578  38.108  1.00  0.00    -0.206 F 
ATOM     97  C   UNL A   1      43.423  35.515  37.422  1.00  0.00     0.006 A 
ENDBRANCH  73  90
ENDBRANCH  47  48
ENDBRANCH  40  42
ENDBRANCH  39  40
ENDBRANCH  38  39
ENDBRANCH  37  38
ENDBRANCH  36  37
ENDBRANCH  35  36
ENDBRANCH   1  35
TORSDOF 21
ENDMDL
MODEL 3
REMARK VINA RESULT:     -11.9      3.567      8.890
REMARK SMILES Cc1ccc(NC(=O)c2ccccc2NC(=O)[C@H]2CCCC[C@H]2C(=O)OCCOCCOCCOC(=O)c2ccc(-c3c4nc(c(-c5c(F)cccc5F)c5ccc([nH]5)c(-c5c(F)cccc5F)c5nc(c(-c6c(F)cccc6F)c6ccc3[nH]6)C=C5)C=C4)cc2)cc1
REMARK SMILES IDX 30 1 29 2 28 3 27 4 26 5 24 6 25 7 23 8 18 9 19 10 20 11
REMARK SMILES IDX 22 12 21 13 16 14 15 15 17 17 14 18 9 19 10 20 11 21 13 22
REMARK SMILES IDX 12 23 7 24 6 25 8 27 5 28 1 29 2 30 3 31 93 32 4 33 92 34
REMARK SMILES IDX 31 35 32 36 33 37 34 38 35 39 36 40 37 41 38 42 39 43 91 44
REMARK SMILES IDX 40 45 90 46 41 47 42 48 43 49 84 50 44 51 89 52 83 53 85 54
REMARK SMILES IDX 45 55 88 56 82 57 81 58 46 60 72 61 55 62 71 63 56 64 59 65
REMARK SMILES IDX 70 66 86 67 57 68 58 69 69 71 87 72 60 73 47 74 48 75 53 76
REMARK SMILES IDX 49 77 50 78 52 79 54 80 51 81 73 82 74 83 79 84 75 85 76 86
REMARK SMILES IDX 78 87 80 88 77 89 61 90 62 91 67 92 63 93 64 94 66 95 68 96
REMARK SMILES IDX 65 97
REMARK H PARENT 15 16 6 26 85 59 59 70
REMARK Flexibility Score: inf
ROOT
ATOM      1  C   UNL A   1      40.309  21.650  27.125  1.00  0.00     0.188 C 
ENDROOT
BRANCH   1   2
ATOM      2  O   UNL A   1      39.348  22.342  26.356  1.00  0.00    -0.376 OA
BRANCH   2   3
ATOM      3  C   UNL A   1      38.440  21.514  25.597  1.00  0.00     0.202 C 
BRANCH   3   4
ATOM      4  C   UNL A   1      37.295  22.330  24.857  1.00  0.00     0.261 C 
BRANCH   4   5
ATOM      5  O   UNL A   1      36.099  23.389  25.421  1.00  0.00    -0.463 OA
BRANCH   5   6
ATOM      6  C   UNL A   1      34.910  24.154  25.401  1.00  0.00     0.309 C 
ATOM      7  O   UNL A   1      35.111  25.366  25.220  1.00  0.00    -0.252 OA
BRANCH   6   8
ATOM      8  C   UNL A   1      33.238  23.836  25.647  1.00  0.00     0.111 C 
ATOM      9  C   UNL A   1      32.020  24.566  26.519  1.00  0.00     0.093 C 
ATOM     10  C   UNL A   1      31.100  23.444  27.120  1.00  0.00     0.014 C 
ATOM     11  C   UNL A   1      30.610  22.396  26.108  1.00  0.00     0.001 C 
ATOM     12  C   UNL A   1      32.662  22.778  24.667  1.00  0.00     0.016 C 
ATOM     13  C   UNL A   1      31.767  21.741  25.364  1.00  0.00     0.001 C 
BRANCH   9  14
ATOM     14  C   UNL A   1      30.981  25.537  25.830  1.00  0.00     0.228 C 
ATOM     15  N   UNL A   1      31.006  26.915  25.729  1.00  0.00    -0.325 N 
ATOM     16  H   UNL A   1      30.282  27.226  25.139  1.00  0.00     0.169 HD
ATOM     17  O   UNL A   1      29.995  25.031  25.275  1.00  0.00    -0.274 OA
BRANCH  15  18
ATOM     18  C   UNL A   1      31.757  28.026  26.216  1.00  0.00     0.054 A 
ATOM     19  C   UNL A   1      31.667  29.367  25.670  1.00  0.00     0.063 A 
ATOM     20  C   UNL A   1      32.618  30.328  26.109  1.00  0.00     0.016 A 
ATOM     21  C   UNL A   1      33.625  30.018  27.014  1.00  0.00     0.001 A 
ATOM     22  C   UNL A   1      32.712  27.793  27.220  1.00  0.00     0.027 A 
ATOM     23  C   UNL A   1      33.661  28.757  27.578  1.00  0.00     0.002 A 
BRANCH  19  24
ATOM     24  C   UNL A   1      30.925  29.931  24.454  1.00  0.00     0.257 C 
ATOM     25  N   UNL A   1      31.164  29.628  23.141  1.00  0.00    -0.322 N 
ATOM     26  H   UNL A   1      30.943  30.343  22.502  1.00  0.00     0.170 HD
ATOM     27  O   UNL A   1      30.104  30.844  24.628  1.00  0.00    -0.269 OA
BRANCH  25  28
ATOM     28  C   UNL A   1      31.667  28.472  22.573  1.00  0.00     0.041 A 
ATOM     29  C   UNL A   1      33.354  24.619  22.092  1.00  0.00     0.044 C 
ATOM     30  C   UNL A   1      32.778  26.000  22.064  1.00  0.00    -0.051 A 
ATOM     31  C   UNL A   1      31.388  26.159  22.041  1.00  0.00     0.005 A 
ATOM     32  C   UNL A   1      33.607  27.120  22.200  1.00  0.00     0.005 A 
ATOM     33  C   UNL A   1      30.830  27.403  22.279  1.00  0.00     0.026 A 
ATOM     34  C   UNL A   1      33.049  28.373  22.427  1.00  0.00     0.026 A 
ENDBRANCH  25  28
ENDBRANCH  19  24
ENDBRANCH  15  18
ENDBRANCH   9  14
ENDBRANCH   6   8
ENDBRANCH   5   6
ENDBRANCH   4   5
ENDBRANCH   3   4
ENDBRANCH   2   3
ENDBRANCH   1   2
BRANCH   1  35
ATOM     35  C   UNL A   1      40.552  20.330  26.406  1.00  0.00     0.188 C 
BRANCH  35  36
ATOM     36  O   UNL A   1      41.757  19.649  26.631  1.00  0.00    -0.376 OA
BRANCH  36  37
ATOM     37  C   UNL A   1      42.820  20.089  25.818  1.00  0.00     0.202 C 
BRANCH  37  38
ATOM     38  C   UNL A   1      43.658  21.357  26.107  1.00  0.00     0.261 C 
BRANCH  38  39
ATOM     39  O   UNL A   1      43.275  22.774  25.917  1.00  0.00    -0.460 OA
BRANCH  39  40
ATOM     40  C   UNL A   1      42.877  24.009  25.675  1.00  0.00     0.338 C 
ATOM     41  O   UNL A   1      43.284  24.524  24.631  1.00  0.00    -0.246 OA
BRANCH  40  42
ATOM     42  C   UNL A   1      42.191  24.916  26.670  1.00  0.00     0.060 A 
ATOM     43  C   UNL A   1      41.281  25.756  26.103  1.00  0.00     0.016 A 
ATOM     44  C   UNL A   1      42.319  25.092  28.060  1.00  0.00     0.016 A 
ATOM     45  C   UNL A   1      40.794  26.851  26.843  1.00  0.00     0.010 A 
ATOM     46  C   UNL A   1      41.864  26.264  28.770  1.00  0.00     0.010 A 
ATOM     47  C   UNL A   1      41.192  27.292  28.124  1.00  0.00    -0.014 A 
BRANCH  47  48
ATOM     48  C   UNL A   1      41.302  28.763  28.687  1.00  0.00     0.031 A 
ATOM     49  C   UNL A   1      40.088  29.602  28.920  1.00  0.00     0.074 A 
ATOM     50  C   UNL A   1      42.402  29.441  29.191  1.00  0.00     0.049 A 
ATOM     51  N   UNL A   1      40.115  30.895  29.067  1.00  0.00    -0.248 NA
ATOM     52  C   UNL A   1      38.742  29.069  28.866  1.00  0.00     0.031 C 
ATOM     53  C   UNL A   1      42.466  30.229  30.443  1.00  0.00     0.029 A 
ATOM     54  N   UNL A   1      43.711  29.571  28.768  1.00  0.00    -0.354 N 
ATOM     55  C   UNL A   1      38.853  31.292  29.436  1.00  0.00     0.074 A 
ATOM     56  C   UNL A   1      38.016  30.167  29.093  1.00  0.00     0.031 C 
ATOM     57  C   UNL A   1      43.719  30.688  30.662  1.00  0.00     0.029 A 
ATOM     58  C   UNL A   1      44.567  30.337  29.533  1.00  0.00     0.049 A 
ATOM     59  H   UNL A   1      44.024  29.129  27.946  1.00  0.00     0.167 HD
ATOM     60  C   UNL A   1      38.666  32.421  30.184  1.00  0.00     0.037 A 
ATOM     61  C   UNL A   1      45.732  30.888  29.067  1.00  0.00     0.037 A 
ATOM     62  C   UNL A   1      39.939  33.086  30.510  1.00  0.00     0.049 A 
ATOM     63  C   UNL A   1      45.431  32.350  28.982  1.00  0.00     0.074 A 
ATOM     64  C   UNL A   1      40.716  33.061  31.658  1.00  0.00     0.029 A 
ATOM     65  N   UNL A   1      40.739  33.674  29.524  1.00  0.00    -0.354 N 
ATOM     66  N   UNL A   1      44.221  32.779  29.190  1.00  0.00    -0.248 NA
ATOM     67  C   UNL A   1      46.360  33.425  28.667  1.00  0.00     0.031 C 
ATOM     68  C   UNL A   1      41.979  33.625  31.364  1.00  0.00     0.029 A 
ATOM     69  C   UNL A   1      41.980  34.029  30.039  1.00  0.00     0.049 A 
ATOM     70  H   UNL A   1      40.459  33.818  28.592  1.00  0.00     0.167 HD
ATOM     71  C   UNL A   1      44.175  34.119  29.075  1.00  0.00     0.074 A 
ATOM     72  C   UNL A   1      45.538  34.492  28.733  1.00  0.00     0.031 C 
ATOM     73  C   UNL A   1      42.989  34.756  29.263  1.00  0.00     0.037 A 
BRANCH  60  74
ATOM     74  C   UNL A   1      37.366  32.643  30.955  1.00  0.00     0.057 A 
ATOM     75  C   UNL A   1      37.129  32.045  32.210  1.00  0.00     0.134 A 
ATOM     76  C   UNL A   1      36.273  33.389  30.473  1.00  0.00     0.134 A 
ATOM     77  F   UNL A   1      38.099  31.425  32.892  1.00  0.00    -0.206 F 
ATOM     78  C   UNL A   1      35.875  32.057  32.842  1.00  0.00     0.040 A 
ATOM     79  C   UNL A   1      34.997  33.357  31.058  1.00  0.00     0.040 A 
ATOM     80  F   UNL A   1      36.409  34.230  29.438  1.00  0.00    -0.206 F 
ATOM     81  C   UNL A   1      34.788  32.672  32.243  1.00  0.00     0.006 A 
ENDBRANCH  60  74
BRANCH  61  82
ATOM     82  C   UNL A   1      46.565  30.086  28.091  1.00  0.00     0.057 A 
ATOM     83  C   UNL A   1      47.302  28.988  28.568  1.00  0.00     0.134 A 
ATOM     84  C   UNL A   1      46.428  30.131  26.705  1.00  0.00     0.134 A 
ATOM     85  F   UNL A   1      47.601  28.902  29.874  1.00  0.00    -0.206 F 
ATOM     86  C   UNL A   1      47.603  27.862  27.769  1.00  0.00     0.040 A 
ATOM     87  C   UNL A   1      46.721  29.011  25.892  1.00  0.00     0.040 A 
ATOM     88  F   UNL A   1      45.910  31.217  26.119  1.00  0.00    -0.206 F 
ATOM     89  C   UNL A   1      47.219  27.835  26.441  1.00  0.00     0.006 A 
ENDBRANCH  61  82
BRANCH  73  90
ATOM     90  C   UNL A   1      42.759  36.170  28.862  1.00  0.00     0.057 A 
ATOM     91  C   UNL A   1      43.348  37.259  29.520  1.00  0.00     0.134 A 
ATOM     92  C   UNL A   1      42.037  36.468  27.693  1.00  0.00     0.134 A 
ATOM     93  F   UNL A   1      44.152  37.091  30.579  1.00  0.00    -0.206 F 
ATOM     94  C   UNL A   1      43.176  38.570  29.080  1.00  0.00     0.040 A 
ATOM     95  C   UNL A   1      41.909  37.768  27.212  1.00  0.00     0.040 A 
ATOM     96  F   UNL A   1      41.451  35.510  26.960  1.00  0.00    -0.206 F 
ATOM     97  C   UNL A   1      42.464  38.827  27.915  1.00  0.00     0.006 A 
ENDBRANCH  73  90
ENDBRANCH  47  48
ENDBRANCH  40  42
ENDBRANCH  39  40
ENDBRANCH  38  39
ENDBRANCH  37  38
ENDBRANCH  36  37
ENDBRANCH  35  36
ENDBRANCH   1  35
TORSDOF 21
ENDMDL
