MODEL 1
REMARK VINA RESULT:     -10.2      0.000      0.000
REMARK SMILES CCC(CC)(NC(=O)Nc1cc(Cl)cc(Cl)c1)C(=O)OCCOCCOCCOC(=O)c1ccc(-c2c3nc(c(-c4c(F)cccc4F)c4ccc([nH]4)c(-c4c(F)cccc4F)c4nc(c(-c5c(F)cccc5F)c5ccc2[nH]5)C=C4)C=C3)cc1
REMARK SMILES IDX 24 1 23 2 22 3 21 4 20 5 18 6 19 7 3 8 2 9 1 10 4 11 5 12
REMARK SMILES IDX 6 13 7 14 8 16 9 17 10 19 11 20 17 21 12 22 15 23 13 24
REMARK SMILES IDX 14 25 16 26 25 27 26 28 27 29 28 30 29 31 30 32 31 33 32 34
REMARK SMILES IDX 33 35 85 36 34 37 84 38 35 39 36 40 37 41 78 42 38 43 83 44
REMARK SMILES IDX 77 45 79 46 39 47 82 48 76 49 75 50 40 52 66 53 49 54 65 55
REMARK SMILES IDX 50 56 53 57 64 58 80 59 51 60 52 61 63 63 81 64 54 65 41 66
REMARK SMILES IDX 42 67 47 68 43 69 44 70 46 71 48 72 45 73 67 74 68 75 73 76
REMARK SMILES IDX 69 77 70 78 72 79 74 80 71 81 55 82 56 83 61 84 57 85 58 86
REMARK SMILES IDX 60 87 62 88 59 89
REMARK H PARENT 6 15 9 18 79 51 53 62
REMARK Flexibility Score: inf
ROOT
ATOM      1  C   UNL A   1      32.478  29.267  23.789  1.00  0.00     0.188 C 
ENDROOT
BRANCH   1   2
ATOM      2  O   UNL A   1      32.650  27.863  23.529  1.00  0.00    -0.376 OA
BRANCH   2   3
ATOM      3  C   UNL A   1      33.943  27.345  23.882  1.00  0.00     0.202 C 
BRANCH   3   4
ATOM      4  C   UNL A   1      33.948  25.791  24.142  1.00  0.00     0.261 C 
BRANCH   4   5
ATOM      5  O   UNL A   1      33.325  25.422  25.416  1.00  0.00    -0.461 OA
BRANCH   5   6
ATOM      6  C   UNL A   1      32.009  25.493  25.856  1.00  0.00     0.331 C 
ATOM      7  O   UNL A   1      31.642  26.223  26.771  1.00  0.00    -0.249 OA
BRANCH   6   8
ATOM      8  C   UNL A   1      31.014  24.540  24.969  1.00  0.00     0.139 C 
BRANCH   8   9
ATOM      9  C   UNL A   1      31.233  23.174  24.207  1.00  0.00     0.037 C 
ATOM     10  C   UNL A   1      32.038  23.003  22.949  1.00  0.00     0.007 C 
ENDBRANCH   8   9
BRANCH   8  11
ATOM     11  C   UNL A   1      30.340  25.533  23.976  1.00  0.00     0.037 C 
ATOM     12  C   UNL A   1      29.134  26.329  24.471  1.00  0.00     0.007 C 
ENDBRANCH   8  11
BRANCH   8  13
ATOM     13  N   UNL A   1      30.162  24.104  26.046  1.00  0.00    -0.322 N 
ATOM     14  C   UNL A   1      30.427  23.067  26.866  1.00  0.00     0.320 C 
ATOM     15  H   UNL A   1      29.325  24.600  26.195  1.00  0.00     0.166 HD
ATOM     16  O   UNL A   1      29.515  22.797  27.650  1.00  0.00    -0.248 OA
ATOM     17  N   UNL A   1      31.524  22.243  26.794  1.00  0.00    -0.308 N 
ATOM     18  H   UNL A   1      31.268  21.419  27.266  1.00  0.00     0.171 HD
BRANCH  17  19
ATOM     19  C   UNL A   1      32.878  22.028  26.344  1.00  0.00     0.045 A 
ATOM     20  C   UNL A   1      34.044  22.785  26.511  1.00  0.00     0.046 A 
ATOM     21  C   UNL A   1      33.091  20.781  25.736  1.00  0.00     0.046 A 
ATOM     22  C   UNL A   1      35.311  22.386  26.046  1.00  0.00     0.044 A 
ATOM     23  C   UNL A   1      34.359  20.361  25.295  1.00  0.00     0.044 A 
ATOM     24  Cl  UNL A   1      36.683  23.403  26.306  1.00  0.00    -0.084 Cl
ATOM     25  C   UNL A   1      35.476  21.168  25.427  1.00  0.00     0.041 A 
ATOM     26  Cl  UNL A   1      34.535  18.792  24.614  1.00  0.00    -0.084 Cl
ENDBRANCH  17  19
ENDBRANCH   8  13
ENDBRANCH   6   8
ENDBRANCH   5   6
ENDBRANCH   4   5
ENDBRANCH   3   4
ENDBRANCH   2   3
ENDBRANCH   1   2
BRANCH   1  27
ATOM     27  C   UNL A   1      31.331  29.564  24.776  1.00  0.00     0.188 C 
BRANCH  27  28
ATOM     28  O   UNL A   1      31.581  30.598  25.711  1.00  0.00    -0.376 OA
BRANCH  28  29
ATOM     29  C   UNL A   1      32.136  30.186  26.942  1.00  0.00     0.202 C 
BRANCH  29  30
ATOM     30  C   UNL A   1      33.390  30.962  27.384  1.00  0.00     0.261 C 
BRANCH  30  31
ATOM     31  O   UNL A   1      33.481  32.308  26.889  1.00  0.00    -0.460 OA
BRANCH  31  32
ATOM     32  C   UNL A   1      33.234  33.288  27.793  1.00  0.00     0.338 C 
ATOM     33  O   UNL A   1      32.236  33.987  27.863  1.00  0.00    -0.246 OA
BRANCH  32  34
ATOM     34  C   UNL A   1      34.349  33.320  28.772  1.00  0.00     0.060 A 
ATOM     35  C   UNL A   1      35.599  33.814  28.370  1.00  0.00     0.016 A 
ATOM     36  C   UNL A   1      34.184  32.821  30.069  1.00  0.00     0.016 A 
ATOM     37  C   UNL A   1      36.700  33.738  29.234  1.00  0.00     0.010 A 
ATOM     38  C   UNL A   1      35.284  32.736  30.929  1.00  0.00     0.010 A 
ATOM     39  C   UNL A   1      36.559  33.141  30.496  1.00  0.00    -0.014 A 
BRANCH  39  40
ATOM     40  C   UNL A   1      37.748  32.635  31.235  1.00  0.00     0.031 A 
ATOM     41  C   UNL A   1      38.445  31.423  30.669  1.00  0.00     0.074 A 
ATOM     42  C   UNL A   1      38.178  33.175  32.390  1.00  0.00     0.049 A 
ATOM     43  N   UNL A   1      39.396  30.686  31.182  1.00  0.00    -0.248 NA
ATOM     44  C   UNL A   1      37.986  30.975  29.342  1.00  0.00     0.031 C 
ATOM     45  C   UNL A   1      37.630  34.368  33.029  1.00  0.00     0.029 A 
ATOM     46  N   UNL A   1      39.173  32.761  33.244  1.00  0.00    -0.354 N 
ATOM     47  C   UNL A   1      39.638  29.685  30.249  1.00  0.00     0.074 A 
ATOM     48  C   UNL A   1      38.721  29.893  29.151  1.00  0.00     0.031 C 
ATOM     49  C   UNL A   1      38.282  34.578  34.188  1.00  0.00     0.029 A 
ATOM     50  C   UNL A   1      39.267  33.514  34.390  1.00  0.00     0.049 A 
ATOM     51  H   UNL A   1      39.764  31.998  33.052  1.00  0.00     0.167 HD
ATOM     52  C   UNL A   1      40.543  28.681  30.294  1.00  0.00     0.037 A 
ATOM     53  C   UNL A   1      40.036  33.342  35.484  1.00  0.00     0.037 A 
ATOM     54  C   UNL A   1      41.448  28.459  31.388  1.00  0.00     0.049 A 
ATOM     55  C   UNL A   1      40.986  32.168  35.552  1.00  0.00     0.074 A 
ATOM     56  C   UNL A   1      42.402  27.469  31.532  1.00  0.00     0.029 A 
ATOM     57  N   UNL A   1      41.501  29.240  32.532  1.00  0.00    -0.354 N 
ATOM     58  N   UNL A   1      41.217  31.235  34.660  1.00  0.00    -0.248 NA
ATOM     59  C   UNL A   1      41.777  32.022  36.784  1.00  0.00     0.031 C 
ATOM     60  C   UNL A   1      43.003  27.623  32.786  1.00  0.00     0.029 A 
ATOM     61  C   UNL A   1      42.459  28.741  33.397  1.00  0.00     0.049 A 
ATOM     62  H   UNL A   1      40.941  30.031  32.704  1.00  0.00     0.167 HD
ATOM     63  C   UNL A   1      42.202  30.417  35.206  1.00  0.00     0.074 A 
ATOM     64  C   UNL A   1      42.528  30.966  36.504  1.00  0.00     0.031 C 
ATOM     65  C   UNL A   1      42.785  29.312  34.679  1.00  0.00     0.037 A 
BRANCH  52  66
ATOM     66  C   UNL A   1      40.566  27.727  29.137  1.00  0.00     0.057 A 
ATOM     67  C   UNL A   1      41.419  27.915  28.041  1.00  0.00     0.134 A 
ATOM     68  C   UNL A   1      39.726  26.607  29.118  1.00  0.00     0.134 A 
ATOM     69  F   UNL A   1      42.233  28.980  27.988  1.00  0.00    -0.206 F 
ATOM     70  C   UNL A   1      41.414  27.039  26.955  1.00  0.00     0.040 A 
ATOM     71  C   UNL A   1      39.732  25.708  28.051  1.00  0.00     0.040 A 
ATOM     72  F   UNL A   1      38.885  26.369  30.136  1.00  0.00    -0.206 F 
ATOM     73  C   UNL A   1      40.573  25.928  26.962  1.00  0.00     0.006 A 
ENDBRANCH  52  66
BRANCH  53  74
ATOM     74  C   UNL A   1      39.939  34.284  36.631  1.00  0.00     0.057 A 
ATOM     75  C   UNL A   1      39.052  34.053  37.689  1.00  0.00     0.134 A 
ATOM     76  C   UNL A   1      40.693  35.464  36.673  1.00  0.00     0.134 A 
ATOM     77  F   UNL A   1      38.276  32.958  37.692  1.00  0.00    -0.206 F 
ATOM     78  C   UNL A   1      38.904  34.964  38.736  1.00  0.00     0.040 A 
ATOM     79  C   UNL A   1      40.574  36.373  37.728  1.00  0.00     0.040 A 
ATOM     80  F   UNL A   1      41.556  35.752  35.689  1.00  0.00    -0.206 F 
ATOM     81  C   UNL A   1      39.672  36.127  38.760  1.00  0.00     0.006 A 
ENDBRANCH  53  74
BRANCH  65  82
ATOM     82  C   UNL A   1      43.872  28.650  35.475  1.00  0.00     0.057 A 
ATOM     83  C   UNL A   1      45.211  29.047  35.379  1.00  0.00     0.134 A 
ATOM     84  C   UNL A   1      43.561  27.644  36.400  1.00  0.00     0.134 A 
ATOM     85  F   UNL A   1      45.577  29.999  34.507  1.00  0.00    -0.206 F 
ATOM     86  C   UNL A   1      46.204  28.455  36.161  1.00  0.00     0.040 A 
ATOM     87  C   UNL A   1      44.540  27.063  37.205  1.00  0.00     0.040 A 
ATOM     88  F   UNL A   1      42.295  27.226  36.550  1.00  0.00    -0.206 F 
ATOM     89  C   UNL A   1      45.868  27.466  37.084  1.00  0.00     0.006 A 
ENDBRANCH  65  82
ENDBRANCH  39  40
ENDBRANCH  32  34
ENDBRANCH  31  32
ENDBRANCH  30  31
ENDBRANCH  29  30
ENDBRANCH  28  29
ENDBRANCH  27  28
ENDBRANCH   1  27
TORSDOF 21
ENDMDL
MODEL 2
REMARK VINA RESULT:     -10.2      3.375      8.014
REMARK SMILES CCC(CC)(NC(=O)Nc1cc(Cl)cc(Cl)c1)C(=O)OCCOCCOCCOC(=O)c1ccc(-c2c3nc(c(-c4c(F)cccc4F)c4ccc([nH]4)c(-c4c(F)cccc4F)c4nc(c(-c5c(F)cccc5F)c5ccc2[nH]5)C=C4)C=C3)cc1
REMARK SMILES IDX 24 1 23 2 22 3 21 4 20 5 18 6 19 7 3 8 2 9 1 10 4 11 5 12
REMARK SMILES IDX 6 13 7 14 8 16 9 17 10 19 11 20 17 21 12 22 15 23 13 24
REMARK SMILES IDX 14 25 16 26 25 27 26 28 27 29 28 30 29 31 30 32 31 33 32 34
REMARK SMILES IDX 33 35 85 36 34 37 84 38 35 39 36 40 37 41 78 42 38 43 83 44
REMARK SMILES IDX 77 45 79 46 39 47 82 48 76 49 75 50 40 52 66 53 49 54 65 55
REMARK SMILES IDX 50 56 53 57 64 58 80 59 51 60 52 61 63 63 81 64 54 65 41 66
REMARK SMILES IDX 42 67 47 68 43 69 44 70 46 71 48 72 45 73 67 74 68 75 73 76
REMARK SMILES IDX 69 77 70 78 72 79 74 80 71 81 55 82 56 83 61 84 57 85 58 86
REMARK SMILES IDX 60 87 62 88 59 89
REMARK H PARENT 6 15 9 18 79 51 53 62
REMARK Flexibility Score: inf
ROOT
ATOM      1  C   UNL A   1      39.663  20.036  25.820  1.00  0.00     0.188 C 
ENDROOT
BRANCH   1   2
ATOM      2  O   UNL A   1      39.436  21.409  26.185  1.00  0.00    -0.376 OA
BRANCH   2   3
ATOM      3  C   UNL A   1      38.217  21.969  25.670  1.00  0.00     0.202 C 
BRANCH   3   4
ATOM      4  C   UNL A   1      37.328  20.929  24.889  1.00  0.00     0.261 C 
BRANCH   4   5
ATOM      5  O   UNL A   1      36.096  21.517  24.355  1.00  0.00    -0.461 OA
BRANCH   5   6
ATOM      6  C   UNL A   1      35.875  22.635  23.561  1.00  0.00     0.331 C 
ATOM      7  O   UNL A   1      36.687  23.053  22.743  1.00  0.00    -0.249 OA
BRANCH   6   8
ATOM      8  C   UNL A   1      34.387  23.276  23.806  1.00  0.00     0.139 C 
BRANCH   8   9
ATOM      9  C   UNL A   1      33.356  23.994  22.848  1.00  0.00     0.037 C 
ATOM     10  C   UNL A   1      33.368  25.456  22.503  1.00  0.00     0.007 C 
ENDBRANCH   8   9
BRANCH   8  11
ATOM     11  C   UNL A   1      34.576  24.180  25.060  1.00  0.00     0.037 C 
ATOM     12  C   UNL A   1      36.000  24.410  25.565  1.00  0.00     0.007 C 
ENDBRANCH   8  11
BRANCH   8  13
ATOM     13  N   UNL A   1      33.690  22.041  24.061  1.00  0.00    -0.322 N 
ATOM     14  C   UNL A   1      32.567  21.929  24.799  1.00  0.00     0.320 C 
ATOM     15  H   UNL A   1      34.061  21.218  23.668  1.00  0.00     0.166 HD
ATOM     16  O   UNL A   1      32.197  20.767  24.981  1.00  0.00    -0.248 OA
ATOM     17  N   UNL A   1      31.924  22.955  25.448  1.00  0.00    -0.308 N 
ATOM     18  H   UNL A   1      31.382  22.526  26.148  1.00  0.00     0.171 HD
BRANCH  17  19
ATOM     19  C   UNL A   1      31.679  24.371  25.578  1.00  0.00     0.045 A 
ATOM     20  C   UNL A   1      32.390  25.380  26.238  1.00  0.00     0.046 A 
ATOM     21  C   UNL A   1      30.605  24.842  24.808  1.00  0.00     0.046 A 
ATOM     22  C   UNL A   1      32.029  26.740  26.210  1.00  0.00     0.044 A 
ATOM     23  C   UNL A   1      30.255  26.203  24.749  1.00  0.00     0.044 A 
ATOM     24  Cl  UNL A   1      32.980  27.901  27.065  1.00  0.00    -0.084 Cl
ATOM     25  C   UNL A   1      30.951  27.161  25.467  1.00  0.00     0.041 A 
ATOM     26  Cl  UNL A   1      28.959  26.695  23.732  1.00  0.00    -0.084 Cl
ENDBRANCH  17  19
ENDBRANCH   8  13
ENDBRANCH   6   8
ENDBRANCH   5   6
ENDBRANCH   4   5
ENDBRANCH   3   4
ENDBRANCH   2   3
ENDBRANCH   1   2
BRANCH   1  27
ATOM     27  C   UNL A   1      41.092  19.553  26.140  1.00  0.00     0.188 C 
BRANCH  27  28
ATOM     28  O   UNL A   1      41.656  20.061  27.336  1.00  0.00    -0.376 OA
BRANCH  28  29
ATOM     29  C   UNL A   1      42.651  21.048  27.171  1.00  0.00     0.202 C 
BRANCH  29  30
ATOM     30  C   UNL A   1      43.088  21.296  25.716  1.00  0.00     0.261 C 
BRANCH  30  31
ATOM     31  O   UNL A   1      42.521  22.465  25.099  1.00  0.00    -0.460 OA
BRANCH  31  32
ATOM     32  C   UNL A   1      43.316  23.563  25.072  1.00  0.00     0.338 C 
ATOM     33  O   UNL A   1      44.386  23.679  24.496  1.00  0.00    -0.246 OA
BRANCH  32  34
ATOM     34  C   UNL A   1      42.625  24.666  25.786  1.00  0.00     0.060 A 
ATOM     35  C   UNL A   1      43.084  25.981  25.622  1.00  0.00     0.016 A 
ATOM     36  C   UNL A   1      41.559  24.405  26.654  1.00  0.00     0.016 A 
ATOM     37  C   UNL A   1      42.533  27.021  26.381  1.00  0.00     0.010 A 
ATOM     38  C   UNL A   1      41.014  25.442  27.419  1.00  0.00     0.010 A 
ATOM     39  C   UNL A   1      41.536  26.745  27.329  1.00  0.00    -0.014 A 
BRANCH  39  40
ATOM     40  C   UNL A   1      41.258  27.694  28.440  1.00  0.00     0.031 A 
ATOM     41  C   UNL A   1      42.106  27.568  29.681  1.00  0.00     0.074 A 
ATOM     42  C   UNL A   1      40.265  28.601  28.399  1.00  0.00     0.049 A 
ATOM     43  N   UNL A   1      41.983  28.150  30.845  1.00  0.00    -0.248 NA
ATOM     44  C   UNL A   1      43.246  26.636  29.592  1.00  0.00     0.031 C 
ATOM     45  C   UNL A   1      39.396  28.863  27.255  1.00  0.00     0.029 A 
ATOM     46  N   UNL A   1      39.810  29.460  29.373  1.00  0.00    -0.354 N 
ATOM     47  C   UNL A   1      43.016  27.648  31.626  1.00  0.00     0.074 A 
ATOM     48  C   UNL A   1      43.743  26.697  30.815  1.00  0.00     0.031 C 
ATOM     49  C   UNL A   1      38.496  29.803  27.599  1.00  0.00     0.029 A 
ATOM     50  C   UNL A   1      38.701  30.181  28.999  1.00  0.00     0.049 A 
ATOM     51  H   UNL A   1      40.237  29.549  30.254  1.00  0.00     0.167 HD
ATOM     52  C   UNL A   1      43.340  27.949  32.906  1.00  0.00     0.037 A 
ATOM     53  C   UNL A   1      37.928  31.023  29.715  1.00  0.00     0.037 A 
ATOM     54  C   UNL A   1      42.614  28.881  33.723  1.00  0.00     0.049 A 
ATOM     55  C   UNL A   1      38.257  31.287  31.166  1.00  0.00     0.074 A 
ATOM     56  C   UNL A   1      42.859  29.255  35.031  1.00  0.00     0.029 A 
ATOM     57  N   UNL A   1      41.492  29.581  33.306  1.00  0.00    -0.354 N 
ATOM     58  N   UNL A   1      39.243  30.818  31.892  1.00  0.00    -0.248 NA
ATOM     59  C   UNL A   1      37.359  32.194  31.898  1.00  0.00     0.031 C 
ATOM     60  C   UNL A   1      41.857  30.148  35.423  1.00  0.00     0.029 A 
ATOM     61  C   UNL A   1      41.021  30.371  34.340  1.00  0.00     0.049 A 
ATOM     62  H   UNL A   1      41.091  29.526  32.409  1.00  0.00     0.167 HD
ATOM     63  C   UNL A   1      39.106  31.399  33.149  1.00  0.00     0.074 A 
ATOM     64  C   UNL A   1      37.943  32.258  33.086  1.00  0.00     0.031 C 
ATOM     65  C   UNL A   1      39.873  31.237  34.254  1.00  0.00     0.037 A 
BRANCH  52  66
ATOM     66  C   UNL A   1      44.511  27.228  33.504  1.00  0.00     0.057 A 
ATOM     67  C   UNL A   1      44.370  25.982  34.131  1.00  0.00     0.134 A 
ATOM     68  C   UNL A   1      45.794  27.784  33.452  1.00  0.00     0.134 A 
ATOM     69  F   UNL A   1      43.164  25.405  34.233  1.00  0.00    -0.206 F 
ATOM     70  C   UNL A   1      45.460  25.331  34.710  1.00  0.00     0.040 A 
ATOM     71  C   UNL A   1      46.896  27.130  34.002  1.00  0.00     0.040 A 
ATOM     72  F   UNL A   1      45.997  28.975  32.867  1.00  0.00    -0.206 F 
ATOM     73  C   UNL A   1      46.729  25.903  34.641  1.00  0.00     0.006 A 
ENDBRANCH  52  66
BRANCH  53  74
ATOM     74  C   UNL A   1      36.744  31.674  29.092  1.00  0.00     0.057 A 
ATOM     75  C   UNL A   1      35.559  30.963  28.867  1.00  0.00     0.134 A 
ATOM     76  C   UNL A   1      36.783  33.006  28.663  1.00  0.00     0.134 A 
ATOM     77  F   UNL A   1      35.468  29.673  29.224  1.00  0.00    -0.206 F 
ATOM     78  C   UNL A   1      34.465  31.544  28.222  1.00  0.00     0.040 A 
ATOM     79  C   UNL A   1      35.687  33.609  28.040  1.00  0.00     0.040 A 
ATOM     80  F   UNL A   1      37.890  33.743  28.840  1.00  0.00    -0.206 F 
ATOM     81  C   UNL A   1      34.526  32.874  27.812  1.00  0.00     0.006 A 
ENDBRANCH  53  74
BRANCH  65  82
ATOM     82  C   UNL A   1      39.521  32.041  35.473  1.00  0.00     0.057 A 
ATOM     83  C   UNL A   1      40.061  33.311  35.708  1.00  0.00     0.134 A 
ATOM     84  C   UNL A   1      38.575  31.561  36.389  1.00  0.00     0.134 A 
ATOM     85  F   UNL A   1      40.978  33.824  34.874  1.00  0.00    -0.206 F 
ATOM     86  C   UNL A   1      39.687  34.067  36.820  1.00  0.00     0.040 A 
ATOM     87  C   UNL A   1      38.173  32.318  37.489  1.00  0.00     0.040 A 
ATOM     88  F   UNL A   1      38.009  30.357  36.216  1.00  0.00    -0.206 F 
ATOM     89  C   UNL A   1      38.734  33.574  37.709  1.00  0.00     0.006 A 
ENDBRANCH  65  82
ENDBRANCH  39  40
ENDBRANCH  32  34
ENDBRANCH  31  32
ENDBRANCH  30  31
ENDBRANCH  29  30
ENDBRANCH  28  29
ENDBRANCH  27  28
ENDBRANCH   1  27
TORSDOF 21
ENDMDL
MODEL 3
REMARK VINA RESULT:     -10.1      1.249      6.262
REMARK SMILES CCC(CC)(NC(=O)Nc1cc(Cl)cc(Cl)c1)C(=O)OCCOCCOCCOC(=O)c1ccc(-c2c3nc(c(-c4c(F)cccc4F)c4ccc([nH]4)c(-c4c(F)cccc4F)c4nc(c(-c5c(F)cccc5F)c5ccc2[nH]5)C=C4)C=C3)cc1
REMARK SMILES IDX 24 1 23 2 22 3 21 4 20 5 18 6 19 7 3 8 2 9 1 10 4 11 5 12
REMARK SMILES IDX 6 13 7 14 8 16 9 17 10 19 11 20 17 21 12 22 15 23 13 24
REMARK SMILES IDX 14 25 16 26 25 27 26 28 27 29 28 30 29 31 30 32 31 33 32 34
REMARK SMILES IDX 33 35 85 36 34 37 84 38 35 39 36 40 37 41 78 42 38 43 83 44
REMARK SMILES IDX 77 45 79 46 39 47 82 48 76 49 75 50 40 52 66 53 49 54 65 55
REMARK SMILES IDX 50 56 53 57 64 58 80 59 51 60 52 61 63 63 81 64 54 65 41 66
REMARK SMILES IDX 42 67 47 68 43 69 44 70 46 71 48 72 45 73 67 74 68 75 73 76
REMARK SMILES IDX 69 77 70 78 72 79 74 80 71 81 55 82 56 83 61 84 57 85 58 86
REMARK SMILES IDX 60 87 62 88 59 89
REMARK H PARENT 6 15 9 18 79 51 53 62
REMARK Flexibility Score: inf
ROOT
ATOM      1  C   UNL A   1      34.082  28.860  26.327  1.00  0.00     0.188 C 
ENDROOT
BRANCH   1   2
ATOM      2  O   UNL A   1      34.030  28.563  24.921  1.00  0.00    -0.376 OA
BRANCH   2   3
ATOM      3  C   UNL A   1      32.839  29.018  24.258  1.00  0.00     0.202 C 
BRANCH   3   4
ATOM      4  C   UNL A   1      32.001  27.855  23.603  1.00  0.00     0.261 C 
BRANCH   4   5
ATOM      5  O   UNL A   1      31.083  27.210  24.547  1.00  0.00    -0.461 OA
BRANCH   5   6
ATOM      6  C   UNL A   1      30.406  25.999  24.497  1.00  0.00     0.331 C 
ATOM      7  O   UNL A   1      29.303  25.863  23.977  1.00  0.00    -0.249 OA
BRANCH   6   8
ATOM      8  C   UNL A   1      31.282  24.779  25.152  1.00  0.00     0.139 C 
BRANCH   8   9
ATOM      9  C   UNL A   1      32.659  24.740  25.923  1.00  0.00     0.037 C 
ATOM     10  C   UNL A   1      33.968  25.245  25.384  1.00  0.00     0.007 C 
ENDBRANCH   8   9
BRANCH   8  11
ATOM     11  C   UNL A   1      31.347  23.718  24.011  1.00  0.00     0.037 C 
ATOM     12  C   UNL A   1      32.418  23.892  22.936  1.00  0.00     0.007 C 
ENDBRANCH   8  11
BRANCH   8  13
ATOM     13  N   UNL A   1      30.374  24.449  26.221  1.00  0.00    -0.322 N 
ATOM     14  C   UNL A   1      30.305  23.247  26.828  1.00  0.00     0.320 C 
ATOM     15  H   UNL A   1      29.759  25.152  26.531  1.00  0.00     0.166 HD
ATOM     16  O   UNL A   1      29.385  23.146  27.643  1.00  0.00    -0.248 OA
ATOM     17  N   UNL A   1      31.056  22.141  26.513  1.00  0.00    -0.308 N 
ATOM     18  H   UNL A   1      30.555  21.371  26.866  1.00  0.00     0.171 HD
BRANCH  17  19
ATOM     19  C   UNL A   1      32.240  21.586  25.903  1.00  0.00     0.045 A 
ATOM     20  C   UNL A   1      33.601  21.795  26.157  1.00  0.00     0.046 A 
ATOM     21  C   UNL A   1      31.984  20.568  24.972  1.00  0.00     0.046 A 
ATOM     22  C   UNL A   1      34.636  21.112  25.491  1.00  0.00     0.044 A 
ATOM     23  C   UNL A   1      33.012  19.859  24.324  1.00  0.00     0.044 A 
ATOM     24  Cl  UNL A   1      36.283  21.452  25.885  1.00  0.00    -0.084 Cl
ATOM     25  C   UNL A   1      34.346  20.140  24.562  1.00  0.00     0.041 A 
ATOM     26  Cl  UNL A   1      32.603  18.587  23.242  1.00  0.00    -0.084 Cl
ENDBRANCH  17  19
ENDBRANCH   8  13
ENDBRANCH   6   8
ENDBRANCH   5   6
ENDBRANCH   4   5
ENDBRANCH   3   4
ENDBRANCH   2   3
ENDBRANCH   1   2
BRANCH   1  27
ATOM     27  C   UNL A   1      32.757  29.428  26.875  1.00  0.00     0.188 C 
BRANCH  27  28
ATOM     28  O   UNL A   1      32.788  30.790  27.261  1.00  0.00    -0.376 OA
BRANCH  28  29
ATOM     29  C   UNL A   1      31.717  31.582  26.794  1.00  0.00     0.202 C 
BRANCH  29  30
ATOM     30  C   UNL A   1      31.862  33.093  27.050  1.00  0.00     0.261 C 
BRANCH  30  31
ATOM     31  O   UNL A   1      33.191  33.531  27.379  1.00  0.00    -0.460 OA
BRANCH  31  32
ATOM     32  C   UNL A   1      33.289  34.385  28.428  1.00  0.00     0.338 C 
ATOM     33  O   UNL A   1      32.545  35.318  28.686  1.00  0.00    -0.246 OA
BRANCH  32  34
ATOM     34  C   UNL A   1      34.411  33.945  29.295  1.00  0.00     0.060 A 
ATOM     35  C   UNL A   1      35.726  34.260  28.924  1.00  0.00     0.016 A 
ATOM     36  C   UNL A   1      34.177  33.182  30.444  1.00  0.00     0.016 A 
ATOM     37  C   UNL A   1      36.808  33.748  29.653  1.00  0.00     0.010 A 
ATOM     38  C   UNL A   1      35.256  32.663  31.168  1.00  0.00     0.010 A 
ATOM     39  C   UNL A   1      36.576  32.896  30.743  1.00  0.00    -0.014 A 
BRANCH  39  40
ATOM     40  C   UNL A   1      37.647  31.992  31.243  1.00  0.00     0.031 A 
ATOM     41  C   UNL A   1      38.199  32.275  32.619  1.00  0.00     0.074 A 
ATOM     42  C   UNL A   1      38.166  30.991  30.508  1.00  0.00     0.049 A 
ATOM     43  N   UNL A   1      39.229  31.754  33.233  1.00  0.00    -0.248 NA
ATOM     44  C   UNL A   1      37.491  33.306  33.399  1.00  0.00     0.031 C 
ATOM     45  C   UNL A   1      37.705  30.578  29.186  1.00  0.00     0.029 A 
ATOM     46  N   UNL A   1      39.222  30.153  30.776  1.00  0.00    -0.354 N 
ATOM     47  C   UNL A   1      39.298  32.401  34.462  1.00  0.00     0.074 A 
ATOM     48  C   UNL A   1      38.224  33.368  34.497  1.00  0.00     0.031 C 
ATOM     49  C   UNL A   1      38.490  29.577  28.746  1.00  0.00     0.029 A 
ATOM     50  C   UNL A   1      39.531  29.305  29.738  1.00  0.00     0.049 A 
ATOM     51  H   UNL A   1      39.712  30.159  31.629  1.00  0.00     0.167 HD
ATOM     52  C   UNL A   1      40.174  32.210  35.475  1.00  0.00     0.037 A 
ATOM     53  C   UNL A   1      40.553  28.436  29.599  1.00  0.00     0.037 A 
ATOM     54  C   UNL A   1      41.252  31.262  35.442  1.00  0.00     0.049 A 
ATOM     55  C   UNL A   1      41.569  28.293  30.709  1.00  0.00     0.074 A 
ATOM     56  C   UNL A   1      42.196  30.993  36.416  1.00  0.00     0.029 A 
ATOM     57  N   UNL A   1      41.533  30.432  34.368  1.00  0.00    -0.354 N 
ATOM     58  N   UNL A   1      41.618  28.899  31.871  1.00  0.00    -0.248 NA
ATOM     59  C   UNL A   1      42.674  27.348  30.484  1.00  0.00     0.031 C 
ATOM     60  C   UNL A   1      43.078  30.031  35.914  1.00  0.00     0.029 A 
ATOM     61  C   UNL A   1      42.650  29.664  34.648  1.00  0.00     0.049 A 
ATOM     62  H   UNL A   1      41.016  30.394  33.531  1.00  0.00     0.167 HD
ATOM     63  C   UNL A   1      42.733  28.384  32.526  1.00  0.00     0.074 A 
ATOM     64  C   UNL A   1      43.329  27.413  31.634  1.00  0.00     0.031 C 
ATOM     65  C   UNL A   1      43.218  28.686  33.755  1.00  0.00     0.037 A 
BRANCH  52  66
ATOM     66  C   UNL A   1      40.015  33.077  36.689  1.00  0.00     0.057 A 
ATOM     67  C   UNL A   1      40.790  34.228  36.882  1.00  0.00     0.134 A 
ATOM     68  C   UNL A   1      39.077  32.756  37.677  1.00  0.00     0.134 A 
ATOM     69  F   UNL A   1      41.721  34.579  35.983  1.00  0.00    -0.206 F 
ATOM     70  C   UNL A   1      40.656  35.013  38.028  1.00  0.00     0.040 A 
ATOM     71  C   UNL A   1      38.914  33.548  38.814  1.00  0.00     0.040 A 
ATOM     72  F   UNL A   1      38.303  31.666  37.555  1.00  0.00    -0.206 F 
ATOM     73  C   UNL A   1      39.711  34.677  38.995  1.00  0.00     0.006 A 
ENDBRANCH  52  66
BRANCH  53  74
ATOM     74  C   UNL A   1      40.699  27.637  28.353  1.00  0.00     0.057 A 
ATOM     75  C   UNL A   1      41.428  28.122  27.260  1.00  0.00     0.134 A 
ATOM     76  C   UNL A   1      40.074  26.393  28.205  1.00  0.00     0.134 A 
ATOM     77  F   UNL A   1      42.024  29.322  27.326  1.00  0.00    -0.206 F 
ATOM     78  C   UNL A   1      41.516  27.410  26.062  1.00  0.00     0.040 A 
ATOM     79  C   UNL A   1      40.174  25.658  27.021  1.00  0.00     0.040 A 
ATOM     80  F   UNL A   1      39.353  25.873  29.209  1.00  0.00    -0.206 F 
ATOM     81  C   UNL A   1      40.891  26.170  25.942  1.00  0.00     0.006 A 
ENDBRANCH  53  74
BRANCH  65  82
ATOM     82  C   UNL A   1      44.420  27.926  34.237  1.00  0.00     0.057 A 
ATOM     83  C   UNL A   1      44.305  26.715  34.931  1.00  0.00     0.134 A 
ATOM     84  C   UNL A   1      45.712  28.383  33.943  1.00  0.00     0.134 A 
ATOM     85  F   UNL A   1      43.097  26.227  35.251  1.00  0.00    -0.206 F 
ATOM     86  C   UNL A   1      45.433  25.995  35.330  1.00  0.00     0.040 A 
ATOM     87  C   UNL A   1      46.845  27.659  34.314  1.00  0.00     0.040 A 
ATOM     88  F   UNL A   1      45.892  29.530  33.270  1.00  0.00    -0.206 F 
ATOM     89  C   UNL A   1      46.707  26.463  35.014  1.00  0.00     0.006 A 
ENDBRANCH  65  82
ENDBRANCH  39  40
ENDBRANCH  32  34
ENDBRANCH  31  32
ENDBRANCH  30  31
ENDBRANCH  29  30
ENDBRANCH  28  29
ENDBRANCH  27  28
ENDBRANCH   1  27
TORSDOF 21
ENDMDL
