MODEL 1
REMARK VINA RESULT:     -11.8      0.000      0.000
REMARK SMILES O=C1C[C@@H](C(=O)OCCOCCOCCOC(=O)c2ccc(-c3c4nc(c(-c5c(F)cccc5F)c5ccc([nH]5)c(-c5c(F)cccc5F)c5nc(c(-c6c(F)cccc6F)c6ccc3[nH]6)C=C5)C=C4)cc2)C2(CC[NH+](Cc3c[nH]nc3-c3ccc(Cl)cc3)CC2)N1
REMARK SMILES IDX 11 1 10 2 9 3 8 4 7 5 5 6 6 7 4 8 1 9 2 10 3 11 92 12 73 13
REMARK SMILES IDX 74 15 91 16 75 17 90 18 76 19 77 21 78 22 79 23 82 24 80 25
REMARK SMILES IDX 81 26 83 28 84 29 89 30 85 31 88 32 86 33 87 34 12 35 13 36
REMARK SMILES IDX 14 37 15 38 16 39 17 40 18 41 19 42 20 43 72 44 21 45 71 46
REMARK SMILES IDX 22 47 23 48 24 49 65 50 25 51 70 52 64 53 66 54 26 55 69 56
REMARK SMILES IDX 63 57 62 58 27 60 53 61 36 62 52 63 37 64 40 65 51 66 67 67
REMARK SMILES IDX 38 68 39 69 50 71 68 72 41 73 28 74 29 75 34 76 30 77 31 78
REMARK SMILES IDX 33 79 35 80 32 81 54 82 55 83 60 84 56 85 57 86 59 87 61 88
REMARK SMILES IDX 58 89 42 90 43 91 48 92 44 93 45 94 47 95 49 96 46 97
REMARK H PARENT 92 14 76 20 80 27 66 59 40 70
REMARK Flexibility Score: inf
ROOT
ATOM      1  C   UNL A   1      38.464  22.123  25.933  1.00  0.00     0.188 C 
ENDROOT
BRANCH   1   2
ATOM      2  O   UNL A   1      37.432  21.999  24.965  1.00  0.00    -0.376 OA
BRANCH   2   3
ATOM      3  C   UNL A   1      36.544  20.893  25.032  1.00  0.00     0.202 C 
BRANCH   3   4
ATOM      4  C   UNL A   1      35.067  21.136  24.663  1.00  0.00     0.261 C 
BRANCH   4   5
ATOM      5  O   UNL A   1      34.027  20.385  25.361  1.00  0.00    -0.463 OA
BRANCH   5   6
ATOM      6  C   UNL A   1      32.797  20.953  25.357  1.00  0.00     0.311 C 
ATOM      7  O   UNL A   1      31.778  20.333  25.048  1.00  0.00    -0.252 OA
BRANCH   6   8
ATOM      8  C   UNL A   1      32.687  22.457  25.638  1.00  0.00     0.134 C 
ATOM      9  O   UNL A   1      29.763  23.021  27.607  1.00  0.00    -0.275 OA
ATOM     10  C   UNL A   1      30.697  23.045  26.817  1.00  0.00     0.221 C 
ATOM     11  C   UNL A   1      32.092  22.550  27.061  1.00  0.00     0.117 C 
ATOM     12  N   UNL A   1      30.645  23.590  25.564  1.00  0.00    -0.349 N 
ATOM     13  C   UNL A   1      31.917  23.572  24.871  1.00  0.00     0.064 C 
ATOM     14  H   UNL A   1      29.822  23.958  25.171  1.00  0.00     0.164 HD
ATOM     15  C   UNL A   1      31.637  23.425  23.384  1.00  0.00     0.091 C 
ATOM     16  C   UNL A   1      32.625  24.960  25.102  1.00  0.00     0.091 C 
ATOM     17  C   UNL A   1      32.889  23.682  22.576  1.00  0.00     0.264 C 
ATOM     18  C   UNL A   1      33.732  25.341  24.097  1.00  0.00     0.264 C 
ATOM     19  N   UNL A   1      33.468  24.999  22.710  1.00  0.00    -0.331 N 
ATOM     20  H   UNL A   1      34.406  24.954  22.310  1.00  0.00     0.348 HD
BRANCH  19  21
ATOM     21  C   UNL A   1      32.981  26.036  21.784  1.00  0.00     0.303 C 
BRANCH  21  22
ATOM     22  C   UNL A   1      33.083  27.421  22.327  1.00  0.00     0.052 A 
ATOM     23  C   UNL A   1      34.227  28.199  22.325  1.00  0.00     0.115 A 
ATOM     24  C   UNL A   1      32.080  28.285  22.895  1.00  0.00     0.101 A 
ATOM     25  N   UNL A   1      33.932  29.319  23.028  1.00  0.00    -0.285 N 
ATOM     26  N   UNL A   1      32.642  29.420  23.350  1.00  0.00    -0.175 NA
ATOM     27  H   UNL A   1      34.606  29.993  23.277  1.00  0.00     0.189 HD
BRANCH  24  28
ATOM     28  C   UNL A   1      30.630  28.128  23.041  1.00  0.00     0.003 A 
ATOM     29  C   UNL A   1      29.780  29.179  22.661  1.00  0.00     0.012 A 
ATOM     30  C   UNL A   1      30.058  27.006  23.639  1.00  0.00     0.012 A 
ATOM     31  C   UNL A   1      28.395  29.096  22.856  1.00  0.00     0.021 A 
ATOM     32  C   UNL A   1      28.673  26.912  23.825  1.00  0.00     0.021 A 
ATOM     33  C   UNL A   1      27.846  27.958  23.436  1.00  0.00     0.041 A 
ATOM     34  Cl  UNL A   1      26.150  27.849  23.696  1.00  0.00    -0.084 Cl
ENDBRANCH  24  28
ENDBRANCH  21  22
ENDBRANCH  19  21
ENDBRANCH   6   8
ENDBRANCH   5   6
ENDBRANCH   4   5
ENDBRANCH   3   4
ENDBRANCH   2   3
ENDBRANCH   1   2
BRANCH   1  35
ATOM     35  C   UNL A   1      39.614  21.131  25.899  1.00  0.00     0.188 C 
BRANCH  35  36
ATOM     36  O   UNL A   1      40.679  21.443  26.772  1.00  0.00    -0.376 OA
BRANCH  36  37
ATOM     37  C   UNL A   1      41.955  21.457  26.158  1.00  0.00     0.202 C 
BRANCH  37  38
ATOM     38  C   UNL A   1      42.270  22.851  25.612  1.00  0.00     0.261 C 
BRANCH  38  39
ATOM     39  O   UNL A   1      42.187  23.915  26.593  1.00  0.00    -0.460 OA
BRANCH  39  40
ATOM     40  C   UNL A   1      42.083  25.172  26.106  1.00  0.00     0.338 C 
ATOM     41  O   UNL A   1      42.244  25.518  24.950  1.00  0.00    -0.246 OA
BRANCH  40  42
ATOM     42  C   UNL A   1      41.562  26.074  27.156  1.00  0.00     0.060 A 
ATOM     43  C   UNL A   1      42.161  27.322  27.328  1.00  0.00     0.016 A 
ATOM     44  C   UNL A   1      40.583  25.660  28.047  1.00  0.00     0.016 A 
ATOM     45  C   UNL A   1      41.839  28.150  28.395  1.00  0.00     0.010 A 
ATOM     46  C   UNL A   1      40.223  26.507  29.106  1.00  0.00     0.010 A 
ATOM     47  C   UNL A   1      40.864  27.749  29.302  1.00  0.00    -0.014 A 
BRANCH  47  48
ATOM     48  C   UNL A   1      40.585  28.575  30.505  1.00  0.00     0.031 A 
ATOM     49  C   UNL A   1      39.477  29.586  30.456  1.00  0.00     0.074 A 
ATOM     50  C   UNL A   1      41.304  28.425  31.633  1.00  0.00     0.049 A 
ATOM     51  N   UNL A   1      39.210  30.568  31.275  1.00  0.00    -0.248 NA
ATOM     52  C   UNL A   1      38.554  29.481  29.315  1.00  0.00     0.031 C 
ATOM     53  C   UNL A   1      42.342  27.417  31.853  1.00  0.00     0.029 A 
ATOM     54  N   UNL A   1      41.283  29.143  32.805  1.00  0.00    -0.354 N 
ATOM     55  C   UNL A   1      38.134  31.242  30.713  1.00  0.00     0.074 A 
ATOM     56  C   UNL A   1      37.799  30.555  29.484  1.00  0.00     0.031 C 
ATOM     57  C   UNL A   1      42.870  27.591  33.075  1.00  0.00     0.029 A 
ATOM     58  C   UNL A   1      42.270  28.772  33.686  1.00  0.00     0.049 A 
ATOM     59  H   UNL A   1      40.626  29.851  32.993  1.00  0.00     0.167 HD
ATOM     60  C   UNL A   1      37.496  32.343  31.179  1.00  0.00     0.037 A 
ATOM     61  C   UNL A   1      42.691  29.355  34.824  1.00  0.00     0.037 A 
ATOM     62  C   UNL A   1      37.824  32.994  32.421  1.00  0.00     0.049 A 
ATOM     63  C   UNL A   1      42.019  30.615  35.292  1.00  0.00     0.074 A 
ATOM     64  C   UNL A   1      37.227  34.099  33.000  1.00  0.00     0.029 A 
ATOM     65  N   UNL A   1      38.845  32.599  33.275  1.00  0.00    -0.354 N 
ATOM     66  N   UNL A   1      41.028  31.276  34.743  1.00  0.00    -0.248 NA
ATOM     67  C   UNL A   1      42.527  31.216  36.533  1.00  0.00     0.031 C 
ATOM     68  C   UNL A   1      37.929  34.412  34.170  1.00  0.00     0.029 A 
ATOM     69  C   UNL A   1      38.918  33.460  34.359  1.00  0.00     0.049 A 
ATOM     70  H   UNL A   1      39.432  31.822  33.131  1.00  0.00     0.167 HD
ATOM     71  C   UNL A   1      40.780  32.357  35.579  1.00  0.00     0.074 A 
ATOM     72  C   UNL A   1      41.716  32.255  36.680  1.00  0.00     0.031 C 
ATOM     73  C   UNL A   1      39.859  33.345  35.446  1.00  0.00     0.037 A 
BRANCH  60  74
ATOM     74  C   UNL A   1      36.437  32.948  30.300  1.00  0.00     0.057 A 
ATOM     75  C   UNL A   1      35.067  32.772  30.533  1.00  0.00     0.134 A 
ATOM     76  C   UNL A   1      36.804  33.710  29.182  1.00  0.00     0.134 A 
ATOM     77  F   UNL A   1      34.642  32.041  31.575  1.00  0.00    -0.206 F 
ATOM     78  C   UNL A   1      34.103  33.291  29.664  1.00  0.00     0.040 A 
ATOM     79  C   UNL A   1      35.851  34.264  28.326  1.00  0.00     0.040 A 
ATOM     80  F   UNL A   1      38.098  33.925  28.899  1.00  0.00    -0.206 F 
ATOM     81  C   UNL A   1      34.496  34.042  28.558  1.00  0.00     0.006 A 
ENDBRANCH  60  74
BRANCH  61  82
ATOM     82  C   UNL A   1      43.847  28.779  35.559  1.00  0.00     0.057 A 
ATOM     83  C   UNL A   1      43.666  27.831  36.570  1.00  0.00     0.134 A 
ATOM     84  C   UNL A   1      45.164  29.143  35.245  1.00  0.00     0.134 A 
ATOM     85  F   UNL A   1      42.429  27.460  36.934  1.00  0.00    -0.206 F 
ATOM     86  C   UNL A   1      44.750  27.264  37.245  1.00  0.00     0.040 A 
ATOM     87  C   UNL A   1      46.257  28.562  35.889  1.00  0.00     0.040 A 
ATOM     88  F   UNL A   1      45.406  30.045  34.283  1.00  0.00    -0.206 F 
ATOM     89  C   UNL A   1      46.050  27.622  36.895  1.00  0.00     0.006 A 
ENDBRANCH  61  82
BRANCH  73  90
ATOM     90  C   UNL A   1      39.791  34.372  36.541  1.00  0.00     0.057 A 
ATOM     91  C   UNL A   1      40.465  35.597  36.456  1.00  0.00     0.134 A 
ATOM     92  C   UNL A   1      39.005  34.145  37.678  1.00  0.00     0.134 A 
ATOM     93  F   UNL A   1      41.246  35.873  35.400  1.00  0.00    -0.206 F 
ATOM     94  C   UNL A   1      40.380  36.549  37.474  1.00  0.00     0.040 A 
ATOM     95  C   UNL A   1      38.886  35.102  38.687  1.00  0.00     0.040 A 
ATOM     96  F   UNL A   1      38.325  32.997  37.820  1.00  0.00    -0.206 F 
ATOM     97  C   UNL A   1      39.580  36.305  38.589  1.00  0.00     0.006 A 
ENDBRANCH  73  90
ENDBRANCH  47  48
ENDBRANCH  40  42
ENDBRANCH  39  40
ENDBRANCH  38  39
ENDBRANCH  37  38
ENDBRANCH  36  37
ENDBRANCH  35  36
ENDBRANCH   1  35
TORSDOF 20
ENDMDL
MODEL 2
REMARK VINA RESULT:     -11.7      4.490      7.970
REMARK SMILES O=C1C[C@@H](C(=O)OCCOCCOCCOC(=O)c2ccc(-c3c4nc(c(-c5c(F)cccc5F)c5ccc([nH]5)c(-c5c(F)cccc5F)c5nc(c(-c6c(F)cccc6F)c6ccc3[nH]6)C=C5)C=C4)cc2)C2(CC[NH+](Cc3c[nH]nc3-c3ccc(Cl)cc3)CC2)N1
REMARK SMILES IDX 11 1 10 2 9 3 8 4 7 5 5 6 6 7 4 8 1 9 2 10 3 11 92 12 73 13
REMARK SMILES IDX 74 15 91 16 75 17 90 18 76 19 77 21 78 22 79 23 82 24 80 25
REMARK SMILES IDX 81 26 83 28 84 29 89 30 85 31 88 32 86 33 87 34 12 35 13 36
REMARK SMILES IDX 14 37 15 38 16 39 17 40 18 41 19 42 20 43 72 44 21 45 71 46
REMARK SMILES IDX 22 47 23 48 24 49 65 50 25 51 70 52 64 53 66 54 26 55 69 56
REMARK SMILES IDX 63 57 62 58 27 60 53 61 36 62 52 63 37 64 40 65 51 66 67 67
REMARK SMILES IDX 38 68 39 69 50 71 68 72 41 73 28 74 29 75 34 76 30 77 31 78
REMARK SMILES IDX 33 79 35 80 32 81 54 82 55 83 60 84 56 85 57 86 59 87 61 88
REMARK SMILES IDX 58 89 42 90 43 91 48 92 44 93 45 94 47 95 49 96 46 97
REMARK H PARENT 92 14 76 20 80 27 66 59 40 70
REMARK Flexibility Score: inf
ROOT
ATOM      1  C   UNL A   1      34.387  23.762  25.337  1.00  0.00     0.188 C 
ENDROOT
BRANCH   1   2
ATOM      2  O   UNL A   1      34.347  23.587  23.929  1.00  0.00    -0.376 OA
BRANCH   2   3
ATOM      3  C   UNL A   1      33.620  24.511  23.133  1.00  0.00     0.202 C 
BRANCH   3   4
ATOM      4  C   UNL A   1      33.108  25.796  23.814  1.00  0.00     0.261 C 
BRANCH   4   5
ATOM      5  O   UNL A   1      31.751  25.824  24.351  1.00  0.00    -0.463 OA
BRANCH   5   6
ATOM      6  C   UNL A   1      31.593  26.525  25.499  1.00  0.00     0.311 C 
ATOM      7  O   UNL A   1      31.551  25.988  26.607  1.00  0.00    -0.252 OA
BRANCH   6   8
ATOM      8  C   UNL A   1      31.343  28.035  25.403  1.00  0.00     0.134 C 
ATOM      9  O   UNL A   1      30.785  28.865  21.976  1.00  0.00    -0.275 OA
ATOM     10  C   UNL A   1      31.104  28.802  23.155  1.00  0.00     0.221 C 
ATOM     11  C   UNL A   1      30.304  28.192  24.269  1.00  0.00     0.117 C 
ATOM     12  N   UNL A   1      32.244  29.338  23.686  1.00  0.00    -0.349 N 
ATOM     13  C   UNL A   1      32.331  29.206  25.125  1.00  0.00     0.064 C 
ATOM     14  H   UNL A   1      32.938  29.772  23.141  1.00  0.00     0.164 HD
ATOM     15  C   UNL A   1      33.801  29.069  25.494  1.00  0.00     0.091 C 
ATOM     16  C   UNL A   1      31.783  30.529  25.779  1.00  0.00     0.091 C 
ATOM     17  C   UNL A   1      33.993  29.211  26.987  1.00  0.00     0.264 C 
ATOM     18  C   UNL A   1      32.211  30.805  27.235  1.00  0.00     0.264 C 
ATOM     19  N   UNL A   1      33.588  30.475  27.559  1.00  0.00    -0.331 N 
ATOM     20  H   UNL A   1      33.553  30.346  28.571  1.00  0.00     0.348 HD
BRANCH  19  21
ATOM     21  C   UNL A   1      34.604  31.542  27.599  1.00  0.00     0.303 C 
BRANCH  21  22
ATOM     22  C   UNL A   1      34.062  32.870  28.007  1.00  0.00     0.052 A 
ATOM     23  C   UNL A   1      32.839  33.386  27.623  1.00  0.00     0.115 A 
ATOM     24  C   UNL A   1      34.593  33.868  28.899  1.00  0.00     0.101 A 
ATOM     25  N   UNL A   1      32.792  34.657  28.091  1.00  0.00    -0.285 N 
ATOM     26  N   UNL A   1      33.812  34.964  28.895  1.00  0.00    -0.175 NA
ATOM     27  H   UNL A   1      32.076  35.292  27.860  1.00  0.00     0.189 HD
BRANCH  24  28
ATOM     28  C   UNL A   1      35.779  33.872  29.761  1.00  0.00     0.003 A 
ATOM     29  C   UNL A   1      35.624  34.019  31.148  1.00  0.00     0.012 A 
ATOM     30  C   UNL A   1      37.074  33.834  29.246  1.00  0.00     0.012 A 
ATOM     31  C   UNL A   1      36.736  34.104  31.996  1.00  0.00     0.021 A 
ATOM     32  C   UNL A   1      38.190  33.904  30.090  1.00  0.00     0.021 A 
ATOM     33  C   UNL A   1      38.018  34.042  31.461  1.00  0.00     0.041 A 
ATOM     34  Cl  UNL A   1      39.393  34.160  32.487  1.00  0.00    -0.084 Cl
ENDBRANCH  24  28
ENDBRANCH  21  22
ENDBRANCH  19  21
ENDBRANCH   6   8
ENDBRANCH   5   6
ENDBRANCH   4   5
ENDBRANCH   3   4
ENDBRANCH   2   3
ENDBRANCH   1   2
BRANCH   1  35
ATOM     35  C   UNL A   1      34.461  22.528  26.222  1.00  0.00     0.188 C 
BRANCH  35  36
ATOM     36  O   UNL A   1      35.664  21.799  26.108  1.00  0.00    -0.376 OA
BRANCH  36  37
ATOM     37  C   UNL A   1      35.574  20.641  25.298  1.00  0.00     0.202 C 
BRANCH  37  38
ATOM     38  C   UNL A   1      36.969  20.083  25.007  1.00  0.00     0.261 C 
BRANCH  38  39
ATOM     39  O   UNL A   1      38.039  21.054  25.108  1.00  0.00    -0.460 OA
BRANCH  39  40
ATOM     40  C   UNL A   1      39.107  20.694  25.856  1.00  0.00     0.338 C 
ATOM     41  O   UNL A   1      39.619  19.590  25.905  1.00  0.00    -0.246 OA
BRANCH  40  42
ATOM     42  C   UNL A   1      39.698  21.889  26.492  1.00  0.00     0.060 A 
ATOM     43  C   UNL A   1      39.214  23.149  26.139  1.00  0.00     0.016 A 
ATOM     44  C   UNL A   1      40.799  21.795  27.332  1.00  0.00     0.016 A 
ATOM     45  C   UNL A   1      39.828  24.319  26.566  1.00  0.00     0.010 A 
ATOM     46  C   UNL A   1      41.402  22.972  27.801  1.00  0.00     0.010 A 
ATOM     47  C   UNL A   1      40.936  24.243  27.403  1.00  0.00    -0.014 A 
BRANCH  47  48
ATOM     48  C   UNL A   1      41.666  25.481  27.782  1.00  0.00     0.031 A 
ATOM     49  C   UNL A   1      40.964  26.518  28.610  1.00  0.00     0.074 A 
ATOM     50  C   UNL A   1      42.941  25.680  27.400  1.00  0.00     0.049 A 
ATOM     51  N   UNL A   1      41.302  27.757  28.852  1.00  0.00    -0.248 NA
ATOM     52  C   UNL A   1      39.699  26.101  29.235  1.00  0.00     0.031 C 
ATOM     53  C   UNL A   1      43.774  24.717  26.678  1.00  0.00     0.029 A 
ATOM     54  N   UNL A   1      43.753  26.778  27.549  1.00  0.00    -0.354 N 
ATOM     55  C   UNL A   1      40.258  28.289  29.599  1.00  0.00     0.074 A 
ATOM     56  C   UNL A   1      39.278  27.238  29.767  1.00  0.00     0.031 C 
ATOM     57  C   UNL A   1      44.971  25.272  26.432  1.00  0.00     0.029 A 
ATOM     58  C   UNL A   1      44.958  26.653  26.900  1.00  0.00     0.049 A 
ATOM     59  H   UNL A   1      43.498  27.574  28.068  1.00  0.00     0.167 HD
ATOM     60  C   UNL A   1      40.130  29.548  30.085  1.00  0.00     0.037 A 
ATOM     61  C   UNL A   1      45.916  27.566  26.649  1.00  0.00     0.037 A 
ATOM     62  C   UNL A   1      41.132  30.571  29.933  1.00  0.00     0.049 A 
ATOM     63  C   UNL A   1      45.728  28.975  27.135  1.00  0.00     0.074 A 
ATOM     64  C   UNL A   1      41.116  31.871  30.406  1.00  0.00     0.029 A 
ATOM     65  N   UNL A   1      42.330  30.410  29.251  1.00  0.00    -0.354 N 
ATOM     66  N   UNL A   1      44.726  29.491  27.807  1.00  0.00    -0.248 NA
ATOM     67  C   UNL A   1      46.798  29.933  26.823  1.00  0.00     0.031 C 
ATOM     68  C   UNL A   1      42.273  32.514  29.954  1.00  0.00     0.029 A 
ATOM     69  C   UNL A   1      43.046  31.597  29.260  1.00  0.00     0.049 A 
ATOM     70  H   UNL A   1      42.627  29.575  28.822  1.00  0.00     0.167 HD
ATOM     71  C   UNL A   1      45.052  30.825  28.015  1.00  0.00     0.074 A 
ATOM     72  C   UNL A   1      46.352  31.035  27.411  1.00  0.00     0.031 C 
ATOM     73  C   UNL A   1      44.339  31.789  28.650  1.00  0.00     0.037 A 
BRANCH  60  74
ATOM     74  C   UNL A   1      38.830  29.897  30.754  1.00  0.00     0.057 A 
ATOM     75  C   UNL A   1      38.674  29.912  32.146  1.00  0.00     0.134 A 
ATOM     76  C   UNL A   1      37.704  30.209  29.979  1.00  0.00     0.134 A 
ATOM     77  F   UNL A   1      39.704  29.609  32.950  1.00  0.00    -0.206 F 
ATOM     78  C   UNL A   1      37.438  30.177  32.741  1.00  0.00     0.040 A 
ATOM     79  C   UNL A   1      36.473  30.511  30.561  1.00  0.00     0.040 A 
ATOM     80  F   UNL A   1      37.780  30.220  28.639  1.00  0.00    -0.206 F 
ATOM     81  C   UNL A   1      36.333  30.481  31.947  1.00  0.00     0.006 A 
ENDBRANCH  60  74
BRANCH  61  82
ATOM     82  C   UNL A   1      47.107  27.179  25.849  1.00  0.00     0.057 A 
ATOM     83  C   UNL A   1      47.173  27.432  24.475  1.00  0.00     0.134 A 
ATOM     84  C   UNL A   1      48.220  26.573  26.447  1.00  0.00     0.134 A 
ATOM     85  F   UNL A   1      46.130  27.988  23.841  1.00  0.00    -0.206 F 
ATOM     86  C   UNL A   1      48.301  27.097  23.723  1.00  0.00     0.040 A 
ATOM     87  C   UNL A   1      49.366  26.260  25.713  1.00  0.00     0.040 A 
ATOM     88  F   UNL A   1      48.222  26.305  27.761  1.00  0.00    -0.206 F 
ATOM     89  C   UNL A   1      49.406  26.520  24.346  1.00  0.00     0.006 A 
ENDBRANCH  61  82
BRANCH  73  90
ATOM     90  C   UNL A   1      44.969  33.149  28.760  1.00  0.00     0.057 A 
ATOM     91  C   UNL A   1      44.652  34.190  27.878  1.00  0.00     0.134 A 
ATOM     92  C   UNL A   1      45.874  33.429  29.792  1.00  0.00     0.134 A 
ATOM     93  F   UNL A   1      43.803  33.986  26.860  1.00  0.00    -0.206 F 
ATOM     94  C   UNL A   1      45.234  35.454  28.003  1.00  0.00     0.040 A 
ATOM     95  C   UNL A   1      46.437  34.697  29.946  1.00  0.00     0.040 A 
ATOM     96  F   UNL A   1      46.215  32.481  30.678  1.00  0.00    -0.206 F 
ATOM     97  C   UNL A   1      46.122  35.712  29.046  1.00  0.00     0.006 A 
ENDBRANCH  73  90
ENDBRANCH  47  48
ENDBRANCH  40  42
ENDBRANCH  39  40
ENDBRANCH  38  39
ENDBRANCH  37  38
ENDBRANCH  36  37
ENDBRANCH  35  36
ENDBRANCH   1  35
TORSDOF 20
ENDMDL
MODEL 3
REMARK VINA RESULT:     -11.5      5.245      9.101
REMARK SMILES O=C1C[C@@H](C(=O)OCCOCCOCCOC(=O)c2ccc(-c3c4nc(c(-c5c(F)cccc5F)c5ccc([nH]5)c(-c5c(F)cccc5F)c5nc(c(-c6c(F)cccc6F)c6ccc3[nH]6)C=C5)C=C4)cc2)C2(CC[NH+](Cc3c[nH]nc3-c3ccc(Cl)cc3)CC2)N1
REMARK SMILES IDX 11 1 10 2 9 3 8 4 7 5 5 6 6 7 4 8 1 9 2 10 3 11 92 12 73 13
REMARK SMILES IDX 74 15 91 16 75 17 90 18 76 19 77 21 78 22 79 23 82 24 80 25
REMARK SMILES IDX 81 26 83 28 84 29 89 30 85 31 88 32 86 33 87 34 12 35 13 36
REMARK SMILES IDX 14 37 15 38 16 39 17 40 18 41 19 42 20 43 72 44 21 45 71 46
REMARK SMILES IDX 22 47 23 48 24 49 65 50 25 51 70 52 64 53 66 54 26 55 69 56
REMARK SMILES IDX 63 57 62 58 27 60 53 61 36 62 52 63 37 64 40 65 51 66 67 67
REMARK SMILES IDX 38 68 39 69 50 71 68 72 41 73 28 74 29 75 34 76 30 77 31 78
REMARK SMILES IDX 33 79 35 80 32 81 54 82 55 83 60 84 56 85 57 86 59 87 61 88
REMARK SMILES IDX 58 89 42 90 43 91 48 92 44 93 45 94 47 95 49 96 46 97
REMARK H PARENT 92 14 76 20 80 27 66 59 40 70
REMARK Flexibility Score: inf
ROOT
ATOM      1  C   UNL A   1      40.833  20.996  26.708  1.00  0.00     0.188 C 
ENDROOT
BRANCH   1   2
ATOM      2  O   UNL A   1      40.177  22.111  26.125  1.00  0.00    -0.376 OA
BRANCH   2   3
ATOM      3  C   UNL A   1      38.762  22.207  26.206  1.00  0.00     0.202 C 
BRANCH   3   4
ATOM      4  C   UNL A   1      38.133  23.612  26.122  1.00  0.00     0.261 C 
BRANCH   4   5
ATOM      5  O   UNL A   1      37.207  23.913  25.034  1.00  0.00    -0.463 OA
BRANCH   5   6
ATOM      6  C   UNL A   1      36.451  22.873  24.609  1.00  0.00     0.311 C 
ATOM      7  O   UNL A   1      36.745  22.195  23.623  1.00  0.00    -0.252 OA
BRANCH   6   8
ATOM      8  C   UNL A   1      35.117  22.604  25.317  1.00  0.00     0.134 C 
ATOM      9  O   UNL A   1      34.044  19.305  24.473  1.00  0.00    -0.275 OA
ATOM     10  C   UNL A   1      34.164  20.492  24.742  1.00  0.00     0.221 C 
ATOM     11  C   UNL A   1      35.160  21.103  25.683  1.00  0.00     0.117 C 
ATOM     12  N   UNL A   1      33.355  21.486  24.266  1.00  0.00    -0.349 N 
ATOM     13  C   UNL A   1      33.654  22.791  24.817  1.00  0.00     0.064 C 
ATOM     14  H   UNL A   1      32.639  21.328  23.610  1.00  0.00     0.164 HD
ATOM     15  C   UNL A   1      33.336  23.831  23.754  1.00  0.00     0.091 C 
ATOM     16  C   UNL A   1      32.702  23.039  26.046  1.00  0.00     0.091 C 
ATOM     17  C   UNL A   1      33.353  25.223  24.345  1.00  0.00     0.264 C 
ATOM     18  C   UNL A   1      32.508  24.507  26.479  1.00  0.00     0.264 C 
ATOM     19  N   UNL A   1      32.396  25.473  25.399  1.00  0.00    -0.331 N 
ATOM     20  H   UNL A   1      32.672  26.344  25.851  1.00  0.00     0.348 HD
BRANCH  19  21
ATOM     21  C   UNL A   1      31.066  25.955  24.987  1.00  0.00     0.303 C 
BRANCH  21  22
ATOM     22  C   UNL A   1      31.112  27.077  24.007  1.00  0.00     0.052 A 
ATOM     23  C   UNL A   1      30.500  27.081  22.767  1.00  0.00     0.115 A 
ATOM     24  C   UNL A   1      31.701  28.387  24.104  1.00  0.00     0.101 A 
ATOM     25  N   UNL A   1      30.899  28.216  22.143  1.00  0.00    -0.285 N 
ATOM     26  N   UNL A   1      31.588  29.041  22.933  1.00  0.00    -0.175 NA
ATOM     27  H   UNL A   1      30.700  28.412  21.199  1.00  0.00     0.189 HD
BRANCH  24  28
ATOM     28  C   UNL A   1      32.362  29.078  25.216  1.00  0.00     0.003 A 
ATOM     29  C   UNL A   1      31.755  30.208  25.785  1.00  0.00     0.012 A 
ATOM     30  C   UNL A   1      33.627  28.713  25.673  1.00  0.00     0.012 A 
ATOM     31  C   UNL A   1      32.391  30.939  26.797  1.00  0.00     0.021 A 
ATOM     32  C   UNL A   1      34.263  29.432  26.694  1.00  0.00     0.021 A 
ATOM     33  C   UNL A   1      33.644  30.544  27.251  1.00  0.00     0.041 A 
ATOM     34  Cl  UNL A   1      34.444  31.439  28.482  1.00  0.00    -0.084 Cl
ENDBRANCH  24  28
ENDBRANCH  21  22
ENDBRANCH  19  21
ENDBRANCH   6   8
ENDBRANCH   5   6
ENDBRANCH   4   5
ENDBRANCH   3   4
ENDBRANCH   2   3
ENDBRANCH   1   2
BRANCH   1  35
ATOM     35  C   UNL A   1      40.456  19.601  26.236  1.00  0.00     0.188 C 
BRANCH  35  36
ATOM     36  O   UNL A   1      41.529  18.855  25.703  1.00  0.00    -0.376 OA
BRANCH  36  37
ATOM     37  C   UNL A   1      42.590  18.625  26.611  1.00  0.00     0.202 C 
BRANCH  37  38
ATOM     38  C   UNL A   1      43.828  18.116  25.868  1.00  0.00     0.261 C 
BRANCH  38  39
ATOM     39  O   UNL A   1      43.945  18.584  24.502  1.00  0.00    -0.460 OA
BRANCH  39  40
ATOM     40  C   UNL A   1      45.073  19.265  24.196  1.00  0.00     0.338 C 
ATOM     41  O   UNL A   1      46.002  18.863  23.519  1.00  0.00    -0.246 OA
BRANCH  40  42
ATOM     42  C   UNL A   1      44.954  20.663  24.659  1.00  0.00     0.060 A 
ATOM     43  C   UNL A   1      44.551  21.642  23.750  1.00  0.00     0.016 A 
ATOM     44  C   UNL A   1      45.351  21.042  25.934  1.00  0.00     0.016 A 
ATOM     45  C   UNL A   1      44.577  22.993  24.066  1.00  0.00     0.010 A 
ATOM     46  C   UNL A   1      45.343  22.403  26.275  1.00  0.00     0.010 A 
ATOM     47  C   UNL A   1      44.978  23.391  25.336  1.00  0.00    -0.014 A 
BRANCH  47  48
ATOM     48  C   UNL A   1      45.112  24.837  25.654  1.00  0.00     0.031 A 
ATOM     49  C   UNL A   1      46.450  25.499  25.491  1.00  0.00     0.074 A 
ATOM     50  C   UNL A   1      44.057  25.557  26.076  1.00  0.00     0.049 A 
ATOM     51  N   UNL A   1      46.862  26.660  25.927  1.00  0.00    -0.248 NA
ATOM     52  C   UNL A   1      47.464  24.736  24.747  1.00  0.00     0.031 C 
ATOM     53  C   UNL A   1      42.682  25.067  26.186  1.00  0.00     0.029 A 
ATOM     54  N   UNL A   1      43.984  26.856  26.516  1.00  0.00    -0.354 N 
ATOM     55  C   UNL A   1      48.203  26.738  25.573  1.00  0.00     0.074 A 
ATOM     56  C   UNL A   1      48.532  25.506  24.887  1.00  0.00     0.031 C 
ATOM     57  C   UNL A   1      41.907  26.046  26.678  1.00  0.00     0.029 A 
ATOM     58  C   UNL A   1      42.743  27.197  26.998  1.00  0.00     0.049 A 
ATOM     59  H   UNL A   1      44.744  27.480  26.488  1.00  0.00     0.167 HD
ATOM     60  C   UNL A   1      49.078  27.743  25.814  1.00  0.00     0.037 A 
ATOM     61  C   UNL A   1      42.338  28.285  27.681  1.00  0.00     0.037 A 
ATOM     62  C   UNL A   1      48.723  28.974  26.471  1.00  0.00     0.049 A 
ATOM     63  C   UNL A   1      43.337  29.361  28.002  1.00  0.00     0.074 A 
ATOM     64  C   UNL A   1      49.523  30.069  26.744  1.00  0.00     0.029 A 
ATOM     65  N   UNL A   1      47.459  29.272  26.963  1.00  0.00    -0.354 N 
ATOM     66  N   UNL A   1      44.613  29.419  27.703  1.00  0.00    -0.248 NA
ATOM     67  C   UNL A   1      42.843  30.518  28.761  1.00  0.00     0.031 C 
ATOM     68  C   UNL A   1      48.761  31.000  27.458  1.00  0.00     0.029 A 
ATOM     69  C   UNL A   1      47.466  30.519  27.569  1.00  0.00     0.049 A 
ATOM     70  H   UNL A   1      46.673  28.684  26.892  1.00  0.00     0.167 HD
ATOM     71  C   UNL A   1      45.071  30.625  28.218  1.00  0.00     0.074 A 
ATOM     72  C   UNL A   1      43.931  31.273  28.835  1.00  0.00     0.031 C 
ATOM     73  C   UNL A   1      46.322  31.149  28.182  1.00  0.00     0.037 A 
BRANCH  60  74
ATOM     74  C   UNL A   1      50.513  27.511  25.433  1.00  0.00     0.057 A 
ATOM     75  C   UNL A   1      51.482  27.082  26.349  1.00  0.00     0.134 A 
ATOM     76  C   UNL A   1      50.935  27.743  24.116  1.00  0.00     0.134 A 
ATOM     77  F   UNL A   1      51.154  26.857  27.631  1.00  0.00    -0.206 F 
ATOM     78  C   UNL A   1      52.823  26.937  25.984  1.00  0.00     0.040 A 
ATOM     79  C   UNL A   1      52.264  27.566  23.729  1.00  0.00     0.040 A 
ATOM     80  F   UNL A   1      50.062  28.149  23.182  1.00  0.00    -0.206 F 
ATOM     81  C   UNL A   1      53.216  27.176  24.668  1.00  0.00     0.006 A 
ENDBRANCH  60  74
BRANCH  61  82
ATOM     82  C   UNL A   1      40.933  28.371  28.156  1.00  0.00     0.057 A 
ATOM     83  C   UNL A   1      39.917  28.866  27.334  1.00  0.00     0.134 A 
ATOM     84  C   UNL A   1      40.569  27.929  29.436  1.00  0.00     0.134 A 
ATOM     85  F   UNL A   1      40.205  29.326  26.108  1.00  0.00    -0.206 F 
ATOM     86  C   UNL A   1      38.589  28.922  27.765  1.00  0.00     0.040 A 
ATOM     87  C   UNL A   1      39.242  27.951  29.869  1.00  0.00     0.040 A 
ATOM     88  F   UNL A   1      41.495  27.440  30.273  1.00  0.00    -0.206 F 
ATOM     89  C   UNL A   1      38.249  28.452  29.032  1.00  0.00     0.006 A 
ENDBRANCH  61  82
BRANCH  73  90
ATOM     90  C   UNL A   1      46.516  32.508  28.792  1.00  0.00     0.057 A 
ATOM     91  C   UNL A   1      46.355  33.686  28.052  1.00  0.00     0.134 A 
ATOM     92  C   UNL A   1      46.829  32.637  30.152  1.00  0.00     0.134 A 
ATOM     93  F   UNL A   1      46.069  33.635  26.743  1.00  0.00    -0.206 F 
ATOM     94  C   UNL A   1      46.523  34.944  28.637  1.00  0.00     0.040 A 
ATOM     95  C   UNL A   1      46.968  33.888  30.754  1.00  0.00     0.040 A 
ATOM     96  F   UNL A   1      46.989  31.549  30.921  1.00  0.00    -0.206 F 
ATOM     97  C   UNL A   1      46.821  35.045  29.995  1.00  0.00     0.006 A 
ENDBRANCH  73  90
ENDBRANCH  47  48
ENDBRANCH  40  42
ENDBRANCH  39  40
ENDBRANCH  38  39
ENDBRANCH  37  38
ENDBRANCH  36  37
ENDBRANCH  35  36
ENDBRANCH   1  35
TORSDOF 20
ENDMDL
