MODEL 1
REMARK VINA RESULT:     -11.2      0.000      0.000
REMARK SMILES C/C(Nc1ccc(C(=O)OCCOCCOCCOC(=O)c2ccc(-c3c4nc(c(-c5c(F)cccc5F)c5ccc([nH]5)c(-c5c(F)cccc5F)c5nc(c(-c6c(F)cccc6F)c6ccc3[nH]6)C=C5)C=C4)cc2)c(O)c1)=C1/C(=O)O[C@H](C)C1=O
REMARK SMILES IDX 14 1 13 2 12 3 11 4 10 5 8 6 9 7 7 8 4 9 5 10 78 11 6 12
REMARK SMILES IDX 76 13 3 14 2 16 1 17 79 18 80 19 85 20 81 21 82 22 83 23
REMARK SMILES IDX 86 24 84 25 77 26 15 28 16 29 17 30 18 31 19 32 20 33 21 34
REMARK SMILES IDX 22 35 23 36 75 37 24 38 74 39 25 40 26 41 27 42 68 43 28 44
REMARK SMILES IDX 73 45 67 46 69 47 29 48 72 49 66 50 65 51 30 53 56 54 39 55
REMARK SMILES IDX 55 56 40 57 43 58 54 59 70 60 41 61 42 62 53 64 71 65 44 66
REMARK SMILES IDX 31 67 32 68 37 69 33 70 34 71 36 72 38 73 35 74 57 75 58 76
REMARK SMILES IDX 63 77 59 78 60 79 62 80 64 81 61 82 45 83 46 84 51 85 47 86
REMARK SMILES IDX 48 87 50 88 52 89 49 90
REMARK H PARENT 3 15 77 27 69 52 43 63
REMARK Flexibility Score: inf
ROOT
ATOM      1  C   UNL A   1      38.918  21.998  26.031  1.00  0.00     0.188 C 
ENDROOT
BRANCH   1   2
ATOM      2  O   UNL A   1      37.933  21.273  25.306  1.00  0.00    -0.376 OA
BRANCH   2   3
ATOM      3  C   UNL A   1      36.554  21.464  25.586  1.00  0.00     0.202 C 
BRANCH   3   4
ATOM      4  C   UNL A   1      35.486  20.484  25.063  1.00  0.00     0.261 C 
BRANCH   4   5
ATOM      5  O   UNL A   1      34.377  20.226  25.941  1.00  0.00    -0.460 OA
BRANCH   5   6
ATOM      6  C   UNL A   1      33.205  19.907  25.325  1.00  0.00     0.341 C 
ATOM      7  O   UNL A   1      32.634  18.830  25.369  1.00  0.00    -0.246 OA
BRANCH   6   8
ATOM      8  C   UNL A   1      32.590  21.120  24.730  1.00  0.00     0.101 A 
ATOM      9  C   UNL A   1      31.354  23.315  23.448  1.00  0.00     0.042 A 
ATOM     10  C   UNL A   1      31.733  22.183  22.716  1.00  0.00     0.027 A 
ATOM     11  C   UNL A   1      31.619  23.337  24.826  1.00  0.00     0.073 A 
ATOM     12  C   UNL A   1      32.361  21.103  23.346  1.00  0.00     0.022 A 
ATOM     13  C   UNL A   1      32.198  22.238  25.468  1.00  0.00     0.132 A 
BRANCH   9  14
ATOM     14  N   UNL A   1      30.639  24.385  22.881  1.00  0.00    -0.358 N 
ATOM     15  H   UNL A   1      29.911  24.119  22.274  1.00  0.00     0.166 HD
BRANCH  14  16
ATOM     16  C   UNL A   1      30.794  25.756  23.040  1.00  0.00     0.030 C 
ATOM     17  C   UNL A   1      29.651  26.400  23.811  1.00  0.00     0.065 C 
ATOM     18  C   UNL A   1      31.773  26.548  22.545  1.00  0.00     0.125 C 
ATOM     19  C   UNL A   1      32.906  26.187  21.675  1.00  0.00     0.344 C 
ATOM     20  C   UNL A   1      31.930  27.992  22.816  1.00  0.00     0.212 C 
ATOM     21  O   UNL A   1      33.076  25.194  20.989  1.00  0.00    -0.246 OA
ATOM     22  O   UNL A   1      33.785  27.231  21.690  1.00  0.00    -0.451 OA
ATOM     23  C   UNL A   1      33.300  28.404  22.373  1.00  0.00     0.245 C 
ATOM     24  O   UNL A   1      31.105  28.736  23.320  1.00  0.00    -0.290 OA
ATOM     25  C   UNL A   1      34.206  28.754  23.541  1.00  0.00     0.062 C 
ENDBRANCH  14  16
ENDBRANCH   9  14
BRANCH  13  26
ATOM     26  O   UNL A   1      32.299  22.317  26.829  1.00  0.00    -0.507 OA
ATOM     27  H   UNL A   1      31.589  22.029  27.369  1.00  0.00     0.293 HD
ENDBRANCH  13  26
ENDBRANCH   6   8
ENDBRANCH   5   6
ENDBRANCH   4   5
ENDBRANCH   3   4
ENDBRANCH   2   3
ENDBRANCH   1   2
BRANCH   1  28
ATOM     28  C   UNL A   1      40.112  21.263  26.677  1.00  0.00     0.188 C 
BRANCH  28  29
ATOM     29  O   UNL A   1      41.262  21.231  25.860  1.00  0.00    -0.376 OA
BRANCH  29  30
ATOM     30  C   UNL A   1      42.492  20.823  26.437  1.00  0.00     0.202 C 
BRANCH  30  31
ATOM     31  C   UNL A   1      43.878  21.355  26.003  1.00  0.00     0.261 C 
BRANCH  31  32
ATOM     32  O   UNL A   1      44.189  22.730  26.255  1.00  0.00    -0.460 OA
BRANCH  32  33
ATOM     33  C   UNL A   1      43.585  23.648  25.466  1.00  0.00     0.338 C 
ATOM     34  O   UNL A   1      43.456  23.620  24.256  1.00  0.00    -0.246 OA
BRANCH  33  35
ATOM     35  C   UNL A   1      42.981  24.678  26.332  1.00  0.00     0.060 A 
ATOM     36  C   UNL A   1      43.662  25.881  26.525  1.00  0.00     0.016 A 
ATOM     37  C   UNL A   1      41.766  24.446  26.978  1.00  0.00     0.016 A 
ATOM     38  C   UNL A   1      43.129  26.854  27.367  1.00  0.00     0.010 A 
ATOM     39  C   UNL A   1      41.254  25.412  27.854  1.00  0.00     0.010 A 
ATOM     40  C   UNL A   1      41.952  26.611  28.077  1.00  0.00    -0.014 A 
BRANCH  40  41
ATOM     41  C   UNL A   1      41.564  27.542  29.167  1.00  0.00     0.031 A 
ATOM     42  C   UNL A   1      42.333  27.510  30.458  1.00  0.00     0.074 A 
ATOM     43  C   UNL A   1      40.589  28.453  28.997  1.00  0.00     0.049 A 
ATOM     44  N   UNL A   1      42.125  28.166  31.569  1.00  0.00    -0.248 NA
ATOM     45  C   UNL A   1      43.500  26.616  30.493  1.00  0.00     0.031 C 
ATOM     46  C   UNL A   1      39.823  28.652  27.769  1.00  0.00     0.029 A 
ATOM     47  N   UNL A   1      40.069  29.374  29.873  1.00  0.00    -0.354 N 
ATOM     48  C   UNL A   1      43.112  27.740  32.450  1.00  0.00     0.074 A 
ATOM     49  C   UNL A   1      43.907  26.757  31.745  1.00  0.00     0.031 C 
ATOM     50  C   UNL A   1      38.911  29.615  27.977  1.00  0.00     0.029 A 
ATOM     51  C   UNL A   1      38.996  30.064  29.367  1.00  0.00     0.049 A 
ATOM     52  H   UNL A   1      40.432  29.525  30.776  1.00  0.00     0.167 HD
ATOM     53  C   UNL A   1      43.336  28.131  33.727  1.00  0.00     0.037 A 
ATOM     54  C   UNL A   1      38.149  30.923  29.966  1.00  0.00     0.037 A 
ATOM     55  C   UNL A   1      42.539  29.107  34.425  1.00  0.00     0.049 A 
ATOM     56  C   UNL A   1      38.353  31.277  31.414  1.00  0.00     0.074 A 
ATOM     57  C   UNL A   1      42.688  29.578  35.718  1.00  0.00     0.029 A 
ATOM     58  N   UNL A   1      41.432  29.751  33.892  1.00  0.00    -0.354 N 
ATOM     59  N   UNL A   1      39.282  30.867  32.244  1.00  0.00    -0.248 NA
ATOM     60  C   UNL A   1      37.390  32.215  32.011  1.00  0.00     0.031 C 
ATOM     61  C   UNL A   1      41.633  30.457  35.989  1.00  0.00     0.029 A 
ATOM     62  C   UNL A   1      40.868  30.590  34.840  1.00  0.00     0.049 A 
ATOM     63  H   UNL A   1      41.095  29.629  32.975  1.00  0.00     0.167 HD
ATOM     64  C   UNL A   1      39.032  31.512  33.451  1.00  0.00     0.074 A 
ATOM     65  C   UNL A   1      37.870  32.350  33.239  1.00  0.00     0.031 C 
ATOM     66  C   UNL A   1      39.707  31.419  34.624  1.00  0.00     0.037 A 
BRANCH  53  67
ATOM     67  C   UNL A   1      44.456  27.450  34.464  1.00  0.00     0.057 A 
ATOM     68  C   UNL A   1      45.763  27.959  34.479  1.00  0.00     0.134 A 
ATOM     69  C   UNL A   1      44.225  26.253  35.155  1.00  0.00     0.134 A 
ATOM     70  F   UNL A   1      46.059  29.093  33.825  1.00  0.00    -0.206 F 
ATOM     71  C   UNL A   1      46.805  27.279  35.113  1.00  0.00     0.040 A 
ATOM     72  C   UNL A   1      45.251  25.583  35.822  1.00  0.00     0.040 A 
ATOM     73  F   UNL A   1      42.998  25.712  35.190  1.00  0.00    -0.206 F 
ATOM     74  C   UNL A   1      46.549  26.088  35.791  1.00  0.00     0.006 A 
ENDBRANCH  53  67
BRANCH  54  75
ATOM     75  C   UNL A   1      37.004  31.472  29.198  1.00  0.00     0.057 A 
ATOM     76  C   UNL A   1      35.846  30.720  28.975  1.00  0.00     0.134 A 
ATOM     77  C   UNL A   1      37.035  32.775  28.685  1.00  0.00     0.134 A 
ATOM     78  F   UNL A   1      35.766  29.456  29.418  1.00  0.00    -0.206 F 
ATOM     79  C   UNL A   1      34.760  31.242  28.269  1.00  0.00     0.040 A 
ATOM     80  C   UNL A   1      35.948  33.321  28.002  1.00  0.00     0.040 A 
ATOM     81  F   UNL A   1      38.118  33.547  28.863  1.00  0.00    -0.206 F 
ATOM     82  C   UNL A   1      34.806  32.551  27.790  1.00  0.00     0.006 A 
ENDBRANCH  54  75
BRANCH  66  83
ATOM     83  C   UNL A   1      39.229  32.272  35.767  1.00  0.00     0.057 A 
ATOM     84  C   UNL A   1      39.629  33.606  35.921  1.00  0.00     0.134 A 
ATOM     85  C   UNL A   1      38.321  31.760  36.705  1.00  0.00     0.134 A 
ATOM     86  F   UNL A   1      40.504  34.156  35.066  1.00  0.00    -0.206 F 
ATOM     87  C   UNL A   1      39.163  34.390  36.979  1.00  0.00     0.040 A 
ATOM     88  C   UNL A   1      37.826  32.543  37.748  1.00  0.00     0.040 A 
ATOM     89  F   UNL A   1      37.888  30.493  36.614  1.00  0.00    -0.206 F 
ATOM     90  C   UNL A   1      38.253  33.861  37.892  1.00  0.00     0.006 A 
ENDBRANCH  66  83
ENDBRANCH  40  41
ENDBRANCH  33  35
ENDBRANCH  32  33
ENDBRANCH  31  32
ENDBRANCH  30  31
ENDBRANCH  29  30
ENDBRANCH  28  29
ENDBRANCH   1  28
TORSDOF 20
ENDMDL
MODEL 2
REMARK VINA RESULT:     -11.1      1.169      2.063
REMARK SMILES C/C(Nc1ccc(C(=O)OCCOCCOCCOC(=O)c2ccc(-c3c4nc(c(-c5c(F)cccc5F)c5ccc([nH]5)c(-c5c(F)cccc5F)c5nc(c(-c6c(F)cccc6F)c6ccc3[nH]6)C=C5)C=C4)cc2)c(O)c1)=C1/C(=O)O[C@H](C)C1=O
REMARK SMILES IDX 14 1 13 2 12 3 11 4 10 5 8 6 9 7 7 8 4 9 5 10 78 11 6 12
REMARK SMILES IDX 76 13 3 14 2 16 1 17 79 18 80 19 85 20 81 21 82 22 83 23
REMARK SMILES IDX 86 24 84 25 77 26 15 28 16 29 17 30 18 31 19 32 20 33 21 34
REMARK SMILES IDX 22 35 23 36 75 37 24 38 74 39 25 40 26 41 27 42 68 43 28 44
REMARK SMILES IDX 73 45 67 46 69 47 29 48 72 49 66 50 65 51 30 53 56 54 39 55
REMARK SMILES IDX 55 56 40 57 43 58 54 59 70 60 41 61 42 62 53 64 71 65 44 66
REMARK SMILES IDX 31 67 32 68 37 69 33 70 34 71 36 72 38 73 35 74 57 75 58 76
REMARK SMILES IDX 63 77 59 78 60 79 62 80 64 81 61 82 45 83 46 84 51 85 47 86
REMARK SMILES IDX 48 87 50 88 52 89 49 90
REMARK H PARENT 3 15 77 27 69 52 43 63
REMARK Flexibility Score: inf
ROOT
ATOM      1  C   UNL A   1      40.552  20.895  26.851  1.00  0.00     0.188 C 
ENDROOT
BRANCH   1   2
ATOM      2  O   UNL A   1      40.000  21.970  26.103  1.00  0.00    -0.376 OA
BRANCH   2   3
ATOM      3  C   UNL A   1      38.591  22.114  25.992  1.00  0.00     0.202 C 
BRANCH   3   4
ATOM      4  C   UNL A   1      37.763  21.204  25.064  1.00  0.00     0.261 C 
BRANCH   4   5
ATOM      5  O   UNL A   1      36.610  21.805  24.449  1.00  0.00    -0.460 OA
BRANCH   5   6
ATOM      6  C   UNL A   1      35.406  21.370  24.911  1.00  0.00     0.341 C 
ATOM      7  O   UNL A   1      35.103  20.217  25.168  1.00  0.00    -0.246 OA
BRANCH   6   8
ATOM      8  C   UNL A   1      34.539  22.525  25.254  1.00  0.00     0.101 A 
ATOM      9  C   UNL A   1      32.995  24.834  25.779  1.00  0.00     0.042 A 
ATOM     10  C   UNL A   1      34.304  24.947  25.293  1.00  0.00     0.027 A 
ATOM     11  C   UNL A   1      32.480  23.550  26.014  1.00  0.00     0.073 A 
ATOM     12  C   UNL A   1      35.075  23.805  25.050  1.00  0.00     0.022 A 
ATOM     13  C   UNL A   1      33.229  22.407  25.721  1.00  0.00     0.132 A 
BRANCH   9  14
ATOM     14  N   UNL A   1      32.149  25.943  25.953  1.00  0.00    -0.358 N 
ATOM     15  H   UNL A   1      32.417  26.557  26.674  1.00  0.00     0.166 HD
BRANCH  14  16
ATOM     16  C   UNL A   1      30.998  26.313  25.270  1.00  0.00     0.030 C 
ATOM     17  C   UNL A   1      29.740  25.660  25.824  1.00  0.00     0.065 C 
ATOM     18  C   UNL A   1      30.894  27.103  24.176  1.00  0.00     0.125 C 
ATOM     19  C   UNL A   1      31.962  27.743  23.390  1.00  0.00     0.344 C 
ATOM     20  C   UNL A   1      29.630  27.529  23.540  1.00  0.00     0.212 C 
ATOM     21  O   UNL A   1      33.158  27.504  23.361  1.00  0.00    -0.246 OA
ATOM     22  O   UNL A   1      31.378  28.675  22.582  1.00  0.00    -0.451 OA
ATOM     23  C   UNL A   1      29.937  28.648  22.594  1.00  0.00     0.245 C 
ATOM     24  O   UNL A   1      28.517  27.070  23.742  1.00  0.00    -0.290 OA
ATOM     25  C   UNL A   1      29.383  29.979  23.071  1.00  0.00     0.062 C 
ENDBRANCH  14  16
ENDBRANCH   9  14
BRANCH  13  26
ATOM     26  O   UNL A   1      32.588  21.208  25.870  1.00  0.00    -0.507 OA
ATOM     27  H   UNL A   1      32.606  20.767  26.697  1.00  0.00     0.293 HD
ENDBRANCH  13  26
ENDBRANCH   6   8
ENDBRANCH   5   6
ENDBRANCH   4   5
ENDBRANCH   3   4
ENDBRANCH   2   3
ENDBRANCH   1   2
BRANCH   1  28
ATOM     28  C   UNL A   1      41.394  19.807  26.150  1.00  0.00     0.188 C 
BRANCH  28  29
ATOM     29  O   UNL A   1      42.766  19.861  26.474  1.00  0.00    -0.376 OA
BRANCH  29  30
ATOM     30  C   UNL A   1      43.695  20.146  25.441  1.00  0.00     0.202 C 
BRANCH  30  31
ATOM     31  C   UNL A   1      44.085  21.573  24.988  1.00  0.00     0.261 C 
BRANCH  31  32
ATOM     32  O   UNL A   1      43.386  22.684  25.561  1.00  0.00    -0.460 OA
BRANCH  32  33
ATOM     33  C   UNL A   1      43.928  23.909  25.373  1.00  0.00     0.338 C 
ATOM     34  O   UNL A   1      44.768  24.234  24.554  1.00  0.00    -0.246 OA
BRANCH  33  35
ATOM     35  C   UNL A   1      43.244  24.860  26.269  1.00  0.00     0.060 A 
ATOM     36  C   UNL A   1      43.702  26.178  26.331  1.00  0.00     0.016 A 
ATOM     37  C   UNL A   1      42.179  24.448  27.071  1.00  0.00     0.016 A 
ATOM     38  C   UNL A   1      43.096  27.085  27.196  1.00  0.00     0.010 A 
ATOM     39  C   UNL A   1      41.599  25.355  27.968  1.00  0.00     0.010 A 
ATOM     40  C   UNL A   1      42.077  26.673  28.057  1.00  0.00    -0.014 A 
BRANCH  40  41
ATOM     41  C   UNL A   1      41.649  27.580  29.151  1.00  0.00     0.031 A 
ATOM     42  C   UNL A   1      42.401  27.554  30.453  1.00  0.00     0.074 A 
ATOM     43  C   UNL A   1      40.651  28.466  28.978  1.00  0.00     0.049 A 
ATOM     44  N   UNL A   1      42.159  28.192  31.568  1.00  0.00    -0.248 NA
ATOM     45  C   UNL A   1      43.591  26.692  30.495  1.00  0.00     0.031 C 
ATOM     46  C   UNL A   1      39.898  28.658  27.741  1.00  0.00     0.029 A 
ATOM     47  N   UNL A   1      40.095  29.363  29.857  1.00  0.00    -0.354 N 
ATOM     48  C   UNL A   1      43.146  27.782  32.457  1.00  0.00     0.074 A 
ATOM     49  C   UNL A   1      43.977  26.830  31.754  1.00  0.00     0.031 C 
ATOM     50  C   UNL A   1      38.957  29.594  27.947  1.00  0.00     0.029 A 
ATOM     51  C   UNL A   1      39.010  30.029  29.343  1.00  0.00     0.049 A 
ATOM     52  H   UNL A   1      40.441  29.513  30.766  1.00  0.00     0.167 HD
ATOM     53  C   UNL A   1      43.341  28.165  33.742  1.00  0.00     0.037 A 
ATOM     54  C   UNL A   1      38.132  30.857  29.940  1.00  0.00     0.037 A 
ATOM     55  C   UNL A   1      42.508  29.111  34.440  1.00  0.00     0.049 A 
ATOM     56  C   UNL A   1      38.306  31.201  31.394  1.00  0.00     0.074 A 
ATOM     57  C   UNL A   1      42.626  29.571  35.740  1.00  0.00     0.029 A 
ATOM     58  N   UNL A   1      41.391  29.731  33.898  1.00  0.00    -0.354 N 
ATOM     59  N   UNL A   1      39.235  30.807  32.233  1.00  0.00    -0.248 NA
ATOM     60  C   UNL A   1      37.309  32.105  31.987  1.00  0.00     0.031 C 
ATOM     61  C   UNL A   1      41.544  30.418  36.005  1.00  0.00     0.029 A 
ATOM     62  C   UNL A   1      40.791  30.543  34.847  1.00  0.00     0.049 A 
ATOM     63  H   UNL A   1      41.070  29.610  32.975  1.00  0.00     0.167 HD
ATOM     64  C   UNL A   1      38.950  31.430  33.442  1.00  0.00     0.074 A 
ATOM     65  C   UNL A   1      37.769  32.239  33.224  1.00  0.00     0.031 C 
ATOM     66  C   UNL A   1      39.611  31.342  34.624  1.00  0.00     0.037 A 
BRANCH  53  67
ATOM     67  C   UNL A   1      44.469  27.507  34.487  1.00  0.00     0.057 A 
ATOM     68  C   UNL A   1      44.301  26.312  35.201  1.00  0.00     0.134 A 
ATOM     69  C   UNL A   1      45.742  28.092  34.505  1.00  0.00     0.134 A 
ATOM     70  F   UNL A   1      43.104  25.704  35.239  1.00  0.00    -0.206 F 
ATOM     71  C   UNL A   1      45.343  25.749  35.941  1.00  0.00     0.040 A 
ATOM     72  C   UNL A   1      46.801  27.521  35.213  1.00  0.00     0.040 A 
ATOM     73  F   UNL A   1      45.979  29.232  33.839  1.00  0.00    -0.206 F 
ATOM     74  C   UNL A   1      46.599  26.353  35.946  1.00  0.00     0.006 A 
ENDBRANCH  53  67
BRANCH  54  75
ATOM     75  C   UNL A   1      36.983  31.384  29.161  1.00  0.00     0.057 A 
ATOM     76  C   UNL A   1      35.861  30.594  28.890  1.00  0.00     0.134 A 
ATOM     77  C   UNL A   1      36.973  32.702  28.687  1.00  0.00     0.134 A 
ATOM     78  F   UNL A   1      35.822  29.316  29.294  1.00  0.00    -0.206 F 
ATOM     79  C   UNL A   1      34.771  31.094  28.174  1.00  0.00     0.040 A 
ATOM     80  C   UNL A   1      35.880  33.225  27.995  1.00  0.00     0.040 A 
ATOM     81  F   UNL A   1      38.020  33.510  28.913  1.00  0.00    -0.206 F 
ATOM     82  C   UNL A   1      34.775  32.417  27.735  1.00  0.00     0.006 A 
ENDBRANCH  54  75
BRANCH  66  83
ATOM     83  C   UNL A   1      39.095  32.169  35.770  1.00  0.00     0.057 A 
ATOM     84  C   UNL A   1      38.238  31.641  36.744  1.00  0.00     0.134 A 
ATOM     85  C   UNL A   1      39.497  33.503  35.922  1.00  0.00     0.134 A 
ATOM     86  F   UNL A   1      37.804  30.375  36.655  1.00  0.00    -0.206 F 
ATOM     87  C   UNL A   1      37.780  32.417  37.813  1.00  0.00     0.040 A 
ATOM     88  C   UNL A   1      39.072  34.279  37.001  1.00  0.00     0.040 A 
ATOM     89  F   UNL A   1      40.325  34.071  35.031  1.00  0.00    -0.206 F 
ATOM     90  C   UNL A   1      38.204  33.738  37.947  1.00  0.00     0.006 A 
ENDBRANCH  66  83
ENDBRANCH  40  41
ENDBRANCH  33  35
ENDBRANCH  32  33
ENDBRANCH  31  32
ENDBRANCH  30  31
ENDBRANCH  29  30
ENDBRANCH  28  29
ENDBRANCH   1  28
TORSDOF 20
ENDMDL
MODEL 3
REMARK VINA RESULT:     -11.1      4.110      9.339
REMARK SMILES C/C(Nc1ccc(C(=O)OCCOCCOCCOC(=O)c2ccc(-c3c4nc(c(-c5c(F)cccc5F)c5ccc([nH]5)c(-c5c(F)cccc5F)c5nc(c(-c6c(F)cccc6F)c6ccc3[nH]6)C=C5)C=C4)cc2)c(O)c1)=C1/C(=O)O[C@H](C)C1=O
REMARK SMILES IDX 14 1 13 2 12 3 11 4 10 5 8 6 9 7 7 8 4 9 5 10 78 11 6 12
REMARK SMILES IDX 76 13 3 14 2 16 1 17 79 18 80 19 85 20 81 21 82 22 83 23
REMARK SMILES IDX 86 24 84 25 77 26 15 28 16 29 17 30 18 31 19 32 20 33 21 34
REMARK SMILES IDX 22 35 23 36 75 37 24 38 74 39 25 40 26 41 27 42 68 43 28 44
REMARK SMILES IDX 73 45 67 46 69 47 29 48 72 49 66 50 65 51 30 53 56 54 39 55
REMARK SMILES IDX 55 56 40 57 43 58 54 59 70 60 41 61 42 62 53 64 71 65 44 66
REMARK SMILES IDX 31 67 32 68 37 69 33 70 34 71 36 72 38 73 35 74 57 75 58 76
REMARK SMILES IDX 63 77 59 78 60 79 62 80 64 81 61 82 45 83 46 84 51 85 47 86
REMARK SMILES IDX 48 87 50 88 52 89 49 90
REMARK H PARENT 3 15 77 27 69 52 43 63
REMARK Flexibility Score: inf
ROOT
ATOM      1  C   UNL A   1      31.450  29.087  24.448  1.00  0.00     0.188 C 
ENDROOT
BRANCH   1   2
ATOM      2  O   UNL A   1      30.265  28.846  23.700  1.00  0.00    -0.376 OA
BRANCH   2   3
ATOM      3  C   UNL A   1      30.305  28.021  22.544  1.00  0.00     0.202 C 
BRANCH   3   4
ATOM      4  C   UNL A   1      30.933  26.614  22.584  1.00  0.00     0.261 C 
BRANCH   4   5
ATOM      5  O   UNL A   1      31.950  26.345  21.605  1.00  0.00    -0.460 OA
BRANCH   5   6
ATOM      6  C   UNL A   1      33.233  26.473  22.042  1.00  0.00     0.341 C 
ATOM      7  O   UNL A   1      33.939  27.462  21.936  1.00  0.00    -0.246 OA
BRANCH   6   8
ATOM      8  C   UNL A   1      33.618  25.293  22.857  1.00  0.00     0.101 A 
ATOM      9  C   UNL A   1      34.303  23.152  24.570  1.00  0.00     0.042 A 
ATOM     10  C   UNL A   1      34.310  24.471  25.040  1.00  0.00     0.027 A 
ATOM     11  C   UNL A   1      33.966  22.925  23.227  1.00  0.00     0.073 A 
ATOM     12  C   UNL A   1      33.988  25.534  24.188  1.00  0.00     0.022 A 
ATOM     13  C   UNL A   1      33.593  23.978  22.388  1.00  0.00     0.132 A 
BRANCH   9  14
ATOM     14  N   UNL A   1      34.529  22.044  25.406  1.00  0.00    -0.358 N 
ATOM     15  H   UNL A   1      34.482  22.239  26.370  1.00  0.00     0.166 HD
BRANCH  14  16
ATOM     16  C   UNL A   1      34.807  20.721  25.092  1.00  0.00     0.030 C 
ATOM     17  C   UNL A   1      36.297  20.440  24.955  1.00  0.00     0.065 C 
ATOM     18  C   UNL A   1      33.931  19.721  24.842  1.00  0.00     0.125 C 
ATOM     19  C   UNL A   1      32.459  19.769  24.791  1.00  0.00     0.344 C 
ATOM     20  C   UNL A   1      34.286  18.308  24.593  1.00  0.00     0.212 C 
ATOM     21  O   UNL A   1      31.715  20.729  24.685  1.00  0.00    -0.246 OA
ATOM     22  O   UNL A   1      32.003  18.483  24.812  1.00  0.00    -0.451 OA
ATOM     23  C   UNL A   1      33.039  17.487  24.704  1.00  0.00     0.245 C 
ATOM     24  O   UNL A   1      35.395  17.865  24.346  1.00  0.00    -0.290 OA
ATOM     25  C   UNL A   1      33.045  16.588  25.930  1.00  0.00     0.062 C 
ENDBRANCH  14  16
ENDBRANCH   9  14
BRANCH  13  26
ATOM     26  O   UNL A   1      33.165  23.633  21.136  1.00  0.00    -0.507 OA
ATOM     27  H   UNL A   1      32.450  24.094  20.741  1.00  0.00     0.293 HD
ENDBRANCH  13  26
ENDBRANCH   6   8
ENDBRANCH   5   6
ENDBRANCH   4   5
ENDBRANCH   3   4
ENDBRANCH   2   3
ENDBRANCH   1   2
BRANCH   1  28
ATOM     28  C   UNL A   1      31.717  28.318  25.760  1.00  0.00     0.188 C 
BRANCH  28  29
ATOM     29  O   UNL A   1      31.684  29.136  26.908  1.00  0.00    -0.376 OA
BRANCH  29  30
ATOM     30  C   UNL A   1      31.972  30.518  26.765  1.00  0.00     0.202 C 
BRANCH  30  31
ATOM     31  C   UNL A   1      33.264  31.197  27.276  1.00  0.00     0.261 C 
BRANCH  31  32
ATOM     32  O   UNL A   1      34.235  30.391  27.953  1.00  0.00    -0.460 OA
BRANCH  32  33
ATOM     33  C   UNL A   1      35.067  31.027  28.810  1.00  0.00     0.338 C 
ATOM     34  O   UNL A   1      34.804  31.958  29.549  1.00  0.00    -0.246 OA
BRANCH  33  35
ATOM     35  C   UNL A   1      36.364  30.327  28.802  1.00  0.00     0.060 A 
ATOM     36  C   UNL A   1      36.819  29.733  29.980  1.00  0.00     0.016 A 
ATOM     37  C   UNL A   1      37.147  30.285  27.646  1.00  0.00     0.016 A 
ATOM     38  C   UNL A   1      38.057  29.097  30.007  1.00  0.00     0.010 A 
ATOM     39  C   UNL A   1      38.410  29.679  27.690  1.00  0.00     0.010 A 
ATOM     40  C   UNL A   1      38.885  29.108  28.882  1.00  0.00    -0.014 A 
BRANCH  40  41
ATOM     41  C   UNL A   1      40.298  28.674  29.025  1.00  0.00     0.031 A 
ATOM     42  C   UNL A   1      41.302  29.643  29.583  1.00  0.00     0.074 A 
ATOM     43  C   UNL A   1      40.678  27.419  28.729  1.00  0.00     0.049 A 
ATOM     44  N   UNL A   1      42.596  29.516  29.720  1.00  0.00    -0.248 NA
ATOM     45  C   UNL A   1      40.768  30.930  30.053  1.00  0.00     0.031 C 
ATOM     46  C   UNL A   1      39.792  26.355  28.263  1.00  0.00     0.029 A 
ATOM     47  N   UNL A   1      41.920  26.833  28.767  1.00  0.00    -0.354 N 
ATOM     48  C   UNL A   1      43.038  30.718  30.260  1.00  0.00     0.074 A 
ATOM     49  C   UNL A   1      41.874  31.565  30.408  1.00  0.00     0.031 C 
ATOM     50  C   UNL A   1      40.523  25.252  28.031  1.00  0.00     0.029 A 
ATOM     51  C   UNL A   1      41.933  25.549  28.283  1.00  0.00     0.049 A 
ATOM     52  H   UNL A   1      42.723  27.291  29.108  1.00  0.00     0.167 HD
ATOM     53  C   UNL A   1      44.297  31.083  30.601  1.00  0.00     0.037 A 
ATOM     54  C   UNL A   1      42.965  24.722  28.028  1.00  0.00     0.037 A 
ATOM     55  C   UNL A   1      45.454  30.237  30.448  1.00  0.00     0.049 A 
ATOM     56  C   UNL A   1      44.370  25.175  28.324  1.00  0.00     0.074 A 
ATOM     57  C   UNL A   1      46.772  30.509  30.770  1.00  0.00     0.029 A 
ATOM     58  N   UNL A   1      45.432  28.957  29.912  1.00  0.00    -0.354 N 
ATOM     59  N   UNL A   1      44.783  26.314  28.828  1.00  0.00    -0.248 NA
ATOM     60  C   UNL A   1      45.452  24.229  28.016  1.00  0.00     0.031 C 
ATOM     61  C   UNL A   1      47.555  29.421  30.370  1.00  0.00     0.029 A 
ATOM     62  C   UNL A   1      46.716  28.440  29.864  1.00  0.00     0.049 A 
ATOM     63  H   UNL A   1      44.622  28.485  29.609  1.00  0.00     0.167 HD
ATOM     64  C   UNL A   1      46.167  26.213  28.919  1.00  0.00     0.074 A 
ATOM     65  C   UNL A   1      46.520  24.896  28.431  1.00  0.00     0.031 C 
ATOM     66  C   UNL A   1      47.061  27.128  29.370  1.00  0.00     0.037 A 
BRANCH  53  67
ATOM     67  C   UNL A   1      44.488  32.481  31.117  1.00  0.00     0.057 A 
ATOM     68  C   UNL A   1      44.354  32.805  32.475  1.00  0.00     0.134 A 
ATOM     69  C   UNL A   1      44.791  33.527  30.234  1.00  0.00     0.134 A 
ATOM     70  F   UNL A   1      44.050  31.856  33.374  1.00  0.00    -0.206 F 
ATOM     71  C   UNL A   1      44.470  34.122  32.927  1.00  0.00     0.040 A 
ATOM     72  C   UNL A   1      44.943  34.841  30.679  1.00  0.00     0.040 A 
ATOM     73  F   UNL A   1      44.940  33.290  28.923  1.00  0.00    -0.206 F 
ATOM     74  C   UNL A   1      44.769  35.143  32.028  1.00  0.00     0.006 A 
ENDBRANCH  53  67
BRANCH  54  75
ATOM     75  C   UNL A   1      42.702  23.394  27.420  1.00  0.00     0.057 A 
ATOM     76  C   UNL A   1      42.356  22.287  28.202  1.00  0.00     0.134 A 
ATOM     77  C   UNL A   1      42.773  23.207  26.033  1.00  0.00     0.134 A 
ATOM     78  F   UNL A   1      42.298  22.397  29.537  1.00  0.00    -0.206 F 
ATOM     79  C   UNL A   1      42.091  21.042  27.628  1.00  0.00     0.040 A 
ATOM     80  C   UNL A   1      42.483  21.976  25.443  1.00  0.00     0.040 A 
ATOM     81  F   UNL A   1      43.102  24.229  25.228  1.00  0.00    -0.206 F 
ATOM     82  C   UNL A   1      42.143  20.888  26.244  1.00  0.00     0.006 A 
ENDBRANCH  54  75
BRANCH  66  83
ATOM     83  C   UNL A   1      48.511  26.728  29.392  1.00  0.00     0.057 A 
ATOM     84  C   UNL A   1      49.391  27.051  28.351  1.00  0.00     0.134 A 
ATOM     85  C   UNL A   1      49.043  26.044  30.495  1.00  0.00     0.134 A 
ATOM     86  F   UNL A   1      48.947  27.695  27.261  1.00  0.00    -0.206 F 
ATOM     87  C   UNL A   1      50.739  26.688  28.394  1.00  0.00     0.040 A 
ATOM     88  C   UNL A   1      50.394  25.703  30.563  1.00  0.00     0.040 A 
ATOM     89  F   UNL A   1      48.260  25.711  31.533  1.00  0.00    -0.206 F 
ATOM     90  C   UNL A   1      51.245  26.018  29.507  1.00  0.00     0.006 A 
ENDBRANCH  66  83
ENDBRANCH  40  41
ENDBRANCH  33  35
ENDBRANCH  32  33
ENDBRANCH  31  32
ENDBRANCH  30  31
ENDBRANCH  29  30
ENDBRANCH  28  29
ENDBRANCH   1  28
TORSDOF 20
ENDMDL
