MODEL 1
REMARK VINA RESULT:     -11.1      0.000      0.000
REMARK SMILES Cc1ccc(N2CCC[C@@H](Cn3cc(C(=O)OCCOCCOCCOC(=O)c4ccc(-c5c6nc(c(-c7c(F)cccc7F)c7ccc([nH]7)c(-c7c(F)cccc7F)c7nc(c(-c8c(F)cccc8F)c8ccc5[nH]8)C=C7)C=C6)cc4)nn3)C2)nn1
REMARK SMILES IDX 21 1 20 2 19 3 18 4 17 5 15 6 16 7 14 8 12 9 13 10 84 11
REMARK SMILES IDX 83 12 11 13 10 14 6 15 7 16 85 17 8 18 9 19 5 20 1 21 2 22
REMARK SMILES IDX 3 23 87 24 4 25 86 26 22 27 23 28 24 29 25 30 26 31 27 32
REMARK SMILES IDX 28 33 29 34 30 35 82 36 31 37 81 38 32 39 33 40 34 41 75 42
REMARK SMILES IDX 35 43 80 44 74 45 76 46 36 47 79 48 73 49 72 50 37 52 63 53
REMARK SMILES IDX 46 54 62 55 47 56 50 57 61 58 77 59 48 60 49 61 60 63 78 64
REMARK SMILES IDX 51 65 38 66 39 67 44 68 40 69 41 70 43 71 45 72 42 73 64 74
REMARK SMILES IDX 65 75 70 76 66 77 67 78 69 79 71 80 68 81 52 82 53 83 58 84
REMARK SMILES IDX 54 85 55 86 57 87 59 88 56 89
REMARK H PARENT 76 51 50 62
REMARK Flexibility Score: inf
ROOT
ATOM      1  C   UNL A   1      34.819  32.311  28.116  1.00  0.00     0.188 C 
ENDROOT
BRANCH   1   2
ATOM      2  O   UNL A   1      34.653  30.928  27.831  1.00  0.00    -0.376 OA
BRANCH   2   3
ATOM      3  C   UNL A   1      33.470  30.461  27.191  1.00  0.00     0.202 C 
BRANCH   3   4
ATOM      4  C   UNL A   1      33.448  29.131  26.410  1.00  0.00     0.261 C 
BRANCH   4   5
ATOM      5  O   UNL A   1      32.140  28.664  26.058  1.00  0.00    -0.458 OA
BRANCH   5   6
ATOM      6  C   UNL A   1      31.618  27.675  26.834  1.00  0.00     0.360 C 
ATOM      7  O   UNL A   1      31.344  27.802  28.025  1.00  0.00    -0.244 OA
BRANCH   6   8
ATOM      8  C   UNL A   1      31.328  26.469  26.077  1.00  0.00     0.190 A 
ATOM      9  N   UNL A   1      31.313  24.868  24.635  1.00  0.00    -0.251 N 
ATOM     10  C   UNL A   1      31.577  26.202  24.743  1.00  0.00     0.146 A 
ATOM     11  N   UNL A   1      30.614  24.433  25.698  1.00  0.00    -0.067 NA
ATOM     12  N   UNL A   1      30.683  25.383  26.621  1.00  0.00    -0.123 NA
BRANCH   9  13
ATOM     13  C   UNL A   1      32.052  23.916  23.829  1.00  0.00     0.151 C 
BRANCH  13  14
ATOM     14  C   UNL A   1      32.861  22.917  24.689  1.00  0.00     0.030 C 
ATOM     15  N   UNL A   1      33.770  20.681  24.852  1.00  0.00    -0.355 N 
ATOM     16  C   UNL A   1      35.156  21.098  25.008  1.00  0.00     0.118 C 
ATOM     17  C   UNL A   1      32.944  21.531  24.019  1.00  0.00     0.123 C 
ATOM     18  C   UNL A   1      35.144  22.415  25.776  1.00  0.00     0.022 C 
ATOM     19  C   UNL A   1      34.264  23.453  25.076  1.00  0.00     0.009 C 
BRANCH  15  20
ATOM     20  C   UNL A   1      33.487  19.326  24.850  1.00  0.00     0.151 A 
ATOM     21  C   UNL A   1      32.805  15.174  25.263  1.00  0.00     0.069 C 
ATOM     22  C   UNL A   1      33.066  16.633  25.081  1.00  0.00     0.060 A 
ATOM     23  C   UNL A   1      34.289  17.077  24.610  1.00  0.00     0.029 A 
ATOM     24  N   UNL A   1      32.087  17.500  25.410  1.00  0.00    -0.154 NA
ATOM     25  C   UNL A   1      34.491  18.444  24.480  1.00  0.00     0.051 A 
ATOM     26  N   UNL A   1      32.309  18.852  25.310  1.00  0.00    -0.133 NA
ENDBRANCH  15  20
ENDBRANCH  13  14
ENDBRANCH   9  13
ENDBRANCH   6   8
ENDBRANCH   5   6
ENDBRANCH   4   5
ENDBRANCH   3   4
ENDBRANCH   2   3
ENDBRANCH   1   2
BRANCH   1  27
ATOM     27  C   UNL A   1      34.377  32.878  29.479  1.00  0.00     0.188 C 
BRANCH  27  28
ATOM     28  O   UNL A   1      35.259  33.832  30.034  1.00  0.00    -0.376 OA
BRANCH  28  29
ATOM     29  C   UNL A   1      36.612  33.495  30.310  1.00  0.00     0.202 C 
BRANCH  29  30
ATOM     30  C   UNL A   1      36.995  32.181  31.002  1.00  0.00     0.261 C 
BRANCH  30  31
ATOM     31  O   UNL A   1      37.558  31.190  30.164  1.00  0.00    -0.460 OA
BRANCH  31  32
ATOM     32  C   UNL A   1      36.993  29.976  30.297  1.00  0.00     0.338 C 
ATOM     33  O   UNL A   1      35.996  29.687  30.938  1.00  0.00    -0.246 OA
BRANCH  32  34
ATOM     34  C   UNL A   1      37.782  29.018  29.524  1.00  0.00     0.060 A 
ATOM     35  C   UNL A   1      38.351  27.963  30.237  1.00  0.00     0.016 A 
ATOM     36  C   UNL A   1      38.232  29.413  28.257  1.00  0.00     0.016 A 
ATOM     37  C   UNL A   1      39.574  27.507  29.817  1.00  0.00     0.010 A 
ATOM     38  C   UNL A   1      39.467  28.976  27.852  1.00  0.00     0.010 A 
ATOM     39  C   UNL A   1      40.160  28.122  28.704  1.00  0.00    -0.014 A 
BRANCH  39  40
ATOM     40  C   UNL A   1      41.570  27.902  28.510  1.00  0.00     0.031 A 
ATOM     41  C   UNL A   1      41.899  26.664  27.793  1.00  0.00     0.074 A 
ATOM     42  C   UNL A   1      42.493  28.774  28.949  1.00  0.00     0.049 A 
ATOM     43  N   UNL A   1      42.459  25.608  28.276  1.00  0.00    -0.248 NA
ATOM     44  C   UNL A   1      41.432  26.539  26.409  1.00  0.00     0.031 C 
ATOM     45  C   UNL A   1      42.308  30.145  29.432  1.00  0.00     0.029 A 
ATOM     46  N   UNL A   1      43.841  28.616  28.964  1.00  0.00    -0.354 N 
ATOM     47  C   UNL A   1      42.578  24.733  27.207  1.00  0.00     0.074 A 
ATOM     48  C   UNL A   1      41.801  25.290  26.128  1.00  0.00     0.031 C 
ATOM     49  C   UNL A   1      43.515  30.755  29.490  1.00  0.00     0.029 A 
ATOM     50  C   UNL A   1      44.550  29.785  29.172  1.00  0.00     0.049 A 
ATOM     51  H   UNL A   1      44.278  27.741  28.839  1.00  0.00     0.167 HD
ATOM     52  C   UNL A   1      43.492  23.729  27.220  1.00  0.00     0.037 A 
ATOM     53  C   UNL A   1      45.886  29.937  29.010  1.00  0.00     0.037 A 
ATOM     54  C   UNL A   1      43.971  23.455  28.550  1.00  0.00     0.049 A 
ATOM     55  C   UNL A   1      46.507  28.589  29.065  1.00  0.00     0.074 A 
ATOM     56  C   UNL A   1      43.382  23.048  29.731  1.00  0.00     0.029 A 
ATOM     57  N   UNL A   1      45.213  23.929  28.896  1.00  0.00    -0.354 N 
ATOM     58  N   UNL A   1      46.604  27.874  30.152  1.00  0.00    -0.248 NA
ATOM     59  C   UNL A   1      46.643  27.842  27.821  1.00  0.00     0.031 C 
ATOM     60  C   UNL A   1      44.106  23.716  30.762  1.00  0.00     0.029 A 
ATOM     61  C   UNL A   1      45.105  24.473  30.150  1.00  0.00     0.049 A 
ATOM     62  H   UNL A   1      46.029  23.886  28.347  1.00  0.00     0.167 HD
ATOM     63  C   UNL A   1      46.382  26.567  29.740  1.00  0.00     0.074 A 
ATOM     64  C   UNL A   1      46.521  26.596  28.288  1.00  0.00     0.031 C 
ATOM     65  C   UNL A   1      45.827  25.645  30.583  1.00  0.00     0.037 A 
BRANCH  52  66
ATOM     66  C   UNL A   1      44.209  23.252  25.990  1.00  0.00     0.057 A 
ATOM     67  C   UNL A   1      45.168  24.016  25.295  1.00  0.00     0.134 A 
ATOM     68  C   UNL A   1      44.164  21.888  25.659  1.00  0.00     0.134 A 
ATOM     69  F   UNL A   1      45.395  25.307  25.569  1.00  0.00    -0.206 F 
ATOM     70  C   UNL A   1      46.030  23.462  24.347  1.00  0.00     0.040 A 
ATOM     71  C   UNL A   1      45.061  21.314  24.753  1.00  0.00     0.040 A 
ATOM     72  F   UNL A   1      43.305  21.061  26.270  1.00  0.00    -0.206 F 
ATOM     73  C   UNL A   1      46.002  22.100  24.099  1.00  0.00     0.006 A 
ENDBRANCH  52  66
BRANCH  53  74
ATOM     74  C   UNL A   1      46.616  31.135  28.547  1.00  0.00     0.057 A 
ATOM     75  C   UNL A   1      46.886  31.352  27.183  1.00  0.00     0.134 A 
ATOM     76  C   UNL A   1      47.292  31.967  29.448  1.00  0.00     0.134 A 
ATOM     77  F   UNL A   1      46.362  30.561  26.236  1.00  0.00    -0.206 F 
ATOM     78  C   UNL A   1      47.776  32.335  26.742  1.00  0.00     0.040 A 
ATOM     79  C   UNL A   1      48.196  32.949  29.019  1.00  0.00     0.040 A 
ATOM     80  F   UNL A   1      47.137  31.809  30.771  1.00  0.00    -0.206 F 
ATOM     81  C   UNL A   1      48.446  33.129  27.662  1.00  0.00     0.006 A 
ENDBRANCH  53  74
BRANCH  65  82
ATOM     82  C   UNL A   1      45.722  26.014  32.035  1.00  0.00     0.057 A 
ATOM     83  C   UNL A   1      44.593  26.709  32.480  1.00  0.00     0.134 A 
ATOM     84  C   UNL A   1      46.755  25.815  32.963  1.00  0.00     0.134 A 
ATOM     85  F   UNL A   1      43.592  26.991  31.631  1.00  0.00    -0.206 F 
ATOM     86  C   UNL A   1      44.482  27.166  33.796  1.00  0.00     0.040 A 
ATOM     87  C   UNL A   1      46.643  26.239  34.290  1.00  0.00     0.040 A 
ATOM     88  F   UNL A   1      47.916  25.256  32.598  1.00  0.00    -0.206 F 
ATOM     89  C   UNL A   1      45.505  26.919  34.709  1.00  0.00     0.006 A 
ENDBRANCH  65  82
ENDBRANCH  39  40
ENDBRANCH  32  34
ENDBRANCH  31  32
ENDBRANCH  30  31
ENDBRANCH  29  30
ENDBRANCH  28  29
ENDBRANCH  27  28
ENDBRANCH   1  27
TORSDOF 20
ENDMDL
MODEL 2
REMARK VINA RESULT:     -11.1      4.051      8.153
REMARK SMILES Cc1ccc(N2CCC[C@@H](Cn3cc(C(=O)OCCOCCOCCOC(=O)c4ccc(-c5c6nc(c(-c7c(F)cccc7F)c7ccc([nH]7)c(-c7c(F)cccc7F)c7nc(c(-c8c(F)cccc8F)c8ccc5[nH]8)C=C7)C=C6)cc4)nn3)C2)nn1
REMARK SMILES IDX 21 1 20 2 19 3 18 4 17 5 15 6 16 7 14 8 12 9 13 10 84 11
REMARK SMILES IDX 83 12 11 13 10 14 6 15 7 16 85 17 8 18 9 19 5 20 1 21 2 22
REMARK SMILES IDX 3 23 87 24 4 25 86 26 22 27 23 28 24 29 25 30 26 31 27 32
REMARK SMILES IDX 28 33 29 34 30 35 82 36 31 37 81 38 32 39 33 40 34 41 75 42
REMARK SMILES IDX 35 43 80 44 74 45 76 46 36 47 79 48 73 49 72 50 37 52 63 53
REMARK SMILES IDX 46 54 62 55 47 56 50 57 61 58 77 59 48 60 49 61 60 63 78 64
REMARK SMILES IDX 51 65 38 66 39 67 44 68 40 69 41 70 43 71 45 72 42 73 64 74
REMARK SMILES IDX 65 75 70 76 66 77 67 78 69 79 71 80 68 81 52 82 53 83 58 84
REMARK SMILES IDX 54 85 55 86 57 87 59 88 56 89
REMARK H PARENT 76 51 50 62
REMARK Flexibility Score: inf
ROOT
ATOM      1  C   UNL A   1      34.895  30.720  27.802  1.00  0.00     0.188 C 
ENDROOT
BRANCH   1   2
ATOM      2  O   UNL A   1      34.145  29.953  26.871  1.00  0.00    -0.376 OA
BRANCH   2   3
ATOM      3  C   UNL A   1      32.828  30.351  26.503  1.00  0.00     0.202 C 
BRANCH   3   4
ATOM      4  C   UNL A   1      31.778  29.325  26.031  1.00  0.00     0.261 C 
BRANCH   4   5
ATOM      5  O   UNL A   1      31.351  29.486  24.672  1.00  0.00    -0.458 OA
BRANCH   5   6
ATOM      6  C   UNL A   1      30.815  28.389  24.071  1.00  0.00     0.360 C 
ATOM      7  O   UNL A   1      29.652  28.312  23.681  1.00  0.00    -0.244 OA
BRANCH   6   8
ATOM      8  C   UNL A   1      31.797  27.341  23.848  1.00  0.00     0.190 A 
ATOM      9  N   UNL A   1      32.834  25.460  23.681  1.00  0.00    -0.251 N 
ATOM     10  C   UNL A   1      31.858  26.077  24.406  1.00  0.00     0.146 A 
ATOM     11  N   UNL A   1      33.561  26.360  22.997  1.00  0.00    -0.067 NA
ATOM     12  N   UNL A   1      32.891  27.504  23.031  1.00  0.00    -0.123 NA
BRANCH   9  13
ATOM     13  C   UNL A   1      32.831  24.074  23.253  1.00  0.00     0.151 C 
BRANCH  13  14
ATOM     14  C   UNL A   1      33.279  23.109  24.375  1.00  0.00     0.030 C 
ATOM     15  N   UNL A   1      33.975  20.859  24.933  1.00  0.00    -0.355 N 
ATOM     16  C   UNL A   1      35.263  21.241  25.495  1.00  0.00     0.118 C 
ATOM     17  C   UNL A   1      33.496  21.679  23.839  1.00  0.00     0.123 C 
ATOM     18  C   UNL A   1      35.079  22.605  26.150  1.00  0.00     0.022 C 
ATOM     19  C   UNL A   1      34.517  23.623  25.155  1.00  0.00     0.009 C 
BRANCH  15  20
ATOM     20  C   UNL A   1      33.638  19.518  24.913  1.00  0.00     0.151 A 
ATOM     21  C   UNL A   1      32.783  15.393  25.272  1.00  0.00     0.069 C 
ATOM     22  C   UNL A   1      33.105  16.842  25.109  1.00  0.00     0.060 A 
ATOM     23  C   UNL A   1      34.353  17.240  24.663  1.00  0.00     0.029 A 
ATOM     24  N   UNL A   1      32.156  17.745  25.431  1.00  0.00    -0.154 NA
ATOM     25  C   UNL A   1      34.612  18.599  24.550  1.00  0.00     0.051 A 
ATOM     26  N   UNL A   1      32.435  19.088  25.348  1.00  0.00    -0.133 NA
ENDBRANCH  15  20
ENDBRANCH  13  14
ENDBRANCH   9  13
ENDBRANCH   6   8
ENDBRANCH   5   6
ENDBRANCH   4   5
ENDBRANCH   3   4
ENDBRANCH   2   3
ENDBRANCH   1   2
BRANCH   1  27
ATOM     27  C   UNL A   1      34.950  32.255  27.673  1.00  0.00     0.188 C 
BRANCH  27  28
ATOM     28  O   UNL A   1      34.304  32.957  28.716  1.00  0.00    -0.376 OA
BRANCH  28  29
ATOM     29  C   UNL A   1      33.315  33.937  28.427  1.00  0.00     0.202 C 
BRANCH  29  30
ATOM     30  C   UNL A   1      33.074  35.140  29.346  1.00  0.00     0.261 C 
BRANCH  30  31
ATOM     31  O   UNL A   1      33.970  35.270  30.433  1.00  0.00    -0.460 OA
BRANCH  31  32
ATOM     32  C   UNL A   1      33.393  35.120  31.639  1.00  0.00     0.338 C 
ATOM     33  O   UNL A   1      32.268  35.455  31.970  1.00  0.00    -0.246 OA
BRANCH  32  34
ATOM     34  C   UNL A   1      34.353  34.466  32.527  1.00  0.00     0.060 A 
ATOM     35  C   UNL A   1      35.462  35.222  32.908  1.00  0.00     0.016 A 
ATOM     36  C   UNL A   1      34.317  33.068  32.613  1.00  0.00     0.016 A 
ATOM     37  C   UNL A   1      36.648  34.555  33.079  1.00  0.00     0.010 A 
ATOM     38  C   UNL A   1      35.508  32.405  32.758  1.00  0.00     0.010 A 
ATOM     39  C   UNL A   1      36.664  33.172  32.869  1.00  0.00    -0.014 A 
BRANCH  39  40
ATOM     40  C   UNL A   1      37.954  32.560  32.683  1.00  0.00     0.031 A 
ATOM     41  C   UNL A   1      38.828  32.611  33.862  1.00  0.00     0.074 A 
ATOM     42  C   UNL A   1      38.307  31.985  31.521  1.00  0.00     0.049 A 
ATOM     43  N   UNL A   1      39.900  33.310  34.008  1.00  0.00    -0.248 NA
ATOM     44  C   UNL A   1      38.383  31.900  35.065  1.00  0.00     0.031 C 
ATOM     45  C   UNL A   1      37.465  31.632  30.375  1.00  0.00     0.029 A 
ATOM     46  N   UNL A   1      39.530  31.512  31.168  1.00  0.00    -0.354 N 
ATOM     47  C   UNL A   1      40.374  32.997  35.272  1.00  0.00     0.074 A 
ATOM     48  C   UNL A   1      39.333  32.249  35.931  1.00  0.00     0.031 C 
ATOM     49  C   UNL A   1      38.165  30.815  29.553  1.00  0.00     0.029 A 
ATOM     50  C   UNL A   1      39.526  30.698  30.051  1.00  0.00     0.049 A 
ATOM     51  H   UNL A   1      40.351  31.731  31.667  1.00  0.00     0.167 HD
ATOM     52  C   UNL A   1      41.679  33.185  35.599  1.00  0.00     0.037 A 
ATOM     53  C   UNL A   1      40.559  29.929  29.630  1.00  0.00     0.037 A 
ATOM     54  C   UNL A   1      42.340  34.076  34.682  1.00  0.00     0.049 A 
ATOM     55  C   UNL A   1      41.802  30.465  30.241  1.00  0.00     0.074 A 
ATOM     56  C   UNL A   1      42.159  35.392  34.305  1.00  0.00     0.029 A 
ATOM     57  N   UNL A   1      43.165  33.526  33.733  1.00  0.00    -0.354 N 
ATOM     58  N   UNL A   1      42.354  31.597  29.900  1.00  0.00    -0.248 NA
ATOM     59  C   UNL A   1      42.207  29.949  31.543  1.00  0.00     0.031 C 
ATOM     60  C   UNL A   1      42.502  35.437  32.921  1.00  0.00     0.029 A 
ATOM     61  C   UNL A   1      42.892  34.152  32.544  1.00  0.00     0.049 A 
ATOM     62  H   UNL A   1      43.831  32.815  33.878  1.00  0.00     0.167 HD
ATOM     63  C   UNL A   1      42.825  32.137  31.089  1.00  0.00     0.074 A 
ATOM     64  C   UNL A   1      42.804  31.034  32.043  1.00  0.00     0.031 C 
ATOM     65  C   UNL A   1      42.916  33.490  31.262  1.00  0.00     0.037 A 
BRANCH  52  66
ATOM     66  C   UNL A   1      42.433  32.279  36.529  1.00  0.00     0.057 A 
ATOM     67  C   UNL A   1      42.735  30.932  36.240  1.00  0.00     0.134 A 
ATOM     68  C   UNL A   1      43.134  32.839  37.609  1.00  0.00     0.134 A 
ATOM     69  F   UNL A   1      42.220  30.292  35.183  1.00  0.00    -0.206 F 
ATOM     70  C   UNL A   1      43.675  30.199  36.964  1.00  0.00     0.040 A 
ATOM     71  C   UNL A   1      44.118  32.129  38.303  1.00  0.00     0.040 A 
ATOM     72  F   UNL A   1      42.943  34.118  37.963  1.00  0.00    -0.206 F 
ATOM     73  C   UNL A   1      44.396  30.808  37.978  1.00  0.00     0.006 A 
ENDBRANCH  52  66
BRANCH  53  74
ATOM     74  C   UNL A   1      40.501  28.615  28.958  1.00  0.00     0.057 A 
ATOM     75  C   UNL A   1      40.889  28.457  27.615  1.00  0.00     0.134 A 
ATOM     76  C   UNL A   1      39.822  27.534  29.534  1.00  0.00     0.134 A 
ATOM     77  F   UNL A   1      41.469  29.457  26.936  1.00  0.00    -0.206 F 
ATOM     78  C   UNL A   1      40.616  27.296  26.887  1.00  0.00     0.040 A 
ATOM     79  C   UNL A   1      39.533  26.368  28.812  1.00  0.00     0.040 A 
ATOM     80  F   UNL A   1      39.370  27.605  30.795  1.00  0.00    -0.206 F 
ATOM     81  C   UNL A   1      39.923  26.250  27.481  1.00  0.00     0.006 A 
ENDBRANCH  53  74
BRANCH  65  82
ATOM     82  C   UNL A   1      42.754  34.353  30.044  1.00  0.00     0.057 A 
ATOM     83  C   UNL A   1      41.473  34.774  29.674  1.00  0.00     0.134 A 
ATOM     84  C   UNL A   1      43.805  34.666  29.169  1.00  0.00     0.134 A 
ATOM     85  F   UNL A   1      40.411  34.457  30.432  1.00  0.00    -0.206 F 
ATOM     86  C   UNL A   1      41.246  35.495  28.499  1.00  0.00     0.040 A 
ATOM     87  C   UNL A   1      43.597  35.414  28.007  1.00  0.00     0.040 A 
ATOM     88  F   UNL A   1      45.046  34.212  29.386  1.00  0.00    -0.206 F 
ATOM     89  C   UNL A   1      42.313  35.830  27.668  1.00  0.00     0.006 A 
ENDBRANCH  65  82
ENDBRANCH  39  40
ENDBRANCH  32  34
ENDBRANCH  31  32
ENDBRANCH  30  31
ENDBRANCH  29  30
ENDBRANCH  28  29
ENDBRANCH  27  28
ENDBRANCH   1  27
TORSDOF 20
ENDMDL
MODEL 3
REMARK VINA RESULT:     -10.6      2.233      6.410
REMARK SMILES Cc1ccc(N2CCC[C@@H](Cn3cc(C(=O)OCCOCCOCCOC(=O)c4ccc(-c5c6nc(c(-c7c(F)cccc7F)c7ccc([nH]7)c(-c7c(F)cccc7F)c7nc(c(-c8c(F)cccc8F)c8ccc5[nH]8)C=C7)C=C6)cc4)nn3)C2)nn1
REMARK SMILES IDX 21 1 20 2 19 3 18 4 17 5 15 6 16 7 14 8 12 9 13 10 84 11
REMARK SMILES IDX 83 12 11 13 10 14 6 15 7 16 85 17 8 18 9 19 5 20 1 21 2 22
REMARK SMILES IDX 3 23 87 24 4 25 86 26 22 27 23 28 24 29 25 30 26 31 27 32
REMARK SMILES IDX 28 33 29 34 30 35 82 36 31 37 81 38 32 39 33 40 34 41 75 42
REMARK SMILES IDX 35 43 80 44 74 45 76 46 36 47 79 48 73 49 72 50 37 52 63 53
REMARK SMILES IDX 46 54 62 55 47 56 50 57 61 58 77 59 48 60 49 61 60 63 78 64
REMARK SMILES IDX 51 65 38 66 39 67 44 68 40 69 41 70 43 71 45 72 42 73 64 74
REMARK SMILES IDX 65 75 70 76 66 77 67 78 69 79 71 80 68 81 52 82 53 83 58 84
REMARK SMILES IDX 54 85 55 86 57 87 59 88 56 89
REMARK H PARENT 76 51 50 62
REMARK Flexibility Score: inf
ROOT
ATOM      1  C   UNL A   1      31.410  27.292  26.572  1.00  0.00     0.188 C 
ENDROOT
BRANCH   1   2
ATOM      2  O   UNL A   1      30.409  26.321  26.847  1.00  0.00    -0.376 OA
BRANCH   2   3
ATOM      3  C   UNL A   1      29.833  25.560  25.791  1.00  0.00     0.202 C 
BRANCH   3   4
ATOM      4  C   UNL A   1      30.264  25.760  24.324  1.00  0.00     0.261 C 
BRANCH   4   5
ATOM      5  O   UNL A   1      29.940  27.044  23.774  1.00  0.00    -0.458 OA
BRANCH   5   6
ATOM      6  C   UNL A   1      30.639  27.424  22.669  1.00  0.00     0.360 C 
ATOM      7  O   UNL A   1      30.342  28.381  21.959  1.00  0.00    -0.244 OA
BRANCH   6   8
ATOM      8  C   UNL A   1      31.840  26.631  22.471  1.00  0.00     0.190 A 
ATOM      9  N   UNL A   1      33.691  25.556  22.720  1.00  0.00    -0.251 N 
ATOM     10  C   UNL A   1      33.013  26.636  23.205  1.00  0.00     0.146 A 
ATOM     11  N   UNL A   1      33.164  25.146  21.553  1.00  0.00    -0.067 NA
ATOM     12  N   UNL A   1      31.988  25.747  21.429  1.00  0.00    -0.123 NA
BRANCH   9  13
ATOM     13  C   UNL A   1      34.497  24.636  23.499  1.00  0.00     0.151 C 
BRANCH  13  14
ATOM     14  C   UNL A   1      33.640  23.689  24.370  1.00  0.00     0.030 C 
ATOM     15  N   UNL A   1      33.415  21.468  25.305  1.00  0.00    -0.355 N 
ATOM     16  C   UNL A   1      33.372  21.900  26.695  1.00  0.00     0.118 C 
ATOM     17  C   UNL A   1      34.238  22.269  24.420  1.00  0.00     0.123 C 
ATOM     18  C   UNL A   1      32.677  23.256  26.722  1.00  0.00     0.022 C 
ATOM     19  C   UNL A   1      33.374  24.251  25.791  1.00  0.00     0.009 C 
BRANCH  15  20
ATOM     20  C   UNL A   1      33.326  20.115  25.033  1.00  0.00     0.151 A 
ATOM     21  C   UNL A   1      33.204  15.908  24.627  1.00  0.00     0.069 C 
ATOM     22  C   UNL A   1      33.270  17.396  24.735  1.00  0.00     0.060 A 
ATOM     23  C   UNL A   1      34.451  18.069  24.476  1.00  0.00     0.029 A 
ATOM     24  N   UNL A   1      32.157  18.057  25.115  1.00  0.00    -0.154 NA
ATOM     25  C   UNL A   1      34.469  19.450  24.613  1.00  0.00     0.051 A 
ATOM     26  N   UNL A   1      32.195  19.420  25.281  1.00  0.00    -0.133 NA
ENDBRANCH  15  20
ENDBRANCH  13  14
ENDBRANCH   9  13
ENDBRANCH   6   8
ENDBRANCH   5   6
ENDBRANCH   4   5
ENDBRANCH   3   4
ENDBRANCH   2   3
ENDBRANCH   1   2
BRANCH   1  27
ATOM     27  C   UNL A   1      31.771  28.353  27.630  1.00  0.00     0.188 C 
BRANCH  27  28
ATOM     28  O   UNL A   1      32.144  29.608  27.101  1.00  0.00    -0.376 OA
BRANCH  28  29
ATOM     29  C   UNL A   1      33.515  29.968  26.984  1.00  0.00     0.202 C 
BRANCH  29  30
ATOM     30  C   UNL A   1      34.138  31.075  27.842  1.00  0.00     0.261 C 
BRANCH  30  31
ATOM     31  O   UNL A   1      35.532  31.260  27.686  1.00  0.00    -0.460 OA
BRANCH  31  32
ATOM     32  C   UNL A   1      36.230  31.155  28.832  1.00  0.00     0.338 C 
ATOM     33  O   UNL A   1      35.827  31.352  29.966  1.00  0.00    -0.246 OA
BRANCH  32  34
ATOM     34  C   UNL A   1      37.595  30.751  28.501  1.00  0.00     0.060 A 
ATOM     35  C   UNL A   1      37.729  29.642  27.666  1.00  0.00     0.016 A 
ATOM     36  C   UNL A   1      38.633  31.221  29.317  1.00  0.00     0.016 A 
ATOM     37  C   UNL A   1      38.802  28.816  27.884  1.00  0.00     0.010 A 
ATOM     38  C   UNL A   1      39.691  30.382  29.553  1.00  0.00     0.010 A 
ATOM     39  C   UNL A   1      39.687  29.145  28.917  1.00  0.00    -0.014 A 
BRANCH  39  40
ATOM     40  C   UNL A   1      40.567  28.100  29.373  1.00  0.00     0.031 A 
ATOM     41  C   UNL A   1      40.826  28.110  30.818  1.00  0.00     0.074 A 
ATOM     42  C   UNL A   1      41.091  27.193  28.531  1.00  0.00     0.049 A 
ATOM     43  N   UNL A   1      41.930  28.411  31.411  1.00  0.00    -0.248 NA
ATOM     44  C   UNL A   1      39.685  27.886  31.712  1.00  0.00     0.031 C 
ATOM     45  C   UNL A   1      40.722  26.905  27.143  1.00  0.00     0.029 A 
ATOM     46  N   UNL A   1      42.041  26.262  28.803  1.00  0.00    -0.354 N 
ATOM     47  C   UNL A   1      41.678  28.246  32.764  1.00  0.00     0.074 A 
ATOM     48  C   UNL A   1      40.254  28.071  32.902  1.00  0.00     0.031 C 
ATOM     49  C   UNL A   1      41.293  25.735  26.773  1.00  0.00     0.029 A 
ATOM     50  C   UNL A   1      42.157  25.270  27.846  1.00  0.00     0.049 A 
ATOM     51  H   UNL A   1      42.600  26.290  29.613  1.00  0.00     0.167 HD
ATOM     52  C   UNL A   1      42.690  28.040  33.647  1.00  0.00     0.037 A 
ATOM     53  C   UNL A   1      42.857  24.119  27.983  1.00  0.00     0.037 A 
ATOM     54  C   UNL A   1      43.966  28.419  33.100  1.00  0.00     0.049 A 
ATOM     55  C   UNL A   1      43.846  24.316  29.074  1.00  0.00     0.074 A 
ATOM     56  C   UNL A   1      44.509  29.596  32.623  1.00  0.00     0.029 A 
ATOM     57  N   UNL A   1      44.800  27.420  32.662  1.00  0.00    -0.354 N 
ATOM     58  N   UNL A   1      44.898  25.081  28.975  1.00  0.00    -0.248 NA
ATOM     59  C   UNL A   1      43.440  23.998  30.437  1.00  0.00     0.031 C 
ATOM     60  C   UNL A   1      45.368  29.208  31.553  1.00  0.00     0.029 A 
ATOM     61  C   UNL A   1      45.314  27.818  31.454  1.00  0.00     0.049 A 
ATOM     62  H   UNL A   1      44.995  26.575  33.129  1.00  0.00     0.167 HD
ATOM     63  C   UNL A   1      45.024  25.678  30.222  1.00  0.00     0.074 A 
ATOM     64  C   UNL A   1      44.170  24.894  31.107  1.00  0.00     0.031 C 
ATOM     65  C   UNL A   1      45.582  26.918  30.358  1.00  0.00     0.037 A 
BRANCH  52  66
ATOM     66  C   UNL A   1      42.559  27.163  34.858  1.00  0.00     0.057 A 
ATOM     67  C   UNL A   1      41.995  27.589  36.079  1.00  0.00     0.134 A 
ATOM     68  C   UNL A   1      42.725  25.776  34.718  1.00  0.00     0.134 A 
ATOM     69  F   UNL A   1      41.688  28.869  36.320  1.00  0.00    -0.206 F 
ATOM     70  C   UNL A   1      41.613  26.699  37.083  1.00  0.00     0.040 A 
ATOM     71  C   UNL A   1      42.293  24.874  35.695  1.00  0.00     0.040 A 
ATOM     72  F   UNL A   1      43.234  25.255  33.593  1.00  0.00    -0.206 F 
ATOM     73  C   UNL A   1      41.729  25.334  36.879  1.00  0.00     0.006 A 
ENDBRANCH  52  66
BRANCH  53  74
ATOM     74  C   UNL A   1      42.544  22.790  27.419  1.00  0.00     0.057 A 
ATOM     75  C   UNL A   1      43.459  22.104  26.598  1.00  0.00     0.134 A 
ATOM     76  C   UNL A   1      41.244  22.273  27.456  1.00  0.00     0.134 A 
ATOM     77  F   UNL A   1      44.708  22.557  26.419  1.00  0.00    -0.206 F 
ATOM     78  C   UNL A   1      43.102  20.975  25.858  1.00  0.00     0.040 A 
ATOM     79  C   UNL A   1      40.869  21.148  26.710  1.00  0.00     0.040 A 
ATOM     80  F   UNL A   1      40.288  22.883  28.173  1.00  0.00    -0.206 F 
ATOM     81  C   UNL A   1      41.798  20.500  25.901  1.00  0.00     0.006 A 
ENDBRANCH  53  74
BRANCH  65  82
ATOM     82  C   UNL A   1      46.295  27.488  29.167  1.00  0.00     0.057 A 
ATOM     83  C   UNL A   1      47.693  27.496  29.150  1.00  0.00     0.134 A 
ATOM     84  C   UNL A   1      45.642  28.137  28.108  1.00  0.00     0.134 A 
ATOM     85  F   UNL A   1      48.386  26.949  30.162  1.00  0.00    -0.206 F 
ATOM     86  C   UNL A   1      48.414  28.101  28.117  1.00  0.00     0.040 A 
ATOM     87  C   UNL A   1      46.349  28.718  27.052  1.00  0.00     0.040 A 
ATOM     88  F   UNL A   1      44.309  28.273  28.096  1.00  0.00    -0.206 F 
ATOM     89  C   UNL A   1      47.741  28.702  27.056  1.00  0.00     0.006 A 
ENDBRANCH  65  82
ENDBRANCH  39  40
ENDBRANCH  32  34
ENDBRANCH  31  32
ENDBRANCH  30  31
ENDBRANCH  29  30
ENDBRANCH  28  29
ENDBRANCH  27  28
ENDBRANCH   1  27
TORSDOF 20
ENDMDL
