MODEL 1
REMARK VINA RESULT:     -10.7      0.000      0.000
REMARK SMILES CC[C@@](C)(NC(=O)c1sc2cc(F)ccc2c1Cl)C(=O)OCCOCCOCCOC(=O)c1ccc(-c2c3nc(c(-c4c(F)cccc4F)c4ccc([nH]4)c(-c4c(F)cccc4F)c4nc(c(-c5c(F)cccc5F)c5ccc2[nH]5)C=C4)C=C3)cc1
REMARK SMILES IDX 25 1 24 2 23 3 22 4 21 5 19 6 20 7 3 8 4 9 2 10 1 11 5 12
REMARK SMILES IDX 6 13 7 15 8 16 9 17 17 18 10 19 16 20 18 21 11 22 15 23
REMARK SMILES IDX 12 24 14 25 13 26 26 27 27 28 28 29 29 30 30 31 31 32 32 33
REMARK SMILES IDX 33 34 34 35 86 36 35 37 85 38 36 39 37 40 38 41 79 42 39 43
REMARK SMILES IDX 84 44 78 45 80 46 40 47 83 48 77 49 76 50 41 52 67 53 50 54
REMARK SMILES IDX 66 55 51 56 54 57 65 58 81 59 52 60 53 61 64 63 82 64 55 65
REMARK SMILES IDX 42 66 43 67 48 68 44 69 45 70 47 71 49 72 46 73 68 74 69 75
REMARK SMILES IDX 74 76 70 77 71 78 73 79 75 80 72 81 56 82 57 83 62 84 58 85
REMARK SMILES IDX 59 86 61 87 63 88 60 89
REMARK H PARENT 5 14 80 51 54 62
REMARK Flexibility Score: inf
ROOT
ATOM      1  C   UNL A   1      39.569  22.278  26.463  1.00  0.00     0.188 C 
ENDROOT
BRANCH   1   2
ATOM      2  O   UNL A   1      38.281  22.688  26.069  1.00  0.00    -0.376 OA
BRANCH   2   3
ATOM      3  C   UNL A   1      37.598  21.744  25.225  1.00  0.00     0.202 C 
BRANCH   3   4
ATOM      4  C   UNL A   1      36.531  22.209  24.196  1.00  0.00     0.261 C 
BRANCH   4   5
ATOM      5  O   UNL A   1      35.576  23.126  24.754  1.00  0.00    -0.462 OA
BRANCH   5   6
ATOM      6  C   UNL A   1      34.751  23.730  23.861  1.00  0.00     0.331 C 
ATOM      7  O   UNL A   1      34.899  23.620  22.648  1.00  0.00    -0.249 OA
BRANCH   6   8
ATOM      8  C   UNL A   1      33.457  24.300  24.536  1.00  0.00     0.135 C 
ATOM      9  C   UNL A   1      33.741  24.695  25.993  1.00  0.00     0.047 C 
BRANCH   8  10
ATOM     10  C   UNL A   1      33.144  25.612  23.734  1.00  0.00     0.037 C 
ATOM     11  C   UNL A   1      33.800  26.912  24.172  1.00  0.00     0.007 C 
ENDBRANCH   8  10
BRANCH   8  12
ATOM     12  N   UNL A   1      32.144  23.559  24.529  1.00  0.00    -0.336 N 
ATOM     13  C   UNL A   1      31.721  22.402  25.150  1.00  0.00     0.263 C 
ATOM     14  H   UNL A   1      31.452  23.986  23.974  1.00  0.00     0.165 HD
ATOM     15  O   UNL A   1      30.651  22.455  25.755  1.00  0.00    -0.268 OA
BRANCH  13  16
ATOM     16  C   UNL A   1      32.367  21.171  24.782  1.00  0.00     0.112 A 
ATOM     17  S   UNL A   1      33.257  20.357  25.997  1.00  0.00    -0.128 S 
ATOM     18  C   UNL A   1      32.450  20.488  23.592  1.00  0.00     0.072 A 
ATOM     19  C   UNL A   1      33.169  18.872  25.137  1.00  0.00     0.040 A 
ATOM     20  C   UNL A   1      32.793  19.097  23.807  1.00  0.00     0.012 A 
ATOM     21  Cl  UNL A   1      31.955  21.108  22.073  1.00  0.00    -0.082 Cl
ATOM     22  C   UNL A   1      33.415  17.582  25.644  1.00  0.00     0.059 A 
ATOM     23  C   UNL A   1      32.716  17.969  22.948  1.00  0.00     0.014 A 
ATOM     24  C   UNL A   1      33.254  16.501  24.786  1.00  0.00     0.124 A 
ATOM     25  C   UNL A   1      32.925  16.680  23.452  1.00  0.00     0.040 A 
ATOM     26  F   UNL A   1      33.379  15.257  25.268  1.00  0.00    -0.207 F 
ENDBRANCH  13  16
ENDBRANCH   8  12
ENDBRANCH   6   8
ENDBRANCH   5   6
ENDBRANCH   4   5
ENDBRANCH   3   4
ENDBRANCH   2   3
ENDBRANCH   1   2
BRANCH   1  27
ATOM     27  C   UNL A   1      39.999  20.857  26.176  1.00  0.00     0.188 C 
BRANCH  27  28
ATOM     28  O   UNL A   1      41.354  20.693  25.803  1.00  0.00    -0.376 OA
BRANCH  28  29
ATOM     29  C   UNL A   1      41.933  19.525  26.405  1.00  0.00     0.202 C 
BRANCH  29  30
ATOM     30  C   UNL A   1      43.224  19.114  25.668  1.00  0.00     0.261 C 
BRANCH  30  31
ATOM     31  O   UNL A   1      43.554  20.036  24.601  1.00  0.00    -0.460 OA
BRANCH  31  32
ATOM     32  C   UNL A   1      44.752  20.664  24.745  1.00  0.00     0.338 C 
ATOM     33  O   UNL A   1      45.803  20.298  24.269  1.00  0.00    -0.246 OA
BRANCH  32  34
ATOM     34  C   UNL A   1      44.520  22.048  25.266  1.00  0.00     0.060 A 
ATOM     35  C   UNL A   1      43.704  22.982  24.621  1.00  0.00     0.016 A 
ATOM     36  C   UNL A   1      45.298  22.450  26.364  1.00  0.00     0.016 A 
ATOM     37  C   UNL A   1      43.683  24.303  25.078  1.00  0.00     0.010 A 
ATOM     38  C   UNL A   1      45.262  23.768  26.831  1.00  0.00     0.010 A 
ATOM     39  C   UNL A   1      44.442  24.703  26.201  1.00  0.00    -0.014 A 
BRANCH  39  40
ATOM     40  C   UNL A   1      44.085  25.991  26.833  1.00  0.00     0.031 A 
ATOM     41  C   UNL A   1      45.157  27.000  26.679  1.00  0.00     0.074 A 
ATOM     42  C   UNL A   1      42.932  26.405  27.409  1.00  0.00     0.049 A 
ATOM     43  N   UNL A   1      45.867  27.548  27.608  1.00  0.00    -0.248 NA
ATOM     44  C   UNL A   1      45.539  27.370  25.306  1.00  0.00     0.031 C 
ATOM     45  C   UNL A   1      41.662  25.693  27.404  1.00  0.00     0.029 A 
ATOM     46  N   UNL A   1      42.647  27.560  28.121  1.00  0.00    -0.354 N 
ATOM     47  C   UNL A   1      46.619  28.511  26.953  1.00  0.00     0.074 A 
ATOM     48  C   UNL A   1      46.497  28.265  25.537  1.00  0.00     0.031 C 
ATOM     49  C   UNL A   1      40.732  26.422  28.049  1.00  0.00     0.029 A 
ATOM     50  C   UNL A   1      41.311  27.685  28.487  1.00  0.00     0.049 A 
ATOM     51  H   UNL A   1      43.330  28.233  28.347  1.00  0.00     0.167 HD
ATOM     52  C   UNL A   1      46.999  29.641  27.596  1.00  0.00     0.037 A 
ATOM     53  C   UNL A   1      40.646  28.707  29.092  1.00  0.00     0.037 A 
ATOM     54  C   UNL A   1      46.986  29.516  29.025  1.00  0.00     0.049 A 
ATOM     55  C   UNL A   1      41.594  29.548  29.863  1.00  0.00     0.074 A 
ATOM     56  C   UNL A   1      47.783  28.956  29.996  1.00  0.00     0.029 A 
ATOM     57  N   UNL A   1      45.799  29.844  29.611  1.00  0.00    -0.354 N 
ATOM     58  N   UNL A   1      42.127  29.192  30.999  1.00  0.00    -0.248 NA
ATOM     59  C   UNL A   1      42.147  30.766  29.277  1.00  0.00     0.031 C 
ATOM     60  C   UNL A   1      46.992  28.886  31.182  1.00  0.00     0.029 A 
ATOM     61  C   UNL A   1      45.729  29.396  30.903  1.00  0.00     0.049 A 
ATOM     62  H   UNL A   1      45.080  30.342  29.160  1.00  0.00     0.167 HD
ATOM     63  C   UNL A   1      43.324  29.876  31.047  1.00  0.00     0.074 A 
ATOM     64  C   UNL A   1      43.201  30.950  30.076  1.00  0.00     0.031 C 
ATOM     65  C   UNL A   1      44.444  29.293  31.562  1.00  0.00     0.037 A 
BRANCH  52  66
ATOM     66  C   UNL A   1      46.851  30.991  26.947  1.00  0.00     0.057 A 
ATOM     67  C   UNL A   1      45.594  31.551  26.633  1.00  0.00     0.134 A 
ATOM     68  C   UNL A   1      47.934  31.878  26.938  1.00  0.00     0.134 A 
ATOM     69  F   UNL A   1      44.457  30.850  26.752  1.00  0.00    -0.206 F 
ATOM     70  C   UNL A   1      45.429  32.893  26.294  1.00  0.00     0.040 A 
ATOM     71  C   UNL A   1      47.773  33.239  26.652  1.00  0.00     0.040 A 
ATOM     72  F   UNL A   1      49.161  31.461  27.285  1.00  0.00    -0.206 F 
ATOM     73  C   UNL A   1      46.520  33.748  26.326  1.00  0.00     0.006 A 
ENDBRANCH  52  66
BRANCH  53  74
ATOM     74  C   UNL A   1      39.174  28.948  29.114  1.00  0.00     0.057 A 
ATOM     75  C   UNL A   1      38.471  29.366  27.967  1.00  0.00     0.134 A 
ATOM     76  C   UNL A   1      38.416  28.907  30.295  1.00  0.00     0.134 A 
ATOM     77  F   UNL A   1      39.107  29.605  26.812  1.00  0.00    -0.206 F 
ATOM     78  C   UNL A   1      37.096  29.618  27.962  1.00  0.00     0.040 A 
ATOM     79  C   UNL A   1      37.041  29.197  30.314  1.00  0.00     0.040 A 
ATOM     80  F   UNL A   1      38.990  28.629  31.473  1.00  0.00    -0.206 F 
ATOM     81  C   UNL A   1      36.373  29.532  29.141  1.00  0.00     0.006 A 
ENDBRANCH  53  74
BRANCH  65  82
ATOM     82  C   UNL A   1      44.288  28.349  32.707  1.00  0.00     0.057 A 
ATOM     83  C   UNL A   1      44.490  28.843  34.004  1.00  0.00     0.134 A 
ATOM     84  C   UNL A   1      44.006  26.985  32.582  1.00  0.00     0.134 A 
ATOM     85  F   UNL A   1      44.792  30.138  34.195  1.00  0.00    -0.206 F 
ATOM     86  C   UNL A   1      44.411  28.022  35.129  1.00  0.00     0.040 A 
ATOM     87  C   UNL A   1      43.898  26.155  33.704  1.00  0.00     0.040 A 
ATOM     88  F   UNL A   1      43.862  26.418  31.376  1.00  0.00    -0.206 F 
ATOM     89  C   UNL A   1      44.103  26.673  34.981  1.00  0.00     0.006 A 
ENDBRANCH  65  82
ENDBRANCH  39  40
ENDBRANCH  32  34
ENDBRANCH  31  32
ENDBRANCH  30  31
ENDBRANCH  29  30
ENDBRANCH  28  29
ENDBRANCH  27  28
ENDBRANCH   1  27
TORSDOF 20
ENDMDL
MODEL 2
REMARK VINA RESULT:     -10.7      2.306      3.950
REMARK SMILES CC[C@@](C)(NC(=O)c1sc2cc(F)ccc2c1Cl)C(=O)OCCOCCOCCOC(=O)c1ccc(-c2c3nc(c(-c4c(F)cccc4F)c4ccc([nH]4)c(-c4c(F)cccc4F)c4nc(c(-c5c(F)cccc5F)c5ccc2[nH]5)C=C4)C=C3)cc1
REMARK SMILES IDX 25 1 24 2 23 3 22 4 21 5 19 6 20 7 3 8 4 9 2 10 1 11 5 12
REMARK SMILES IDX 6 13 7 15 8 16 9 17 17 18 10 19 16 20 18 21 11 22 15 23
REMARK SMILES IDX 12 24 14 25 13 26 26 27 27 28 28 29 29 30 30 31 31 32 32 33
REMARK SMILES IDX 33 34 34 35 86 36 35 37 85 38 36 39 37 40 38 41 79 42 39 43
REMARK SMILES IDX 84 44 78 45 80 46 40 47 83 48 77 49 76 50 41 52 67 53 50 54
REMARK SMILES IDX 66 55 51 56 54 57 65 58 81 59 52 60 53 61 64 63 82 64 55 65
REMARK SMILES IDX 42 66 43 67 48 68 44 69 45 70 47 71 49 72 46 73 68 74 69 75
REMARK SMILES IDX 74 76 70 77 71 78 73 79 75 80 72 81 56 82 57 83 62 84 58 85
REMARK SMILES IDX 59 86 61 87 63 88 60 89
REMARK H PARENT 5 14 80 51 54 62
REMARK Flexibility Score: inf
ROOT
ATOM      1  C   UNL A   1      39.876  22.050  26.365  1.00  0.00     0.188 C 
ENDROOT
BRANCH   1   2
ATOM      2  O   UNL A   1      38.481  22.183  26.233  1.00  0.00    -0.376 OA
BRANCH   2   3
ATOM      3  C   UNL A   1      37.949  21.612  25.025  1.00  0.00     0.202 C 
BRANCH   3   4
ATOM      4  C   UNL A   1      36.643  20.771  25.039  1.00  0.00     0.261 C 
BRANCH   4   5
ATOM      5  O   UNL A   1      35.478  21.539  24.695  1.00  0.00    -0.462 OA
BRANCH   5   6
ATOM      6  C   UNL A   1      34.667  21.872  25.731  1.00  0.00     0.331 C 
ATOM      7  O   UNL A   1      34.888  21.514  26.883  1.00  0.00    -0.249 OA
BRANCH   6   8
ATOM      8  C   UNL A   1      33.632  22.983  25.344  1.00  0.00     0.135 C 
ATOM      9  C   UNL A   1      34.275  24.010  24.398  1.00  0.00     0.047 C 
BRANCH   8  10
ATOM     10  C   UNL A   1      32.520  22.220  24.544  1.00  0.00     0.037 C 
ATOM     11  C   UNL A   1      32.130  20.819  24.987  1.00  0.00     0.007 C 
ENDBRANCH   8  10
BRANCH   8  12
ATOM     12  N   UNL A   1      32.855  23.763  26.375  1.00  0.00    -0.336 N 
ATOM     13  C   UNL A   1      31.629  24.394  26.340  1.00  0.00     0.263 C 
ATOM     14  H   UNL A   1      33.311  23.833  27.244  1.00  0.00     0.165 HD
ATOM     15  O   UNL A   1      30.850  24.148  27.260  1.00  0.00    -0.268 OA
BRANCH  13  16
ATOM     16  C   UNL A   1      31.477  25.511  25.446  1.00  0.00     0.112 A 
ATOM     17  S   UNL A   1      30.444  25.302  24.096  1.00  0.00    -0.128 S 
ATOM     18  C   UNL A   1      32.036  26.766  25.427  1.00  0.00     0.072 A 
ATOM     19  C   UNL A   1      30.257  26.999  23.914  1.00  0.00     0.040 A 
ATOM     20  C   UNL A   1      31.246  27.682  24.632  1.00  0.00     0.012 A 
ATOM     21  Cl  UNL A   1      33.340  27.269  26.420  1.00  0.00    -0.082 Cl
ATOM     22  C   UNL A   1      29.264  27.669  23.172  1.00  0.00     0.059 A 
ATOM     23  C   UNL A   1      31.255  29.100  24.549  1.00  0.00     0.014 A 
ATOM     24  C   UNL A   1      29.268  29.059  23.181  1.00  0.00     0.124 A 
ATOM     25  C   UNL A   1      30.253  29.774  23.843  1.00  0.00     0.040 A 
ATOM     26  F   UNL A   1      28.276  29.720  22.572  1.00  0.00    -0.207 F 
ENDBRANCH  13  16
ENDBRANCH   8  12
ENDBRANCH   6   8
ENDBRANCH   5   6
ENDBRANCH   4   5
ENDBRANCH   3   4
ENDBRANCH   2   3
ENDBRANCH   1   2
BRANCH   1  27
ATOM     27  C   UNL A   1      40.460  20.668  26.555  1.00  0.00     0.188 C 
BRANCH  27  28
ATOM     28  O   UNL A   1      41.571  20.356  25.738  1.00  0.00    -0.376 OA
BRANCH  28  29
ATOM     29  C   UNL A   1      42.262  19.186  26.204  1.00  0.00     0.202 C 
BRANCH  29  30
ATOM     30  C   UNL A   1      43.511  18.910  25.342  1.00  0.00     0.261 C 
BRANCH  30  31
ATOM     31  O   UNL A   1      43.803  20.010  24.445  1.00  0.00    -0.460 OA
BRANCH  31  32
ATOM     32  C   UNL A   1      44.991  20.630  24.677  1.00  0.00     0.338 C 
ATOM     33  O   UNL A   1      46.069  20.267  24.263  1.00  0.00    -0.246 OA
BRANCH  32  34
ATOM     34  C   UNL A   1      44.731  22.006  25.204  1.00  0.00     0.060 A 
ATOM     35  C   UNL A   1      43.760  22.860  24.672  1.00  0.00     0.016 A 
ATOM     36  C   UNL A   1      45.627  22.496  26.168  1.00  0.00     0.016 A 
ATOM     37  C   UNL A   1      43.703  24.188  25.105  1.00  0.00     0.010 A 
ATOM     38  C   UNL A   1      45.558  23.820  26.614  1.00  0.00     0.010 A 
ATOM     39  C   UNL A   1      44.585  24.673  26.098  1.00  0.00    -0.014 A 
BRANCH  39  40
ATOM     40  C   UNL A   1      44.225  25.947  26.754  1.00  0.00     0.031 A 
ATOM     41  C   UNL A   1      45.296  26.961  26.622  1.00  0.00     0.074 A 
ATOM     42  C   UNL A   1      43.071  26.349  27.337  1.00  0.00     0.049 A 
ATOM     43  N   UNL A   1      46.004  27.491  27.564  1.00  0.00    -0.248 NA
ATOM     44  C   UNL A   1      45.679  27.359  25.258  1.00  0.00     0.031 C 
ATOM     45  C   UNL A   1      41.802  25.636  27.315  1.00  0.00     0.029 A 
ATOM     46  N   UNL A   1      42.784  27.489  28.071  1.00  0.00    -0.354 N 
ATOM     47  C   UNL A   1      46.756  28.468  26.929  1.00  0.00     0.074 A 
ATOM     48  C   UNL A   1      46.637  28.251  25.509  1.00  0.00     0.031 C 
ATOM     49  C   UNL A   1      40.870  26.350  27.973  1.00  0.00     0.029 A 
ATOM     50  C   UNL A   1      41.446  27.605  28.438  1.00  0.00     0.049 A 
ATOM     51  H   UNL A   1      43.465  28.158  28.312  1.00  0.00     0.167 HD
ATOM     52  C   UNL A   1      47.133  29.585  27.596  1.00  0.00     0.037 A 
ATOM     53  C   UNL A   1      40.779  28.613  29.062  1.00  0.00     0.037 A 
ATOM     54  C   UNL A   1      47.118  29.432  29.021  1.00  0.00     0.049 A 
ATOM     55  C   UNL A   1      41.724  29.440  29.851  1.00  0.00     0.074 A 
ATOM     56  C   UNL A   1      47.914  28.853  29.983  1.00  0.00     0.029 A 
ATOM     57  N   UNL A   1      45.930  29.746  29.612  1.00  0.00    -0.354 N 
ATOM     58  N   UNL A   1      42.257  29.062  30.981  1.00  0.00    -0.248 NA
ATOM     59  C   UNL A   1      42.278  30.671  29.291  1.00  0.00     0.031 C 
ATOM     60  C   UNL A   1      47.122  28.758  31.166  1.00  0.00     0.029 A 
ATOM     61  C   UNL A   1      45.858  29.272  30.895  1.00  0.00     0.049 A 
ATOM     62  H   UNL A   1      45.211  30.252  29.170  1.00  0.00     0.167 HD
ATOM     63  C   UNL A   1      43.452  29.746  31.044  1.00  0.00     0.074 A 
ATOM     64  C   UNL A   1      43.330  30.840  30.095  1.00  0.00     0.031 C 
ATOM     65  C   UNL A   1      44.572  29.155  31.549  1.00  0.00     0.037 A 
BRANCH  52  66
ATOM     66  C   UNL A   1      46.985  30.948  26.974  1.00  0.00     0.057 A 
ATOM     67  C   UNL A   1      45.728  31.508  26.660  1.00  0.00     0.134 A 
ATOM     68  C   UNL A   1      48.064  31.840  26.994  1.00  0.00     0.134 A 
ATOM     69  F   UNL A   1      44.593  30.800  26.753  1.00  0.00    -0.206 F 
ATOM     70  C   UNL A   1      45.560  32.856  26.348  1.00  0.00     0.040 A 
ATOM     71  C   UNL A   1      47.898  33.205  26.735  1.00  0.00     0.040 A 
ATOM     72  F   UNL A   1      49.289  31.422  27.343  1.00  0.00    -0.206 F 
ATOM     73  C   UNL A   1      46.646  33.716  26.407  1.00  0.00     0.006 A 
ENDBRANCH  52  66
BRANCH  53  74
ATOM     74  C   UNL A   1      39.307  28.852  29.086  1.00  0.00     0.057 A 
ATOM     75  C   UNL A   1      38.608  29.310  27.952  1.00  0.00     0.134 A 
ATOM     76  C   UNL A   1      38.543  28.770  30.262  1.00  0.00     0.134 A 
ATOM     77  F   UNL A   1      39.249  29.590  26.808  1.00  0.00    -0.206 F 
ATOM     78  C   UNL A   1      37.233  29.561  27.950  1.00  0.00     0.040 A 
ATOM     79  C   UNL A   1      37.168  29.057  30.285  1.00  0.00     0.040 A 
ATOM     80  F   UNL A   1      39.114  28.451  31.432  1.00  0.00    -0.206 F 
ATOM     81  C   UNL A   1      36.505  29.433  29.122  1.00  0.00     0.006 A 
ENDBRANCH  53  74
BRANCH  65  82
ATOM     82  C   UNL A   1      44.415  28.188  32.675  1.00  0.00     0.057 A 
ATOM     83  C   UNL A   1      44.246  26.831  32.364  1.00  0.00     0.134 A 
ATOM     84  C   UNL A   1      44.371  28.541  34.028  1.00  0.00     0.134 A 
ATOM     85  F   UNL A   1      44.249  26.426  31.083  1.00  0.00    -0.206 F 
ATOM     86  C   UNL A   1      44.046  25.865  33.349  1.00  0.00     0.040 A 
ATOM     87  C   UNL A   1      44.198  27.578  35.029  1.00  0.00     0.040 A 
ATOM     88  F   UNL A   1      44.461  29.822  34.410  1.00  0.00    -0.206 F 
ATOM     89  C   UNL A   1      44.032  26.237  34.690  1.00  0.00     0.006 A 
ENDBRANCH  65  82
ENDBRANCH  39  40
ENDBRANCH  32  34
ENDBRANCH  31  32
ENDBRANCH  30  31
ENDBRANCH  29  30
ENDBRANCH  28  29
ENDBRANCH  27  28
ENDBRANCH   1  27
TORSDOF 20
ENDMDL
MODEL 3
REMARK VINA RESULT:     -10.5      2.293      3.857
REMARK SMILES CC[C@@](C)(NC(=O)c1sc2cc(F)ccc2c1Cl)C(=O)OCCOCCOCCOC(=O)c1ccc(-c2c3nc(c(-c4c(F)cccc4F)c4ccc([nH]4)c(-c4c(F)cccc4F)c4nc(c(-c5c(F)cccc5F)c5ccc2[nH]5)C=C4)C=C3)cc1
REMARK SMILES IDX 25 1 24 2 23 3 22 4 21 5 19 6 20 7 3 8 4 9 2 10 1 11 5 12
REMARK SMILES IDX 6 13 7 15 8 16 9 17 17 18 10 19 16 20 18 21 11 22 15 23
REMARK SMILES IDX 12 24 14 25 13 26 26 27 27 28 28 29 29 30 30 31 31 32 32 33
REMARK SMILES IDX 33 34 34 35 86 36 35 37 85 38 36 39 37 40 38 41 79 42 39 43
REMARK SMILES IDX 84 44 78 45 80 46 40 47 83 48 77 49 76 50 41 52 67 53 50 54
REMARK SMILES IDX 66 55 51 56 54 57 65 58 81 59 52 60 53 61 64 63 82 64 55 65
REMARK SMILES IDX 42 66 43 67 48 68 44 69 45 70 47 71 49 72 46 73 68 74 69 75
REMARK SMILES IDX 74 76 70 77 71 78 73 79 75 80 72 81 56 82 57 83 62 84 58 85
REMARK SMILES IDX 59 86 61 87 63 88 60 89
REMARK H PARENT 5 14 80 51 54 62
REMARK Flexibility Score: inf
ROOT
ATOM      1  C   UNL A   1      39.730  22.798  26.339  1.00  0.00     0.188 C 
ENDROOT
BRANCH   1   2
ATOM      2  O   UNL A   1      38.614  23.526  26.794  1.00  0.00    -0.376 OA
BRANCH   2   3
ATOM      3  C   UNL A   1      37.585  23.700  25.804  1.00  0.00     0.202 C 
BRANCH   3   4
ATOM      4  C   UNL A   1      36.103  23.926  26.214  1.00  0.00     0.261 C 
BRANCH   4   5
ATOM      5  O   UNL A   1      35.303  24.462  25.148  1.00  0.00    -0.462 OA
BRANCH   5   6
ATOM      6  C   UNL A   1      34.149  23.795  24.888  1.00  0.00     0.331 C 
ATOM      7  O   UNL A   1      33.195  23.801  25.660  1.00  0.00    -0.249 OA
BRANCH   6   8
ATOM      8  C   UNL A   1      34.070  23.295  23.405  1.00  0.00     0.135 C 
ATOM      9  C   UNL A   1      35.481  23.140  22.815  1.00  0.00     0.047 C 
BRANCH   8  10
ATOM     10  C   UNL A   1      33.431  21.867  23.507  1.00  0.00     0.037 C 
ATOM     11  C   UNL A   1      32.101  21.609  22.815  1.00  0.00     0.007 C 
ENDBRANCH   8  10
BRANCH   8  12
ATOM     12  N   UNL A   1      33.231  23.986  22.360  1.00  0.00    -0.336 N 
ATOM     13  C   UNL A   1      33.160  25.296  21.935  1.00  0.00     0.263 C 
ATOM     14  H   UNL A   1      32.614  23.383  21.887  1.00  0.00     0.165 HD
ATOM     15  O   UNL A   1      33.209  25.490  20.721  1.00  0.00    -0.268 OA
BRANCH  13  16
ATOM     16  C   UNL A   1      32.714  26.283  22.881  1.00  0.00     0.112 A 
ATOM     17  S   UNL A   1      31.305  25.924  23.786  1.00  0.00    -0.128 S 
ATOM     18  C   UNL A   1      33.186  27.531  23.211  1.00  0.00     0.072 A 
ATOM     19  C   UNL A   1      31.726  27.073  24.991  1.00  0.00     0.040 A 
ATOM     20  C   UNL A   1      32.713  27.945  24.515  1.00  0.00     0.012 A 
ATOM     21  Cl  UNL A   1      34.388  28.382  22.335  1.00  0.00    -0.082 Cl
ATOM     22  C   UNL A   1      31.199  27.168  26.294  1.00  0.00     0.059 A 
ATOM     23  C   UNL A   1      33.141  28.986  25.381  1.00  0.00     0.014 A 
ATOM     24  C   UNL A   1      31.703  28.155  27.132  1.00  0.00     0.124 A 
ATOM     25  C   UNL A   1      32.648  29.066  26.689  1.00  0.00     0.040 A 
ATOM     26  F   UNL A   1      31.297  28.202  28.408  1.00  0.00    -0.207 F 
ENDBRANCH  13  16
ENDBRANCH   8  12
ENDBRANCH   6   8
ENDBRANCH   5   6
ENDBRANCH   4   5
ENDBRANCH   3   4
ENDBRANCH   2   3
ENDBRANCH   1   2
BRANCH   1  27
ATOM     27  C   UNL A   1      39.733  21.295  26.502  1.00  0.00     0.188 C 
BRANCH  27  28
ATOM     28  O   UNL A   1      40.962  20.727  26.914  1.00  0.00    -0.376 OA
BRANCH  28  29
ATOM     29  C   UNL A   1      41.304  19.575  26.129  1.00  0.00     0.202 C 
BRANCH  29  30
ATOM     30  C   UNL A   1      42.836  19.406  26.045  1.00  0.00     0.261 C 
BRANCH  30  31
ATOM     31  O   UNL A   1      43.354  19.810  24.754  1.00  0.00    -0.460 OA
BRANCH  31  32
ATOM     32  C   UNL A   1      44.560  20.438  24.799  1.00  0.00     0.338 C 
ATOM     33  O   UNL A   1      45.572  20.061  24.252  1.00  0.00    -0.246 OA
BRANCH  32  34
ATOM     34  C   UNL A   1      44.368  21.830  25.311  1.00  0.00     0.060 A 
ATOM     35  C   UNL A   1      43.431  22.721  24.780  1.00  0.00     0.016 A 
ATOM     36  C   UNL A   1      45.297  22.290  26.260  1.00  0.00     0.016 A 
ATOM     37  C   UNL A   1      43.439  24.055  25.197  1.00  0.00     0.010 A 
ATOM     38  C   UNL A   1      45.293  23.621  26.690  1.00  0.00     0.010 A 
ATOM     39  C   UNL A   1      44.354  24.511  26.173  1.00  0.00    -0.014 A 
BRANCH  39  40
ATOM     40  C   UNL A   1      44.059  25.809  26.818  1.00  0.00     0.031 A 
ATOM     41  C   UNL A   1      45.192  26.755  26.701  1.00  0.00     0.074 A 
ATOM     42  C   UNL A   1      42.922  26.282  27.378  1.00  0.00     0.049 A 
ATOM     43  N   UNL A   1      45.913  27.247  27.653  1.00  0.00    -0.248 NA
ATOM     44  C   UNL A   1      45.622  27.122  25.342  1.00  0.00     0.031 C 
ATOM     45  C   UNL A   1      41.612  25.646  27.337  1.00  0.00     0.029 A 
ATOM     46  N   UNL A   1      42.690  27.441  28.102  1.00  0.00    -0.354 N 
ATOM     47  C   UNL A   1      46.734  28.174  27.027  1.00  0.00     0.074 A 
ATOM     48  C   UNL A   1      46.627  27.957  25.606  1.00  0.00     0.031 C 
ATOM     49  C   UNL A   1      40.714  26.419  27.975  1.00  0.00     0.029 A 
ATOM     50  C   UNL A   1      41.356  27.639  28.445  1.00  0.00     0.049 A 
ATOM     51  H   UNL A   1      43.406  28.069  28.352  1.00  0.00     0.167 HD
ATOM     52  C   UNL A   1      47.166  29.270  27.695  1.00  0.00     0.037 A 
ATOM     53  C   UNL A   1      40.741  28.689  29.053  1.00  0.00     0.037 A 
ATOM     54  C   UNL A   1      47.117  29.125  29.121  1.00  0.00     0.049 A 
ATOM     55  C   UNL A   1      41.719  29.462  29.855  1.00  0.00     0.074 A 
ATOM     56  C   UNL A   1      47.859  28.505  30.099  1.00  0.00     0.029 A 
ATOM     57  N   UNL A   1      45.939  29.513  29.689  1.00  0.00    -0.354 N 
ATOM     58  N   UNL A   1      42.208  29.058  30.995  1.00  0.00    -0.248 NA
ATOM     59  C   UNL A   1      42.355  30.654  29.299  1.00  0.00     0.031 C 
ATOM     60  C   UNL A   1      47.042  28.465  31.268  1.00  0.00     0.029 A 
ATOM     61  C   UNL A   1      45.817  29.052  30.972  1.00  0.00     0.049 A 
ATOM     62  H   UNL A   1      45.260  30.059  29.232  1.00  0.00     0.167 HD
ATOM     63  C   UNL A   1      43.442  29.670  31.077  1.00  0.00     0.074 A 
ATOM     64  C   UNL A   1      43.402  30.764  30.121  1.00  0.00     0.031 C 
ATOM     65  C   UNL A   1      44.514  29.016  31.604  1.00  0.00     0.037 A 
BRANCH  52  66
ATOM     66  C   UNL A   1      47.110  30.635  27.065  1.00  0.00     0.057 A 
ATOM     67  C   UNL A   1      45.895  31.267  26.723  1.00  0.00     0.134 A 
ATOM     68  C   UNL A   1      48.239  31.463  27.103  1.00  0.00     0.134 A 
ATOM     69  F   UNL A   1      44.719  30.627  26.796  1.00  0.00    -0.206 F 
ATOM     70  C   UNL A   1      45.813  32.621  26.402  1.00  0.00     0.040 A 
ATOM     71  C   UNL A   1      48.160  32.834  26.835  1.00  0.00     0.040 A 
ATOM     72  F   UNL A   1      49.431  30.975  27.479  1.00  0.00    -0.206 F 
ATOM     73  C   UNL A   1      46.947  33.416  26.480  1.00  0.00     0.006 A 
ENDBRANCH  52  66
BRANCH  53  74
ATOM     74  C   UNL A   1      39.284  29.016  29.049  1.00  0.00     0.057 A 
ATOM     75  C   UNL A   1      38.465  28.778  30.171  1.00  0.00     0.134 A 
ATOM     76  C   UNL A   1      38.607  29.452  27.900  1.00  0.00     0.134 A 
ATOM     77  F   UNL A   1      38.956  28.206  31.279  1.00  0.00    -0.206 F 
ATOM     78  C   UNL A   1      37.096  29.056  30.190  1.00  0.00     0.040 A 
ATOM     79  C   UNL A   1      37.224  29.698  27.892  1.00  0.00     0.040 A 
ATOM     80  F   UNL A   1      39.255  29.612  26.738  1.00  0.00    -0.206 F 
ATOM     81  C   UNL A   1      36.468  29.520  29.046  1.00  0.00     0.006 A 
ENDBRANCH  53  74
BRANCH  65  82
ATOM     82  C   UNL A   1      44.281  28.065  32.732  1.00  0.00     0.057 A 
ATOM     83  C   UNL A   1      44.326  28.567  34.040  1.00  0.00     0.134 A 
ATOM     84  C   UNL A   1      44.071  26.690  32.584  1.00  0.00     0.134 A 
ATOM     85  F   UNL A   1      44.553  29.874  34.256  1.00  0.00    -0.206 F 
ATOM     86  C   UNL A   1      44.166  27.744  35.155  1.00  0.00     0.040 A 
ATOM     87  C   UNL A   1      43.881  25.857  33.692  1.00  0.00     0.040 A 
ATOM     88  F   UNL A   1      44.076  26.118  31.372  1.00  0.00    -0.206 F 
ATOM     89  C   UNL A   1      43.931  26.383  34.981  1.00  0.00     0.006 A 
ENDBRANCH  65  82
ENDBRANCH  39  40
ENDBRANCH  32  34
ENDBRANCH  31  32
ENDBRANCH  30  31
ENDBRANCH  29  30
ENDBRANCH  28  29
ENDBRANCH  27  28
ENDBRANCH   1  27
TORSDOF 20
ENDMDL
