MODEL 1
REMARK VINA RESULT:      -9.5      0.000      0.000
REMARK SMILES C=CCN(CC(=O)OCCOCCOCCOC(=O)c1ccc(-c2c3nc(c(-c4c(F)cccc4F)c4ccc([nH]4)c(-c4c(F)cccc4F)c4nc(c(-c5c(F)cccc5F)c5ccc2[nH]5)C=C4)C=C3)cc1)C(=O)[C@@H]1Oc2ccccc2O[C@H]1C
REMARK SMILES IDX 12 1 11 2 10 3 9 4 8 5 6 6 7 7 5 8 4 9 3 10 2 11 1 12 74 13
REMARK SMILES IDX 75 14 76 15 77 16 85 17 78 18 84 19 86 20 79 21 83 22 80 23
REMARK SMILES IDX 82 24 81 25 13 26 14 27 15 28 16 29 17 30 18 31 19 32 20 33
REMARK SMILES IDX 21 34 73 35 22 36 72 37 23 38 24 39 25 40 66 41 26 42 71 43
REMARK SMILES IDX 65 44 67 45 27 46 70 47 64 48 63 49 28 51 54 52 37 53 53 54
REMARK SMILES IDX 38 55 41 56 52 57 68 58 39 59 40 60 51 62 69 63 42 64 29 65
REMARK SMILES IDX 30 66 35 67 31 68 32 69 34 70 36 71 33 72 55 73 56 74 61 75
REMARK SMILES IDX 57 76 58 77 60 78 62 79 59 80 43 81 44 82 49 83 45 84 46 85
REMARK SMILES IDX 48 86 50 87 47 88
REMARK H PARENT 67 50 41 61
REMARK Flexibility Score: inf
ROOT
ATOM      1  C   UNL A   1      40.154  21.463  26.823  1.00  0.00     0.188 C 
ENDROOT
BRANCH   1   2
ATOM      2  O   UNL A   1      39.928  22.846  26.564  1.00  0.00    -0.376 OA
BRANCH   2   3
ATOM      3  C   UNL A   1      38.576  23.231  26.314  1.00  0.00     0.202 C 
BRANCH   3   4
ATOM      4  C   UNL A   1      37.738  22.268  25.452  1.00  0.00     0.261 C 
BRANCH   4   5
ATOM      5  O   UNL A   1      36.428  21.899  25.961  1.00  0.00    -0.462 OA
BRANCH   5   6
ATOM      6  C   UNL A   1      35.484  22.849  25.645  1.00  0.00     0.325 C 
ATOM      7  O   UNL A   1      35.536  23.525  24.618  1.00  0.00    -0.250 OA
BRANCH   6   8
ATOM      8  C   UNL A   1      34.233  22.890  26.543  1.00  0.00     0.242 C 
BRANCH   8   9
ATOM      9  N   UNL A   1      32.896  23.074  25.973  1.00  0.00    -0.325 N 
BRANCH   9  10
ATOM     10  C   UNL A   1      32.140  21.878  25.611  1.00  0.00     0.147 C 
BRANCH  10  11
ATOM     11  C   UNL A   1      32.539  21.448  24.223  1.00  0.00    -0.014 C 
ATOM     12  C   UNL A   1      32.204  22.082  23.092  1.00  0.00     0.006 C 
ENDBRANCH  10  11
ENDBRANCH   9  10
BRANCH   9  13
ATOM     13  C   UNL A   1      32.241  24.287  26.207  1.00  0.00     0.268 C 
ATOM     14  O   UNL A   1      31.575  24.474  27.229  1.00  0.00    -0.270 OA
BRANCH  13  15
ATOM     15  C   UNL A   1      32.655  25.473  25.321  1.00  0.00     0.302 C 
ATOM     16  O   UNL A   1      33.633  26.347  25.887  1.00  0.00    -0.473 OA
ATOM     17  C   UNL A   1      31.302  26.119  24.982  1.00  0.00     0.221 C 
ATOM     18  C   UNL A   1      33.247  27.658  25.970  1.00  0.00     0.162 A 
ATOM     19  O   UNL A   1      31.505  27.384  24.356  1.00  0.00    -0.482 OA
ATOM     20  C   UNL A   1      30.421  25.212  24.121  1.00  0.00     0.057 C 
ATOM     21  C   UNL A   1      33.924  28.467  26.877  1.00  0.00     0.050 A 
ATOM     22  C   UNL A   1      32.148  28.164  25.284  1.00  0.00     0.161 A 
ATOM     23  C   UNL A   1      33.400  29.713  27.218  1.00  0.00     0.004 A 
ATOM     24  C   UNL A   1      31.638  29.422  25.589  1.00  0.00     0.050 A 
ATOM     25  C   UNL A   1      32.239  30.176  26.597  1.00  0.00     0.004 A 
ENDBRANCH  13  15
ENDBRANCH   9  13
ENDBRANCH   8   9
ENDBRANCH   6   8
ENDBRANCH   5   6
ENDBRANCH   4   5
ENDBRANCH   3   4
ENDBRANCH   2   3
ENDBRANCH   1   2
BRANCH   1  26
ATOM     26  C   UNL A   1      41.449  20.889  26.223  1.00  0.00     0.188 C 
BRANCH  26  27
ATOM     27  O   UNL A   1      42.189  21.771  25.375  1.00  0.00    -0.376 OA
BRANCH  27  28
ATOM     28  C   UNL A   1      43.457  22.182  25.902  1.00  0.00     0.202 C 
BRANCH  28  29
ATOM     29  C   UNL A   1      44.026  23.493  25.323  1.00  0.00     0.261 C 
BRANCH  29  30
ATOM     30  O   UNL A   1      43.705  24.542  26.259  1.00  0.00    -0.460 OA
BRANCH  30  31
ATOM     31  C   UNL A   1      42.804  25.476  25.876  1.00  0.00     0.338 C 
ATOM     32  O   UNL A   1      42.278  25.603  24.785  1.00  0.00    -0.246 OA
BRANCH  31  33
ATOM     33  C   UNL A   1      42.452  26.252  27.089  1.00  0.00     0.060 A 
ATOM     34  C   UNL A   1      43.054  27.496  27.306  1.00  0.00     0.016 A 
ATOM     35  C   UNL A   1      41.451  25.799  27.957  1.00  0.00     0.016 A 
ATOM     36  C   UNL A   1      42.578  28.334  28.321  1.00  0.00     0.010 A 
ATOM     37  C   UNL A   1      41.022  26.608  29.010  1.00  0.00     0.010 A 
ATOM     38  C   UNL A   1      41.569  27.888  29.188  1.00  0.00    -0.014 A 
BRANCH  38  39
ATOM     39  C   UNL A   1      41.229  28.659  30.409  1.00  0.00     0.031 A 
ATOM     40  C   UNL A   1      40.100  29.644  30.316  1.00  0.00     0.074 A 
ATOM     41  C   UNL A   1      41.926  28.530  31.554  1.00  0.00     0.049 A 
ATOM     42  N   UNL A   1      39.664  30.499  31.203  1.00  0.00    -0.248 NA
ATOM     43  C   UNL A   1      39.363  29.664  29.042  1.00  0.00     0.031 C 
ATOM     44  C   UNL A   1      43.011  27.581  31.789  1.00  0.00     0.029 A 
ATOM     45  N   UNL A   1      41.825  29.222  32.738  1.00  0.00    -0.354 N 
ATOM     46  C   UNL A   1      38.599  31.151  30.598  1.00  0.00     0.074 A 
ATOM     47  C   UNL A   1      38.458  30.602  29.268  1.00  0.00     0.031 C 
ATOM     48  C   UNL A   1      43.491  27.766  33.034  1.00  0.00     0.029 A 
ATOM     49  C   UNL A   1      42.767  28.863  33.671  1.00  0.00     0.049 A 
ATOM     50  H   UNL A   1      41.140  29.912  32.901  1.00  0.00     0.167 HD
ATOM     51  C   UNL A   1      37.816  32.135  31.094  1.00  0.00     0.037 A 
ATOM     52  C   UNL A   1      43.026  29.385  34.889  1.00  0.00     0.037 A 
ATOM     53  C   UNL A   1      37.993  32.731  32.387  1.00  0.00     0.049 A 
ATOM     54  C   UNL A   1      42.195  30.542  35.388  1.00  0.00     0.074 A 
ATOM     55  C   UNL A   1      37.282  33.765  32.967  1.00  0.00     0.029 A 
ATOM     56  N   UNL A   1      38.971  32.354  33.294  1.00  0.00    -0.354 N 
ATOM     57  N   UNL A   1      41.181  31.143  34.814  1.00  0.00    -0.248 NA
ATOM     58  C   UNL A   1      42.553  31.102  36.702  1.00  0.00     0.031 C 
ATOM     59  C   UNL A   1      37.858  34.042  34.212  1.00  0.00     0.029 A 
ATOM     60  C   UNL A   1      38.899  33.149  34.423  1.00  0.00     0.049 A 
ATOM     61  H   UNL A   1      39.621  31.627  33.156  1.00  0.00     0.167 HD
ATOM     62  C   UNL A   1      40.768  32.133  35.699  1.00  0.00     0.074 A 
ATOM     63  C   UNL A   1      41.634  32.045  36.857  1.00  0.00     0.031 C 
ATOM     64  C   UNL A   1      39.766  33.035  35.566  1.00  0.00     0.037 A 
BRANCH  51  65
ATOM     65  C   UNL A   1      36.746  32.655  30.187  1.00  0.00     0.057 A 
ATOM     66  C   UNL A   1      37.003  33.663  29.248  1.00  0.00     0.134 A 
ATOM     67  C   UNL A   1      35.432  32.185  30.295  1.00  0.00     0.134 A 
ATOM     68  F   UNL A   1      38.235  34.176  29.121  1.00  0.00    -0.206 F 
ATOM     69  C   UNL A   1      35.981  34.205  28.467  1.00  0.00     0.040 A 
ATOM     70  C   UNL A   1      34.407  32.705  29.505  1.00  0.00     0.040 A 
ATOM     71  F   UNL A   1      35.121  31.229  31.184  1.00  0.00    -0.206 F 
ATOM     72  C   UNL A   1      34.678  33.725  28.595  1.00  0.00     0.006 A 
ENDBRANCH  51  65
BRANCH  52  73
ATOM     73  C   UNL A   1      44.138  28.851  35.721  1.00  0.00     0.057 A 
ATOM     74  C   UNL A   1      45.448  29.324  35.574  1.00  0.00     0.134 A 
ATOM     75  C   UNL A   1      43.929  27.817  36.642  1.00  0.00     0.134 A 
ATOM     76  F   UNL A   1      45.721  30.290  34.684  1.00  0.00    -0.206 F 
ATOM     77  C   UNL A   1      46.511  28.779  36.299  1.00  0.00     0.040 A 
ATOM     78  C   UNL A   1      44.980  27.278  37.390  1.00  0.00     0.040 A 
ATOM     79  F   UNL A   1      42.702  27.310  36.825  1.00  0.00    -0.206 F 
ATOM     80  C   UNL A   1      46.277  27.754  37.213  1.00  0.00     0.006 A 
ENDBRANCH  52  73
BRANCH  64  81
ATOM     81  C   UNL A   1      39.528  33.979  36.708  1.00  0.00     0.057 A 
ATOM     82  C   UNL A   1      38.781  33.605  37.831  1.00  0.00     0.134 A 
ATOM     83  C   UNL A   1      40.119  35.249  36.713  1.00  0.00     0.134 A 
ATOM     84  F   UNL A   1      38.183  32.405  37.882  1.00  0.00    -0.206 F 
ATOM     85  C   UNL A   1      38.620  34.467  38.917  1.00  0.00     0.040 A 
ATOM     86  C   UNL A   1      39.983  36.111  37.802  1.00  0.00     0.040 A 
ATOM     87  F   UNL A   1      40.856  35.662  35.671  1.00  0.00    -0.206 F 
ATOM     88  C   UNL A   1      39.230  35.721  38.908  1.00  0.00     0.006 A 
ENDBRANCH  64  81
ENDBRANCH  38  39
ENDBRANCH  31  33
ENDBRANCH  30  31
ENDBRANCH  29  30
ENDBRANCH  28  29
ENDBRANCH  27  28
ENDBRANCH  26  27
ENDBRANCH   1  26
TORSDOF 22
ENDMDL
MODEL 2
REMARK VINA RESULT:      -9.4      4.329      6.330
REMARK SMILES C=CCN(CC(=O)OCCOCCOCCOC(=O)c1ccc(-c2c3nc(c(-c4c(F)cccc4F)c4ccc([nH]4)c(-c4c(F)cccc4F)c4nc(c(-c5c(F)cccc5F)c5ccc2[nH]5)C=C4)C=C3)cc1)C(=O)[C@@H]1Oc2ccccc2O[C@H]1C
REMARK SMILES IDX 12 1 11 2 10 3 9 4 8 5 6 6 7 7 5 8 4 9 3 10 2 11 1 12 74 13
REMARK SMILES IDX 75 14 76 15 77 16 85 17 78 18 84 19 86 20 79 21 83 22 80 23
REMARK SMILES IDX 82 24 81 25 13 26 14 27 15 28 16 29 17 30 18 31 19 32 20 33
REMARK SMILES IDX 21 34 73 35 22 36 72 37 23 38 24 39 25 40 66 41 26 42 71 43
REMARK SMILES IDX 65 44 67 45 27 46 70 47 64 48 63 49 28 51 54 52 37 53 53 54
REMARK SMILES IDX 38 55 41 56 52 57 68 58 39 59 40 60 51 62 69 63 42 64 29 65
REMARK SMILES IDX 30 66 35 67 31 68 32 69 34 70 36 71 33 72 55 73 56 74 61 75
REMARK SMILES IDX 57 76 58 77 60 78 62 79 59 80 43 81 44 82 49 83 45 84 46 85
REMARK SMILES IDX 48 86 50 87 47 88
REMARK H PARENT 67 50 41 61
REMARK Flexibility Score: inf
ROOT
ATOM      1  C   UNL A   1      35.413  20.064  24.985  1.00  0.00     0.188 C 
ENDROOT
BRANCH   1   2
ATOM      2  O   UNL A   1      34.117  20.530  24.615  1.00  0.00    -0.376 OA
BRANCH   2   3
ATOM      3  C   UNL A   1      33.744  21.818  25.107  1.00  0.00     0.202 C 
BRANCH   3   4
ATOM      4  C   UNL A   1      33.351  22.867  24.051  1.00  0.00     0.261 C 
BRANCH   4   5
ATOM      5  O   UNL A   1      34.217  24.027  23.922  1.00  0.00    -0.462 OA
BRANCH   5   6
ATOM      6  C   UNL A   1      33.748  24.897  22.964  1.00  0.00     0.325 C 
ATOM      7  O   UNL A   1      33.500  24.547  21.811  1.00  0.00    -0.250 OA
BRANCH   6   8
ATOM      8  C   UNL A   1      33.347  26.300  23.458  1.00  0.00     0.242 C 
BRANCH   8   9
ATOM      9  N   UNL A   1      31.971  26.786  23.329  1.00  0.00    -0.325 N 
BRANCH   9  10
ATOM     10  C   UNL A   1      30.898  25.936  23.838  1.00  0.00     0.147 C 
BRANCH  10  11
ATOM     11  C   UNL A   1      31.106  25.716  25.313  1.00  0.00    -0.014 C 
ATOM     12  C   UNL A   1      30.457  24.812  26.059  1.00  0.00     0.006 C 
ENDBRANCH  10  11
ENDBRANCH   9  10
BRANCH   9  13
ATOM     13  C   UNL A   1      31.771  28.158  23.154  1.00  0.00     0.268 C 
ATOM     14  O   UNL A   1      32.521  28.835  22.445  1.00  0.00    -0.270 OA
BRANCH  13  15
ATOM     15  C   UNL A   1      30.409  28.716  23.599  1.00  0.00     0.302 C 
ATOM     16  O   UNL A   1      29.425  28.821  22.568  1.00  0.00    -0.473 OA
ATOM     17  C   UNL A   1      30.801  30.037  24.281  1.00  0.00     0.221 C 
ATOM     18  C   UNL A   1      28.912  30.078  22.394  1.00  0.00     0.162 A 
ATOM     19  O   UNL A   1      29.636  30.815  24.550  1.00  0.00    -0.482 OA
ATOM     20  C   UNL A   1      31.622  29.816  25.553  1.00  0.00     0.057 C 
ATOM     21  C   UNL A   1      28.308  30.357  21.173  1.00  0.00     0.050 A 
ATOM     22  C   UNL A   1      29.081  31.095  23.327  1.00  0.00     0.161 A 
ATOM     23  C   UNL A   1      28.031  31.679  20.824  1.00  0.00     0.004 A 
ATOM     24  C   UNL A   1      28.773  32.413  23.004  1.00  0.00     0.050 A 
ATOM     25  C   UNL A   1      28.293  32.709  21.728  1.00  0.00     0.004 A 
ENDBRANCH  13  15
ENDBRANCH   9  13
ENDBRANCH   8   9
ENDBRANCH   6   8
ENDBRANCH   5   6
ENDBRANCH   4   5
ENDBRANCH   3   4
ENDBRANCH   2   3
ENDBRANCH   1   2
BRANCH   1  26
ATOM     26  C   UNL A   1      36.573  21.011  24.633  1.00  0.00     0.188 C 
BRANCH  26  27
ATOM     27  O   UNL A   1      37.268  21.587  25.742  1.00  0.00    -0.376 OA
BRANCH  27  28
ATOM     28  C   UNL A   1      38.694  21.449  25.690  1.00  0.00     0.202 C 
BRANCH  28  29
ATOM     29  C   UNL A   1      39.214  20.070  25.237  1.00  0.00     0.261 C 
BRANCH  29  30
ATOM     30  O   UNL A   1      40.161  19.629  26.232  1.00  0.00    -0.460 OA
BRANCH  30  31
ATOM     31  C   UNL A   1      41.479  19.765  25.953  1.00  0.00     0.338 C 
ATOM     32  O   UNL A   1      42.171  19.049  25.253  1.00  0.00    -0.246 OA
BRANCH  31  33
ATOM     33  C   UNL A   1      41.910  21.052  26.550  1.00  0.00     0.060 A 
ATOM     34  C   UNL A   1      42.360  22.079  25.714  1.00  0.00     0.016 A 
ATOM     35  C   UNL A   1      41.769  21.280  27.924  1.00  0.00     0.016 A 
ATOM     36  C   UNL A   1      42.562  23.363  26.232  1.00  0.00     0.010 A 
ATOM     37  C   UNL A   1      42.034  22.545  28.452  1.00  0.00     0.010 A 
ATOM     38  C   UNL A   1      42.414  23.599  27.608  1.00  0.00    -0.014 A 
BRANCH  38  39
ATOM     39  C   UNL A   1      42.859  24.882  28.204  1.00  0.00     0.031 A 
ATOM     40  C   UNL A   1      41.816  25.933  28.450  1.00  0.00     0.074 A 
ATOM     41  C   UNL A   1      44.153  25.133  28.478  1.00  0.00     0.049 A 
ATOM     42  N   UNL A   1      41.952  27.161  28.874  1.00  0.00    -0.248 NA
ATOM     43  C   UNL A   1      40.424  25.538  28.176  1.00  0.00     0.031 C 
ATOM     44  C   UNL A   1      45.255  24.186  28.329  1.00  0.00     0.029 A 
ATOM     45  N   UNL A   1      44.759  26.282  28.930  1.00  0.00    -0.354 N 
ATOM     46  C   UNL A   1      40.667  27.681  28.926  1.00  0.00     0.074 A 
ATOM     47  C   UNL A   1      39.764  26.642  28.484  1.00  0.00     0.031 C 
ATOM     48  C   UNL A   1      46.407  24.799  28.663  1.00  0.00     0.029 A 
ATOM     49  C   UNL A   1      46.127  26.188  29.021  1.00  0.00     0.049 A 
ATOM     50  H   UNL A   1      44.258  27.096  29.167  1.00  0.00     0.167 HD
ATOM     51  C   UNL A   1      40.269  28.921  29.291  1.00  0.00     0.037 A 
ATOM     52  C   UNL A   1      47.043  27.129  29.332  1.00  0.00     0.037 A 
ATOM     53  C   UNL A   1      41.164  29.976  29.667  1.00  0.00     0.049 A 
ATOM     54  C   UNL A   1      46.583  28.530  29.652  1.00  0.00     0.074 A 
ATOM     55  C   UNL A   1      40.866  31.281  30.010  1.00  0.00     0.029 A 
ATOM     56  N   UNL A   1      42.543  29.848  29.726  1.00  0.00    -0.354 N 
ATOM     57  N   UNL A   1      45.364  29.009  29.710  1.00  0.00    -0.248 NA
ATOM     58  C   UNL A   1      47.628  29.528  29.935  1.00  0.00     0.031 C 
ATOM     59  C   UNL A   1      42.070  31.956  30.238  1.00  0.00     0.029 A 
ATOM     60  C   UNL A   1      43.114  31.056  30.079  1.00  0.00     0.049 A 
ATOM     61  H   UNL A   1      43.042  29.018  29.544  1.00  0.00     0.167 HD
ATOM     62  C   UNL A   1      45.493  30.350  30.057  1.00  0.00     0.074 A 
ATOM     63  C   UNL A   1      46.910  30.608  30.208  1.00  0.00     0.031 C 
ATOM     64  C   UNL A   1      44.527  31.285  30.233  1.00  0.00     0.037 A 
BRANCH  51  65
ATOM     65  C   UNL A   1      38.799  29.192  29.228  1.00  0.00     0.057 A 
ATOM     66  C   UNL A   1      38.179  29.620  28.045  1.00  0.00     0.134 A 
ATOM     67  C   UNL A   1      38.006  29.083  30.375  1.00  0.00     0.134 A 
ATOM     68  F   UNL A   1      38.894  29.774  26.922  1.00  0.00    -0.206 F 
ATOM     69  C   UNL A   1      36.826  29.957  28.016  1.00  0.00     0.040 A 
ATOM     70  C   UNL A   1      36.647  29.397  30.352  1.00  0.00     0.040 A 
ATOM     71  F   UNL A   1      38.543  28.691  31.541  1.00  0.00    -0.206 F 
ATOM     72  C   UNL A   1      36.055  29.846  29.172  1.00  0.00     0.006 A 
ENDBRANCH  51  65
BRANCH  52  73
ATOM     73  C   UNL A   1      48.495  26.803  29.329  1.00  0.00     0.057 A 
ATOM     74  C   UNL A   1      49.136  26.322  30.477  1.00  0.00     0.134 A 
ATOM     75  C   UNL A   1      49.288  27.017  28.194  1.00  0.00     0.134 A 
ATOM     76  F   UNL A   1      48.440  26.127  31.607  1.00  0.00    -0.206 F 
ATOM     77  C   UNL A   1      50.512  26.081  30.503  1.00  0.00     0.040 A 
ATOM     78  C   UNL A   1      50.661  26.759  28.200  1.00  0.00     0.040 A 
ATOM     79  F   UNL A   1      48.741  27.487  27.064  1.00  0.00    -0.206 F 
ATOM     80  C   UNL A   1      51.278  26.297  29.360  1.00  0.00     0.006 A 
ENDBRANCH  52  73
BRANCH  64  81
ATOM     81  C   UNL A   1      44.962  32.663  30.635  1.00  0.00     0.057 A 
ATOM     82  C   UNL A   1      45.242  33.654  29.687  1.00  0.00     0.134 A 
ATOM     83  C   UNL A   1      45.027  33.020  31.988  1.00  0.00     0.134 A 
ATOM     84  F   UNL A   1      45.206  33.371  28.376  1.00  0.00    -0.206 F 
ATOM     85  C   UNL A   1      45.582  34.952  30.071  1.00  0.00     0.040 A 
ATOM     86  C   UNL A   1      45.344  34.320  32.383  1.00  0.00     0.040 A 
ATOM     87  F   UNL A   1      44.759  32.119  32.944  1.00  0.00    -0.206 F 
ATOM     88  C   UNL A   1      45.625  35.290  31.423  1.00  0.00     0.006 A 
ENDBRANCH  64  81
ENDBRANCH  38  39
ENDBRANCH  31  33
ENDBRANCH  30  31
ENDBRANCH  29  30
ENDBRANCH  28  29
ENDBRANCH  27  28
ENDBRANCH  26  27
ENDBRANCH   1  26
TORSDOF 22
ENDMDL
MODEL 3
REMARK VINA RESULT:      -9.2      4.787     10.503
REMARK SMILES C=CCN(CC(=O)OCCOCCOCCOC(=O)c1ccc(-c2c3nc(c(-c4c(F)cccc4F)c4ccc([nH]4)c(-c4c(F)cccc4F)c4nc(c(-c5c(F)cccc5F)c5ccc2[nH]5)C=C4)C=C3)cc1)C(=O)[C@@H]1Oc2ccccc2O[C@H]1C
REMARK SMILES IDX 12 1 11 2 10 3 9 4 8 5 6 6 7 7 5 8 4 9 3 10 2 11 1 12 74 13
REMARK SMILES IDX 75 14 76 15 77 16 85 17 78 18 84 19 86 20 79 21 83 22 80 23
REMARK SMILES IDX 82 24 81 25 13 26 14 27 15 28 16 29 17 30 18 31 19 32 20 33
REMARK SMILES IDX 21 34 73 35 22 36 72 37 23 38 24 39 25 40 66 41 26 42 71 43
REMARK SMILES IDX 65 44 67 45 27 46 70 47 64 48 63 49 28 51 54 52 37 53 53 54
REMARK SMILES IDX 38 55 41 56 52 57 68 58 39 59 40 60 51 62 69 63 42 64 29 65
REMARK SMILES IDX 30 66 35 67 31 68 32 69 34 70 36 71 33 72 55 73 56 74 61 75
REMARK SMILES IDX 57 76 58 77 60 78 62 79 59 80 43 81 44 82 49 83 45 84 46 85
REMARK SMILES IDX 48 86 50 87 47 88
REMARK H PARENT 67 50 41 61
REMARK Flexibility Score: inf
ROOT
ATOM      1  C   UNL A   1      35.184  31.634  28.003  1.00  0.00     0.188 C 
ENDROOT
BRANCH   1   2
ATOM      2  O   UNL A   1      33.951  31.430  27.317  1.00  0.00    -0.376 OA
BRANCH   2   3
ATOM      3  C   UNL A   1      33.596  30.075  27.043  1.00  0.00     0.202 C 
BRANCH   3   4
ATOM      4  C   UNL A   1      32.093  29.780  26.881  1.00  0.00     0.261 C 
BRANCH   4   5
ATOM      5  O   UNL A   1      31.698  28.993  25.725  1.00  0.00    -0.462 OA
BRANCH   5   6
ATOM      6  C   UNL A   1      31.404  27.696  26.081  1.00  0.00     0.325 C 
ATOM      7  O   UNL A   1      31.158  27.362  27.239  1.00  0.00    -0.250 OA
BRANCH   6   8
ATOM      8  C   UNL A   1      31.195  26.703  24.921  1.00  0.00     0.242 C 
BRANCH   8   9
ATOM      9  N   UNL A   1      32.305  25.905  24.395  1.00  0.00    -0.325 N 
BRANCH   9  10
ATOM     10  C   UNL A   1      33.369  26.605  23.681  1.00  0.00     0.147 C 
BRANCH  10  11
ATOM     11  C   UNL A   1      32.919  26.869  22.268  1.00  0.00    -0.014 C 
ATOM     12  C   UNL A   1      32.337  25.971  21.462  1.00  0.00     0.006 C 
ENDBRANCH  10  11
ENDBRANCH   9  10
BRANCH   9  13
ATOM     13  C   UNL A   1      32.532  24.645  24.955  1.00  0.00     0.268 C 
ATOM     14  O   UNL A   1      31.841  24.217  25.883  1.00  0.00    -0.270 OA
BRANCH  13  15
ATOM     15  C   UNL A   1      33.440  23.693  24.159  1.00  0.00     0.302 C 
ATOM     16  O   UNL A   1      32.764  22.651  23.453  1.00  0.00    -0.473 OA
ATOM     17  C   UNL A   1      34.447  23.229  25.225  1.00  0.00     0.221 C 
ATOM     18  C   UNL A   1      33.174  21.384  23.774  1.00  0.00     0.162 A 
ATOM     19  O   UNL A   1      35.231  22.149  24.723  1.00  0.00    -0.482 OA
ATOM     20  C   UNL A   1      35.335  24.371  25.724  1.00  0.00     0.057 C 
ATOM     21  C   UNL A   1      32.304  20.339  23.484  1.00  0.00     0.050 A 
ATOM     22  C   UNL A   1      34.348  21.129  24.474  1.00  0.00     0.161 A 
ATOM     23  C   UNL A   1      32.526  19.079  24.040  1.00  0.00     0.004 A 
ATOM     24  C   UNL A   1      34.599  19.866  25.001  1.00  0.00     0.050 A 
ATOM     25  C   UNL A   1      33.658  18.852  24.824  1.00  0.00     0.004 A 
ENDBRANCH  13  15
ENDBRANCH   9  13
ENDBRANCH   8   9
ENDBRANCH   6   8
ENDBRANCH   5   6
ENDBRANCH   4   5
ENDBRANCH   3   4
ENDBRANCH   2   3
ENDBRANCH   1   2
BRANCH   1  26
ATOM     26  C   UNL A   1      35.685  33.089  28.028  1.00  0.00     0.188 C 
BRANCH  26  27
ATOM     27  O   UNL A   1      35.888  33.657  29.324  1.00  0.00    -0.376 OA
BRANCH  27  28
ATOM     28  C   UNL A   1      34.920  33.266  30.307  1.00  0.00     0.202 C 
BRANCH  28  29
ATOM     29  C   UNL A   1      35.497  32.696  31.619  1.00  0.00     0.261 C 
BRANCH  29  30
ATOM     30  O   UNL A   1      36.776  32.111  31.298  1.00  0.00    -0.460 OA
BRANCH  30  31
ATOM     31  C   UNL A   1      36.874  30.761  31.311  1.00  0.00     0.338 C 
ATOM     32  O   UNL A   1      36.025  29.954  31.643  1.00  0.00    -0.246 OA
BRANCH  31  33
ATOM     33  C   UNL A   1      38.181  30.423  30.699  1.00  0.00     0.060 A 
ATOM     34  C   UNL A   1      39.230  29.989  31.518  1.00  0.00     0.016 A 
ATOM     35  C   UNL A   1      38.339  30.435  29.308  1.00  0.00     0.016 A 
ATOM     36  C   UNL A   1      40.391  29.461  30.942  1.00  0.00     0.010 A 
ATOM     37  C   UNL A   1      39.524  29.969  28.736  1.00  0.00     0.010 A 
ATOM     38  C   UNL A   1      40.550  29.462  29.548  1.00  0.00    -0.014 A 
BRANCH  38  39
ATOM     39  C   UNL A   1      41.864  29.137  28.939  1.00  0.00     0.031 A 
ATOM     40  C   UNL A   1      42.095  27.719  28.503  1.00  0.00     0.074 A 
ATOM     41  C   UNL A   1      42.842  30.054  28.817  1.00  0.00     0.049 A 
ATOM     42  N   UNL A   1      43.176  27.159  28.029  1.00  0.00    -0.248 NA
ATOM     43  C   UNL A   1      40.943  26.810  28.622  1.00  0.00     0.031 C 
ATOM     44  C   UNL A   1      42.731  31.470  29.158  1.00  0.00     0.029 A 
ATOM     45  N   UNL A   1      44.138  29.916  28.379  1.00  0.00    -0.354 N 
ATOM     46  C   UNL A   1      42.832  25.836  27.786  1.00  0.00     0.074 A 
ATOM     47  C   UNL A   1      41.448  25.675  28.170  1.00  0.00     0.031 C 
ATOM     48  C   UNL A   1      43.918  32.067  28.937  1.00  0.00     0.029 A 
ATOM     49  C   UNL A   1      44.878  31.071  28.468  1.00  0.00     0.049 A 
ATOM     50  H   UNL A   1      44.502  29.068  28.034  1.00  0.00     0.167 HD
ATOM     51  C   UNL A   1      43.602  24.836  27.302  1.00  0.00     0.037 A 
ATOM     52  C   UNL A   1      46.188  31.284  28.221  1.00  0.00     0.037 A 
ATOM     53  C   UNL A   1      44.994  24.974  26.982  1.00  0.00     0.049 A 
ATOM     54  C   UNL A   1      47.050  30.132  27.765  1.00  0.00     0.074 A 
ATOM     55  C   UNL A   1      45.875  24.010  26.529  1.00  0.00     0.029 A 
ATOM     56  N   UNL A   1      45.712  26.153  27.105  1.00  0.00    -0.354 N 
ATOM     57  N   UNL A   1      46.712  28.888  27.525  1.00  0.00    -0.248 NA
ATOM     58  C   UNL A   1      48.481  30.411  27.559  1.00  0.00     0.031 C 
ATOM     59  C   UNL A   1      47.140  24.599  26.416  1.00  0.00     0.029 A 
ATOM     60  C   UNL A   1      47.033  25.939  26.758  1.00  0.00     0.049 A 
ATOM     61  H   UNL A   1      45.336  27.016  27.397  1.00  0.00     0.167 HD
ATOM     62  C   UNL A   1      47.877  28.244  27.121  1.00  0.00     0.074 A 
ATOM     63  C   UNL A   1      48.930  29.238  27.136  1.00  0.00     0.031 C 
ATOM     64  C   UNL A   1      48.060  26.947  26.771  1.00  0.00     0.037 A 
BRANCH  51  65
ATOM     65  C   UNL A   1      42.946  23.499  27.164  1.00  0.00     0.057 A 
ATOM     66  C   UNL A   1      42.765  22.650  28.264  1.00  0.00     0.134 A 
ATOM     67  C   UNL A   1      42.544  23.031  25.908  1.00  0.00     0.134 A 
ATOM     68  F   UNL A   1      43.159  23.031  29.488  1.00  0.00    -0.206 F 
ATOM     69  C   UNL A   1      42.234  21.368  28.113  1.00  0.00     0.040 A 
ATOM     70  C   UNL A   1      41.993  21.760  25.748  1.00  0.00     0.040 A 
ATOM     71  F   UNL A   1      42.703  23.792  24.814  1.00  0.00    -0.206 F 
ATOM     72  C   UNL A   1      41.845  20.920  26.851  1.00  0.00     0.006 A 
ENDBRANCH  51  65
BRANCH  52  73
ATOM     73  C   UNL A   1      46.788  32.630  28.426  1.00  0.00     0.057 A 
ATOM     74  C   UNL A   1      47.285  33.022  29.675  1.00  0.00     0.134 A 
ATOM     75  C   UNL A   1      46.829  33.576  27.394  1.00  0.00     0.134 A 
ATOM     76  F   UNL A   1      47.244  32.175  30.715  1.00  0.00    -0.206 F 
ATOM     77  C   UNL A   1      47.784  34.308  29.896  1.00  0.00     0.040 A 
ATOM     78  C   UNL A   1      47.346  34.859  27.595  1.00  0.00     0.040 A 
ATOM     79  F   UNL A   1      46.360  33.270  26.176  1.00  0.00    -0.206 F 
ATOM     80  C   UNL A   1      47.818  35.230  28.852  1.00  0.00     0.006 A 
ENDBRANCH  52  73
BRANCH  64  81
ATOM     81  C   UNL A   1      49.438  26.532  26.348  1.00  0.00     0.057 A 
ATOM     82  C   UNL A   1      50.314  25.881  27.225  1.00  0.00     0.134 A 
ATOM     83  C   UNL A   1      49.861  26.718  25.026  1.00  0.00     0.134 A 
ATOM     84  F   UNL A   1      49.969  25.681  28.506  1.00  0.00    -0.206 F 
ATOM     85  C   UNL A   1      51.569  25.439  26.804  1.00  0.00     0.040 A 
ATOM     86  C   UNL A   1      51.104  26.261  24.588  1.00  0.00     0.040 A 
ATOM     87  F   UNL A   1      49.064  27.325  24.134  1.00  0.00    -0.206 F 
ATOM     88  C   UNL A   1      51.963  25.621  25.479  1.00  0.00     0.006 A 
ENDBRANCH  64  81
ENDBRANCH  38  39
ENDBRANCH  31  33
ENDBRANCH  30  31
ENDBRANCH  29  30
ENDBRANCH  28  29
ENDBRANCH  27  28
ENDBRANCH  26  27
ENDBRANCH   1  26
TORSDOF 22
ENDMDL
