MODEL 1
REMARK VINA RESULT:     -10.8      0.000      0.000
REMARK SMILES COc1ccc(C(=O)c2ccccc2)cc1[C@@H](C)C(=O)OCCOCCOCCOC(=O)c1ccc(-c2c3nc(c(-c4c(F)cccc4F)c4ccc([nH]4)c(-c4c(F)cccc4F)c4nc(c(-c5c(F)cccc5F)c5ccc2[nH]5)C=C4)C=C3)cc1
REMARK SMILES IDX 25 1 24 2 23 3 22 4 21 5 19 6 20 7 17 8 18 9 16 10 3 11 4 12
REMARK SMILES IDX 5 13 15 14 6 15 2 16 1 17 7 18 8 19 9 20 10 21 14 22 11 23
REMARK SMILES IDX 13 24 12 25 26 26 27 27 28 28 29 29 30 30 31 31 32 32 33 33
REMARK SMILES IDX 34 34 86 35 35 36 85 37 36 38 37 39 38 40 79 41 39 42 84 43
REMARK SMILES IDX 78 44 80 45 40 46 83 47 77 48 76 49 41 51 67 52 50 53 66 54
REMARK SMILES IDX 51 55 54 56 65 57 81 58 52 59 53 60 64 62 82 63 55 64 42 65
REMARK SMILES IDX 43 66 48 67 44 68 45 69 47 70 49 71 46 72 68 73 69 74 74 75
REMARK SMILES IDX 70 76 71 77 73 78 75 79 72 80 56 81 57 82 62 83 58 84 59 85
REMARK SMILES IDX 61 86 63 87 60 88
REMARK H PARENT 80 50 54 61
REMARK Flexibility Score: inf
ROOT
ATOM      1  C   UNL A   1      33.446  29.110  26.967  1.00  0.00     0.188 C 
ENDROOT
BRANCH   1   2
ATOM      2  O   UNL A   1      32.415  28.135  27.043  1.00  0.00    -0.376 OA
BRANCH   2   3
ATOM      3  C   UNL A   1      32.509  26.968  26.235  1.00  0.00     0.202 C 
BRANCH   3   4
ATOM      4  C   UNL A   1      31.392  25.918  26.331  1.00  0.00     0.261 C 
BRANCH   4   5
ATOM      5  O   UNL A   1      31.595  24.870  27.306  1.00  0.00    -0.463 OA
BRANCH   5   6
ATOM      6  C   UNL A   1      31.065  23.653  27.014  1.00  0.00     0.313 C 
ATOM      7  O   UNL A   1      29.884  23.369  27.208  1.00  0.00    -0.252 OA
BRANCH   6   8
ATOM      8  C   UNL A   1      32.034  22.614  26.446  1.00  0.00     0.130 C 
ATOM      9  C   UNL A   1      33.399  22.786  27.108  1.00  0.00     0.025 C 
BRANCH   8  10
ATOM     10  C   UNL A   1      32.204  22.457  24.937  1.00  0.00     0.009 A 
ATOM     11  C   UNL A   1      32.145  21.191  24.327  1.00  0.00     0.122 A 
ATOM     12  C   UNL A   1      32.294  21.040  22.944  1.00  0.00     0.047 A 
ATOM     13  C   UNL A   1      32.514  22.158  22.138  1.00  0.00     0.016 A 
ATOM     14  C   UNL A   1      32.461  23.565  24.107  1.00  0.00     0.020 A 
ATOM     15  C   UNL A   1      32.622  23.427  22.716  1.00  0.00     0.023 A 
BRANCH  11  16
ATOM     16  O   UNL A   1      32.069  20.063  25.101  1.00  0.00    -0.496 OA
ATOM     17  C   UNL A   1      32.527  18.912  24.397  1.00  0.00     0.278 C 
ENDBRANCH  11  16
BRANCH  15  18
ATOM     18  C   UNL A   1      32.861  24.598  21.818  1.00  0.00     0.193 C 
ATOM     19  O   UNL A   1      33.278  24.430  20.675  1.00  0.00    -0.289 OA
BRANCH  18  20
ATOM     20  C   UNL A   1      32.549  25.975  22.260  1.00  0.00     0.022 A 
ATOM     21  C   UNL A   1      33.611  26.846  22.516  1.00  0.00     0.012 A 
ATOM     22  C   UNL A   1      31.227  26.418  22.384  1.00  0.00     0.012 A 
ATOM     23  C   UNL A   1      33.351  28.181  22.824  1.00  0.00     0.001 A 
ATOM     24  C   UNL A   1      30.971  27.757  22.677  1.00  0.00     0.001 A 
ATOM     25  C   UNL A   1      32.033  28.639  22.885  1.00  0.00     0.000 A 
ENDBRANCH  18  20
ENDBRANCH  15  18
ENDBRANCH   8  10
ENDBRANCH   6   8
ENDBRANCH   5   6
ENDBRANCH   4   5
ENDBRANCH   3   4
ENDBRANCH   2   3
ENDBRANCH   1   2
BRANCH   1  26
ATOM     26  C   UNL A   1      33.087  30.603  27.044  1.00  0.00     0.188 C 
BRANCH  26  27
ATOM     27  O   UNL A   1      31.736  30.918  26.778  1.00  0.00    -0.376 OA
BRANCH  27  28
ATOM     28  C   UNL A   1      31.420  32.301  26.761  1.00  0.00     0.202 C 
BRANCH  28  29
ATOM     29  C   UNL A   1      32.584  33.237  27.126  1.00  0.00     0.261 C 
BRANCH  29  30
ATOM     30  O   UNL A   1      32.311  34.195  28.171  1.00  0.00    -0.460 OA
BRANCH  30  31
ATOM     31  C   UNL A   1      33.348  34.936  28.619  1.00  0.00     0.338 C 
ATOM     32  O   UNL A   1      33.347  36.136  28.857  1.00  0.00    -0.246 OA
BRANCH  31  33
ATOM     33  C   UNL A   1      34.447  34.016  28.987  1.00  0.00     0.060 A 
ATOM     34  C   UNL A   1      34.152  32.864  29.729  1.00  0.00     0.016 A 
ATOM     35  C   UNL A   1      35.763  34.287  28.610  1.00  0.00     0.016 A 
ATOM     36  C   UNL A   1      35.173  31.984  30.101  1.00  0.00     0.010 A 
ATOM     37  C   UNL A   1      36.789  33.419  29.008  1.00  0.00     0.010 A 
ATOM     38  C   UNL A   1      36.503  32.272  29.772  1.00  0.00    -0.014 A 
BRANCH  38  39
ATOM     39  C   UNL A   1      37.604  31.482  30.383  1.00  0.00     0.031 A 
ATOM     40  C   UNL A   1      37.950  31.734  31.826  1.00  0.00     0.074 A 
ATOM     41  C   UNL A   1      38.270  30.535  29.697  1.00  0.00     0.049 A 
ATOM     42  N   UNL A   1      38.928  31.250  32.547  1.00  0.00    -0.248 NA
ATOM     43  C   UNL A   1      37.064  32.658  32.552  1.00  0.00     0.031 C 
ATOM     44  C   UNL A   1      37.991  30.127  28.322  1.00  0.00     0.029 A 
ATOM     45  N   UNL A   1      39.332  29.746  30.073  1.00  0.00    -0.354 N 
ATOM     46  C   UNL A   1      38.789  31.824  33.804  1.00  0.00     0.074 A 
ATOM     47  C   UNL A   1      37.642  32.704  33.743  1.00  0.00     0.031 C 
ATOM     48  C   UNL A   1      38.872  29.176  27.963  1.00  0.00     0.029 A 
ATOM     49  C   UNL A   1      39.805  28.941  29.065  1.00  0.00     0.049 A 
ATOM     50  H   UNL A   1      39.718  29.758  30.979  1.00  0.00     0.167 HD
ATOM     51  C   UNL A   1      39.546  31.635  34.912  1.00  0.00     0.037 A 
ATOM     52  C   UNL A   1      40.888  28.138  29.023  1.00  0.00     0.037 A 
ATOM     53  C   UNL A   1      40.686  30.760  34.977  1.00  0.00     0.049 A 
ATOM     54  C   UNL A   1      41.779  28.023  30.236  1.00  0.00     0.074 A 
ATOM     55  C   UNL A   1      41.515  30.505  36.056  1.00  0.00     0.029 A 
ATOM     56  N   UNL A   1      41.162  30.002  33.919  1.00  0.00    -0.354 N 
ATOM     57  N   UNL A   1      41.648  28.577  31.418  1.00  0.00    -0.248 NA
ATOM     58  C   UNL A   1      42.974  27.176  30.106  1.00  0.00     0.031 C 
ATOM     59  C   UNL A   1      42.527  29.637  35.634  1.00  0.00     0.029 A 
ATOM     60  C   UNL A   1      42.291  29.301  34.311  1.00  0.00     0.049 A 
ATOM     61  H   UNL A   1      40.758  29.966  33.022  1.00  0.00     0.167 HD
ATOM     62  C   UNL A   1      42.722  28.122  32.177  1.00  0.00     0.074 A 
ATOM     63  C   UNL A   1      43.488  27.236  31.327  1.00  0.00     0.031 C 
ATOM     64  C   UNL A   1      43.042  28.411  33.463  1.00  0.00     0.037 A 
BRANCH  51  65
ATOM     65  C   UNL A   1      39.188  32.431  36.133  1.00  0.00     0.057 A 
ATOM     66  C   UNL A   1      38.307  31.947  37.107  1.00  0.00     0.134 A 
ATOM     67  C   UNL A   1      39.754  33.695  36.343  1.00  0.00     0.134 A 
ATOM     68  F   UNL A   1      37.718  30.752  36.957  1.00  0.00    -0.206 F 
ATOM     69  C   UNL A   1      37.981  32.703  38.235  1.00  0.00     0.040 A 
ATOM     70  C   UNL A   1      39.459  34.448  37.481  1.00  0.00     0.040 A 
ATOM     71  F   UNL A   1      40.609  34.217  35.451  1.00  0.00    -0.206 F 
ATOM     72  C   UNL A   1      38.563  33.954  38.427  1.00  0.00     0.006 A 
ENDBRANCH  51  65
BRANCH  52  73
ATOM     73  C   UNL A   1      41.230  27.402  27.777  1.00  0.00     0.057 A 
ATOM     74  C   UNL A   1      42.055  27.968  26.799  1.00  0.00     0.134 A 
ATOM     75  C   UNL A   1      40.697  26.134  27.512  1.00  0.00     0.134 A 
ATOM     76  F   UNL A   1      42.570  29.194  26.977  1.00  0.00    -0.206 F 
ATOM     77  C   UNL A   1      42.323  27.311  25.596  1.00  0.00     0.040 A 
ATOM     78  C   UNL A   1      40.981  25.452  26.327  1.00  0.00     0.040 A 
ATOM     79  F   UNL A   1      39.892  25.536  28.404  1.00  0.00    -0.206 F 
ATOM     80  C   UNL A   1      41.789  26.046  25.360  1.00  0.00     0.006 A 
ENDBRANCH  52  73
BRANCH  64  81
ATOM     81  C   UNL A   1      44.246  27.729  34.050  1.00  0.00     0.057 A 
ATOM     82  C   UNL A   1      45.508  28.336  34.075  1.00  0.00     0.134 A 
ATOM     83  C   UNL A   1      44.127  26.465  34.647  1.00  0.00     0.134 A 
ATOM     84  F   UNL A   1      45.696  29.539  33.513  1.00  0.00    -0.206 F 
ATOM     85  C   UNL A   1      46.612  27.701  34.648  1.00  0.00     0.040 A 
ATOM     86  C   UNL A   1      45.217  25.835  35.249  1.00  0.00     0.040 A 
ATOM     87  F   UNL A   1      42.945  25.832  34.670  1.00  0.00    -0.206 F 
ATOM     88  C   UNL A   1      46.466  26.451  35.245  1.00  0.00     0.006 A 
ENDBRANCH  64  81
ENDBRANCH  38  39
ENDBRANCH  31  33
ENDBRANCH  30  31
ENDBRANCH  29  30
ENDBRANCH  28  29
ENDBRANCH  27  28
ENDBRANCH  26  27
ENDBRANCH   1  26
TORSDOF 21
ENDMDL
MODEL 2
REMARK VINA RESULT:     -10.7      3.283      8.373
REMARK SMILES COc1ccc(C(=O)c2ccccc2)cc1[C@@H](C)C(=O)OCCOCCOCCOC(=O)c1ccc(-c2c3nc(c(-c4c(F)cccc4F)c4ccc([nH]4)c(-c4c(F)cccc4F)c4nc(c(-c5c(F)cccc5F)c5ccc2[nH]5)C=C4)C=C3)cc1
REMARK SMILES IDX 25 1 24 2 23 3 22 4 21 5 19 6 20 7 17 8 18 9 16 10 3 11 4 12
REMARK SMILES IDX 5 13 15 14 6 15 2 16 1 17 7 18 8 19 9 20 10 21 14 22 11 23
REMARK SMILES IDX 13 24 12 25 26 26 27 27 28 28 29 29 30 30 31 31 32 32 33 33
REMARK SMILES IDX 34 34 86 35 35 36 85 37 36 38 37 39 38 40 79 41 39 42 84 43
REMARK SMILES IDX 78 44 80 45 40 46 83 47 77 48 76 49 41 51 67 52 50 53 66 54
REMARK SMILES IDX 51 55 54 56 65 57 81 58 52 59 53 60 64 62 82 63 55 64 42 65
REMARK SMILES IDX 43 66 48 67 44 68 45 69 47 70 49 71 46 72 68 73 69 74 74 75
REMARK SMILES IDX 70 76 71 77 73 78 75 79 72 80 56 81 57 82 62 83 58 84 59 85
REMARK SMILES IDX 61 86 63 87 60 88
REMARK H PARENT 80 50 54 61
REMARK Flexibility Score: inf
ROOT
ATOM      1  C   UNL A   1      41.995  19.971  27.175  1.00  0.00     0.188 C 
ENDROOT
BRANCH   1   2
ATOM      2  O   UNL A   1      40.675  20.466  27.353  1.00  0.00    -0.376 OA
BRANCH   2   3
ATOM      3  C   UNL A   1      39.879  20.733  26.204  1.00  0.00     0.202 C 
BRANCH   3   4
ATOM      4  C   UNL A   1      39.065  22.035  26.162  1.00  0.00     0.261 C 
BRANCH   4   5
ATOM      5  O   UNL A   1      38.181  22.188  25.028  1.00  0.00    -0.463 OA
BRANCH   5   6
ATOM      6  C   UNL A   1      36.872  22.425  25.302  1.00  0.00     0.313 C 
ATOM      7  O   UNL A   1      36.467  22.769  26.412  1.00  0.00    -0.252 OA
BRANCH   6   8
ATOM      8  C   UNL A   1      35.891  22.211  24.146  1.00  0.00     0.130 C 
ATOM      9  C   UNL A   1      36.400  22.953  22.913  1.00  0.00     0.025 C 
BRANCH   8  10
ATOM     10  C   UNL A   1      34.401  22.480  24.337  1.00  0.00     0.009 A 
ATOM     11  C   UNL A   1      33.501  21.431  24.602  1.00  0.00     0.122 A 
ATOM     12  C   UNL A   1      32.134  21.670  24.783  1.00  0.00     0.047 A 
ATOM     13  C   UNL A   1      31.634  22.969  24.694  1.00  0.00     0.016 A 
ATOM     14  C   UNL A   1      33.866  23.777  24.219  1.00  0.00     0.020 A 
ATOM     15  C   UNL A   1      32.492  24.031  24.389  1.00  0.00     0.023 A 
BRANCH  11  16
ATOM     16  O   UNL A   1      33.935  20.132  24.558  1.00  0.00    -0.496 OA
ATOM     17  C   UNL A   1      33.126  19.280  25.365  1.00  0.00     0.278 C 
ENDBRANCH  11  16
BRANCH  15  18
ATOM     18  C   UNL A   1      31.915  25.408  24.301  1.00  0.00     0.193 C 
ATOM     19  O   UNL A   1      31.074  25.676  23.448  1.00  0.00    -0.289 OA
BRANCH  18  20
ATOM     20  C   UNL A   1      32.299  26.459  25.268  1.00  0.00     0.022 A 
ATOM     21  C   UNL A   1      31.296  27.047  26.042  1.00  0.00     0.012 A 
ATOM     22  C   UNL A   1      33.636  26.836  25.440  1.00  0.00     0.012 A 
ATOM     23  C   UNL A   1      31.638  27.958  27.041  1.00  0.00     0.001 A 
ATOM     24  C   UNL A   1      33.976  27.736  26.450  1.00  0.00     0.001 A 
ATOM     25  C   UNL A   1      32.979  28.286  27.256  1.00  0.00     0.000 A 
ENDBRANCH  18  20
ENDBRANCH  15  18
ENDBRANCH   8  10
ENDBRANCH   6   8
ENDBRANCH   5   6
ENDBRANCH   4   5
ENDBRANCH   3   4
ENDBRANCH   2   3
ENDBRANCH   1   2
BRANCH   1  26
ATOM     26  C   UNL A   1      42.429  19.442  25.799  1.00  0.00     0.188 C 
BRANCH  26  27
ATOM     27  O   UNL A   1      43.351  20.251  25.099  1.00  0.00    -0.376 OA
BRANCH  27  28
ATOM     28  C   UNL A   1      43.525  21.564  25.608  1.00  0.00     0.202 C 
BRANCH  28  29
ATOM     29  C   UNL A   1      43.925  22.618  24.562  1.00  0.00     0.261 C 
BRANCH  29  30
ATOM     30  O   UNL A   1      43.342  23.926  24.742  1.00  0.00    -0.460 OA
BRANCH  30  31
ATOM     31  C   UNL A   1      44.164  24.919  25.149  1.00  0.00     0.338 C 
ATOM     32  O   UNL A   1      45.213  25.268  24.625  1.00  0.00    -0.246 OA
BRANCH  31  33
ATOM     33  C   UNL A   1      43.479  25.674  26.221  1.00  0.00     0.060 A 
ATOM     34  C   UNL A   1      43.897  26.981  26.509  1.00  0.00     0.016 A 
ATOM     35  C   UNL A   1      42.434  25.099  26.945  1.00  0.00     0.016 A 
ATOM     36  C   UNL A   1      43.276  27.712  27.525  1.00  0.00     0.010 A 
ATOM     37  C   UNL A   1      41.830  25.824  27.982  1.00  0.00     0.010 A 
ATOM     38  C   UNL A   1      42.259  27.128  28.291  1.00  0.00    -0.014 A 
BRANCH  38  39
ATOM     39  C   UNL A   1      41.782  27.803  29.526  1.00  0.00     0.031 A 
ATOM     40  C   UNL A   1      40.559  28.676  29.438  1.00  0.00     0.074 A 
ATOM     41  C   UNL A   1      42.388  27.628  30.715  1.00  0.00     0.049 A 
ATOM     42  N   UNL A   1      40.015  29.443  30.347  1.00  0.00    -0.248 NA
ATOM     43  C   UNL A   1      39.856  28.677  28.147  1.00  0.00     0.031 C 
ATOM     44  C   UNL A   1      43.529  26.751  30.966  1.00  0.00     0.029 A 
ATOM     45  N   UNL A   1      42.124  28.196  31.940  1.00  0.00    -0.354 N 
ATOM     46  C   UNL A   1      38.918  30.034  29.733  1.00  0.00     0.074 A 
ATOM     47  C   UNL A   1      38.884  29.548  28.370  1.00  0.00     0.031 C 
ATOM     48  C   UNL A   1      43.879  26.852  32.261  1.00  0.00     0.029 A 
ATOM     49  C   UNL A   1      43.018  27.834  32.919  1.00  0.00     0.049 A 
ATOM     50  H   UNL A   1      41.366  28.803  32.100  1.00  0.00     0.167 HD
ATOM     51  C   UNL A   1      38.017  30.901  30.255  1.00  0.00     0.037 A 
ATOM     52  C   UNL A   1      43.149  28.275  34.188  1.00  0.00     0.037 A 
ATOM     53  C   UNL A   1      38.047  31.386  31.609  1.00  0.00     0.049 A 
ATOM     54  C   UNL A   1      42.199  29.321  34.716  1.00  0.00     0.074 A 
ATOM     55  C   UNL A   1      37.177  32.268  32.227  1.00  0.00     0.029 A 
ATOM     56  N   UNL A   1      38.999  31.035  32.553  1.00  0.00    -0.354 N 
ATOM     57  N   UNL A   1      41.171  29.883  34.126  1.00  0.00    -0.248 NA
ATOM     58  C   UNL A   1      42.433  29.800  36.088  1.00  0.00     0.031 C 
ATOM     59  C   UNL A   1      37.637  32.495  33.528  1.00  0.00     0.029 A 
ATOM     60  C   UNL A   1      38.755  31.706  33.741  1.00  0.00     0.049 A 
ATOM     61  H   UNL A   1      39.739  30.403  32.403  1.00  0.00     0.167 HD
ATOM     62  C   UNL A   1      40.621  30.754  35.062  1.00  0.00     0.074 A 
ATOM     63  C   UNL A   1      41.420  30.637  36.263  1.00  0.00     0.031 C 
ATOM     64  C   UNL A   1      39.548  31.575  34.937  1.00  0.00     0.037 A 
BRANCH  51  65
ATOM     65  C   UNL A   1      36.949  31.419  29.336  1.00  0.00     0.057 A 
ATOM     66  C   UNL A   1      35.848  30.640  28.959  1.00  0.00     0.134 A 
ATOM     67  C   UNL A   1      37.016  32.727  28.840  1.00  0.00     0.134 A 
ATOM     68  F   UNL A   1      35.734  29.374  29.385  1.00  0.00    -0.206 F 
ATOM     69  C   UNL A   1      34.866  31.135  28.099  1.00  0.00     0.040 A 
ATOM     70  C   UNL A   1      36.025  33.244  28.004  1.00  0.00     0.040 A 
ATOM     71  F   UNL A   1      38.042  33.529  29.165  1.00  0.00    -0.206 F 
ATOM     72  C   UNL A   1      34.950  32.443  27.625  1.00  0.00     0.006 A 
ENDBRANCH  51  65
BRANCH  52  73
ATOM     73  C   UNL A   1      44.251  27.767  35.048  1.00  0.00     0.057 A 
ATOM     74  C   UNL A   1      44.034  26.751  35.986  1.00  0.00     0.134 A 
ATOM     75  C   UNL A   1      45.535  28.322  34.989  1.00  0.00     0.134 A 
ATOM     76  F   UNL A   1      42.817  26.201  36.116  1.00  0.00    -0.206 F 
ATOM     77  C   UNL A   1      45.046  26.318  36.845  1.00  0.00     0.040 A 
ATOM     78  C   UNL A   1      46.565  27.878  35.820  1.00  0.00     0.040 A 
ATOM     79  F   UNL A   1      45.810  29.306  34.119  1.00  0.00    -0.206 F 
ATOM     80  C   UNL A   1      46.318  26.879  36.760  1.00  0.00     0.006 A 
ENDBRANCH  52  73
BRANCH  64  81
ATOM     81  C   UNL A   1      39.142  32.379  36.140  1.00  0.00     0.057 A 
ATOM     82  C   UNL A   1      38.295  31.863  37.129  1.00  0.00     0.134 A 
ATOM     83  C   UNL A   1      39.650  33.671  36.336  1.00  0.00     0.134 A 
ATOM     84  F   UNL A   1      37.766  30.638  37.001  1.00  0.00    -0.206 F 
ATOM     85  C   UNL A   1      37.948  32.613  38.255  1.00  0.00     0.040 A 
ATOM     86  C   UNL A   1      39.334  34.418  37.473  1.00  0.00     0.040 A 
ATOM     87  F   UNL A   1      40.476  34.222  35.435  1.00  0.00    -0.206 F 
ATOM     88  C   UNL A   1      38.474  33.890  38.434  1.00  0.00     0.006 A 
ENDBRANCH  64  81
ENDBRANCH  38  39
ENDBRANCH  31  33
ENDBRANCH  30  31
ENDBRANCH  29  30
ENDBRANCH  28  29
ENDBRANCH  27  28
ENDBRANCH  26  27
ENDBRANCH   1  26
TORSDOF 21
ENDMDL
MODEL 3
REMARK VINA RESULT:     -10.6      1.077      3.631
REMARK SMILES COc1ccc(C(=O)c2ccccc2)cc1[C@@H](C)C(=O)OCCOCCOCCOC(=O)c1ccc(-c2c3nc(c(-c4c(F)cccc4F)c4ccc([nH]4)c(-c4c(F)cccc4F)c4nc(c(-c5c(F)cccc5F)c5ccc2[nH]5)C=C4)C=C3)cc1
REMARK SMILES IDX 25 1 24 2 23 3 22 4 21 5 19 6 20 7 17 8 18 9 16 10 3 11 4 12
REMARK SMILES IDX 5 13 15 14 6 15 2 16 1 17 7 18 8 19 9 20 10 21 14 22 11 23
REMARK SMILES IDX 13 24 12 25 26 26 27 27 28 28 29 29 30 30 31 31 32 32 33 33
REMARK SMILES IDX 34 34 86 35 35 36 85 37 36 38 37 39 38 40 79 41 39 42 84 43
REMARK SMILES IDX 78 44 80 45 40 46 83 47 77 48 76 49 41 51 67 52 50 53 66 54
REMARK SMILES IDX 51 55 54 56 65 57 81 58 52 59 53 60 64 62 82 63 55 64 42 65
REMARK SMILES IDX 43 66 48 67 44 68 45 69 47 70 49 71 46 72 68 73 69 74 74 75
REMARK SMILES IDX 70 76 71 77 73 78 75 79 72 80 56 81 57 82 62 83 58 84 59 85
REMARK SMILES IDX 61 86 63 87 60 88
REMARK H PARENT 80 50 54 61
REMARK Flexibility Score: inf
ROOT
ATOM      1  C   UNL A   1      31.028  29.670  24.625  1.00  0.00     0.188 C 
ENDROOT
BRANCH   1   2
ATOM      2  O   UNL A   1      31.527  28.959  23.501  1.00  0.00    -0.376 OA
BRANCH   2   3
ATOM      3  C   UNL A   1      30.632  28.157  22.740  1.00  0.00     0.202 C 
BRANCH   3   4
ATOM      4  C   UNL A   1      31.021  26.700  22.446  1.00  0.00     0.261 C 
BRANCH   4   5
ATOM      5  O   UNL A   1      32.364  26.496  21.950  1.00  0.00    -0.463 OA
BRANCH   5   6
ATOM      6  C   UNL A   1      33.186  25.726  22.710  1.00  0.00     0.313 C 
ATOM      7  O   UNL A   1      34.039  24.979  22.235  1.00  0.00    -0.252 OA
BRANCH   6   8
ATOM      8  C   UNL A   1      32.977  25.810  24.224  1.00  0.00     0.130 C 
ATOM      9  C   UNL A   1      34.030  26.736  24.826  1.00  0.00     0.025 C 
BRANCH   8  10
ATOM     10  C   UNL A   1      32.865  24.538  25.061  1.00  0.00     0.009 A 
ATOM     11  C   UNL A   1      31.944  24.444  26.120  1.00  0.00     0.122 A 
ATOM     12  C   UNL A   1      31.831  23.280  26.888  1.00  0.00     0.047 A 
ATOM     13  C   UNL A   1      32.647  22.181  26.616  1.00  0.00     0.016 A 
ATOM     14  C   UNL A   1      33.699  23.428  24.828  1.00  0.00     0.020 A 
ATOM     15  C   UNL A   1      33.603  22.254  25.598  1.00  0.00     0.023 A 
BRANCH  11  16
ATOM     16  O   UNL A   1      31.228  25.548  26.502  1.00  0.00    -0.496 OA
ATOM     17  C   UNL A   1      29.934  25.567  25.906  1.00  0.00     0.278 C 
ENDBRANCH  11  16
BRANCH  15  18
ATOM     18  C   UNL A   1      34.459  21.055  25.340  1.00  0.00     0.193 C 
ATOM     19  O   UNL A   1      35.616  21.017  25.748  1.00  0.00    -0.289 OA
BRANCH  18  20
ATOM     20  C   UNL A   1      33.919  19.869  24.639  1.00  0.00     0.022 A 
ATOM     21  C   UNL A   1      32.729  20.008  23.920  1.00  0.00     0.012 A 
ATOM     22  C   UNL A   1      34.595  18.644  24.656  1.00  0.00     0.012 A 
ATOM     23  C   UNL A   1      32.255  18.941  23.158  1.00  0.00     0.001 A 
ATOM     24  C   UNL A   1      34.126  17.584  23.879  1.00  0.00     0.001 A 
ATOM     25  C   UNL A   1      32.964  17.738  23.123  1.00  0.00     0.000 A 
ENDBRANCH  18  20
ENDBRANCH  15  18
ENDBRANCH   8  10
ENDBRANCH   6   8
ENDBRANCH   5   6
ENDBRANCH   4   5
ENDBRANCH   3   4
ENDBRANCH   2   3
ENDBRANCH   1   2
BRANCH   1  26
ATOM     26  C   UNL A   1      31.830  29.677  25.936  1.00  0.00     0.188 C 
BRANCH  26  27
ATOM     27  O   UNL A   1      32.462  30.898  26.257  1.00  0.00    -0.376 OA
BRANCH  27  28
ATOM     28  C   UNL A   1      31.638  31.873  26.877  1.00  0.00     0.202 C 
BRANCH  28  29
ATOM     29  C   UNL A   1      32.209  33.300  26.876  1.00  0.00     0.261 C 
BRANCH  29  30
ATOM     30  O   UNL A   1      32.239  33.960  28.159  1.00  0.00    -0.460 OA
BRANCH  30  31
ATOM     31  C   UNL A   1      33.318  34.726  28.437  1.00  0.00     0.338 C 
ATOM     32  O   UNL A   1      33.348  35.944  28.545  1.00  0.00    -0.246 OA
BRANCH  31  33
ATOM     33  C   UNL A   1      34.436  33.831  28.807  1.00  0.00     0.060 A 
ATOM     34  C   UNL A   1      34.155  32.616  29.447  1.00  0.00     0.016 A 
ATOM     35  C   UNL A   1      35.757  34.186  28.531  1.00  0.00     0.016 A 
ATOM     36  C   UNL A   1      35.192  31.757  29.819  1.00  0.00     0.010 A 
ATOM     37  C   UNL A   1      36.798  33.336  28.930  1.00  0.00     0.010 A 
ATOM     38  C   UNL A   1      36.524  32.126  29.592  1.00  0.00    -0.014 A 
BRANCH  38  39
ATOM     39  C   UNL A   1      37.625  31.343  30.214  1.00  0.00     0.031 A 
ATOM     40  C   UNL A   1      37.936  31.576  31.668  1.00  0.00     0.074 A 
ATOM     41  C   UNL A   1      38.319  30.418  29.526  1.00  0.00     0.049 A 
ATOM     42  N   UNL A   1      38.907  31.094  32.401  1.00  0.00    -0.248 NA
ATOM     43  C   UNL A   1      37.022  32.473  32.390  1.00  0.00     0.031 C 
ATOM     44  C   UNL A   1      38.076  30.029  28.139  1.00  0.00     0.029 A 
ATOM     45  N   UNL A   1      39.386  29.639  29.912  1.00  0.00    -0.354 N 
ATOM     46  C   UNL A   1      38.733  31.644  33.664  1.00  0.00     0.074 A 
ATOM     47  C   UNL A   1      37.573  32.508  33.594  1.00  0.00     0.031 C 
ATOM     48  C   UNL A   1      38.978  29.098  27.783  1.00  0.00     0.029 A 
ATOM     49  C   UNL A   1      39.892  28.858  28.900  1.00  0.00     0.049 A 
ATOM     50  H   UNL A   1      39.752  29.641  30.825  1.00  0.00     0.167 HD
ATOM     51  C   UNL A   1      39.469  31.449  34.784  1.00  0.00     0.037 A 
ATOM     52  C   UNL A   1      40.988  28.072  28.868  1.00  0.00     0.037 A 
ATOM     53  C   UNL A   1      40.621  30.590  34.859  1.00  0.00     0.049 A 
ATOM     54  C   UNL A   1      41.855  27.951  30.098  1.00  0.00     0.074 A 
ATOM     55  C   UNL A   1      41.431  30.330  35.951  1.00  0.00     0.029 A 
ATOM     56  N   UNL A   1      41.131  29.857  33.799  1.00  0.00    -0.354 N 
ATOM     57  N   UNL A   1      41.691  28.483  31.285  1.00  0.00    -0.248 NA
ATOM     58  C   UNL A   1      43.066  27.124  29.979  1.00  0.00     0.031 C 
ATOM     59  C   UNL A   1      42.465  29.485  35.536  1.00  0.00     0.029 A 
ATOM     60  C   UNL A   1      42.262  29.167  34.203  1.00  0.00     0.049 A 
ATOM     61  H   UNL A   1      40.746  29.831  32.893  1.00  0.00     0.167 HD
ATOM     62  C   UNL A   1      42.756  28.031  32.059  1.00  0.00     0.074 A 
ATOM     63  C   UNL A   1      43.553  27.172  31.211  1.00  0.00     0.031 C 
ATOM     64  C   UNL A   1      43.045  28.303  33.356  1.00  0.00     0.037 A 
BRANCH  51  65
ATOM     65  C   UNL A   1      39.074  32.219  36.011  1.00  0.00     0.057 A 
ATOM     66  C   UNL A   1      39.513  33.528  36.243  1.00  0.00     0.134 A 
ATOM     67  C   UNL A   1      38.221  31.645  36.962  1.00  0.00     0.134 A 
ATOM     68  F   UNL A   1      40.345  34.129  35.379  1.00  0.00    -0.206 F 
ATOM     69  C   UNL A   1      39.141  34.229  37.391  1.00  0.00     0.040 A 
ATOM     70  C   UNL A   1      37.817  32.346  38.099  1.00  0.00     0.040 A 
ATOM     71  F   UNL A   1      37.760  30.396  36.799  1.00  0.00    -0.206 F 
ATOM     72  C   UNL A   1      38.284  33.640  38.320  1.00  0.00     0.006 A 
ENDBRANCH  51  65
BRANCH  52  73
ATOM     73  C   UNL A   1      41.367  27.363  27.618  1.00  0.00     0.057 A 
ATOM     74  C   UNL A   1      41.012  26.026  27.401  1.00  0.00     0.134 A 
ATOM     75  C   UNL A   1      42.137  27.990  26.631  1.00  0.00     0.134 A 
ATOM     76  F   UNL A   1      40.303  25.358  28.324  1.00  0.00    -0.206 F 
ATOM     77  C   UNL A   1      41.424  25.333  26.261  1.00  0.00     0.040 A 
ATOM     78  C   UNL A   1      42.531  27.320  25.471  1.00  0.00     0.040 A 
ATOM     79  F   UNL A   1      42.519  29.268  26.778  1.00  0.00    -0.206 F 
ATOM     80  C   UNL A   1      42.182  25.983  25.289  1.00  0.00     0.006 A 
ENDBRANCH  52  73
BRANCH  64  81
ATOM     81  C   UNL A   1      44.247  27.630  33.957  1.00  0.00     0.057 A 
ATOM     82  C   UNL A   1      44.165  26.382  34.587  1.00  0.00     0.134 A 
ATOM     83  C   UNL A   1      45.515  28.220  33.859  1.00  0.00     0.134 A 
ATOM     84  F   UNL A   1      42.982  25.765  34.725  1.00  0.00    -0.206 F 
ATOM     85  C   UNL A   1      45.295  25.757  35.118  1.00  0.00     0.040 A 
ATOM     86  C   UNL A   1      46.656  27.591  34.359  1.00  0.00     0.040 A 
ATOM     87  F   UNL A   1      45.669  29.409  33.258  1.00  0.00    -0.206 F 
ATOM     88  C   UNL A   1      46.547  26.357  34.997  1.00  0.00     0.006 A 
ENDBRANCH  64  81
ENDBRANCH  38  39
ENDBRANCH  31  33
ENDBRANCH  30  31
ENDBRANCH  29  30
ENDBRANCH  28  29
ENDBRANCH  27  28
ENDBRANCH  26  27
ENDBRANCH   1  26
TORSDOF 21
ENDMDL
