MODEL 1
REMARK VINA RESULT:      -9.1      0.000      0.000
REMARK SMILES O=C(OCCOCCOCCOC(=O)c1cc(Cl)ncc1-c1cccc(C(F)(F)F)c1)c1ccc(-c2c3nc(c(-c4c(F)cccc4F)c4ccc([nH]4)c(-c4c(F)cccc4F)c4nc(c(-c5c(F)cccc5F)c5ccc2[nH]5)C=C4)C=C3)cc1
REMARK SMILES IDX 7 1 6 2 5 3 4 4 3 5 2 6 1 7 32 8 33 9 85 10 34 11 84 12
REMARK SMILES IDX 35 13 36 14 37 15 78 16 38 17 83 18 77 19 79 20 39 21 82 22
REMARK SMILES IDX 76 23 75 24 40 26 66 27 49 28 65 29 50 30 53 31 64 32 80 33
REMARK SMILES IDX 51 34 52 35 63 37 81 38 54 39 41 40 42 41 47 42 43 43 44 44
REMARK SMILES IDX 46 45 48 46 45 47 67 48 68 49 73 50 69 51 70 52 72 53 74 54
REMARK SMILES IDX 71 55 55 56 56 57 61 58 57 59 58 60 60 61 62 62 59 63 8 64
REMARK SMILES IDX 9 65 10 66 11 67 12 68 13 69 14 70 15 71 16 72 21 73 17 74
REMARK SMILES IDX 20 75 18 76 19 77 22 78 23 79 31 80 24 81 26 82 25 83 27 84
REMARK SMILES IDX 28 85 29 86 30 87
REMARK H PARENT 79 25 53 36
REMARK Flexibility Score: inf
ROOT
ATOM      1  C   UNL A   1      33.585  35.159  30.920  1.00  0.00     0.188 C 
ENDROOT
BRANCH   1   2
ATOM      2  O   UNL A   1      34.378  34.915  29.753  1.00  0.00    -0.376 OA
BRANCH   2   3
ATOM      3  C   UNL A   1      33.694  34.758  28.513  1.00  0.00     0.202 C 
BRANCH   3   4
ATOM      4  C   UNL A   1      33.413  33.312  28.101  1.00  0.00     0.261 C 
BRANCH   4   5
ATOM      5  O   UNL A   1      34.435  32.413  28.556  1.00  0.00    -0.460 OA
BRANCH   5   6
ATOM      6  C   UNL A   1      34.742  31.163  28.143  1.00  0.00     0.338 C 
ATOM      7  O   UNL A   1      33.878  30.541  27.527  1.00  0.00    -0.246 OA
BRANCH   6   8
ATOM      8  C   UNL A   1      36.000  30.419  28.503  1.00  0.00     0.060 A 
ATOM      9  C   UNL A   1      36.252  29.713  29.678  1.00  0.00     0.016 A 
ATOM     10  C   UNL A   1      37.012  30.409  27.521  1.00  0.00     0.016 A 
ATOM     11  C   UNL A   1      37.482  29.095  29.896  1.00  0.00     0.010 A 
ATOM     12  C   UNL A   1      38.218  29.727  27.698  1.00  0.00     0.010 A 
ATOM     13  C   UNL A   1      38.482  29.122  28.922  1.00  0.00    -0.014 A 
BRANCH  13  14
ATOM     14  C   UNL A   1      39.837  28.690  29.322  1.00  0.00     0.031 A 
ATOM     15  C   UNL A   1      40.448  29.317  30.541  1.00  0.00     0.074 A 
ATOM     16  C   UNL A   1      40.396  27.615  28.739  1.00  0.00     0.049 A 
ATOM     17  N   UNL A   1      41.425  28.879  31.289  1.00  0.00    -0.248 NA
ATOM     18  C   UNL A   1      39.859  30.585  31.003  1.00  0.00     0.031 C 
ATOM     19  C   UNL A   1      39.867  26.922  27.564  1.00  0.00     0.029 A 
ATOM     20  N   UNL A   1      41.497  26.880  29.096  1.00  0.00    -0.354 N 
ATOM     21  C   UNL A   1      41.519  29.780  32.341  1.00  0.00     0.074 A 
ATOM     22  C   UNL A   1      40.560  30.832  32.096  1.00  0.00     0.031 C 
ATOM     23  C   UNL A   1      40.620  25.837  27.322  1.00  0.00     0.029 A 
ATOM     24  C   UNL A   1      41.685  25.766  28.317  1.00  0.00     0.049 A 
ATOM     25  H   UNL A   1      42.093  27.127  29.839  1.00  0.00     0.167 HD
ATOM     26  C   UNL A   1      42.307  29.716  33.438  1.00  0.00     0.037 A 
ATOM     27  C   UNL A   1      42.599  24.783  28.416  1.00  0.00     0.037 A 
ATOM     28  C   UNL A   1      43.302  28.705  33.643  1.00  0.00     0.049 A 
ATOM     29  C   UNL A   1      43.536  24.790  29.590  1.00  0.00     0.074 A 
ATOM     30  C   UNL A   1      44.216  28.583  34.672  1.00  0.00     0.029 A 
ATOM     31  N   UNL A   1      43.521  27.643  32.777  1.00  0.00    -0.354 N 
ATOM     32  N   UNL A   1      43.584  25.623  30.603  1.00  0.00    -0.248 NA
ATOM     33  C   UNL A   1      44.529  23.710  29.651  1.00  0.00     0.031 C 
ATOM     34  C   UNL A   1      45.014  27.462  34.409  1.00  0.00     0.029 A 
ATOM     35  C   UNL A   1      44.569  26.868  33.238  1.00  0.00     0.049 A 
ATOM     36  H   UNL A   1      43.006  27.467  31.957  1.00  0.00     0.167 HD
ATOM     37  C   UNL A   1      44.599  25.160  31.427  1.00  0.00     0.074 A 
ATOM     38  C   UNL A   1      45.122  23.958  30.808  1.00  0.00     0.031 C 
ATOM     39  C   UNL A   1      45.064  25.680  32.590  1.00  0.00     0.037 A 
BRANCH  26  40
ATOM     40  C   UNL A   1      42.107  30.787  34.465  1.00  0.00     0.057 A 
ATOM     41  C   UNL A   1      42.842  31.980  34.421  1.00  0.00     0.134 A 
ATOM     42  C   UNL A   1      41.222  30.609  35.533  1.00  0.00     0.134 A 
ATOM     43  F   UNL A   1      43.731  32.196  33.439  1.00  0.00    -0.206 F 
ATOM     44  C   UNL A   1      42.721  32.949  35.419  1.00  0.00     0.040 A 
ATOM     45  C   UNL A   1      41.079  31.579  36.527  1.00  0.00     0.040 A 
ATOM     46  F   UNL A   1      40.501  29.483  35.638  1.00  0.00    -0.206 F 
ATOM     47  C   UNL A   1      41.834  32.748  36.476  1.00  0.00     0.006 A 
ENDBRANCH  26  40
BRANCH  27  48
ATOM     48  C   UNL A   1      42.664  23.710  27.393  1.00  0.00     0.057 A 
ATOM     49  C   UNL A   1      42.017  22.481  27.566  1.00  0.00     0.134 A 
ATOM     50  C   UNL A   1      43.412  23.884  26.223  1.00  0.00     0.134 A 
ATOM     51  F   UNL A   1      41.302  22.245  28.676  1.00  0.00    -0.206 F 
ATOM     52  C   UNL A   1      42.127  21.458  26.622  1.00  0.00     0.040 A 
ATOM     53  C   UNL A   1      43.511  22.878  25.259  1.00  0.00     0.040 A 
ATOM     54  F   UNL A   1      44.064  25.035  26.002  1.00  0.00    -0.206 F 
ATOM     55  C   UNL A   1      42.873  21.657  25.462  1.00  0.00     0.006 A 
ENDBRANCH  27  48
BRANCH  39  56
ATOM     56  C   UNL A   1      46.187  24.948  33.255  1.00  0.00     0.057 A 
ATOM     57  C   UNL A   1      47.520  25.333  33.072  1.00  0.00     0.134 A 
ATOM     58  C   UNL A   1      45.927  23.875  34.115  1.00  0.00     0.134 A 
ATOM     59  F   UNL A   1      47.828  26.346  32.249  1.00  0.00    -0.206 F 
ATOM     60  C   UNL A   1      48.562  24.660  33.708  1.00  0.00     0.040 A 
ATOM     61  C   UNL A   1      46.960  23.209  34.775  1.00  0.00     0.040 A 
ATOM     62  F   UNL A   1      44.669  23.465  34.335  1.00  0.00    -0.206 F 
ATOM     63  C   UNL A   1      48.282  23.599  34.567  1.00  0.00     0.006 A 
ENDBRANCH  39  56
ENDBRANCH  13  14
ENDBRANCH   6   8
ENDBRANCH   5   6
ENDBRANCH   4   5
ENDBRANCH   3   4
ENDBRANCH   2   3
ENDBRANCH   1   2
BRANCH   1  64
ATOM     64  C   UNL A   1      34.309  35.605  32.198  1.00  0.00     0.188 C 
BRANCH  64  65
ATOM     65  O   UNL A   1      34.379  34.718  33.308  1.00  0.00    -0.376 OA
BRANCH  65  66
ATOM     66  C   UNL A   1      34.267  33.325  33.077  1.00  0.00     0.202 C 
BRANCH  66  67
ATOM     67  C   UNL A   1      35.577  32.622  33.432  1.00  0.00     0.261 C 
BRANCH  67  68
ATOM     68  O   UNL A   1      36.219  33.180  34.596  1.00  0.00    -0.460 OA
BRANCH  68  69
ATOM     69  C   UNL A   1      37.441  32.678  34.916  1.00  0.00     0.339 C 
ATOM     70  O   UNL A   1      37.798  31.510  34.909  1.00  0.00    -0.246 OA
BRANCH  69  71
ATOM     71  C   UNL A   1      38.265  33.787  35.433  1.00  0.00     0.072 A 
ATOM     72  C   UNL A   1      38.161  34.006  36.814  1.00  0.00     0.057 A 
ATOM     73  C   UNL A   1      39.173  34.526  34.652  1.00  0.00     0.015 A 
ATOM     74  C   UNL A   1      38.969  34.966  37.376  1.00  0.00     0.129 A 
ATOM     75  C   UNL A   1      39.885  35.511  35.346  1.00  0.00     0.122 A 
ATOM     76  Cl  UNL A   1      39.022  35.181  39.075  1.00  0.00    -0.062 Cl
ATOM     77  N   UNL A   1      39.805  35.746  36.676  1.00  0.00    -0.244 NA
BRANCH  73  78
ATOM     78  C   UNL A   1      39.535  34.275  33.244  1.00  0.00    -0.015 A 
ATOM     79  C   UNL A   1      40.844  34.537  32.809  1.00  0.00     0.009 A 
ATOM     80  C   UNL A   1      38.568  33.971  32.263  1.00  0.00     0.021 A 
ATOM     81  C   UNL A   1      41.182  34.512  31.456  1.00  0.00     0.001 A 
ATOM     82  C   UNL A   1      38.893  33.960  30.888  1.00  0.00     0.056 A 
ATOM     83  C   UNL A   1      40.212  34.228  30.501  1.00  0.00     0.013 A 
BRANCH  82  84
ATOM     84  C   UNL A   1      37.864  33.707  29.810  1.00  0.00     0.416 C 
ATOM     85  F   UNL A   1      37.465  34.858  29.196  1.00  0.00    -0.166 F 
ATOM     86  F   UNL A   1      38.332  32.903  28.821  1.00  0.00    -0.166 F 
ATOM     87  F   UNL A   1      36.722  33.140  30.277  1.00  0.00    -0.166 F 
ENDBRANCH  82  84
ENDBRANCH  73  78
ENDBRANCH  69  71
ENDBRANCH  68  69
ENDBRANCH  67  68
ENDBRANCH  66  67
ENDBRANCH  65  66
ENDBRANCH  64  65
ENDBRANCH   1  64
TORSDOF 19
ENDMDL
MODEL 2
REMARK VINA RESULT:      -9.1      4.860     10.717
REMARK SMILES O=C(OCCOCCOCCOC(=O)c1cc(Cl)ncc1-c1cccc(C(F)(F)F)c1)c1ccc(-c2c3nc(c(-c4c(F)cccc4F)c4ccc([nH]4)c(-c4c(F)cccc4F)c4nc(c(-c5c(F)cccc5F)c5ccc2[nH]5)C=C4)C=C3)cc1
REMARK SMILES IDX 7 1 6 2 5 3 4 4 3 5 2 6 1 7 32 8 33 9 85 10 34 11 84 12
REMARK SMILES IDX 35 13 36 14 37 15 78 16 38 17 83 18 77 19 79 20 39 21 82 22
REMARK SMILES IDX 76 23 75 24 40 26 66 27 49 28 65 29 50 30 53 31 64 32 80 33
REMARK SMILES IDX 51 34 52 35 63 37 81 38 54 39 41 40 42 41 47 42 43 43 44 44
REMARK SMILES IDX 46 45 48 46 45 47 67 48 68 49 73 50 69 51 70 52 72 53 74 54
REMARK SMILES IDX 71 55 55 56 56 57 61 58 57 59 58 60 60 61 62 62 59 63 8 64
REMARK SMILES IDX 9 65 10 66 11 67 12 68 13 69 14 70 15 71 16 72 21 73 17 74
REMARK SMILES IDX 20 75 18 76 19 77 22 78 23 79 31 80 24 81 26 82 25 83 27 84
REMARK SMILES IDX 28 85 29 86 30 87
REMARK H PARENT 79 25 53 36
REMARK Flexibility Score: inf
ROOT
ATOM      1  C   UNL A   1      36.665  21.155  24.809  1.00  0.00     0.188 C 
ENDROOT
BRANCH   1   2
ATOM      2  O   UNL A   1      37.405  21.822  25.839  1.00  0.00    -0.376 OA
BRANCH   2   3
ATOM      3  C   UNL A   1      37.067  23.178  26.118  1.00  0.00     0.202 C 
BRANCH   3   4
ATOM      4  C   UNL A   1      38.235  24.165  26.065  1.00  0.00     0.261 C 
BRANCH   4   5
ATOM      5  O   UNL A   1      39.474  23.556  26.458  1.00  0.00    -0.460 OA
BRANCH   5   6
ATOM      6  C   UNL A   1      40.325  23.881  27.457  1.00  0.00     0.338 C 
ATOM      7  O   UNL A   1      40.991  22.973  27.953  1.00  0.00    -0.246 OA
BRANCH   6   8
ATOM      8  C   UNL A   1      40.415  25.235  28.108  1.00  0.00     0.060 A 
ATOM      9  C   UNL A   1      41.389  26.208  27.894  1.00  0.00     0.016 A 
ATOM     10  C   UNL A   1      39.373  25.559  29.001  1.00  0.00     0.016 A 
ATOM     11  C   UNL A   1      41.370  27.413  28.595  1.00  0.00     0.010 A 
ATOM     12  C   UNL A   1      39.301  26.794  29.649  1.00  0.00     0.010 A 
ATOM     13  C   UNL A   1      40.343  27.702  29.497  1.00  0.00    -0.014 A 
BRANCH  13  14
ATOM     14  C   UNL A   1      40.530  28.861  30.394  1.00  0.00     0.031 A 
ATOM     15  C   UNL A   1      39.565  30.005  30.281  1.00  0.00     0.074 A 
ATOM     16  C   UNL A   1      41.396  28.780  31.419  1.00  0.00     0.049 A 
ATOM     17  N   UNL A   1      39.291  30.939  31.152  1.00  0.00    -0.248 NA
ATOM     18  C   UNL A   1      38.777  30.091  29.040  1.00  0.00     0.031 C 
ATOM     19  C   UNL A   1      42.358  27.698  31.628  1.00  0.00     0.029 A 
ATOM     20  N   UNL A   1      41.561  29.593  32.511  1.00  0.00    -0.354 N 
ATOM     21  C   UNL A   1      38.256  31.676  30.592  1.00  0.00     0.074 A 
ATOM     22  C   UNL A   1      38.006  31.138  29.276  1.00  0.00     0.031 C 
ATOM     23  C   UNL A   1      42.984  27.891  32.800  1.00  0.00     0.029 A 
ATOM     24  C   UNL A   1      42.474  29.111  33.416  1.00  0.00     0.049 A 
ATOM     25  H   UNL A   1      41.072  30.438  32.634  1.00  0.00     0.167 HD
ATOM     26  C   UNL A   1      37.548  32.687  31.143  1.00  0.00     0.037 A 
ATOM     27  C   UNL A   1      42.834  29.590  34.622  1.00  0.00     0.037 A 
ATOM     28  C   UNL A   1      37.845  33.260  32.424  1.00  0.00     0.049 A 
ATOM     29  C   UNL A   1      42.103  30.782  35.168  1.00  0.00     0.074 A 
ATOM     30  C   UNL A   1      37.253  34.339  33.049  1.00  0.00     0.029 A 
ATOM     31  N   UNL A   1      38.843  32.797  33.269  1.00  0.00    -0.354 N 
ATOM     32  N   UNL A   1      41.095  31.442  34.649  1.00  0.00    -0.248 NA
ATOM     33  C   UNL A   1      42.539  31.282  36.479  1.00  0.00     0.031 C 
ATOM     34  C   UNL A   1      37.919  34.553  34.263  1.00  0.00     0.029 A 
ATOM     35  C   UNL A   1      38.897  33.581  34.407  1.00  0.00     0.049 A 
ATOM     36  H   UNL A   1      39.426  32.024  33.087  1.00  0.00     0.167 HD
ATOM     37  C   UNL A   1      40.767  32.424  35.572  1.00  0.00     0.074 A 
ATOM     38  C   UNL A   1      41.668  32.255  36.696  1.00  0.00     0.031 C 
ATOM     39  C   UNL A   1      39.812  33.383  35.501  1.00  0.00     0.037 A 
BRANCH  26  40
ATOM     40  C   UNL A   1      36.408  33.221  30.333  1.00  0.00     0.057 A 
ATOM     41  C   UNL A   1      36.621  34.143  29.298  1.00  0.00     0.134 A 
ATOM     42  C   UNL A   1      35.087  32.859  30.617  1.00  0.00     0.134 A 
ATOM     43  F   UNL A   1      37.863  34.554  29.000  1.00  0.00    -0.206 F 
ATOM     44  C   UNL A   1      35.557  34.706  28.591  1.00  0.00     0.040 A 
ATOM     45  C   UNL A   1      34.016  33.401  29.904  1.00  0.00     0.040 A 
ATOM     46  F   UNL A   1      34.817  31.991  31.603  1.00  0.00    -0.206 F 
ATOM     47  C   UNL A   1      34.249  34.332  28.894  1.00  0.00     0.006 A 
ENDBRANCH  26  40
BRANCH  27  48
ATOM     48  C   UNL A   1      43.921  28.938  35.395  1.00  0.00     0.057 A 
ATOM     49  C   UNL A   1      45.269  29.243  35.178  1.00  0.00     0.134 A 
ATOM     50  C   UNL A   1      43.628  27.961  36.354  1.00  0.00     0.134 A 
ATOM     51  F   UNL A   1      45.616  30.154  34.257  1.00  0.00    -0.206 F 
ATOM     52  C   UNL A   1      46.288  28.587  35.873  1.00  0.00     0.040 A 
ATOM     53  C   UNL A   1      44.635  27.315  37.073  1.00  0.00     0.040 A 
ATOM     54  F   UNL A   1      42.356  27.618  36.602  1.00  0.00    -0.206 F 
ATOM     55  C   UNL A   1      45.971  27.621  36.827  1.00  0.00     0.006 A 
ENDBRANCH  27  48
BRANCH  39  56
ATOM     56  C   UNL A   1      39.701  34.312  36.670  1.00  0.00     0.057 A 
ATOM     57  C   UNL A   1      40.338  35.559  36.675  1.00  0.00     0.134 A 
ATOM     58  C   UNL A   1      38.920  33.972  37.780  1.00  0.00     0.134 A 
ATOM     59  F   UNL A   1      41.109  35.933  35.642  1.00  0.00    -0.206 F 
ATOM     60  C   UNL A   1      40.218  36.430  37.756  1.00  0.00     0.040 A 
ATOM     61  C   UNL A   1      38.774  34.845  38.858  1.00  0.00     0.040 A 
ATOM     62  F   UNL A   1      38.281  32.794  37.829  1.00  0.00    -0.206 F 
ATOM     63  C   UNL A   1      39.429  36.076  38.849  1.00  0.00     0.006 A 
ENDBRANCH  39  56
ENDBRANCH  13  14
ENDBRANCH   6   8
ENDBRANCH   5   6
ENDBRANCH   4   5
ENDBRANCH   3   4
ENDBRANCH   2   3
ENDBRANCH   1   2
BRANCH   1  64
ATOM     64  C   UNL A   1      35.327  20.509  25.193  1.00  0.00     0.188 C 
BRANCH  64  65
ATOM     65  O   UNL A   1      34.279  21.323  25.706  1.00  0.00    -0.376 OA
BRANCH  65  66
ATOM     66  C   UNL A   1      33.854  21.128  27.043  1.00  0.00     0.202 C 
BRANCH  66  67
ATOM     67  C   UNL A   1      33.276  22.425  27.609  1.00  0.00     0.261 C 
BRANCH  67  68
ATOM     68  O   UNL A   1      33.653  23.589  26.849  1.00  0.00    -0.460 OA
BRANCH  68  69
ATOM     69  C   UNL A   1      32.639  24.355  26.365  1.00  0.00     0.339 C 
ATOM     70  O   UNL A   1      31.538  24.543  26.860  1.00  0.00    -0.246 OA
BRANCH  69  71
ATOM     71  C   UNL A   1      33.030  24.830  25.025  1.00  0.00     0.072 A 
ATOM     72  C   UNL A   1      33.057  23.842  24.032  1.00  0.00     0.057 A 
ATOM     73  C   UNL A   1      33.268  26.181  24.705  1.00  0.00     0.015 A 
ATOM     74  C   UNL A   1      33.327  24.232  22.741  1.00  0.00     0.129 A 
ATOM     75  C   UNL A   1      33.590  26.423  23.365  1.00  0.00     0.122 A 
ATOM     76  Cl  UNL A   1      33.215  23.116  21.447  1.00  0.00    -0.062 Cl
ATOM     77  N   UNL A   1      33.625  25.490  22.385  1.00  0.00    -0.244 NA
BRANCH  73  78
ATOM     78  C   UNL A   1      33.080  27.345  25.592  1.00  0.00    -0.015 A 
ATOM     79  C   UNL A   1      31.829  27.979  25.643  1.00  0.00     0.009 A 
ATOM     80  C   UNL A   1      34.160  27.975  26.244  1.00  0.00     0.021 A 
ATOM     81  C   UNL A   1      31.654  29.196  26.303  1.00  0.00     0.001 A 
ATOM     82  C   UNL A   1      34.002  29.216  26.899  1.00  0.00     0.056 A 
ATOM     83  C   UNL A   1      32.734  29.812  26.925  1.00  0.00     0.013 A 
BRANCH  82  84
ATOM     84  C   UNL A   1      35.155  29.949  27.546  1.00  0.00     0.416 C 
ATOM     85  F   UNL A   1      36.332  29.745  26.886  1.00  0.00    -0.166 F 
ATOM     86  F   UNL A   1      34.972  31.294  27.568  1.00  0.00    -0.166 F 
ATOM     87  F   UNL A   1      35.393  29.558  28.824  1.00  0.00    -0.166 F 
ENDBRANCH  82  84
ENDBRANCH  73  78
ENDBRANCH  69  71
ENDBRANCH  68  69
ENDBRANCH  67  68
ENDBRANCH  66  67
ENDBRANCH  65  66
ENDBRANCH  64  65
ENDBRANCH   1  64
TORSDOF 19
ENDMDL
MODEL 3
REMARK VINA RESULT:      -8.9      5.650     10.225
REMARK SMILES O=C(OCCOCCOCCOC(=O)c1cc(Cl)ncc1-c1cccc(C(F)(F)F)c1)c1ccc(-c2c3nc(c(-c4c(F)cccc4F)c4ccc([nH]4)c(-c4c(F)cccc4F)c4nc(c(-c5c(F)cccc5F)c5ccc2[nH]5)C=C4)C=C3)cc1
REMARK SMILES IDX 7 1 6 2 5 3 4 4 3 5 2 6 1 7 32 8 33 9 85 10 34 11 84 12
REMARK SMILES IDX 35 13 36 14 37 15 78 16 38 17 83 18 77 19 79 20 39 21 82 22
REMARK SMILES IDX 76 23 75 24 40 26 66 27 49 28 65 29 50 30 53 31 64 32 80 33
REMARK SMILES IDX 51 34 52 35 63 37 81 38 54 39 41 40 42 41 47 42 43 43 44 44
REMARK SMILES IDX 46 45 48 46 45 47 67 48 68 49 73 50 69 51 70 52 72 53 74 54
REMARK SMILES IDX 71 55 55 56 56 57 61 58 57 59 58 60 60 61 62 62 59 63 8 64
REMARK SMILES IDX 9 65 10 66 11 67 12 68 13 69 14 70 15 71 16 72 21 73 17 74
REMARK SMILES IDX 20 75 18 76 19 77 22 78 23 79 31 80 24 81 26 82 25 83 27 84
REMARK SMILES IDX 28 85 29 86 30 87
REMARK H PARENT 79 25 53 36
REMARK Flexibility Score: inf
ROOT
ATOM      1  C   UNL A   1      34.184  32.824  27.913  1.00  0.00     0.188 C 
ENDROOT
BRANCH   1   2
ATOM      2  O   UNL A   1      33.271  33.848  28.325  1.00  0.00    -0.376 OA
BRANCH   2   3
ATOM      3  C   UNL A   1      33.566  34.547  29.531  1.00  0.00     0.202 C 
BRANCH   3   4
ATOM      4  C   UNL A   1      34.840  34.099  30.250  1.00  0.00     0.261 C 
BRANCH   4   5
ATOM      5  O   UNL A   1      34.677  32.825  30.891  1.00  0.00    -0.460 OA
BRANCH   5   6
ATOM      6  C   UNL A   1      35.491  32.174  31.753  1.00  0.00     0.338 C 
ATOM      7  O   UNL A   1      35.269  32.312  32.956  1.00  0.00    -0.246 OA
BRANCH   6   8
ATOM      8  C   UNL A   1      36.731  31.416  31.365  1.00  0.00     0.060 A 
ATOM      9  C   UNL A   1      37.524  30.621  32.192  1.00  0.00     0.016 A 
ATOM     10  C   UNL A   1      37.101  31.494  30.007  1.00  0.00     0.016 A 
ATOM     11  C   UNL A   1      38.672  29.999  31.705  1.00  0.00     0.010 A 
ATOM     12  C   UNL A   1      38.205  30.811  29.492  1.00  0.00     0.010 A 
ATOM     13  C   UNL A   1      39.037  30.113  30.362  1.00  0.00    -0.014 A 
BRANCH  13  14
ATOM     14  C   UNL A   1      40.391  29.663  29.981  1.00  0.00     0.031 A 
ATOM     15  C   UNL A   1      40.552  28.262  29.466  1.00  0.00     0.074 A 
ATOM     16  C   UNL A   1      41.392  30.556  29.892  1.00  0.00     0.049 A 
ATOM     17  N   UNL A   1      41.521  27.755  28.751  1.00  0.00    -0.248 NA
ATOM     18  C   UNL A   1      39.462  27.315  29.760  1.00  0.00     0.031 C 
ATOM     19  C   UNL A   1      41.326  31.945  30.346  1.00  0.00     0.029 A 
ATOM     20  N   UNL A   1      42.638  30.443  29.332  1.00  0.00    -0.354 N 
ATOM     21  C   UNL A   1      41.124  26.458  28.456  1.00  0.00     0.074 A 
ATOM     22  C   UNL A   1      39.871  26.225  29.134  1.00  0.00     0.031 C 
ATOM     23  C   UNL A   1      42.467  32.568  30.007  1.00  0.00     0.029 A 
ATOM     24  C   UNL A   1      43.342  31.622  29.324  1.00  0.00     0.049 A 
ATOM     25  H   UNL A   1      42.993  29.600  28.970  1.00  0.00     0.167 HD
ATOM     26  C   UNL A   1      41.731  25.552  27.657  1.00  0.00     0.037 A 
ATOM     27  C   UNL A   1      44.546  31.909  28.796  1.00  0.00     0.037 A 
ATOM     28  C   UNL A   1      43.007  25.766  27.040  1.00  0.00     0.049 A 
ATOM     29  C   UNL A   1      45.251  30.850  27.999  1.00  0.00     0.074 A 
ATOM     30  C   UNL A   1      43.760  24.893  26.279  1.00  0.00     0.029 A 
ATOM     31  N   UNL A   1      43.728  26.947  27.136  1.00  0.00    -0.354 N 
ATOM     32  N   UNL A   1      44.844  29.642  27.689  1.00  0.00    -0.248 NA
ATOM     33  C   UNL A   1      46.570  31.200  27.456  1.00  0.00     0.031 C 
ATOM     34  C   UNL A   1      44.957  25.537  25.942  1.00  0.00     0.029 A 
ATOM     35  C   UNL A   1      44.929  26.822  26.462  1.00  0.00     0.049 A 
ATOM     36  H   UNL A   1      43.430  27.755  27.613  1.00  0.00     0.167 HD
ATOM     37  C   UNL A   1      45.848  29.092  26.904  1.00  0.00     0.074 A 
ATOM     38  C   UNL A   1      46.871  30.110  26.764  1.00  0.00     0.031 C 
ATOM     39  C   UNL A   1      45.924  27.857  26.350  1.00  0.00     0.037 A 
BRANCH  26  40
ATOM     40  C   UNL A   1      41.004  24.261  27.441  1.00  0.00     0.057 A 
ATOM     41  C   UNL A   1      41.440  23.072  28.042  1.00  0.00     0.134 A 
ATOM     42  C   UNL A   1      39.898  24.189  26.588  1.00  0.00     0.134 A 
ATOM     43  F   UNL A   1      42.516  23.072  28.845  1.00  0.00    -0.206 F 
ATOM     44  C   UNL A   1      40.817  21.851  27.782  1.00  0.00     0.040 A 
ATOM     45  C   UNL A   1      39.254  22.976  26.334  1.00  0.00     0.040 A 
ATOM     46  F   UNL A   1      39.440  25.289  25.972  1.00  0.00    -0.206 F 
ATOM     47  C   UNL A   1      39.718  21.802  26.926  1.00  0.00     0.006 A 
ENDBRANCH  26  40
BRANCH  27  48
ATOM     48  C   UNL A   1      45.151  33.251  28.989  1.00  0.00     0.057 A 
ATOM     49  C   UNL A   1      44.963  34.287  28.069  1.00  0.00     0.134 A 
ATOM     50  C   UNL A   1      45.967  33.513  30.096  1.00  0.00     0.134 A 
ATOM     51  F   UNL A   1      44.209  34.092  26.977  1.00  0.00    -0.206 F 
ATOM     52  C   UNL A   1      45.578  35.530  28.232  1.00  0.00     0.040 A 
ATOM     53  C   UNL A   1      46.569  34.759  30.284  1.00  0.00     0.040 A 
ATOM     54  F   UNL A   1      46.194  32.559  31.010  1.00  0.00    -0.206 F 
ATOM     55  C   UNL A   1      46.382  35.770  29.345  1.00  0.00     0.006 A 
ENDBRANCH  27  48
BRANCH  39  56
ATOM     56  C   UNL A   1      47.151  27.553  25.549  1.00  0.00     0.057 A 
ATOM     57  C   UNL A   1      47.180  27.732  24.161  1.00  0.00     0.134 A 
ATOM     58  C   UNL A   1      48.322  27.114  26.177  1.00  0.00     0.134 A 
ATOM     59  F   UNL A   1      46.083  28.139  23.504  1.00  0.00    -0.206 F 
ATOM     60  C   UNL A   1      48.331  27.466  23.420  1.00  0.00     0.040 A 
ATOM     61  C   UNL A   1      49.485  26.865  25.449  1.00  0.00     0.040 A 
ATOM     62  F   UNL A   1      48.356  26.930  27.505  1.00  0.00    -0.206 F 
ATOM     63  C   UNL A   1      49.489  27.037  24.066  1.00  0.00     0.006 A 
ENDBRANCH  39  56
ENDBRANCH  13  14
ENDBRANCH   6   8
ENDBRANCH   5   6
ENDBRANCH   4   5
ENDBRANCH   3   4
ENDBRANCH   2   3
ENDBRANCH   1   2
BRANCH   1  64
ATOM     64  C   UNL A   1      33.598  31.469  27.493  1.00  0.00     0.188 C 
BRANCH  64  65
ATOM     65  O   UNL A   1      32.312  31.421  26.885  1.00  0.00    -0.376 OA
BRANCH  65  66
ATOM     66  C   UNL A   1      31.797  30.167  26.476  1.00  0.00     0.202 C 
BRANCH  66  67
ATOM     67  C   UNL A   1      32.517  29.034  27.208  1.00  0.00     0.261 C 
BRANCH  67  68
ATOM     68  O   UNL A   1      32.823  27.916  26.354  1.00  0.00    -0.460 OA
BRANCH  68  69
ATOM     69  C   UNL A   1      31.791  27.087  26.043  1.00  0.00     0.339 C 
ATOM     70  O   UNL A   1      30.860  26.746  26.756  1.00  0.00    -0.246 OA
BRANCH  69  71
ATOM     71  C   UNL A   1      32.051  26.522  24.705  1.00  0.00     0.072 A 
ATOM     72  C   UNL A   1      33.164  25.673  24.628  1.00  0.00     0.057 A 
ATOM     73  C   UNL A   1      31.213  26.715  23.591  1.00  0.00     0.015 A 
ATOM     74  C   UNL A   1      33.411  25.042  23.432  1.00  0.00     0.129 A 
ATOM     75  C   UNL A   1      31.621  26.060  22.424  1.00  0.00     0.122 A 
ATOM     76  Cl  UNL A   1      34.649  23.866  23.301  1.00  0.00    -0.062 Cl
ATOM     77  N   UNL A   1      32.689  25.236  22.319  1.00  0.00    -0.244 NA
BRANCH  73  78
ATOM     78  C   UNL A   1      29.911  27.409  23.574  1.00  0.00    -0.015 A 
ATOM     79  C   UNL A   1      28.745  26.700  23.902  1.00  0.00     0.009 A 
ATOM     80  C   UNL A   1      29.760  28.710  23.049  1.00  0.00     0.021 A 
ATOM     81  C   UNL A   1      27.478  27.249  23.706  1.00  0.00     0.001 A 
ATOM     82  C   UNL A   1      28.483  29.270  22.828  1.00  0.00     0.056 A 
ATOM     83  C   UNL A   1      27.347  28.525  23.170  1.00  0.00     0.013 A 
BRANCH  82  84
ATOM     84  C   UNL A   1      28.288  30.633  22.201  1.00  0.00     0.416 C 
ATOM     85  F   UNL A   1      29.473  31.269  21.970  1.00  0.00    -0.166 F 
ATOM     86  F   UNL A   1      27.661  30.569  20.998  1.00  0.00    -0.166 F 
ATOM     87  F   UNL A   1      27.573  31.485  22.979  1.00  0.00    -0.166 F 
ENDBRANCH  82  84
ENDBRANCH  73  78
ENDBRANCH  69  71
ENDBRANCH  68  69
ENDBRANCH  67  68
ENDBRANCH  66  67
ENDBRANCH  65  66
ENDBRANCH  64  65
ENDBRANCH   1  64
TORSDOF 19
ENDMDL
