MODEL 1
REMARK VINA RESULT:     -10.8      0.000      0.000
REMARK SMILES Cc1ncccc1C(=O)Nc1cnccc1C(=O)OCCOCCOCCOC(=O)c1ccc(-c2c3nc(c(-c4c(F)cccc4F)c4ccc([nH]4)c(-c4c(F)cccc4F)c4nc(c(-c5c(F)cccc5F)c5ccc2[nH]5)C=C4)C=C3)cc1
REMARK SMILES IDX 23 1 22 2 21 3 20 4 19 5 17 6 18 7 16 8 11 9 12 10 13 11
REMARK SMILES IDX 15 12 14 13 10 14 8 15 9 16 7 18 1 19 2 20 3 21 4 22 6 23
REMARK SMILES IDX 5 24 24 25 25 26 26 27 27 28 28 29 29 30 30 31 31 32 32 33
REMARK SMILES IDX 84 34 33 35 83 36 34 37 35 38 36 39 77 40 37 41 82 42 76 43
REMARK SMILES IDX 78 44 38 45 81 46 75 47 74 48 39 50 65 51 48 52 64 53 49 54
REMARK SMILES IDX 52 55 63 56 79 57 50 58 51 59 62 61 80 62 53 63 40 64 41 65
REMARK SMILES IDX 46 66 42 67 43 68 45 69 47 70 44 71 66 72 67 73 72 74 68 75
REMARK SMILES IDX 69 76 71 77 73 78 70 79 54 80 55 81 60 82 56 83 57 84 59 85
REMARK SMILES IDX 61 86 58 87
REMARK H PARENT 10 17 78 49 52 60
REMARK Flexibility Score: inf
ROOT
ATOM      1  C   UNL A   1      40.381  21.310  26.808  1.00  0.00     0.188 C 
ENDROOT
BRANCH   1   2
ATOM      2  O   UNL A   1      39.327  21.828  26.030  1.00  0.00    -0.376 OA
BRANCH   2   3
ATOM      3  C   UNL A   1      38.766  23.088  26.337  1.00  0.00     0.202 C 
BRANCH   3   4
ATOM      4  C   UNL A   1      37.325  23.488  26.005  1.00  0.00     0.261 C 
BRANCH   4   5
ATOM      5  O   UNL A   1      36.397  22.441  25.688  1.00  0.00    -0.460 OA
BRANCH   5   6
ATOM      6  C   UNL A   1      35.997  22.393  24.390  1.00  0.00     0.340 C 
ATOM      7  O   UNL A   1      36.685  22.654  23.416  1.00  0.00    -0.246 OA
BRANCH   6   8
ATOM      8  C   UNL A   1      34.661  21.763  24.267  1.00  0.00     0.086 A 
ATOM      9  C   UNL A   1      33.590  22.263  23.521  1.00  0.00     0.074 A 
ATOM     10  C   UNL A   1      32.354  21.650  23.744  1.00  0.00     0.138 A 
ATOM     11  N   UNL A   1      32.150  20.562  24.524  1.00  0.00    -0.263 NA
ATOM     12  C   UNL A   1      34.480  20.617  25.064  1.00  0.00     0.038 A 
ATOM     13  C   UNL A   1      33.226  20.048  25.143  1.00  0.00     0.112 A 
BRANCH   9  14
ATOM     14  N   UNL A   1      33.603  23.259  22.523  1.00  0.00    -0.320 N 
ATOM     15  C   UNL A   1      33.251  24.587  22.498  1.00  0.00     0.257 C 
ATOM     16  O   UNL A   1      33.280  25.169  21.412  1.00  0.00    -0.269 OA
ATOM     17  H   UNL A   1      33.937  22.931  21.657  1.00  0.00     0.170 HD
BRANCH  15  18
ATOM     18  C   UNL A   1      32.851  25.368  23.688  1.00  0.00     0.061 A 
ATOM     19  C   UNL A   1      30.308  25.053  23.511  1.00  0.00     0.067 C 
ATOM     20  C   UNL A   1      31.549  25.629  24.121  1.00  0.00     0.050 A 
ATOM     21  N   UNL A   1      31.297  26.489  25.148  1.00  0.00    -0.261 NA
ATOM     22  C   UNL A   1      32.344  27.067  25.776  1.00  0.00     0.111 A 
ATOM     23  C   UNL A   1      33.913  25.899  24.440  1.00  0.00     0.017 A 
ATOM     24  C   UNL A   1      33.661  26.778  25.485  1.00  0.00     0.021 A 
ENDBRANCH  15  18
ENDBRANCH   9  14
ENDBRANCH   6   8
ENDBRANCH   5   6
ENDBRANCH   4   5
ENDBRANCH   3   4
ENDBRANCH   2   3
ENDBRANCH   1   2
BRANCH   1  25
ATOM     25  C   UNL A   1      41.139  20.062  26.305  1.00  0.00     0.188 C 
BRANCH  25  26
ATOM     26  O   UNL A   1      42.477  19.833  26.682  1.00  0.00    -0.376 OA
BRANCH  26  27
ATOM     27  C   UNL A   1      43.493  19.949  25.703  1.00  0.00     0.202 C 
BRANCH  27  28
ATOM     28  C   UNL A   1      44.071  21.308  25.260  1.00  0.00     0.261 C 
BRANCH  28  29
ATOM     29  O   UNL A   1      43.841  22.430  26.129  1.00  0.00    -0.460 OA
BRANCH  29  30
ATOM     30  C   UNL A   1      43.992  23.660  25.565  1.00  0.00     0.338 C 
ATOM     31  O   UNL A   1      44.470  23.916  24.480  1.00  0.00    -0.246 OA
BRANCH  30  32
ATOM     32  C   UNL A   1      43.265  24.665  26.381  1.00  0.00     0.060 A 
ATOM     33  C   UNL A   1      43.692  26.004  26.343  1.00  0.00     0.016 A 
ATOM     34  C   UNL A   1      42.186  24.297  27.184  1.00  0.00     0.016 A 
ATOM     35  C   UNL A   1      43.058  26.973  27.124  1.00  0.00     0.010 A 
ATOM     36  C   UNL A   1      41.577  25.262  27.995  1.00  0.00     0.010 A 
ATOM     37  C   UNL A   1      42.030  26.596  27.994  1.00  0.00    -0.014 A 
BRANCH  37  38
ATOM     38  C   UNL A   1      41.600  27.521  29.075  1.00  0.00     0.031 A 
ATOM     39  C   UNL A   1      42.349  27.473  30.380  1.00  0.00     0.074 A 
ATOM     40  C   UNL A   1      40.586  28.389  28.918  1.00  0.00     0.049 A 
ATOM     41  N   UNL A   1      42.111  28.100  31.503  1.00  0.00    -0.248 NA
ATOM     42  C   UNL A   1      43.523  26.587  30.420  1.00  0.00     0.031 C 
ATOM     43  C   UNL A   1      39.817  28.585  27.691  1.00  0.00     0.029 A 
ATOM     44  N   UNL A   1      40.021  29.262  29.815  1.00  0.00    -0.354 N 
ATOM     45  C   UNL A   1      43.097  27.675  32.386  1.00  0.00     0.074 A 
ATOM     46  C   UNL A   1      43.914  26.713  31.678  1.00  0.00     0.031 C 
ATOM     47  C   UNL A   1      38.866  29.510  27.920  1.00  0.00     0.029 A 
ATOM     48  C   UNL A   1      38.934  29.939  29.317  1.00  0.00     0.049 A 
ATOM     49  H   UNL A   1      40.362  29.390  30.730  1.00  0.00     0.167 HD
ATOM     50  C   UNL A   1      43.309  28.053  33.669  1.00  0.00     0.037 A 
ATOM     51  C   UNL A   1      38.080  30.784  29.928  1.00  0.00     0.037 A 
ATOM     52  C   UNL A   1      42.491  28.999  34.379  1.00  0.00     0.049 A 
ATOM     53  C   UNL A   1      38.272  31.114  31.388  1.00  0.00     0.074 A 
ATOM     54  C   UNL A   1      42.626  29.450  35.680  1.00  0.00     0.029 A 
ATOM     55  N   UNL A   1      41.375  29.631  33.850  1.00  0.00    -0.354 N 
ATOM     56  N   UNL A   1      39.210  30.717  32.213  1.00  0.00    -0.248 NA
ATOM     57  C   UNL A   1      37.280  32.011  32.002  1.00  0.00     0.031 C 
ATOM     58  C   UNL A   1      41.558  30.310  35.958  1.00  0.00     0.029 A 
ATOM     59  C   UNL A   1      40.795  30.446  34.809  1.00  0.00     0.049 A 
ATOM     60  H   UNL A   1      41.044  29.517  32.930  1.00  0.00     0.167 HD
ATOM     61  C   UNL A   1      38.944  31.343  33.428  1.00  0.00     0.074 A 
ATOM     62  C   UNL A   1      37.760  32.151  33.229  1.00  0.00     0.031 C 
ATOM     63  C   UNL A   1      39.623  31.257  34.600  1.00  0.00     0.037 A 
BRANCH  50  64
ATOM     64  C   UNL A   1      44.454  27.403  34.394  1.00  0.00     0.057 A 
ATOM     65  C   UNL A   1      44.307  26.191  35.082  1.00  0.00     0.134 A 
ATOM     66  C   UNL A   1      45.721  27.999  34.401  1.00  0.00     0.134 A 
ATOM     67  F   UNL A   1      43.115  25.575  35.130  1.00  0.00    -0.206 F 
ATOM     68  C   UNL A   1      45.371  25.614  35.780  1.00  0.00     0.040 A 
ATOM     69  C   UNL A   1      46.800  27.415  35.067  1.00  0.00     0.040 A 
ATOM     70  F   UNL A   1      45.934  29.159  33.760  1.00  0.00    -0.206 F 
ATOM     71  C   UNL A   1      46.622  26.224  35.767  1.00  0.00     0.006 A 
ENDBRANCH  50  64
BRANCH  51  72
ATOM     72  C   UNL A   1      36.947  31.378  29.170  1.00  0.00     0.057 A 
ATOM     73  C   UNL A   1      35.821  30.617  28.836  1.00  0.00     0.134 A 
ATOM     74  C   UNL A   1      36.975  32.709  28.734  1.00  0.00     0.134 A 
ATOM     75  F   UNL A   1      35.747  29.328  29.198  1.00  0.00    -0.206 F 
ATOM     76  C   UNL A   1      34.772  31.149  28.084  1.00  0.00     0.040 A 
ATOM     77  C   UNL A   1      35.920  33.263  28.005  1.00  0.00     0.040 A 
ATOM     78  F   UNL A   1      38.028  33.492  29.014  1.00  0.00    -0.206 F 
ATOM     79  C   UNL A   1      34.818  32.480  27.672  1.00  0.00     0.006 A 
ENDBRANCH  51  72
BRANCH  63  80
ATOM     80  C   UNL A   1      39.138  32.098  35.748  1.00  0.00     0.057 A 
ATOM     81  C   UNL A   1      39.533  33.432  35.917  1.00  0.00     0.134 A 
ATOM     82  C   UNL A   1      38.224  31.577  36.673  1.00  0.00     0.134 A 
ATOM     83  F   UNL A   1      40.413  33.993  35.073  1.00  0.00    -0.206 F 
ATOM     84  C   UNL A   1      39.056  34.207  36.977  1.00  0.00     0.040 A 
ATOM     85  C   UNL A   1      37.717  32.351  37.719  1.00  0.00     0.040 A 
ATOM     86  F   UNL A   1      37.792  30.310  36.566  1.00  0.00    -0.206 F 
ATOM     87  C   UNL A   1      38.138  33.668  37.877  1.00  0.00     0.006 A 
ENDBRANCH  63  80
ENDBRANCH  37  38
ENDBRANCH  30  32
ENDBRANCH  29  30
ENDBRANCH  28  29
ENDBRANCH  27  28
ENDBRANCH  26  27
ENDBRANCH  25  26
ENDBRANCH   1  25
TORSDOF 19
ENDMDL
MODEL 2
REMARK VINA RESULT:     -10.6      3.798      5.804
REMARK SMILES Cc1ncccc1C(=O)Nc1cnccc1C(=O)OCCOCCOCCOC(=O)c1ccc(-c2c3nc(c(-c4c(F)cccc4F)c4ccc([nH]4)c(-c4c(F)cccc4F)c4nc(c(-c5c(F)cccc5F)c5ccc2[nH]5)C=C4)C=C3)cc1
REMARK SMILES IDX 23 1 22 2 21 3 20 4 19 5 17 6 18 7 16 8 11 9 12 10 13 11
REMARK SMILES IDX 15 12 14 13 10 14 8 15 9 16 7 18 1 19 2 20 3 21 4 22 6 23
REMARK SMILES IDX 5 24 24 25 25 26 26 27 27 28 28 29 29 30 30 31 31 32 32 33
REMARK SMILES IDX 84 34 33 35 83 36 34 37 35 38 36 39 77 40 37 41 82 42 76 43
REMARK SMILES IDX 78 44 38 45 81 46 75 47 74 48 39 50 65 51 48 52 64 53 49 54
REMARK SMILES IDX 52 55 63 56 79 57 50 58 51 59 62 61 80 62 53 63 40 64 41 65
REMARK SMILES IDX 46 66 42 67 43 68 45 69 47 70 44 71 66 72 67 73 72 74 68 75
REMARK SMILES IDX 69 76 71 77 73 78 70 79 54 80 55 81 60 82 56 83 57 84 59 85
REMARK SMILES IDX 61 86 58 87
REMARK H PARENT 10 17 78 49 52 60
REMARK Flexibility Score: inf
ROOT
ATOM      1  C   UNL A   1      36.077  23.876  25.464  1.00  0.00     0.188 C 
ENDROOT
BRANCH   1   2
ATOM      2  O   UNL A   1      34.682  23.755  25.315  1.00  0.00    -0.376 OA
BRANCH   2   3
ATOM      3  C   UNL A   1      33.810  24.397  26.224  1.00  0.00     0.202 C 
BRANCH   3   4
ATOM      4  C   UNL A   1      32.294  24.500  26.029  1.00  0.00     0.261 C 
BRANCH   4   5
ATOM      5  O   UNL A   1      31.578  25.445  26.835  1.00  0.00    -0.460 OA
BRANCH   5   6
ATOM      6  C   UNL A   1      30.828  26.346  26.146  1.00  0.00     0.340 C 
ATOM      7  O   UNL A   1      29.714  26.151  25.688  1.00  0.00    -0.246 OA
BRANCH   6   8
ATOM      8  C   UNL A   1      31.436  27.697  26.199  1.00  0.00     0.086 A 
ATOM      9  C   UNL A   1      31.482  28.611  25.143  1.00  0.00     0.074 A 
ATOM     10  C   UNL A   1      32.317  29.716  25.330  1.00  0.00     0.138 A 
ATOM     11  N   UNL A   1      32.976  30.013  26.475  1.00  0.00    -0.263 NA
ATOM     12  C   UNL A   1      32.092  27.995  27.408  1.00  0.00     0.038 A 
ATOM     13  C   UNL A   1      32.823  29.161  27.502  1.00  0.00     0.112 A 
BRANCH   9  14
ATOM     14  N   UNL A   1      30.745  28.603  23.941  1.00  0.00    -0.320 N 
ATOM     15  C   UNL A   1      30.846  27.895  22.767  1.00  0.00     0.257 C 
ATOM     16  O   UNL A   1      30.093  28.207  21.842  1.00  0.00    -0.269 OA
ATOM     17  H   UNL A   1      29.997  29.242  23.943  1.00  0.00     0.170 HD
BRANCH  15  18
ATOM     18  C   UNL A   1      31.787  26.777  22.543  1.00  0.00     0.061 A 
ATOM     19  C   UNL A   1      33.922  28.152  22.155  1.00  0.00     0.067 C 
ATOM     20  C   UNL A   1      33.142  26.875  22.218  1.00  0.00     0.050 A 
ATOM     21  N   UNL A   1      33.877  25.776  21.885  1.00  0.00    -0.261 NA
ATOM     22  C   UNL A   1      33.277  24.567  21.910  1.00  0.00     0.111 A 
ATOM     23  C   UNL A   1      31.232  25.493  22.668  1.00  0.00     0.017 A 
ATOM     24  C   UNL A   1      31.976  24.371  22.327  1.00  0.00     0.021 A 
ENDBRANCH  15  18
ENDBRANCH   9  14
ENDBRANCH   6   8
ENDBRANCH   5   6
ENDBRANCH   4   5
ENDBRANCH   3   4
ENDBRANCH   2   3
ENDBRANCH   1   2
BRANCH   1  25
ATOM     25  C   UNL A   1      37.000  23.222  24.411  1.00  0.00     0.188 C 
BRANCH  25  26
ATOM     26  O   UNL A   1      37.310  21.849  24.480  1.00  0.00    -0.376 OA
BRANCH  26  27
ATOM     27  C   UNL A   1      38.298  21.416  25.398  1.00  0.00     0.202 C 
BRANCH  27  28
ATOM     28  C   UNL A   1      39.090  20.105  25.211  1.00  0.00     0.261 C 
BRANCH  28  29
ATOM     29  O   UNL A   1      39.858  19.640  26.334  1.00  0.00    -0.460 OA
BRANCH  29  30
ATOM     30  C   UNL A   1      41.207  19.612  26.160  1.00  0.00     0.338 C 
ATOM     31  O   UNL A   1      41.854  18.773  25.568  1.00  0.00    -0.246 OA
BRANCH  30  32
ATOM     32  C   UNL A   1      41.786  20.904  26.607  1.00  0.00     0.060 A 
ATOM     33  C   UNL A   1      41.780  21.208  27.980  1.00  0.00     0.016 A 
ATOM     34  C   UNL A   1      42.314  21.813  25.691  1.00  0.00     0.016 A 
ATOM     35  C   UNL A   1      42.281  22.429  28.437  1.00  0.00     0.010 A 
ATOM     36  C   UNL A   1      42.779  23.052  26.147  1.00  0.00     0.010 A 
ATOM     37  C   UNL A   1      42.734  23.379  27.517  1.00  0.00    -0.014 A 
BRANCH  37  38
ATOM     38  C   UNL A   1      42.925  24.790  27.944  1.00  0.00     0.031 A 
ATOM     39  C   UNL A   1      44.326  25.246  28.258  1.00  0.00     0.074 A 
ATOM     40  C   UNL A   1      41.902  25.656  28.046  1.00  0.00     0.049 A 
ATOM     41  N   UNL A   1      44.744  26.387  28.740  1.00  0.00    -0.248 NA
ATOM     42  C   UNL A   1      45.397  24.272  27.995  1.00  0.00     0.031 C 
ATOM     43  C   UNL A   1      40.509  25.368  27.714  1.00  0.00     0.029 A 
ATOM     44  N   UNL A   1      41.885  26.960  28.478  1.00  0.00    -0.354 N 
ATOM     45  C   UNL A   1      46.124  26.264  28.852  1.00  0.00     0.074 A 
ATOM     46  C   UNL A   1      46.467  24.926  28.417  1.00  0.00     0.031 C 
ATOM     47  C   UNL A   1      39.768  26.463  27.973  1.00  0.00     0.029 A 
ATOM     48  C   UNL A   1      40.627  27.510  28.524  1.00  0.00     0.049 A 
ATOM     49  H   UNL A   1      42.699  27.454  28.730  1.00  0.00     0.167 HD
ATOM     50  C   UNL A   1      47.028  27.180  29.272  1.00  0.00     0.037 A 
ATOM     51  C   UNL A   1      40.218  28.709  28.986  1.00  0.00     0.037 A 
ATOM     52  C   UNL A   1      46.689  28.505  29.717  1.00  0.00     0.049 A 
ATOM     53  C   UNL A   1      41.229  29.678  29.547  1.00  0.00     0.074 A 
ATOM     54  C   UNL A   1      47.533  29.509  30.159  1.00  0.00     0.029 A 
ATOM     55  N   UNL A   1      45.399  29.008  29.787  1.00  0.00    -0.354 N 
ATOM     56  N   UNL A   1      42.531  29.559  29.640  1.00  0.00    -0.248 NA
ATOM     57  C   UNL A   1      40.708  30.951  30.070  1.00  0.00     0.031 C 
ATOM     58  C   UNL A   1      46.749  30.598  30.553  1.00  0.00     0.029 A 
ATOM     59  C   UNL A   1      45.421  30.298  30.294  1.00  0.00     0.049 A 
ATOM     60  H   UNL A   1      44.587  28.521  29.518  1.00  0.00     0.167 HD
ATOM     61  C   UNL A   1      42.987  30.751  30.195  1.00  0.00     0.074 A 
ATOM     62  C   UNL A   1      41.822  31.583  30.410  1.00  0.00     0.031 C 
ATOM     63  C   UNL A   1      44.257  31.124  30.494  1.00  0.00     0.037 A 
BRANCH  50  64
ATOM     64  C   UNL A   1      48.469  26.755  29.307  1.00  0.00     0.057 A 
ATOM     65  C   UNL A   1      49.334  26.970  28.225  1.00  0.00     0.134 A 
ATOM     66  C   UNL A   1      48.998  26.127  30.441  1.00  0.00     0.134 A 
ATOM     67  F   UNL A   1      48.887  27.551  27.101  1.00  0.00    -0.206 F 
ATOM     68  C   UNL A   1      50.663  26.541  28.257  1.00  0.00     0.040 A 
ATOM     69  C   UNL A   1      50.333  25.724  30.498  1.00  0.00     0.040 A 
ATOM     70  F   UNL A   1      48.227  25.894  31.515  1.00  0.00    -0.206 F 
ATOM     71  C   UNL A   1      51.166  25.922  29.399  1.00  0.00     0.006 A 
ENDBRANCH  50  64
BRANCH  51  72
ATOM     72  C   UNL A   1      38.775  29.068  28.953  1.00  0.00     0.057 A 
ATOM     73  C   UNL A   1      38.182  29.580  27.793  1.00  0.00     0.134 A 
ATOM     74  C   UNL A   1      37.963  28.939  30.088  1.00  0.00     0.134 A 
ATOM     75  F   UNL A   1      38.914  29.756  26.684  1.00  0.00    -0.206 F 
ATOM     76  C   UNL A   1      36.841  29.966  27.764  1.00  0.00     0.040 A 
ATOM     77  C   UNL A   1      36.612  29.294  30.064  1.00  0.00     0.040 A 
ATOM     78  F   UNL A   1      38.469  28.462  31.234  1.00  0.00    -0.206 F 
ATOM     79  C   UNL A   1      36.050  29.816  28.902  1.00  0.00     0.006 A 
ENDBRANCH  51  72
BRANCH  63  80
ATOM     80  C   UNL A   1      44.467  32.510  31.038  1.00  0.00     0.057 A 
ATOM     81  C   UNL A   1      44.502  32.776  32.414  1.00  0.00     0.134 A 
ATOM     82  C   UNL A   1      44.685  33.588  30.169  1.00  0.00     0.134 A 
ATOM     83  F   UNL A   1      44.292  31.793  33.302  1.00  0.00    -0.206 F 
ATOM     84  C   UNL A   1      44.721  34.066  32.903  1.00  0.00     0.040 A 
ATOM     85  C   UNL A   1      44.936  34.876  30.647  1.00  0.00     0.040 A 
ATOM     86  F   UNL A   1      44.678  33.404  28.840  1.00  0.00    -0.206 F 
ATOM     87  C   UNL A   1      44.947  35.119  32.018  1.00  0.00     0.006 A 
ENDBRANCH  63  80
ENDBRANCH  37  38
ENDBRANCH  30  32
ENDBRANCH  29  30
ENDBRANCH  28  29
ENDBRANCH  27  28
ENDBRANCH  26  27
ENDBRANCH  25  26
ENDBRANCH   1  25
TORSDOF 19
ENDMDL
MODEL 3
REMARK VINA RESULT:     -10.4      3.794      8.943
REMARK SMILES Cc1ncccc1C(=O)Nc1cnccc1C(=O)OCCOCCOCCOC(=O)c1ccc(-c2c3nc(c(-c4c(F)cccc4F)c4ccc([nH]4)c(-c4c(F)cccc4F)c4nc(c(-c5c(F)cccc5F)c5ccc2[nH]5)C=C4)C=C3)cc1
REMARK SMILES IDX 23 1 22 2 21 3 20 4 19 5 17 6 18 7 16 8 11 9 12 10 13 11
REMARK SMILES IDX 15 12 14 13 10 14 8 15 9 16 7 18 1 19 2 20 3 21 4 22 6 23
REMARK SMILES IDX 5 24 24 25 25 26 26 27 27 28 28 29 29 30 30 31 31 32 32 33
REMARK SMILES IDX 84 34 33 35 83 36 34 37 35 38 36 39 77 40 37 41 82 42 76 43
REMARK SMILES IDX 78 44 38 45 81 46 75 47 74 48 39 50 65 51 48 52 64 53 49 54
REMARK SMILES IDX 52 55 63 56 79 57 50 58 51 59 62 61 80 62 53 63 40 64 41 65
REMARK SMILES IDX 46 66 42 67 43 68 45 69 47 70 44 71 66 72 67 73 72 74 68 75
REMARK SMILES IDX 69 76 71 77 73 78 70 79 54 80 55 81 60 82 56 83 57 84 59 85
REMARK SMILES IDX 61 86 58 87
REMARK H PARENT 10 17 78 49 52 60
REMARK Flexibility Score: inf
ROOT
ATOM      1  C   UNL A   1      34.913  31.828  28.682  1.00  0.00     0.188 C 
ENDROOT
BRANCH   1   2
ATOM      2  O   UNL A   1      34.314  31.530  27.443  1.00  0.00    -0.376 OA
BRANCH   2   3
ATOM      3  C   UNL A   1      33.360  30.492  27.344  1.00  0.00     0.202 C 
BRANCH   3   4
ATOM      4  C   UNL A   1      33.717  29.003  27.301  1.00  0.00     0.261 C 
BRANCH   4   5
ATOM      5  O   UNL A   1      32.788  28.110  26.671  1.00  0.00    -0.460 OA
BRANCH   5   6
ATOM      6  C   UNL A   1      32.734  28.190  25.315  1.00  0.00     0.340 C 
ATOM      7  O   UNL A   1      33.690  28.309  24.565  1.00  0.00    -0.246 OA
BRANCH   6   8
ATOM      8  C   UNL A   1      31.371  27.893  24.817  1.00  0.00     0.086 A 
ATOM      9  C   UNL A   1      30.611  26.766  25.143  1.00  0.00     0.074 A 
ATOM     10  C   UNL A   1      29.465  26.560  24.371  1.00  0.00     0.138 A 
ATOM     11  N   UNL A   1      28.990  27.413  23.434  1.00  0.00    -0.263 NA
ATOM     12  C   UNL A   1      30.885  28.808  23.864  1.00  0.00     0.038 A 
ATOM     13  C   UNL A   1      29.694  28.537  23.222  1.00  0.00     0.112 A 
BRANCH   9  14
ATOM     14  N   UNL A   1      30.811  25.845  26.192  1.00  0.00    -0.320 N 
ATOM     15  C   UNL A   1      31.655  24.775  26.372  1.00  0.00     0.257 C 
ATOM     16  O   UNL A   1      31.504  24.088  27.385  1.00  0.00    -0.269 OA
ATOM     17  H   UNL A   1      30.218  26.003  26.961  1.00  0.00     0.170 HD
BRANCH  15  18
ATOM     18  C   UNL A   1      32.739  24.399  25.440  1.00  0.00     0.061 A 
ATOM     19  C   UNL A   1      31.307  23.273  23.628  1.00  0.00     0.067 C 
ATOM     20  C   UNL A   1      32.608  23.686  24.245  1.00  0.00     0.050 A 
ATOM     21  N   UNL A   1      33.697  23.265  23.543  1.00  0.00    -0.261 NA
ATOM     22  C   UNL A   1      34.926  23.583  24.006  1.00  0.00     0.111 A 
ATOM     23  C   UNL A   1      34.027  24.807  25.825  1.00  0.00     0.017 A 
ATOM     24  C   UNL A   1      35.140  24.377  25.114  1.00  0.00     0.021 A 
ENDBRANCH  15  18
ENDBRANCH   9  14
ENDBRANCH   6   8
ENDBRANCH   5   6
ENDBRANCH   4   5
ENDBRANCH   3   4
ENDBRANCH   2   3
ENDBRANCH   1   2
BRANCH   1  25
ATOM     25  C   UNL A   1      35.298  33.292  28.994  1.00  0.00     0.188 C 
BRANCH  25  26
ATOM     26  O   UNL A   1      34.513  34.359  28.513  1.00  0.00    -0.376 OA
BRANCH  26  27
ATOM     27  C   UNL A   1      33.296  34.664  29.170  1.00  0.00     0.202 C 
BRANCH  27  28
ATOM     28  C   UNL A   1      32.917  36.096  29.598  1.00  0.00     0.261 C 
BRANCH  28  29
ATOM     29  O   UNL A   1      33.266  36.492  30.935  1.00  0.00    -0.460 OA
BRANCH  29  30
ATOM     30  C   UNL A   1      32.817  35.681  31.932  1.00  0.00     0.338 C 
ATOM     31  O   UNL A   1      31.665  35.397  32.185  1.00  0.00    -0.246 OA
BRANCH  30  32
ATOM     32  C   UNL A   1      33.972  34.982  32.552  1.00  0.00     0.060 A 
ATOM     33  C   UNL A   1      35.243  35.577  32.473  1.00  0.00     0.016 A 
ATOM     34  C   UNL A   1      33.812  33.753  33.189  1.00  0.00     0.016 A 
ATOM     35  C   UNL A   1      36.361  34.934  33.010  1.00  0.00     0.010 A 
ATOM     36  C   UNL A   1      34.939  33.092  33.693  1.00  0.00     0.010 A 
ATOM     37  C   UNL A   1      36.222  33.663  33.576  1.00  0.00    -0.014 A 
BRANCH  37  38
ATOM     38  C   UNL A   1      37.426  32.825  33.817  1.00  0.00     0.031 A 
ATOM     39  C   UNL A   1      38.211  33.070  35.079  1.00  0.00     0.074 A 
ATOM     40  C   UNL A   1      37.820  31.868  32.960  1.00  0.00     0.049 A 
ATOM     41  N   UNL A   1      39.343  32.548  35.473  1.00  0.00    -0.248 NA
ATOM     42  C   UNL A   1      37.636  34.046  36.019  1.00  0.00     0.031 C 
ATOM     43  C   UNL A   1      37.122  31.482  31.736  1.00  0.00     0.029 A 
ATOM     44  N   UNL A   1      38.925  31.052  32.992  1.00  0.00    -0.354 N 
ATOM     45  C   UNL A   1      39.623  33.141  36.698  1.00  0.00     0.074 A 
ATOM     46  C   UNL A   1      38.560  34.085  36.966  1.00  0.00     0.031 C 
ATOM     47  C   UNL A   1      37.828  30.514  31.123  1.00  0.00     0.029 A 
ATOM     48  C   UNL A   1      39.044  30.241  31.889  1.00  0.00     0.049 A 
ATOM     49  H   UNL A   1      39.571  31.049  33.734  1.00  0.00     0.167 HD
ATOM     50  C   UNL A   1      40.668  32.918  37.531  1.00  0.00     0.037 A 
ATOM     51  C   UNL A   1      40.034  29.400  31.529  1.00  0.00     0.037 A 
ATOM     52  C   UNL A   1      41.733  31.990  37.261  1.00  0.00     0.049 A 
ATOM     53  C   UNL A   1      41.240  29.242  32.422  1.00  0.00     0.074 A 
ATOM     54  C   UNL A   1      42.835  31.690  38.044  1.00  0.00     0.029 A 
ATOM     55  N   UNL A   1      41.837  31.219  36.114  1.00  0.00    -0.354 N 
ATOM     56  N   UNL A   1      41.494  29.797  33.582  1.00  0.00    -0.248 NA
ATOM     57  C   UNL A   1      42.302  28.338  31.949  1.00  0.00     0.031 C 
ATOM     58  C   UNL A   1      43.635  30.783  37.343  1.00  0.00     0.029 A 
ATOM     59  C   UNL A   1      42.999  30.466  36.153  1.00  0.00     0.049 A 
ATOM     60  H   UNL A   1      41.182  31.209  35.379  1.00  0.00     0.167 HD
ATOM     61  C   UNL A   1      42.721  29.284  33.994  1.00  0.00     0.074 A 
ATOM     62  C   UNL A   1      43.155  28.367  32.962  1.00  0.00     0.031 C 
ATOM     63  C   UNL A   1      43.420  29.546  35.127  1.00  0.00     0.037 A 
BRANCH  50  64
ATOM     64  C   UNL A   1      40.722  33.730  38.795  1.00  0.00     0.057 A 
ATOM     65  C   UNL A   1      40.025  33.353  39.951  1.00  0.00     0.134 A 
ATOM     66  C   UNL A   1      41.485  34.902  38.855  1.00  0.00     0.134 A 
ATOM     67  F   UNL A   1      39.261  32.250  39.956  1.00  0.00    -0.206 F 
ATOM     68  C   UNL A   1      40.058  34.133  41.109  1.00  0.00     0.040 A 
ATOM     69  C   UNL A   1      41.552  35.672  40.017  1.00  0.00     0.040 A 
ATOM     70  F   UNL A   1      42.181  35.320  37.785  1.00  0.00    -0.206 F 
ATOM     71  C   UNL A   1      40.828  35.292  41.145  1.00  0.00     0.006 A 
ENDBRANCH  50  64
BRANCH  51  72
ATOM     72  C   UNL A   1      39.943  28.641  30.254  1.00  0.00     0.057 A 
ATOM     73  C   UNL A   1      40.504  29.140  29.073  1.00  0.00     0.134 A 
ATOM     74  C   UNL A   1      39.265  27.417  30.177  1.00  0.00     0.134 A 
ATOM     75  F   UNL A   1      41.139  30.321  29.075  1.00  0.00    -0.206 F 
ATOM     76  C   UNL A   1      40.384  28.460  27.859  1.00  0.00     0.040 A 
ATOM     77  C   UNL A   1      39.162  26.712  28.976  1.00  0.00     0.040 A 
ATOM     78  F   UNL A   1      38.698  26.886  31.270  1.00  0.00    -0.206 F 
ATOM     79  C   UNL A   1      39.716  27.238  27.811  1.00  0.00     0.006 A 
ENDBRANCH  51  72
BRANCH  63  80
ATOM     80  C   UNL A   1      44.704  28.795  35.343  1.00  0.00     0.057 A 
ATOM     81  C   UNL A   1      45.944  29.300  34.927  1.00  0.00     0.134 A 
ATOM     82  C   UNL A   1      44.704  27.568  36.020  1.00  0.00     0.134 A 
ATOM     83  F   UNL A   1      46.017  30.465  34.266  1.00  0.00    -0.206 F 
ATOM     84  C   UNL A   1      47.131  28.600  35.156  1.00  0.00     0.040 A 
ATOM     85  C   UNL A   1      45.888  26.874  36.281  1.00  0.00     0.040 A 
ATOM     86  F   UNL A   1      43.555  27.030  36.457  1.00  0.00    -0.206 F 
ATOM     87  C   UNL A   1      47.106  27.387  35.842  1.00  0.00     0.006 A 
ENDBRANCH  63  80
ENDBRANCH  37  38
ENDBRANCH  30  32
ENDBRANCH  29  30
ENDBRANCH  28  29
ENDBRANCH  27  28
ENDBRANCH  26  27
ENDBRANCH  25  26
ENDBRANCH   1  25
TORSDOF 19
ENDMDL
