MODEL 1
REMARK VINA RESULT:      -8.9      0.000      0.000
REMARK SMILES CCCCOc1ccc(-c2nc(C)c(C(=O)OCCOCCOCCOC(=O)c3ccc(-c4c5nc(c(-c6c(F)cccc6F)c6ccc([nH]6)c(-c6c(F)cccc6F)c6nc(c(-c7c(F)cccc7F)c7ccc4[nH]7)C=C6)C=C5)cc3)s2)cc1OC
REMARK SMILES IDX 20 1 19 2 18 3 17 4 15 5 16 6 14 7 10 8 11 9 83 10 12 11
REMARK SMILES IDX 13 12 9 13 6 14 7 15 85 16 8 17 84 18 5 19 4 20 3 21 2 22
REMARK SMILES IDX 1 23 86 24 87 25 21 26 22 27 23 28 24 29 25 30 26 31 27 32
REMARK SMILES IDX 28 33 29 34 30 35 82 36 31 37 81 38 32 39 33 40 34 41 75 42
REMARK SMILES IDX 35 43 80 44 74 45 76 46 36 47 79 48 73 49 72 50 37 52 63 53
REMARK SMILES IDX 46 54 62 55 47 56 50 57 61 58 77 59 48 60 49 61 60 63 78 64
REMARK SMILES IDX 51 65 38 66 39 67 44 68 40 69 41 70 43 71 45 72 42 73 64 74
REMARK SMILES IDX 65 75 70 76 66 77 67 78 69 79 71 80 68 81 52 82 53 83 58 84
REMARK SMILES IDX 54 85 55 86 57 87 59 88 56 89
REMARK H PARENT 76 51 50 62
REMARK Flexibility Score: inf
ROOT
ATOM      1  O   UNL A   1      30.860  25.773  25.329  1.00  0.00    -0.376 OA
ENDROOT
BRANCH   1   2
ATOM      2  C   UNL A   1      30.451  24.687  26.151  1.00  0.00     0.202 C 
BRANCH   2   3
ATOM      3  C   UNL A   1      31.282  23.402  26.089  1.00  0.00     0.261 C 
BRANCH   3   4
ATOM      4  O   UNL A   1      32.667  23.635  25.782  1.00  0.00    -0.459 OA
BRANCH   4   5
ATOM      5  C   UNL A   1      33.146  22.984  24.679  1.00  0.00     0.350 C 
ATOM      6  O   UNL A   1      32.592  22.980  23.592  1.00  0.00    -0.245 OA
BRANCH   5   7
ATOM      7  C   UNL A   1      34.447  22.407  24.953  1.00  0.00     0.135 A 
ATOM      8  C   UNL A   1      36.788  22.177  25.593  1.00  0.00     0.124 A 
ATOM      9  N   UNL A   1      36.279  20.995  25.316  1.00  0.00    -0.240 NA
ATOM     10  S   UNL A   1      35.712  23.493  25.380  1.00  0.00    -0.106 S 
ATOM     11  C   UNL A   1      34.932  21.107  24.971  1.00  0.00     0.064 A 
ATOM     12  C   UNL A   1      34.220  19.840  24.643  1.00  0.00     0.068 C 
BRANCH   8  13
ATOM     13  C   UNL A   1      38.170  22.434  26.006  1.00  0.00     0.014 A 
ATOM     14  C   UNL A   1      40.821  22.918  26.830  1.00  0.00     0.161 A 
ATOM     15  C   UNL A   1      39.840  23.907  26.977  1.00  0.00     0.051 A 
ATOM     16  C   UNL A   1      40.467  21.662  26.321  1.00  0.00     0.161 A 
ATOM     17  C   UNL A   1      38.527  23.671  26.553  1.00  0.00     0.015 A 
ATOM     18  C   UNL A   1      39.157  21.443  25.881  1.00  0.00     0.061 A 
BRANCH  14  19
ATOM     19  O   UNL A   1      42.106  23.156  27.234  1.00  0.00    -0.490 OA
BRANCH  19  20
ATOM     20  C   UNL A   1      42.561  22.330  28.313  1.00  0.00     0.230 C 
BRANCH  20  21
ATOM     21  C   UNL A   1      43.324  23.162  29.350  1.00  0.00     0.041 C 
BRANCH  21  22
ATOM     22  C   UNL A   1      44.653  23.746  28.862  1.00  0.00     0.000 C 
ATOM     23  C   UNL A   1      45.275  24.739  29.832  1.00  0.00     0.004 C 
ENDBRANCH  21  22
ENDBRANCH  20  21
ENDBRANCH  19  20
ENDBRANCH  14  19
BRANCH  16  24
ATOM     24  O   UNL A   1      41.298  20.590  26.121  1.00  0.00    -0.493 OA
ATOM     25  C   UNL A   1      40.684  19.306  26.137  1.00  0.00     0.278 C 
ENDBRANCH  16  24
ENDBRANCH   8  13
ENDBRANCH   5   7
ENDBRANCH   4   5
ENDBRANCH   3   4
ENDBRANCH   2   3
ENDBRANCH   1   2
BRANCH   1  26
ATOM     26  C   UNL A   1      29.963  26.303  24.360  1.00  0.00     0.188 C 
BRANCH  26  27
ATOM     27  C   UNL A   1      30.134  27.746  23.846  1.00  0.00     0.188 C 
BRANCH  27  28
ATOM     28  O   UNL A   1      30.882  28.594  24.701  1.00  0.00    -0.376 OA
BRANCH  28  29
ATOM     29  C   UNL A   1      31.984  29.263  24.101  1.00  0.00     0.202 C 
BRANCH  29  30
ATOM     30  C   UNL A   1      33.214  29.385  25.008  1.00  0.00     0.261 C 
BRANCH  30  31
ATOM     31  O   UNL A   1      32.923  29.511  26.410  1.00  0.00    -0.460 OA
BRANCH  31  32
ATOM     32  C   UNL A   1      33.170  30.711  26.980  1.00  0.00     0.338 C 
ATOM     33  O   UNL A   1      32.396  31.642  27.104  1.00  0.00    -0.246 OA
BRANCH  32  34
ATOM     34  C   UNL A   1      34.516  30.651  27.585  1.00  0.00     0.060 A 
ATOM     35  C   UNL A   1      35.020  29.415  28.009  1.00  0.00     0.016 A 
ATOM     36  C   UNL A   1      35.275  31.815  27.731  1.00  0.00     0.016 A 
ATOM     37  C   UNL A   1      36.283  29.346  28.601  1.00  0.00     0.010 A 
ATOM     38  C   UNL A   1      36.531  31.745  28.339  1.00  0.00     0.010 A 
ATOM     39  C   UNL A   1      37.031  30.515  28.801  1.00  0.00    -0.014 A 
BRANCH  39  40
ATOM     40  C   UNL A   1      38.255  30.488  29.637  1.00  0.00     0.031 A 
ATOM     41  C   UNL A   1      39.494  29.844  29.077  1.00  0.00     0.074 A 
ATOM     42  C   UNL A   1      38.273  31.016  30.873  1.00  0.00     0.049 A 
ATOM     43  N   UNL A   1      40.660  29.653  29.639  1.00  0.00    -0.248 NA
ATOM     44  C   UNL A   1      39.400  29.344  27.696  1.00  0.00     0.031 C 
ATOM     45  C   UNL A   1      37.153  31.691  31.523  1.00  0.00     0.029 A 
ATOM     46  N   UNL A   1      39.278  31.050  31.808  1.00  0.00    -0.354 N 
ATOM     47  C   UNL A   1      41.437  29.014  28.682  1.00  0.00     0.074 A 
ATOM     48  C   UNL A   1      40.603  28.822  27.515  1.00  0.00     0.031 C 
ATOM     49  C   UNL A   1      37.528  32.065  32.759  1.00  0.00     0.029 A 
ATOM     50  C   UNL A   1      38.905  31.630  32.996  1.00  0.00     0.049 A 
ATOM     51  H   UNL A   1      40.181  30.694  31.643  1.00  0.00     0.167 HD
ATOM     52  C   UNL A   1      42.733  28.629  28.761  1.00  0.00     0.037 A 
ATOM     53  C   UNL A   1      39.591  31.773  34.147  1.00  0.00     0.037 A 
ATOM     54  C   UNL A   1      43.563  28.808  29.923  1.00  0.00     0.049 A 
ATOM     55  C   UNL A   1      41.007  31.267  34.239  1.00  0.00     0.074 A 
ATOM     56  C   UNL A   1      44.893  28.462  30.093  1.00  0.00     0.029 A 
ATOM     57  N   UNL A   1      43.140  29.374  31.115  1.00  0.00    -0.354 N 
ATOM     58  N   UNL A   1      41.744  30.693  33.320  1.00  0.00    -0.248 NA
ATOM     59  C   UNL A   1      41.687  31.430  35.533  1.00  0.00     0.031 C 
ATOM     60  C   UNL A   1      45.261  28.781  31.405  1.00  0.00     0.029 A 
ATOM     61  C   UNL A   1      44.175  29.366  32.034  1.00  0.00     0.049 A 
ATOM     62  H   UNL A   1      42.237  29.730  31.282  1.00  0.00     0.167 HD
ATOM     63  C   UNL A   1      42.978  30.453  33.912  1.00  0.00     0.074 A 
ATOM     64  C   UNL A   1      42.895  30.953  35.269  1.00  0.00     0.031 C 
ATOM     65  C   UNL A   1      44.083  29.876  33.379  1.00  0.00     0.037 A 
BRANCH  52  66
ATOM     66  C   UNL A   1      43.321  27.953  27.560  1.00  0.00     0.057 A 
ATOM     67  C   UNL A   1      43.033  26.618  27.251  1.00  0.00     0.134 A 
ATOM     68  C   UNL A   1      44.173  28.650  26.694  1.00  0.00     0.134 A 
ATOM     69  F   UNL A   1      42.237  25.891  28.051  1.00  0.00    -0.206 F 
ATOM     70  C   UNL A   1      43.589  25.992  26.135  1.00  0.00     0.040 A 
ATOM     71  C   UNL A   1      44.716  28.042  25.563  1.00  0.00     0.040 A 
ATOM     72  F   UNL A   1      44.487  29.932  26.933  1.00  0.00    -0.206 F 
ATOM     73  C   UNL A   1      44.430  26.706  25.283  1.00  0.00     0.006 A 
ENDBRANCH  52  66
BRANCH  53  74
ATOM     74  C   UNL A   1      38.949  32.415  35.322  1.00  0.00     0.057 A 
ATOM     75  C   UNL A   1      38.960  33.806  35.484  1.00  0.00     0.134 A 
ATOM     76  C   UNL A   1      38.340  31.653  36.327  1.00  0.00     0.134 A 
ATOM     77  F   UNL A   1      39.555  34.586  34.571  1.00  0.00    -0.206 F 
ATOM     78  C   UNL A   1      38.400  34.414  36.609  1.00  0.00     0.040 A 
ATOM     79  C   UNL A   1      37.757  32.250  37.445  1.00  0.00     0.040 A 
ATOM     80  F   UNL A   1      38.303  30.315  36.233  1.00  0.00    -0.206 F 
ATOM     81  C   UNL A   1      37.792  33.635  37.592  1.00  0.00     0.006 A 
ENDBRANCH  53  74
BRANCH  65  82
ATOM     82  C   UNL A   1      45.303  29.785  34.246  1.00  0.00     0.057 A 
ATOM     83  C   UNL A   1      45.562  28.663  35.044  1.00  0.00     0.134 A 
ATOM     84  C   UNL A   1      46.255  30.813  34.246  1.00  0.00     0.134 A 
ATOM     85  F   UNL A   1      44.685  27.650  35.098  1.00  0.00    -0.206 F 
ATOM     86  C   UNL A   1      46.717  28.576  35.825  1.00  0.00     0.040 A 
ATOM     87  C   UNL A   1      47.424  30.726  35.003  1.00  0.00     0.040 A 
ATOM     88  F   UNL A   1      46.072  31.910  33.496  1.00  0.00    -0.206 F 
ATOM     89  C   UNL A   1      47.654  29.607  35.800  1.00  0.00     0.006 A 
ENDBRANCH  65  82
ENDBRANCH  39  40
ENDBRANCH  32  34
ENDBRANCH  31  32
ENDBRANCH  30  31
ENDBRANCH  29  30
ENDBRANCH  28  29
ENDBRANCH  27  28
ENDBRANCH  26  27
ENDBRANCH   1  26
TORSDOF 23
ENDMDL
MODEL 2
REMARK VINA RESULT:      -8.9      2.021      9.029
REMARK SMILES CCCCOc1ccc(-c2nc(C)c(C(=O)OCCOCCOCCOC(=O)c3ccc(-c4c5nc(c(-c6c(F)cccc6F)c6ccc([nH]6)c(-c6c(F)cccc6F)c6nc(c(-c7c(F)cccc7F)c7ccc4[nH]7)C=C6)C=C5)cc3)s2)cc1OC
REMARK SMILES IDX 20 1 19 2 18 3 17 4 15 5 16 6 14 7 10 8 11 9 83 10 12 11
REMARK SMILES IDX 13 12 9 13 6 14 7 15 85 16 8 17 84 18 5 19 4 20 3 21 2 22
REMARK SMILES IDX 1 23 86 24 87 25 21 26 22 27 23 28 24 29 25 30 26 31 27 32
REMARK SMILES IDX 28 33 29 34 30 35 82 36 31 37 81 38 32 39 33 40 34 41 75 42
REMARK SMILES IDX 35 43 80 44 74 45 76 46 36 47 79 48 73 49 72 50 37 52 63 53
REMARK SMILES IDX 46 54 62 55 47 56 50 57 61 58 77 59 48 60 49 61 60 63 78 64
REMARK SMILES IDX 51 65 38 66 39 67 44 68 40 69 41 70 43 71 45 72 42 73 64 74
REMARK SMILES IDX 65 75 70 76 66 77 67 78 69 79 71 80 68 81 52 82 53 83 58 84
REMARK SMILES IDX 54 85 55 86 57 87 59 88 56 89
REMARK H PARENT 76 51 50 62
REMARK Flexibility Score: inf
ROOT
ATOM      1  O   UNL A   1      42.653  20.982  25.466  1.00  0.00    -0.376 OA
ENDROOT
BRANCH   1   2
ATOM      2  C   UNL A   1      42.361  20.359  26.710  1.00  0.00     0.202 C 
BRANCH   2   3
ATOM      3  C   UNL A   1      40.932  20.488  27.246  1.00  0.00     0.261 C 
BRANCH   3   4
ATOM      4  O   UNL A   1      39.980  20.871  26.239  1.00  0.00    -0.459 OA
BRANCH   4   5
ATOM      5  C   UNL A   1      39.359  22.072  26.438  1.00  0.00     0.350 C 
ATOM      6  O   UNL A   1      39.865  23.016  27.024  1.00  0.00    -0.245 OA
BRANCH   5   7
ATOM      7  C   UNL A   1      38.079  22.103  25.759  1.00  0.00     0.135 A 
ATOM      8  C   UNL A   1      35.993  22.910  24.789  1.00  0.00     0.124 A 
ATOM      9  N   UNL A   1      36.139  21.625  24.540  1.00  0.00    -0.240 NA
ATOM     10  S   UNL A   1      37.240  23.606  25.735  1.00  0.00    -0.106 S 
ATOM     11  C   UNL A   1      37.341  21.153  25.068  1.00  0.00     0.064 A 
ATOM     12  C   UNL A   1      37.645  19.712  24.850  1.00  0.00     0.068 C 
BRANCH   8  13
ATOM     13  C   UNL A   1      34.857  23.735  24.371  1.00  0.00     0.014 A 
ATOM     14  C   UNL A   1      32.653  25.300  23.577  1.00  0.00     0.161 A 
ATOM     15  C   UNL A   1      33.139  24.285  22.744  1.00  0.00     0.051 A 
ATOM     16  C   UNL A   1      33.233  25.501  24.835  1.00  0.00     0.161 A 
ATOM     17  C   UNL A   1      34.243  23.518  23.133  1.00  0.00     0.015 A 
ATOM     18  C   UNL A   1      34.350  24.743  25.205  1.00  0.00     0.061 A 
BRANCH  14  19
ATOM     19  O   UNL A   1      31.581  26.056  23.189  1.00  0.00    -0.490 OA
BRANCH  19  20
ATOM     20  C   UNL A   1      30.342  25.716  23.825  1.00  0.00     0.230 C 
BRANCH  20  21
ATOM     21  C   UNL A   1      29.268  26.765  23.520  1.00  0.00     0.041 C 
BRANCH  21  22
ATOM     22  C   UNL A   1      29.745  28.219  23.578  1.00  0.00     0.000 C 
ATOM     23  C   UNL A   1      28.988  29.147  22.641  1.00  0.00     0.004 C 
ENDBRANCH  21  22
ENDBRANCH  20  21
ENDBRANCH  19  20
ENDBRANCH  14  19
BRANCH  16  24
ATOM     24  O   UNL A   1      32.876  26.440  25.767  1.00  0.00    -0.493 OA
ATOM     25  C   UNL A   1      33.856  27.424  26.078  1.00  0.00     0.278 C 
ENDBRANCH  16  24
ENDBRANCH   8  13
ENDBRANCH   5   7
ENDBRANCH   4   5
ENDBRANCH   3   4
ENDBRANCH   2   3
ENDBRANCH   1   2
BRANCH   1  26
ATOM     26  C   UNL A   1      43.699  21.944  25.386  1.00  0.00     0.188 C 
BRANCH  26  27
ATOM     27  C   UNL A   1      44.608  22.007  24.142  1.00  0.00     0.188 C 
BRANCH  27  28
ATOM     28  O   UNL A   1      45.997  22.027  24.425  1.00  0.00    -0.376 OA
BRANCH  28  29
ATOM     29  C   UNL A   1      46.653  23.271  24.218  1.00  0.00     0.202 C 
BRANCH  29  30
ATOM     30  C   UNL A   1      46.411  24.300  25.329  1.00  0.00     0.261 C 
BRANCH  30  31
ATOM     31  O   UNL A   1      45.301  25.185  25.105  1.00  0.00    -0.460 OA
BRANCH  31  32
ATOM     32  C   UNL A   1      45.558  26.511  25.152  1.00  0.00     0.338 C 
ATOM     33  O   UNL A   1      46.235  27.160  24.377  1.00  0.00    -0.246 OA
BRANCH  32  34
ATOM     34  C   UNL A   1      44.734  27.088  26.234  1.00  0.00     0.060 A 
ATOM     35  C   UNL A   1      44.746  28.473  26.438  1.00  0.00     0.016 A 
ATOM     36  C   UNL A   1      43.954  26.258  27.044  1.00  0.00     0.016 A 
ATOM     37  C   UNL A   1      43.989  29.030  27.471  1.00  0.00     0.010 A 
ATOM     38  C   UNL A   1      43.210  26.816  28.087  1.00  0.00     0.010 A 
ATOM     39  C   UNL A   1      43.244  28.202  28.322  1.00  0.00    -0.014 A 
BRANCH  39  40
ATOM     40  C   UNL A   1      42.634  28.751  29.557  1.00  0.00     0.031 A 
ATOM     41  C   UNL A   1      41.261  29.358  29.472  1.00  0.00     0.074 A 
ATOM     42  C   UNL A   1      43.283  28.722  30.734  1.00  0.00     0.049 A 
ATOM     43  N   UNL A   1      40.551  29.947  30.400  1.00  0.00    -0.248 NA
ATOM     44  C   UNL A   1      40.602  29.296  28.156  1.00  0.00     0.031 C 
ATOM     45  C   UNL A   1      44.604  28.140  30.960  1.00  0.00     0.029 A 
ATOM     46  N   UNL A   1      42.914  29.211  31.963  1.00  0.00    -0.354 N 
ATOM     47  C   UNL A   1      39.364  30.322  29.783  1.00  0.00     0.074 A 
ATOM     48  C   UNL A   1      39.461  29.923  28.396  1.00  0.00     0.031 C 
ATOM     49  C   UNL A   1      44.941  28.316  32.249  1.00  0.00     0.029 A 
ATOM     50  C   UNL A   1      43.874  29.047  32.931  1.00  0.00     0.049 A 
ATOM     51  H   UNL A   1      42.044  29.639  32.134  1.00  0.00     0.167 HD
ATOM     52  C   UNL A   1      38.285  30.936  30.324  1.00  0.00     0.037 A 
ATOM     53  C   UNL A   1      43.893  29.459  34.215  1.00  0.00     0.037 A 
ATOM     54  C   UNL A   1      38.188  31.345  31.701  1.00  0.00     0.049 A 
ATOM     55  C   UNL A   1      42.713  30.209  34.775  1.00  0.00     0.074 A 
ATOM     56  C   UNL A   1      37.129  31.962  32.344  1.00  0.00     0.029 A 
ATOM     57  N   UNL A   1      39.192  31.185  32.643  1.00  0.00    -0.354 N 
ATOM     58  N   UNL A   1      41.583  30.532  34.194  1.00  0.00    -0.248 NA
ATOM     59  C   UNL A   1      42.813  30.653  36.174  1.00  0.00     0.031 C 
ATOM     60  C   UNL A   1      37.511  32.214  33.667  1.00  0.00     0.029 A 
ATOM     61  C   UNL A   1      38.788  31.713  33.857  1.00  0.00     0.049 A 
ATOM     62  H   UNL A   1      40.064  30.758  32.473  1.00  0.00     0.167 HD
ATOM     63  C   UNL A   1      40.830  31.188  35.160  1.00  0.00     0.074 A 
ATOM     64  C   UNL A   1      41.626  31.211  36.369  1.00  0.00     0.031 C 
ATOM     65  C   UNL A   1      39.586  31.720  35.056  1.00  0.00     0.037 A 
BRANCH  52  66
ATOM     66  C   UNL A   1      37.131  31.222  29.412  1.00  0.00     0.057 A 
ATOM     67  C   UNL A   1      36.138  30.266  29.159  1.00  0.00     0.134 A 
ATOM     68  C   UNL A   1      37.002  32.471  28.793  1.00  0.00     0.134 A 
ATOM     69  F   UNL A   1      36.214  29.044  29.709  1.00  0.00    -0.206 F 
ATOM     70  C   UNL A   1      35.070  30.535  28.303  1.00  0.00     0.040 A 
ATOM     71  C   UNL A   1      35.926  32.759  27.954  1.00  0.00     0.040 A 
ATOM     72  F   UNL A   1      37.918  33.430  28.996  1.00  0.00    -0.206 F 
ATOM     73  C   UNL A   1      34.958  31.788  27.702  1.00  0.00     0.006 A 
ENDBRANCH  52  66
BRANCH  53  74
ATOM     74  C   UNL A   1      45.077  29.184  35.067  1.00  0.00     0.057 A 
ATOM     75  C   UNL A   1      45.129  28.057  35.895  1.00  0.00     0.134 A 
ATOM     76  C   UNL A   1      46.171  30.059  35.099  1.00  0.00     0.134 A 
ATOM     77  F   UNL A   1      44.100  27.199  35.931  1.00  0.00    -0.206 F 
ATOM     78  C   UNL A   1      46.218  27.816  36.735  1.00  0.00     0.040 A 
ATOM     79  C   UNL A   1      47.275  29.819  35.916  1.00  0.00     0.040 A 
ATOM     80  F   UNL A   1      46.178  31.161  34.333  1.00  0.00    -0.206 F 
ATOM     81  C   UNL A   1      47.298  28.697  36.743  1.00  0.00     0.006 A 
ENDBRANCH  53  74
BRANCH  65  82
ATOM     82  C   UNL A   1      38.994  32.338  36.287  1.00  0.00     0.057 A 
ATOM     83  C   UNL A   1      39.248  33.669  36.643  1.00  0.00     0.134 A 
ATOM     84  C   UNL A   1      38.119  31.606  37.100  1.00  0.00     0.134 A 
ATOM     85  F   UNL A   1      40.086  34.420  35.913  1.00  0.00    -0.206 F 
ATOM     86  C   UNL A   1      38.667  34.244  37.776  1.00  0.00     0.040 A 
ATOM     87  C   UNL A   1      37.513  32.177  38.221  1.00  0.00     0.040 A 
ATOM     88  F   UNL A   1      37.825  30.330  36.810  1.00  0.00    -0.206 F 
ATOM     89  C   UNL A   1      37.791  33.499  38.564  1.00  0.00     0.006 A 
ENDBRANCH  65  82
ENDBRANCH  39  40
ENDBRANCH  32  34
ENDBRANCH  31  32
ENDBRANCH  30  31
ENDBRANCH  29  30
ENDBRANCH  28  29
ENDBRANCH  27  28
ENDBRANCH  26  27
ENDBRANCH   1  26
TORSDOF 23
ENDMDL
MODEL 3
REMARK VINA RESULT:      -8.7      3.758      8.015
REMARK SMILES CCCCOc1ccc(-c2nc(C)c(C(=O)OCCOCCOCCOC(=O)c3ccc(-c4c5nc(c(-c6c(F)cccc6F)c6ccc([nH]6)c(-c6c(F)cccc6F)c6nc(c(-c7c(F)cccc7F)c7ccc4[nH]7)C=C6)C=C5)cc3)s2)cc1OC
REMARK SMILES IDX 20 1 19 2 18 3 17 4 15 5 16 6 14 7 10 8 11 9 83 10 12 11
REMARK SMILES IDX 13 12 9 13 6 14 7 15 85 16 8 17 84 18 5 19 4 20 3 21 2 22
REMARK SMILES IDX 1 23 86 24 87 25 21 26 22 27 23 28 24 29 25 30 26 31 27 32
REMARK SMILES IDX 28 33 29 34 30 35 82 36 31 37 81 38 32 39 33 40 34 41 75 42
REMARK SMILES IDX 35 43 80 44 74 45 76 46 36 47 79 48 73 49 72 50 37 52 63 53
REMARK SMILES IDX 46 54 62 55 47 56 50 57 61 58 77 59 48 60 49 61 60 63 78 64
REMARK SMILES IDX 51 65 38 66 39 67 44 68 40 69 41 70 43 71 45 72 42 73 64 74
REMARK SMILES IDX 65 75 70 76 66 77 67 78 69 79 71 80 68 81 52 82 53 83 58 84
REMARK SMILES IDX 54 85 55 86 57 87 59 88 56 89
REMARK H PARENT 76 51 50 62
REMARK Flexibility Score: inf
ROOT
ATOM      1  O   UNL A   1      32.967  31.628  27.366  1.00  0.00    -0.376 OA
ENDROOT
BRANCH   1   2
ATOM      2  C   UNL A   1      33.479  30.323  27.132  1.00  0.00     0.202 C 
BRANCH   2   3
ATOM      3  C   UNL A   1      32.467  29.196  26.910  1.00  0.00     0.261 C 
BRANCH   3   4
ATOM      4  O   UNL A   1      31.860  29.226  25.606  1.00  0.00    -0.459 OA
BRANCH   4   5
ATOM      5  C   UNL A   1      32.578  28.633  24.606  1.00  0.00     0.350 C 
ATOM      6  O   UNL A   1      33.486  29.177  23.999  1.00  0.00    -0.245 OA
BRANCH   5   7
ATOM      7  C   UNL A   1      32.190  27.245  24.454  1.00  0.00     0.135 A 
ATOM      8  C   UNL A   1      32.251  24.808  24.487  1.00  0.00     0.124 A 
ATOM      9  N   UNL A   1      31.065  25.223  24.096  1.00  0.00    -0.240 NA
ATOM     10  S   UNL A   1      33.384  26.054  24.797  1.00  0.00    -0.106 S 
ATOM     11  C   UNL A   1      31.005  26.617  24.095  1.00  0.00     0.064 A 
ATOM     12  C   UNL A   1      29.712  27.229  23.683  1.00  0.00     0.068 C 
BRANCH   8  13
ATOM     13  C   UNL A   1      32.662  23.408  24.621  1.00  0.00     0.014 A 
ATOM     14  C   UNL A   1      33.463  20.716  24.848  1.00  0.00     0.161 A 
ATOM     15  C   UNL A   1      32.219  21.042  24.293  1.00  0.00     0.051 A 
ATOM     16  C   UNL A   1      34.335  21.738  25.242  1.00  0.00     0.161 A 
ATOM     17  C   UNL A   1      31.816  22.379  24.194  1.00  0.00     0.015 A 
ATOM     18  C   UNL A   1      33.913  23.071  25.159  1.00  0.00     0.061 A 
BRANCH  14  19
ATOM     19  O   UNL A   1      33.849  19.408  24.954  1.00  0.00    -0.490 OA
BRANCH  19  20
ATOM     20  C   UNL A   1      32.807  18.503  25.340  1.00  0.00     0.230 C 
BRANCH  20  21
ATOM     21  C   UNL A   1      33.285  17.050  25.242  1.00  0.00     0.041 C 
BRANCH  21  22
ATOM     22  C   UNL A   1      34.691  16.866  24.663  1.00  0.00     0.000 C 
ATOM     23  C   UNL A   1      35.467  15.723  25.297  1.00  0.00     0.004 C 
ENDBRANCH  21  22
ENDBRANCH  20  21
ENDBRANCH  19  20
ENDBRANCH  14  19
BRANCH  16  24
ATOM     24  O   UNL A   1      35.581  21.592  25.793  1.00  0.00    -0.493 OA
ATOM     25  C   UNL A   1      36.683  21.715  24.901  1.00  0.00     0.278 C 
ENDBRANCH  16  24
ENDBRANCH   8  13
ENDBRANCH   5   7
ENDBRANCH   4   5
ENDBRANCH   3   4
ENDBRANCH   2   3
ENDBRANCH   1   2
BRANCH   1  26
ATOM     26  C   UNL A   1      33.795  32.615  27.971  1.00  0.00     0.188 C 
BRANCH  26  27
ATOM     27  C   UNL A   1      34.604  32.283  29.241  1.00  0.00     0.188 C 
BRANCH  27  28
ATOM     28  O   UNL A   1      34.168  32.952  30.412  1.00  0.00    -0.376 OA
BRANCH  28  29
ATOM     29  C   UNL A   1      35.081  32.953  31.501  1.00  0.00     0.202 C 
BRANCH  29  30
ATOM     30  C   UNL A   1      36.497  32.492  31.134  1.00  0.00     0.261 C 
BRANCH  30  31
ATOM     31  O   UNL A   1      37.068  31.521  32.027  1.00  0.00    -0.460 OA
BRANCH  31  32
ATOM     32  C   UNL A   1      37.183  30.257  31.562  1.00  0.00     0.338 C 
ATOM     33  O   UNL A   1      36.301  29.424  31.463  1.00  0.00    -0.246 OA
BRANCH  32  34
ATOM     34  C   UNL A   1      38.553  30.097  31.035  1.00  0.00     0.060 A 
ATOM     35  C   UNL A   1      38.797  30.345  29.679  1.00  0.00     0.016 A 
ATOM     36  C   UNL A   1      39.592  29.701  31.882  1.00  0.00     0.016 A 
ATOM     37  C   UNL A   1      40.083  30.177  29.162  1.00  0.00     0.010 A 
ATOM     38  C   UNL A   1      40.874  29.517  31.359  1.00  0.00     0.010 A 
ATOM     39  C   UNL A   1      41.121  29.730  29.991  1.00  0.00    -0.014 A 
BRANCH  39  40
ATOM     40  C   UNL A   1      42.423  29.320  29.409  1.00  0.00     0.031 A 
ATOM     41  C   UNL A   1      42.564  27.920  28.880  1.00  0.00     0.074 A 
ATOM     42  C   UNL A   1      43.465  30.167  29.355  1.00  0.00     0.049 A 
ATOM     43  N   UNL A   1      43.614  27.321  28.379  1.00  0.00    -0.248 NA
ATOM     44  C   UNL A   1      41.355  27.080  28.927  1.00  0.00     0.031 C 
ATOM     45  C   UNL A   1      43.454  31.556  29.808  1.00  0.00     0.029 A 
ATOM     46  N   UNL A   1      44.747  29.968  28.904  1.00  0.00    -0.354 N 
ATOM     47  C   UNL A   1      43.193  26.038  28.050  1.00  0.00     0.074 A 
ATOM     48  C   UNL A   1      41.802  25.935  28.436  1.00  0.00     0.031 C 
ATOM     49  C   UNL A   1      44.677  32.083  29.622  1.00  0.00     0.029 A 
ATOM     50  C   UNL A   1      45.563  31.061  29.064  1.00  0.00     0.049 A 
ATOM     51  H   UNL A   1      45.053  29.122  28.504  1.00  0.00     0.167 HD
ATOM     52  C   UNL A   1      43.897  25.038  27.470  1.00  0.00     0.037 A 
ATOM     53  C   UNL A   1      46.877  31.210  28.808  1.00  0.00     0.037 A 
ATOM     54  C   UNL A   1      45.283  25.132  27.095  1.00  0.00     0.049 A 
ATOM     55  C   UNL A   1      47.660  30.058  28.234  1.00  0.00     0.074 A 
ATOM     56  C   UNL A   1      46.079  24.174  26.489  1.00  0.00     0.029 A 
ATOM     57  N   UNL A   1      46.081  26.246  27.299  1.00  0.00    -0.354 N 
ATOM     58  N   UNL A   1      47.248  28.860  27.898  1.00  0.00    -0.248 NA
ATOM     59  C   UNL A   1      49.096  30.280  28.005  1.00  0.00     0.031 C 
ATOM     60  C   UNL A   1      47.372  24.697  26.366  1.00  0.00     0.029 A 
ATOM     61  C   UNL A   1      47.367  25.994  26.853  1.00  0.00     0.049 A 
ATOM     62  H   UNL A   1      45.777  27.093  27.700  1.00  0.00     0.167 HD
ATOM     63  C   UNL A   1      48.361  28.198  27.393  1.00  0.00     0.074 A 
ATOM     64  C   UNL A   1      49.467  29.131  27.458  1.00  0.00     0.031 C 
ATOM     65  C   UNL A   1      48.457  26.934  26.914  1.00  0.00     0.037 A 
BRANCH  52  66
ATOM     66  C   UNL A   1      43.178  23.745  27.230  1.00  0.00     0.057 A 
ATOM     67  C   UNL A   1      42.699  23.394  25.961  1.00  0.00     0.134 A 
ATOM     68  C   UNL A   1      42.978  22.834  28.273  1.00  0.00     0.134 A 
ATOM     69  F   UNL A   1      42.845  24.232  24.923  1.00  0.00    -0.206 F 
ATOM     70  C   UNL A   1      42.024  22.192  25.744  1.00  0.00     0.040 A 
ATOM     71  C   UNL A   1      42.325  21.619  28.063  1.00  0.00     0.040 A 
ATOM     72  F   UNL A   1      43.415  23.109  29.512  1.00  0.00    -0.206 F 
ATOM     73  C   UNL A   1      41.841  21.297  26.796  1.00  0.00     0.006 A 
ENDBRANCH  52  66
BRANCH  53  74
ATOM     74  C   UNL A   1      47.552  32.500  29.100  1.00  0.00     0.057 A 
ATOM     75  C   UNL A   1      48.111  32.757  30.357  1.00  0.00     0.134 A 
ATOM     76  C   UNL A   1      47.623  33.519  28.142  1.00  0.00     0.134 A 
ATOM     77  F   UNL A   1      48.048  31.831  31.325  1.00  0.00    -0.206 F 
ATOM     78  C   UNL A   1      48.705  33.984  30.656  1.00  0.00     0.040 A 
ATOM     79  C   UNL A   1      48.233  34.742  28.420  1.00  0.00     0.040 A 
ATOM     80  F   UNL A   1      47.098  33.337  26.920  1.00  0.00    -0.206 F 
ATOM     81  C   UNL A   1      48.771  34.980  29.683  1.00  0.00     0.006 A 
ENDBRANCH  53  74
BRANCH  65  82
ATOM     82  C   UNL A   1      49.791  26.493  26.388  1.00  0.00     0.057 A 
ATOM     83  C   UNL A   1      50.684  25.746  27.166  1.00  0.00     0.134 A 
ATOM     84  C   UNL A   1      50.165  26.780  25.068  1.00  0.00     0.134 A 
ATOM     85  F   UNL A   1      50.390  25.448  28.440  1.00  0.00    -0.206 F 
ATOM     86  C   UNL A   1      51.911  25.315  26.656  1.00  0.00     0.040 A 
ATOM     87  C   UNL A   1      51.378  26.334  24.540  1.00  0.00     0.040 A 
ATOM     88  F   UNL A   1      49.352  27.483  24.266  1.00  0.00    -0.206 F 
ATOM     89  C   UNL A   1      52.257  25.604  25.337  1.00  0.00     0.006 A 
ENDBRANCH  65  82
ENDBRANCH  39  40
ENDBRANCH  32  34
ENDBRANCH  31  32
ENDBRANCH  30  31
ENDBRANCH  29  30
ENDBRANCH  28  29
ENDBRANCH  27  28
ENDBRANCH  26  27
ENDBRANCH   1  26
TORSDOF 23
ENDMDL
