MODEL 1
REMARK VINA RESULT:     -10.9      0.000      0.000
REMARK SMILES C[C@@H](C(=O)OCCOCCOCCOC(=O)c1ccc(-c2c3nc(c(-c4c(F)cccc4F)c4ccc([nH]4)c(-c4c(F)cccc4F)c4nc(c(-c5c(F)cccc5F)c5ccc2[nH]5)C=C4)C=C3)cc1)c1ccc(N[C@H]2CCC[C@@H]2O)cc1F
REMARK SMILES IDX 9 1 8 2 7 3 6 4 5 5 3 6 4 7 2 8 1 9 71 10 72 11 83 12 73 13
REMARK SMILES IDX 82 14 84 15 74 16 75 17 76 19 77 20 80 21 78 22 79 23 81 24
REMARK SMILES IDX 10 26 11 27 12 28 13 29 14 30 15 31 16 32 17 33 18 34 70 35
REMARK SMILES IDX 19 36 69 37 20 38 21 39 22 40 63 41 23 42 68 43 62 44 64 45
REMARK SMILES IDX 24 46 67 47 61 48 60 49 25 51 51 52 34 53 50 54 35 55 38 56
REMARK SMILES IDX 49 57 65 58 36 59 37 60 48 62 66 63 39 64 26 65 27 66 32 67
REMARK SMILES IDX 28 68 29 69 31 70 33 71 30 72 52 73 53 74 58 75 54 76 55 77
REMARK SMILES IDX 57 78 59 79 56 80 40 81 41 82 46 83 42 84 43 85 45 86 47 87
REMARK SMILES IDX 44 88
REMARK H PARENT 75 18 81 25 64 50 38 61
REMARK Flexibility Score: inf
ROOT
ATOM      1  C   UNL A   1      40.907  21.161  26.657  1.00  0.00     0.188 C 
ENDROOT
BRANCH   1   2
ATOM      2  O   UNL A   1      39.666  21.543  26.067  1.00  0.00    -0.376 OA
BRANCH   2   3
ATOM      3  C   UNL A   1      39.048  22.753  26.508  1.00  0.00     0.202 C 
BRANCH   3   4
ATOM      4  C   UNL A   1      37.809  23.236  25.742  1.00  0.00     0.261 C 
BRANCH   4   5
ATOM      5  O   UNL A   1      37.229  22.201  24.927  1.00  0.00    -0.463 OA
BRANCH   5   6
ATOM      6  C   UNL A   1      36.429  22.623  23.913  1.00  0.00     0.313 C 
ATOM      7  O   UNL A   1      36.805  22.760  22.754  1.00  0.00    -0.252 OA
BRANCH   6   8
ATOM      8  C   UNL A   1      34.988  22.889  24.366  1.00  0.00     0.129 C 
ATOM      9  C   UNL A   1      34.095  21.651  24.159  1.00  0.00     0.025 C 
BRANCH   8  10
ATOM     10  C   UNL A   1      34.354  24.201  23.898  1.00  0.00     0.002 A 
ATOM     11  C   UNL A   1      33.656  24.269  22.680  1.00  0.00     0.010 A 
ATOM     12  C   UNL A   1      34.321  25.353  24.687  1.00  0.00     0.129 A 
ATOM     13  C   UNL A   1      32.957  25.428  22.288  1.00  0.00     0.026 A 
ATOM     14  C   UNL A   1      33.624  26.503  24.294  1.00  0.00     0.065 A 
ATOM     15  F   UNL A   1      34.959  25.395  25.864  1.00  0.00    -0.207 F 
ATOM     16  C   UNL A   1      32.906  26.562  23.095  1.00  0.00     0.037 A 
BRANCH  16  17
ATOM     17  N   UNL A   1      32.181  27.697  22.815  1.00  0.00    -0.380 N 
ATOM     18  H   UNL A   1      32.682  28.538  22.922  1.00  0.00     0.160 HD
BRANCH  17  19
ATOM     19  C   UNL A   1      30.796  27.870  22.386  1.00  0.00     0.107 C 
ATOM     20  C   UNL A   1      29.793  27.017  23.166  1.00  0.00     0.027 C 
ATOM     21  C   UNL A   1      30.263  29.316  22.430  1.00  0.00     0.136 C 
ATOM     22  C   UNL A   1      28.609  27.934  23.472  1.00  0.00     0.005 C 
ATOM     23  C   UNL A   1      28.755  29.118  22.530  1.00  0.00     0.034 C 
BRANCH  21  24
ATOM     24  O   UNL A   1      30.593  30.080  21.274  1.00  0.00    -0.391 OA
ATOM     25  H   UNL A   1      31.462  30.492  21.397  1.00  0.00     0.211 HD
ENDBRANCH  21  24
ENDBRANCH  17  19
ENDBRANCH  16  17
ENDBRANCH   8  10
ENDBRANCH   6   8
ENDBRANCH   5   6
ENDBRANCH   4   5
ENDBRANCH   3   4
ENDBRANCH   2   3
ENDBRANCH   1   2
BRANCH   1  26
ATOM     26  C   UNL A   1      41.517  19.804  26.259  1.00  0.00     0.188 C 
BRANCH  26  27
ATOM     27  O   UNL A   1      42.634  19.913  25.402  1.00  0.00    -0.376 OA
BRANCH  27  28
ATOM     28  C   UNL A   1      43.545  20.972  25.637  1.00  0.00     0.202 C 
BRANCH  28  29
ATOM     29  C   UNL A   1      43.787  21.979  24.501  1.00  0.00     0.261 C 
BRANCH  29  30
ATOM     30  O   UNL A   1      43.262  23.301  24.702  1.00  0.00    -0.460 OA
BRANCH  30  31
ATOM     31  C   UNL A   1      44.137  24.277  25.028  1.00  0.00     0.338 C 
ATOM     32  O   UNL A   1      45.221  24.500  24.517  1.00  0.00    -0.246 OA
BRANCH  31  33
ATOM     33  C   UNL A   1      43.454  25.174  25.986  1.00  0.00     0.060 A 
ATOM     34  C   UNL A   1      43.790  26.533  26.003  1.00  0.00     0.016 A 
ATOM     35  C   UNL A   1      42.465  24.680  26.841  1.00  0.00     0.016 A 
ATOM     36  C   UNL A   1      43.151  27.398  26.892  1.00  0.00     0.010 A 
ATOM     37  C   UNL A   1      41.846  25.544  27.749  1.00  0.00     0.010 A 
ATOM     38  C   UNL A   1      42.207  26.902  27.800  1.00  0.00    -0.014 A 
BRANCH  38  39
ATOM     39  C   UNL A   1      41.738  27.752  28.921  1.00  0.00     0.031 A 
ATOM     40  C   UNL A   1      42.486  27.688  30.224  1.00  0.00     0.074 A 
ATOM     41  C   UNL A   1      40.674  28.563  28.795  1.00  0.00     0.049 A 
ATOM     42  N   UNL A   1      42.228  28.281  31.362  1.00  0.00    -0.248 NA
ATOM     43  C   UNL A   1      43.683  26.832  30.247  1.00  0.00     0.031 C 
ATOM     44  C   UNL A   1      39.878  28.735  27.583  1.00  0.00     0.029 A 
ATOM     45  N   UNL A   1      40.073  29.389  29.714  1.00  0.00    -0.354 N 
ATOM     46  C   UNL A   1      43.217  27.851  32.240  1.00  0.00     0.074 A 
ATOM     47  C   UNL A   1      44.071  26.942  31.508  1.00  0.00     0.031 C 
ATOM     48  C   UNL A   1      38.889  29.613  27.832  1.00  0.00     0.029 A 
ATOM     49  C   UNL A   1      38.964  30.038  29.230  1.00  0.00     0.049 A 
ATOM     50  H   UNL A   1      40.408  29.507  30.633  1.00  0.00     0.167 HD
ATOM     51  C   UNL A   1      43.393  28.180  33.541  1.00  0.00     0.037 A 
ATOM     52  C   UNL A   1      38.099  30.862  29.853  1.00  0.00     0.037 A 
ATOM     53  C   UNL A   1      42.545  29.081  34.273  1.00  0.00     0.049 A 
ATOM     54  C   UNL A   1      38.288  31.174  31.315  1.00  0.00     0.074 A 
ATOM     55  C   UNL A   1      42.655  29.490  35.590  1.00  0.00     0.029 A 
ATOM     56  N   UNL A   1      41.420  29.701  33.753  1.00  0.00    -0.354 N 
ATOM     57  N   UNL A   1      39.242  30.788  32.128  1.00  0.00    -0.248 NA
ATOM     58  C   UNL A   1      37.272  32.028  31.948  1.00  0.00     0.031 C 
ATOM     59  C   UNL A   1      41.571  30.326  35.879  1.00  0.00     0.029 A 
ATOM     60  C   UNL A   1      40.814  30.475  34.728  1.00  0.00     0.049 A 
ATOM     61  H   UNL A   1      41.099  29.606  32.826  1.00  0.00     0.167 HD
ATOM     62  C   UNL A   1      38.951  31.366  33.359  1.00  0.00     0.074 A 
ATOM     63  C   UNL A   1      37.745  32.145  33.181  1.00  0.00     0.031 C 
ATOM     64  C   UNL A   1      39.621  31.257  34.533  1.00  0.00     0.037 A 
BRANCH  51  65
ATOM     65  C   UNL A   1      44.534  27.528  34.265  1.00  0.00     0.057 A 
ATOM     66  C   UNL A   1      45.752  28.187  34.474  1.00  0.00     0.134 A 
ATOM     67  C   UNL A   1      44.402  26.231  34.775  1.00  0.00     0.134 A 
ATOM     68  F   UNL A   1      45.948  29.424  33.994  1.00  0.00    -0.206 F 
ATOM     69  C   UNL A   1      46.808  27.569  35.147  1.00  0.00     0.040 A 
ATOM     70  C   UNL A   1      45.442  25.612  35.471  1.00  0.00     0.040 A 
ATOM     71  F   UNL A   1      43.261  25.547  34.608  1.00  0.00    -0.206 F 
ATOM     72  C   UNL A   1      46.651  26.279  35.653  1.00  0.00     0.006 A 
ENDBRANCH  51  65
BRANCH  52  73
ATOM     73  C   UNL A   1      36.960  31.454  29.106  1.00  0.00     0.057 A 
ATOM     74  C   UNL A   1      36.996  32.787  28.677  1.00  0.00     0.134 A 
ATOM     75  C   UNL A   1      35.800  30.720  28.834  1.00  0.00     0.134 A 
ATOM     76  F   UNL A   1      38.073  33.546  28.928  1.00  0.00    -0.206 F 
ATOM     77  C   UNL A   1      35.911  33.373  28.021  1.00  0.00     0.040 A 
ATOM     78  C   UNL A   1      34.719  31.286  28.157  1.00  0.00     0.040 A 
ATOM     79  F   UNL A   1      35.704  29.440  29.222  1.00  0.00    -0.206 F 
ATOM     80  C   UNL A   1      34.771  32.620  27.756  1.00  0.00     0.006 A 
ENDBRANCH  52  73
BRANCH  64  81
ATOM     81  C   UNL A   1      39.092  32.028  35.708  1.00  0.00     0.057 A 
ATOM     82  C   UNL A   1      39.397  33.381  35.904  1.00  0.00     0.134 A 
ATOM     83  C   UNL A   1      38.228  31.420  36.627  1.00  0.00     0.134 A 
ATOM     84  F   UNL A   1      40.227  34.019  35.066  1.00  0.00    -0.206 F 
ATOM     85  C   UNL A   1      38.876  34.097  36.983  1.00  0.00     0.040 A 
ATOM     86  C   UNL A   1      37.680  32.131  37.696  1.00  0.00     0.040 A 
ATOM     87  F   UNL A   1      37.888  30.129  36.492  1.00  0.00    -0.206 F 
ATOM     88  C   UNL A   1      38.008  33.473  37.879  1.00  0.00     0.006 A 
ENDBRANCH  64  81
ENDBRANCH  38  39
ENDBRANCH  31  33
ENDBRANCH  30  31
ENDBRANCH  29  30
ENDBRANCH  28  29
ENDBRANCH  27  28
ENDBRANCH  26  27
ENDBRANCH   1  26
TORSDOF 21
ENDMDL
MODEL 2
REMARK VINA RESULT:     -10.5      2.458      4.325
REMARK SMILES C[C@@H](C(=O)OCCOCCOCCOC(=O)c1ccc(-c2c3nc(c(-c4c(F)cccc4F)c4ccc([nH]4)c(-c4c(F)cccc4F)c4nc(c(-c5c(F)cccc5F)c5ccc2[nH]5)C=C4)C=C3)cc1)c1ccc(N[C@H]2CCC[C@@H]2O)cc1F
REMARK SMILES IDX 9 1 8 2 7 3 6 4 5 5 3 6 4 7 2 8 1 9 71 10 72 11 83 12 73 13
REMARK SMILES IDX 82 14 84 15 74 16 75 17 76 19 77 20 80 21 78 22 79 23 81 24
REMARK SMILES IDX 10 26 11 27 12 28 13 29 14 30 15 31 16 32 17 33 18 34 70 35
REMARK SMILES IDX 19 36 69 37 20 38 21 39 22 40 63 41 23 42 68 43 62 44 64 45
REMARK SMILES IDX 24 46 67 47 61 48 60 49 25 51 51 52 34 53 50 54 35 55 38 56
REMARK SMILES IDX 49 57 65 58 36 59 37 60 48 62 66 63 39 64 26 65 27 66 32 67
REMARK SMILES IDX 28 68 29 69 31 70 33 71 30 72 52 73 53 74 58 75 54 76 55 77
REMARK SMILES IDX 57 78 59 79 56 80 40 81 41 82 46 83 42 84 43 85 45 86 47 87
REMARK SMILES IDX 44 88
REMARK H PARENT 75 18 81 25 64 50 38 61
REMARK Flexibility Score: inf
ROOT
ATOM      1  C   UNL A   1      40.285  21.701  26.337  1.00  0.00     0.188 C 
ENDROOT
BRANCH   1   2
ATOM      2  O   UNL A   1      38.871  21.870  26.402  1.00  0.00    -0.376 OA
BRANCH   2   3
ATOM      3  C   UNL A   1      38.054  21.107  25.513  1.00  0.00     0.202 C 
BRANCH   3   4
ATOM      4  C   UNL A   1      37.388  21.853  24.348  1.00  0.00     0.261 C 
BRANCH   4   5
ATOM      5  O   UNL A   1      36.644  23.003  24.785  1.00  0.00    -0.463 OA
BRANCH   5   6
ATOM      6  C   UNL A   1      35.669  23.436  23.942  1.00  0.00     0.313 C 
ATOM      7  O   UNL A   1      35.879  23.843  22.804  1.00  0.00    -0.252 OA
BRANCH   6   8
ATOM      8  C   UNL A   1      34.268  23.340  24.557  1.00  0.00     0.129 C 
ATOM      9  C   UNL A   1      34.208  24.032  25.932  1.00  0.00     0.025 C 
BRANCH   8  10
ATOM     10  C   UNL A   1      33.596  21.965  24.521  1.00  0.00     0.002 A 
ATOM     11  C   UNL A   1      32.756  21.602  23.454  1.00  0.00     0.010 A 
ATOM     12  C   UNL A   1      33.867  20.963  25.454  1.00  0.00     0.129 A 
ATOM     13  C   UNL A   1      32.230  20.301  23.333  1.00  0.00     0.026 A 
ATOM     14  C   UNL A   1      33.342  19.670  25.331  1.00  0.00     0.065 A 
ATOM     15  F   UNL A   1      34.651  21.207  26.512  1.00  0.00    -0.207 F 
ATOM     16  C   UNL A   1      32.529  19.300  24.254  1.00  0.00     0.037 A 
BRANCH  16  17
ATOM     17  N   UNL A   1      32.117  17.991  24.158  1.00  0.00    -0.380 N 
ATOM     18  H   UNL A   1      31.144  17.875  24.063  1.00  0.00     0.160 HD
BRANCH  17  19
ATOM     19  C   UNL A   1      32.875  16.742  24.170  1.00  0.00     0.107 C 
ATOM     20  C   UNL A   1      34.372  16.922  23.909  1.00  0.00     0.027 C 
ATOM     21  C   UNL A   1      32.756  15.907  25.460  1.00  0.00     0.136 C 
ATOM     22  C   UNL A   1      35.086  16.030  24.924  1.00  0.00     0.005 C 
ATOM     23  C   UNL A   1      34.027  15.067  25.437  1.00  0.00     0.034 C 
BRANCH  21  24
ATOM     24  O   UNL A   1      31.604  15.070  25.492  1.00  0.00    -0.391 OA
ATOM     25  H   UNL A   1      31.303  14.900  24.586  1.00  0.00     0.211 HD
ENDBRANCH  21  24
ENDBRANCH  17  19
ENDBRANCH  16  17
ENDBRANCH   8  10
ENDBRANCH   6   8
ENDBRANCH   5   6
ENDBRANCH   4   5
ENDBRANCH   3   4
ENDBRANCH   2   3
ENDBRANCH   1   2
BRANCH   1  26
ATOM     26  C   UNL A   1      40.843  20.274  26.178  1.00  0.00     0.188 C 
BRANCH  26  27
ATOM     27  O   UNL A   1      42.151  20.115  26.686  1.00  0.00    -0.376 OA
BRANCH  27  28
ATOM     28  C   UNL A   1      43.214  20.022  25.753  1.00  0.00     0.202 C 
BRANCH  28  29
ATOM     29  C   UNL A   1      44.022  21.295  25.455  1.00  0.00     0.261 C 
BRANCH  29  30
ATOM     30  O   UNL A   1      43.708  22.448  26.254  1.00  0.00    -0.460 OA
BRANCH  30  31
ATOM     31  C   UNL A   1      43.977  23.663  25.729  1.00  0.00     0.338 C 
ATOM     32  O   UNL A   1      44.493  23.905  24.651  1.00  0.00    -0.246 OA
BRANCH  31  33
ATOM     33  C   UNL A   1      43.339  24.669  26.605  1.00  0.00     0.060 A 
ATOM     34  C   UNL A   1      43.867  25.965  26.649  1.00  0.00     0.016 A 
ATOM     35  C   UNL A   1      42.206  24.341  27.356  1.00  0.00     0.016 A 
ATOM     36  C   UNL A   1      43.274  26.932  27.463  1.00  0.00     0.010 A 
ATOM     37  C   UNL A   1      41.632  25.305  28.191  1.00  0.00     0.010 A 
ATOM     38  C   UNL A   1      42.180  26.596  28.271  1.00  0.00    -0.014 A 
BRANCH  38  39
ATOM     39  C   UNL A   1      41.728  27.528  29.332  1.00  0.00     0.031 A 
ATOM     40  C   UNL A   1      42.461  27.521  30.646  1.00  0.00     0.074 A 
ATOM     41  C   UNL A   1      40.692  28.364  29.145  1.00  0.00     0.049 A 
ATOM     42  N   UNL A   1      42.213  28.191  31.741  1.00  0.00    -0.248 NA
ATOM     43  C   UNL A   1      43.629  26.630  30.734  1.00  0.00     0.031 C 
ATOM     44  C   UNL A   1      39.914  28.487  27.916  1.00  0.00     0.029 A 
ATOM     45  N   UNL A   1      40.111  29.264  30.004  1.00  0.00    -0.354 N 
ATOM     46  C   UNL A   1      43.178  27.784  32.655  1.00  0.00     0.074 A 
ATOM     47  C   UNL A   1      44.009  26.805  31.990  1.00  0.00     0.031 C 
ATOM     48  C   UNL A   1      38.953  29.410  28.099  1.00  0.00     0.029 A 
ATOM     49  C   UNL A   1      39.028  29.917  29.469  1.00  0.00     0.049 A 
ATOM     50  H   UNL A   1      40.440  29.427  30.918  1.00  0.00     0.167 HD
ATOM     51  C   UNL A   1      43.353  28.187  33.936  1.00  0.00     0.037 A 
ATOM     52  C   UNL A   1      38.184  30.805  30.030  1.00  0.00     0.037 A 
ATOM     53  C   UNL A   1      42.528  29.157  34.602  1.00  0.00     0.049 A 
ATOM     54  C   UNL A   1      38.370  31.200  31.473  1.00  0.00     0.074 A 
ATOM     55  C   UNL A   1      42.639  29.643  35.892  1.00  0.00     0.029 A 
ATOM     56  N   UNL A   1      41.429  29.780  34.032  1.00  0.00    -0.354 N 
ATOM     57  N   UNL A   1      39.303  30.835  32.319  1.00  0.00    -0.248 NA
ATOM     58  C   UNL A   1      37.377  32.124  32.041  1.00  0.00     0.031 C 
ATOM     59  C   UNL A   1      41.581  30.530  36.118  1.00  0.00     0.029 A 
ATOM     60  C   UNL A   1      40.840  30.632  34.951  1.00  0.00     0.049 A 
ATOM     61  H   UNL A   1      41.114  29.639  33.109  1.00  0.00     0.167 HD
ATOM     62  C   UNL A   1      39.020  31.496  33.508  1.00  0.00     0.074 A 
ATOM     63  C   UNL A   1      37.841  32.302  33.270  1.00  0.00     0.031 C 
ATOM     64  C   UNL A   1      39.674  31.439  34.694  1.00  0.00     0.037 A 
BRANCH  51  65
ATOM     65  C   UNL A   1      44.465  27.544  34.711  1.00  0.00     0.057 A 
ATOM     66  C   UNL A   1      44.278  26.353  35.425  1.00  0.00     0.134 A 
ATOM     67  C   UNL A   1      45.743  28.115  34.727  1.00  0.00     0.134 A 
ATOM     68  F   UNL A   1      43.073  25.765  35.464  1.00  0.00    -0.206 F 
ATOM     69  C   UNL A   1      45.320  25.765  36.145  1.00  0.00     0.040 A 
ATOM     70  C   UNL A   1      46.798  27.524  35.423  1.00  0.00     0.040 A 
ATOM     71  F   UNL A   1      45.986  29.255  34.063  1.00  0.00    -0.206 F 
ATOM     72  C   UNL A   1      46.587  26.348  36.139  1.00  0.00     0.006 A 
ENDBRANCH  51  65
BRANCH  52  73
ATOM     73  C   UNL A   1      37.073  31.387  29.236  1.00  0.00     0.057 A 
ATOM     74  C   UNL A   1      37.146  32.697  28.748  1.00  0.00     0.134 A 
ATOM     75  C   UNL A   1      35.902  30.665  28.976  1.00  0.00     0.134 A 
ATOM     76  F   UNL A   1      38.235  33.445  28.985  1.00  0.00    -0.206 F 
ATOM     77  C   UNL A   1      36.087  33.276  28.045  1.00  0.00     0.040 A 
ATOM     78  C   UNL A   1      34.846  31.223  28.252  1.00  0.00     0.040 A 
ATOM     79  F   UNL A   1      35.770  29.407  29.419  1.00  0.00    -0.206 F 
ATOM     80  C   UNL A   1      34.935  32.536  27.792  1.00  0.00     0.006 A 
ENDBRANCH  52  73
BRANCH  64  81
ATOM     81  C   UNL A   1      39.160  32.297  35.814  1.00  0.00     0.057 A 
ATOM     82  C   UNL A   1      38.268  31.804  36.775  1.00  0.00     0.134 A 
ATOM     83  C   UNL A   1      39.602  33.618  35.959  1.00  0.00     0.134 A 
ATOM     84  F   UNL A   1      37.798  30.551  36.688  1.00  0.00    -0.206 F 
ATOM     85  C   UNL A   1      37.819  32.602  37.830  1.00  0.00     0.040 A 
ATOM     86  C   UNL A   1      39.180  34.417  37.022  1.00  0.00     0.040 A 
ATOM     87  F   UNL A   1      40.463  34.148  35.077  1.00  0.00    -0.206 F 
ATOM     88  C   UNL A   1      38.282  33.911  37.959  1.00  0.00     0.006 A 
ENDBRANCH  64  81
ENDBRANCH  38  39
ENDBRANCH  31  33
ENDBRANCH  30  31
ENDBRANCH  29  30
ENDBRANCH  28  29
ENDBRANCH  27  28
ENDBRANCH  26  27
ENDBRANCH   1  26
TORSDOF 21
ENDMDL
MODEL 3
REMARK VINA RESULT:     -10.4      1.436      2.216
REMARK SMILES C[C@@H](C(=O)OCCOCCOCCOC(=O)c1ccc(-c2c3nc(c(-c4c(F)cccc4F)c4ccc([nH]4)c(-c4c(F)cccc4F)c4nc(c(-c5c(F)cccc5F)c5ccc2[nH]5)C=C4)C=C3)cc1)c1ccc(N[C@H]2CCC[C@@H]2O)cc1F
REMARK SMILES IDX 9 1 8 2 7 3 6 4 5 5 3 6 4 7 2 8 1 9 71 10 72 11 83 12 73 13
REMARK SMILES IDX 82 14 84 15 74 16 75 17 76 19 77 20 80 21 78 22 79 23 81 24
REMARK SMILES IDX 10 26 11 27 12 28 13 29 14 30 15 31 16 32 17 33 18 34 70 35
REMARK SMILES IDX 19 36 69 37 20 38 21 39 22 40 63 41 23 42 68 43 62 44 64 45
REMARK SMILES IDX 24 46 67 47 61 48 60 49 25 51 51 52 34 53 50 54 35 55 38 56
REMARK SMILES IDX 49 57 65 58 36 59 37 60 48 62 66 63 39 64 26 65 27 66 32 67
REMARK SMILES IDX 28 68 29 69 31 70 33 71 30 72 52 73 53 74 58 75 54 76 55 77
REMARK SMILES IDX 57 78 59 79 56 80 40 81 41 82 46 83 42 84 43 85 45 86 47 87
REMARK SMILES IDX 44 88
REMARK H PARENT 75 18 81 25 64 50 38 61
REMARK Flexibility Score: inf
ROOT
ATOM      1  C   UNL A   1      39.618  21.476  26.156  1.00  0.00     0.188 C 
ENDROOT
BRANCH   1   2
ATOM      2  O   UNL A   1      39.016  22.768  26.094  1.00  0.00    -0.376 OA
BRANCH   2   3
ATOM      3  C   UNL A   1      37.644  22.860  25.710  1.00  0.00     0.202 C 
BRANCH   3   4
ATOM      4  C   UNL A   1      36.865  21.548  25.544  1.00  0.00     0.261 C 
BRANCH   4   5
ATOM      5  O   UNL A   1      35.448  21.724  25.721  1.00  0.00    -0.463 OA
BRANCH   5   6
ATOM      6  C   UNL A   1      34.664  20.704  25.283  1.00  0.00     0.313 C 
ATOM      7  O   UNL A   1      35.097  19.680  24.764  1.00  0.00    -0.252 OA
BRANCH   6   8
ATOM      8  C   UNL A   1      33.171  20.958  25.525  1.00  0.00     0.129 C 
ATOM      9  C   UNL A   1      32.296  20.118  24.575  1.00  0.00     0.025 C 
BRANCH   8  10
ATOM     10  C   UNL A   1      32.735  22.421  25.645  1.00  0.00     0.002 A 
ATOM     11  C   UNL A   1      32.687  23.252  24.513  1.00  0.00     0.010 A 
ATOM     12  C   UNL A   1      32.251  22.974  26.832  1.00  0.00     0.129 A 
ATOM     13  C   UNL A   1      32.170  24.562  24.575  1.00  0.00     0.026 A 
ATOM     14  C   UNL A   1      31.737  24.276  26.890  1.00  0.00     0.065 A 
ATOM     15  F   UNL A   1      32.258  22.267  27.969  1.00  0.00    -0.207 F 
ATOM     16  C   UNL A   1      31.663  25.094  25.758  1.00  0.00     0.037 A 
BRANCH  16  17
ATOM     17  N   UNL A   1      31.072  26.331  25.875  1.00  0.00    -0.380 N 
ATOM     18  H   UNL A   1      30.088  26.313  25.906  1.00  0.00     0.160 HD
BRANCH  17  19
ATOM     19  C   UNL A   1      31.653  27.669  25.964  1.00  0.00     0.107 C 
ATOM     20  C   UNL A   1      33.020  27.707  26.650  1.00  0.00     0.027 C 
ATOM     21  C   UNL A   1      31.819  28.410  24.622  1.00  0.00     0.136 C 
ATOM     22  C   UNL A   1      33.892  28.632  25.800  1.00  0.00     0.005 C 
ATOM     23  C   UNL A   1      32.925  29.414  24.926  1.00  0.00     0.034 C 
BRANCH  21  24
ATOM     24  O   UNL A   1      30.638  29.080  24.192  1.00  0.00    -0.391 OA
ATOM     25  H   UNL A   1      29.868  28.693  24.637  1.00  0.00     0.211 HD
ENDBRANCH  21  24
ENDBRANCH  17  19
ENDBRANCH  16  17
ENDBRANCH   8  10
ENDBRANCH   6   8
ENDBRANCH   5   6
ENDBRANCH   4   5
ENDBRANCH   3   4
ENDBRANCH   2   3
ENDBRANCH   1   2
BRANCH   1  26
ATOM     26  C   UNL A   1      40.608  21.187  27.299  1.00  0.00     0.188 C 
BRANCH  26  27
ATOM     27  O   UNL A   1      41.558  20.188  26.989  1.00  0.00    -0.376 OA
BRANCH  27  28
ATOM     28  C   UNL A   1      42.536  20.490  26.009  1.00  0.00     0.202 C 
BRANCH  28  29
ATOM     29  C   UNL A   1      43.302  21.815  26.143  1.00  0.00     0.261 C 
BRANCH  29  30
ATOM     30  O   UNL A   1      42.945  22.851  25.213  1.00  0.00    -0.460 OA
BRANCH  30  31
ATOM     31  C   UNL A   1      43.712  23.964  25.194  1.00  0.00     0.338 C 
ATOM     32  O   UNL A   1      44.634  24.213  24.436  1.00  0.00    -0.246 OA
BRANCH  31  33
ATOM     33  C   UNL A   1      43.097  24.934  26.125  1.00  0.00     0.060 A 
ATOM     34  C   UNL A   1      43.663  26.208  26.251  1.00  0.00     0.016 A 
ATOM     35  C   UNL A   1      41.948  24.597  26.847  1.00  0.00     0.016 A 
ATOM     36  C   UNL A   1      43.093  27.142  27.117  1.00  0.00     0.010 A 
ATOM     37  C   UNL A   1      41.396  25.525  27.735  1.00  0.00     0.010 A 
ATOM     38  C   UNL A   1      41.982  26.792  27.896  1.00  0.00    -0.014 A 
BRANCH  38  39
ATOM     39  C   UNL A   1      41.550  27.672  29.009  1.00  0.00     0.031 A 
ATOM     40  C   UNL A   1      42.311  27.606  30.305  1.00  0.00     0.074 A 
ATOM     41  C   UNL A   1      40.508  28.512  28.883  1.00  0.00     0.049 A 
ATOM     42  N   UNL A   1      42.083  28.224  31.436  1.00  0.00    -0.248 NA
ATOM     43  C   UNL A   1      43.483  26.717  30.328  1.00  0.00     0.031 C 
ATOM     44  C   UNL A   1      39.704  28.689  27.677  1.00  0.00     0.029 A 
ATOM     45  N   UNL A   1      39.942  29.368  29.795  1.00  0.00    -0.354 N 
ATOM     46  C   UNL A   1      43.068  27.778  32.310  1.00  0.00     0.074 A 
ATOM     47  C   UNL A   1      43.888  26.835  31.583  1.00  0.00     0.031 C 
ATOM     48  C   UNL A   1      38.744  29.598  27.923  1.00  0.00     0.029 A 
ATOM     49  C   UNL A   1      38.847  30.042  29.313  1.00  0.00     0.049 A 
ATOM     50  H   UNL A   1      40.290  29.490  30.708  1.00  0.00     0.167 HD
ATOM     51  C   UNL A   1      43.269  28.122  33.604  1.00  0.00     0.037 A 
ATOM     52  C   UNL A   1      38.012  30.899  29.932  1.00  0.00     0.037 A 
ATOM     53  C   UNL A   1      42.455  29.057  34.331  1.00  0.00     0.049 A 
ATOM     54  C   UNL A   1      38.227  31.227  31.388  1.00  0.00     0.074 A 
ATOM     55  C   UNL A   1      42.592  29.483  35.640  1.00  0.00     0.029 A 
ATOM     56  N   UNL A   1      41.343  29.701  33.814  1.00  0.00    -0.354 N 
ATOM     57  N   UNL A   1      39.178  30.826  32.197  1.00  0.00    -0.248 NA
ATOM     58  C   UNL A   1      37.243  32.120  32.019  1.00  0.00     0.031 C 
ATOM     59  C   UNL A   1      41.535  30.354  35.929  1.00  0.00     0.029 A 
ATOM     60  C   UNL A   1      40.770  30.508  34.784  1.00  0.00     0.049 A 
ATOM     61  H   UNL A   1      41.009  29.602  32.893  1.00  0.00     0.167 HD
ATOM     62  C   UNL A   1      38.918  31.431  33.421  1.00  0.00     0.074 A 
ATOM     63  C   UNL A   1      37.732  32.242  33.245  1.00  0.00     0.031 C 
ATOM     64  C   UNL A   1      39.597  31.321  34.589  1.00  0.00     0.037 A 
BRANCH  51  65
ATOM     65  C   UNL A   1      44.399  27.448  34.325  1.00  0.00     0.057 A 
ATOM     66  C   UNL A   1      45.677  28.017  34.396  1.00  0.00     0.134 A 
ATOM     67  C   UNL A   1      44.197  26.223  34.974  1.00  0.00     0.134 A 
ATOM     68  F   UNL A   1      45.939  29.180  33.781  1.00  0.00    -0.206 F 
ATOM     69  C   UNL A   1      46.721  27.380  35.068  1.00  0.00     0.040 A 
ATOM     70  C   UNL A   1      45.227  25.588  35.669  1.00  0.00     0.040 A 
ATOM     71  F   UNL A   1      42.996  25.627  34.943  1.00  0.00    -0.206 F 
ATOM     72  C   UNL A   1      46.495  26.164  35.713  1.00  0.00     0.006 A 
ENDBRANCH  51  65
BRANCH  52  73
ATOM     73  C   UNL A   1      36.883  31.513  29.189  1.00  0.00     0.057 A 
ATOM     74  C   UNL A   1      35.737  30.770  28.879  1.00  0.00     0.134 A 
ATOM     75  C   UNL A   1      36.933  32.838  28.741  1.00  0.00     0.134 A 
ATOM     76  F   UNL A   1      35.641  29.488  29.263  1.00  0.00    -0.206 F 
ATOM     77  C   UNL A   1      34.690  31.316  28.134  1.00  0.00     0.040 A 
ATOM     78  C   UNL A   1      35.883  33.405  28.018  1.00  0.00     0.040 A 
ATOM     79  F   UNL A   1      38.004  33.600  29.003  1.00  0.00    -0.206 F 
ATOM     80  C   UNL A   1      34.760  32.640  27.706  1.00  0.00     0.006 A 
ENDBRANCH  52  73
BRANCH  64  81
ATOM     81  C   UNL A   1      39.104  32.124  35.758  1.00  0.00     0.057 A 
ATOM     82  C   UNL A   1      38.259  31.574  36.731  1.00  0.00     0.134 A 
ATOM     83  C   UNL A   1      39.519  33.450  35.937  1.00  0.00     0.134 A 
ATOM     84  F   UNL A   1      37.816  30.314  36.612  1.00  0.00    -0.206 F 
ATOM     85  C   UNL A   1      37.830  32.320  37.830  1.00  0.00     0.040 A 
ATOM     86  C   UNL A   1      39.118  34.198  37.044  1.00  0.00     0.040 A 
ATOM     87  F   UNL A   1      40.336  34.033  35.047  1.00  0.00    -0.206 F 
ATOM     88  C   UNL A   1      38.267  33.635  37.992  1.00  0.00     0.006 A 
ENDBRANCH  64  81
ENDBRANCH  38  39
ENDBRANCH  31  33
ENDBRANCH  30  31
ENDBRANCH  29  30
ENDBRANCH  28  29
ENDBRANCH  27  28
ENDBRANCH  26  27
ENDBRANCH   1  26
TORSDOF 21
ENDMDL
