MODEL 1
REMARK VINA RESULT:      -9.0      0.000      0.000
REMARK SMILES O=C(OCCOCCOCCOC(=O)[C@@H](F)[C@H](O)c1cccc(Cl)c1)c1ccc(-c2c3nc(c(-c4c(F)cccc4F)c4ccc([nH]4)c(-c4c(F)cccc4F)c4nc(c(-c5c(F)cccc5F)c5ccc2[nH]5)C=C4)C=C3)cc1
REMARK SMILES IDX 7 1 6 2 5 3 4 4 3 5 2 6 1 7 26 8 27 9 79 10 28 11 78 12
REMARK SMILES IDX 29 13 30 14 31 15 72 16 32 17 77 18 71 19 73 20 33 21 76 22
REMARK SMILES IDX 70 23 69 24 34 26 60 27 43 28 59 29 44 30 47 31 58 32 74 33
REMARK SMILES IDX 45 34 46 35 57 37 75 38 48 39 35 40 36 41 41 42 37 43 38 44
REMARK SMILES IDX 40 45 42 46 39 47 61 48 62 49 67 50 63 51 64 52 66 53 68 54
REMARK SMILES IDX 65 55 49 56 50 57 55 58 51 59 52 60 54 61 56 62 53 63 8 64
REMARK SMILES IDX 9 65 10 66 11 67 12 68 13 69 14 70 15 71 16 72 17 73 19 74
REMARK SMILES IDX 20 75 25 76 21 77 23 78 22 79 24 80 18 81
REMARK H PARENT 73 25 47 36 18 82
REMARK Flexibility Score: inf
ROOT
ATOM      1  C   UNL A   1      33.496  35.156  28.718  1.00  0.00     0.188 C 
ENDROOT
BRANCH   1   2
ATOM      2  O   UNL A   1      34.754  34.996  28.058  1.00  0.00    -0.376 OA
BRANCH   2   3
ATOM      3  C   UNL A   1      35.264  33.660  28.050  1.00  0.00     0.202 C 
BRANCH   3   4
ATOM      4  C   UNL A   1      34.575  32.646  28.983  1.00  0.00     0.261 C 
BRANCH   4   5
ATOM      5  O   UNL A   1      33.925  31.560  28.302  1.00  0.00    -0.460 OA
BRANCH   5   6
ATOM      6  C   UNL A   1      34.487  30.426  27.814  1.00  0.00     0.338 C 
ATOM      7  O   UNL A   1      33.810  29.691  27.099  1.00  0.00    -0.246 OA
BRANCH   6   8
ATOM      8  C   UNL A   1      35.889  30.008  28.118  1.00  0.00     0.060 A 
ATOM      9  C   UNL A   1      36.972  30.203  27.264  1.00  0.00     0.016 A 
ATOM     10  C   UNL A   1      36.148  29.480  29.394  1.00  0.00     0.016 A 
ATOM     11  C   UNL A   1      38.258  29.819  27.613  1.00  0.00     0.010 A 
ATOM     12  C   UNL A   1      37.449  29.135  29.778  1.00  0.00     0.010 A 
ATOM     13  C   UNL A   1      38.507  29.287  28.874  1.00  0.00    -0.014 A 
BRANCH  13  14
ATOM     14  C   UNL A   1      39.877  28.840  29.178  1.00  0.00     0.031 A 
ATOM     15  C   UNL A   1      40.742  29.703  30.040  1.00  0.00     0.074 A 
ATOM     16  C   UNL A   1      40.288  27.627  28.765  1.00  0.00     0.049 A 
ATOM     17  N   UNL A   1      41.992  29.540  30.380  1.00  0.00    -0.248 NA
ATOM     18  C   UNL A   1      40.116  30.915  30.598  1.00  0.00     0.031 C 
ATOM     19  C   UNL A   1      39.488  26.680  27.984  1.00  0.00     0.029 A 
ATOM     20  N   UNL A   1      41.477  26.976  28.958  1.00  0.00    -0.354 N 
ATOM     21  C   UNL A   1      42.317  30.649  31.146  1.00  0.00     0.074 A 
ATOM     22  C   UNL A   1      41.131  31.470  31.243  1.00  0.00     0.031 C 
ATOM     23  C   UNL A   1      40.213  25.571  27.763  1.00  0.00     0.029 A 
ATOM     24  C   UNL A   1      41.531  25.745  28.350  1.00  0.00     0.049 A 
ATOM     25  H   UNL A   1      42.221  27.353  29.481  1.00  0.00     0.167 HD
ATOM     26  C   UNL A   1      43.513  30.955  31.695  1.00  0.00     0.037 A 
ATOM     27  C   UNL A   1      42.554  24.880  28.244  1.00  0.00     0.037 A 
ATOM     28  C   UNL A   1      44.675  30.113  31.592  1.00  0.00     0.049 A 
ATOM     29  C   UNL A   1      43.878  25.271  28.829  1.00  0.00     0.074 A 
ATOM     30  C   UNL A   1      45.942  30.323  32.102  1.00  0.00     0.029 A 
ATOM     31  N   UNL A   1      44.704  28.898  30.922  1.00  0.00    -0.354 N 
ATOM     32  N   UNL A   1      44.195  26.342  29.513  1.00  0.00    -0.248 NA
ATOM     33  C   UNL A   1      44.996  24.347  28.590  1.00  0.00     0.031 C 
ATOM     34  C   UNL A   1      46.754  29.261  31.692  1.00  0.00     0.029 A 
ATOM     35  C   UNL A   1      45.979  28.365  30.973  1.00  0.00     0.049 A 
ATOM     36  H   UNL A   1      43.932  28.478  30.478  1.00  0.00     0.167 HD
ATOM     37  C   UNL A   1      45.555  26.240  29.758  1.00  0.00     0.074 A 
ATOM     38  C   UNL A   1      45.990  24.977  29.196  1.00  0.00     0.031 C 
ATOM     39  C   UNL A   1      46.378  27.120  30.373  1.00  0.00     0.037 A 
BRANCH  26  40
ATOM     40  C   UNL A   1      43.643  32.284  32.372  1.00  0.00     0.057 A 
ATOM     41  C   UNL A   1      43.332  32.476  33.722  1.00  0.00     0.134 A 
ATOM     42  C   UNL A   1      44.105  33.391  31.648  1.00  0.00     0.134 A 
ATOM     43  F   UNL A   1      42.859  31.461  34.462  1.00  0.00    -0.206 F 
ATOM     44  C   UNL A   1      43.467  33.727  34.328  1.00  0.00     0.040 A 
ATOM     45  C   UNL A   1      44.263  34.640  32.248  1.00  0.00     0.040 A 
ATOM     46  F   UNL A   1      44.410  33.275  30.347  1.00  0.00    -0.206 F 
ATOM     47  C   UNL A   1      43.941  34.811  33.591  1.00  0.00     0.006 A 
ENDBRANCH  26  40
BRANCH  27  48
ATOM     48  C   UNL A   1      42.444  23.640  27.446  1.00  0.00     0.057 A 
ATOM     49  C   UNL A   1      42.172  22.404  28.041  1.00  0.00     0.134 A 
ATOM     50  C   UNL A   1      42.769  23.651  26.084  1.00  0.00     0.134 A 
ATOM     51  F   UNL A   1      41.889  22.330  29.349  1.00  0.00    -0.206 F 
ATOM     52  C   UNL A   1      42.260  21.213  27.315  1.00  0.00     0.040 A 
ATOM     53  C   UNL A   1      42.865  22.469  25.351  1.00  0.00     0.040 A 
ATOM     54  F   UNL A   1      43.040  24.806  25.461  1.00  0.00    -0.206 F 
ATOM     55  C   UNL A   1      42.618  21.244  25.968  1.00  0.00     0.006 A 
ENDBRANCH  27  48
BRANCH  39  56
ATOM     56  C   UNL A   1      47.823  26.742  30.439  1.00  0.00     0.057 A 
ATOM     57  C   UNL A   1      48.319  25.936  31.471  1.00  0.00     0.134 A 
ATOM     58  C   UNL A   1      48.718  27.171  29.454  1.00  0.00     0.134 A 
ATOM     59  F   UNL A   1      47.510  25.518  32.457  1.00  0.00    -0.206 F 
ATOM     60  C   UNL A   1      49.665  25.582  31.529  1.00  0.00     0.040 A 
ATOM     61  C   UNL A   1      50.060  26.801  29.487  1.00  0.00     0.040 A 
ATOM     62  F   UNL A   1      48.298  27.947  28.443  1.00  0.00    -0.206 F 
ATOM     63  C   UNL A   1      50.538  26.008  30.529  1.00  0.00     0.006 A 
ENDBRANCH  39  56
ENDBRANCH  13  14
ENDBRANCH   6   8
ENDBRANCH   5   6
ENDBRANCH   4   5
ENDBRANCH   3   4
ENDBRANCH   2   3
ENDBRANCH   1   2
BRANCH   1  64
ATOM     64  C   UNL A   1      33.245  36.610  29.118  1.00  0.00     0.188 C 
BRANCH  64  65
ATOM     65  O   UNL A   1      32.452  36.843  30.284  1.00  0.00    -0.376 OA
BRANCH  65  66
ATOM     66  C   UNL A   1      33.121  37.285  31.459  1.00  0.00     0.202 C 
BRANCH  66  67
ATOM     67  C   UNL A   1      33.246  36.288  32.620  1.00  0.00     0.261 C 
BRANCH  67  68
ATOM     68  O   UNL A   1      33.138  34.913  32.233  1.00  0.00    -0.461 OA
BRANCH  68  69
ATOM     69  C   UNL A   1      33.967  34.060  32.888  1.00  0.00     0.343 C 
ATOM     70  O   UNL A   1      33.916  32.833  32.805  1.00  0.00    -0.249 OA
BRANCH  69  71
ATOM     71  C   UNL A   1      35.022  34.773  33.702  1.00  0.00     0.308 C 
ATOM     72  F   UNL A   1      35.212  34.246  34.949  1.00  0.00    -0.232 F 
BRANCH  71  73
ATOM     73  C   UNL A   1      36.331  34.757  32.890  1.00  0.00     0.190 C 
BRANCH  73  74
ATOM     74  C   UNL A   1      37.416  33.769  33.299  1.00  0.00    -0.015 A 
ATOM     75  C   UNL A   1      38.515  34.248  34.039  1.00  0.00     0.006 A 
ATOM     76  C   UNL A   1      37.308  32.380  33.126  1.00  0.00     0.027 A 
ATOM     77  C   UNL A   1      39.463  33.379  34.581  1.00  0.00     0.002 A 
ATOM     78  C   UNL A   1      38.269  31.515  33.662  1.00  0.00     0.041 A 
ATOM     79  C   UNL A   1      39.345  32.009  34.387  1.00  0.00     0.020 A 
ATOM     80  Cl  UNL A   1      38.089  29.814  33.464  1.00  0.00    -0.084 Cl
ENDBRANCH  73  74
BRANCH  73  81
ATOM     81  O   UNL A   1      36.031  34.548  31.501  1.00  0.00    -0.385 OA
ATOM     82  H   UNL A   1      36.455  35.241  30.970  1.00  0.00     0.211 HD
ENDBRANCH  73  81
ENDBRANCH  71  73
ENDBRANCH  69  71
ENDBRANCH  68  69
ENDBRANCH  67  68
ENDBRANCH  66  67
ENDBRANCH  65  66
ENDBRANCH  64  65
ENDBRANCH   1  64
TORSDOF 20
ENDMDL
MODEL 2
REMARK VINA RESULT:      -8.8      5.424     11.460
REMARK SMILES O=C(OCCOCCOCCOC(=O)[C@@H](F)[C@H](O)c1cccc(Cl)c1)c1ccc(-c2c3nc(c(-c4c(F)cccc4F)c4ccc([nH]4)c(-c4c(F)cccc4F)c4nc(c(-c5c(F)cccc5F)c5ccc2[nH]5)C=C4)C=C3)cc1
REMARK SMILES IDX 7 1 6 2 5 3 4 4 3 5 2 6 1 7 26 8 27 9 79 10 28 11 78 12
REMARK SMILES IDX 29 13 30 14 31 15 72 16 32 17 77 18 71 19 73 20 33 21 76 22
REMARK SMILES IDX 70 23 69 24 34 26 60 27 43 28 59 29 44 30 47 31 58 32 74 33
REMARK SMILES IDX 45 34 46 35 57 37 75 38 48 39 35 40 36 41 41 42 37 43 38 44
REMARK SMILES IDX 40 45 42 46 39 47 61 48 62 49 67 50 63 51 64 52 66 53 68 54
REMARK SMILES IDX 65 55 49 56 50 57 55 58 51 59 52 60 54 61 56 62 53 63 8 64
REMARK SMILES IDX 9 65 10 66 11 67 12 68 13 69 14 70 15 71 16 72 17 73 19 74
REMARK SMILES IDX 20 75 25 76 21 77 23 78 22 79 24 80 18 81
REMARK H PARENT 73 25 47 36 18 82
REMARK Flexibility Score: inf
ROOT
ATOM      1  C   UNL A   1      40.944  20.704  27.238  1.00  0.00     0.188 C 
ENDROOT
BRANCH   1   2
ATOM      2  O   UNL A   1      42.344  20.417  27.176  1.00  0.00    -0.376 OA
BRANCH   2   3
ATOM      3  C   UNL A   1      42.843  20.139  25.865  1.00  0.00     0.202 C 
BRANCH   3   4
ATOM      4  C   UNL A   1      43.993  21.028  25.355  1.00  0.00     0.261 C 
BRANCH   4   5
ATOM      5  O   UNL A   1      44.158  22.257  26.080  1.00  0.00    -0.460 OA
BRANCH   5   6
ATOM      6  C   UNL A   1      43.705  23.491  25.744  1.00  0.00     0.338 C 
ATOM      7  O   UNL A   1      43.664  23.802  24.556  1.00  0.00    -0.246 OA
BRANCH   6   8
ATOM      8  C   UNL A   1      43.271  24.508  26.748  1.00  0.00     0.060 A 
ATOM      9  C   UNL A   1      43.751  25.815  26.804  1.00  0.00     0.016 A 
ATOM     10  C   UNL A   1      42.233  24.154  27.626  1.00  0.00     0.016 A 
ATOM     11  C   UNL A   1      43.290  26.725  27.744  1.00  0.00     0.010 A 
ATOM     12  C   UNL A   1      41.723  25.078  28.546  1.00  0.00     0.010 A 
ATOM     13  C   UNL A   1      42.268  26.365  28.617  1.00  0.00    -0.014 A 
BRANCH  13  14
ATOM     14  C   UNL A   1      41.852  27.345  29.635  1.00  0.00     0.031 A 
ATOM     15  C   UNL A   1      42.627  27.431  30.910  1.00  0.00     0.074 A 
ATOM     16  C   UNL A   1      40.856  28.207  29.361  1.00  0.00     0.049 A 
ATOM     17  N   UNL A   1      42.402  28.168  31.965  1.00  0.00    -0.248 NA
ATOM     18  C   UNL A   1      43.820  26.573  31.016  1.00  0.00     0.031 C 
ATOM     19  C   UNL A   1      40.091  28.250  28.113  1.00  0.00     0.029 A 
ATOM     20  N   UNL A   1      40.325  29.222  30.111  1.00  0.00    -0.354 N 
ATOM     21  C   UNL A   1      43.390  27.827  32.876  1.00  0.00     0.074 A 
ATOM     22  C   UNL A   1      44.233  26.835  32.248  1.00  0.00     0.031 C 
ATOM     23  C   UNL A   1      39.187  29.242  28.187  1.00  0.00     0.029 A 
ATOM     24  C   UNL A   1      39.285  29.872  29.492  1.00  0.00     0.049 A 
ATOM     25  H   UNL A   1      40.657  29.464  31.006  1.00  0.00     0.167 HD
ATOM     26  C   UNL A   1      43.554  28.293  34.134  1.00  0.00     0.037 A 
ATOM     27  C   UNL A   1      38.474  30.838  29.956  1.00  0.00     0.037 A 
ATOM     28  C   UNL A   1      42.706  29.290  34.729  1.00  0.00     0.049 A 
ATOM     29  C   UNL A   1      38.658  31.301  31.371  1.00  0.00     0.074 A 
ATOM     30  C   UNL A   1      42.772  29.834  35.998  1.00  0.00     0.029 A 
ATOM     31  N   UNL A   1      41.629  29.886  34.089  1.00  0.00    -0.354 N 
ATOM     32  N   UNL A   1      39.564  30.944  32.246  1.00  0.00    -0.248 NA
ATOM     33  C   UNL A   1      37.678  32.275  31.872  1.00  0.00     0.031 C 
ATOM     34  C   UNL A   1      41.700  30.719  36.145  1.00  0.00     0.029 A 
ATOM     35  C   UNL A   1      40.998  30.764  34.950  1.00  0.00     0.049 A 
ATOM     36  H   UNL A   1      41.355  29.711  33.159  1.00  0.00     0.167 HD
ATOM     37  C   UNL A   1      39.246  31.620  33.412  1.00  0.00     0.074 A 
ATOM     38  C   UNL A   1      38.095  32.450  33.116  1.00  0.00     0.031 C 
ATOM     39  C   UNL A   1      39.836  31.548  34.627  1.00  0.00     0.037 A 
BRANCH  26  40
ATOM     40  C   UNL A   1      44.628  27.667  34.967  1.00  0.00     0.057 A 
ATOM     41  C   UNL A   1      45.921  28.195  35.052  1.00  0.00     0.134 A 
ATOM     42  C   UNL A   1      44.348  26.513  35.712  1.00  0.00     0.134 A 
ATOM     43  F   UNL A   1      46.259  29.282  34.342  1.00  0.00    -0.206 F 
ATOM     44  C   UNL A   1      46.902  27.592  35.842  1.00  0.00     0.040 A 
ATOM     45  C   UNL A   1      45.314  25.914  36.520  1.00  0.00     0.040 A 
ATOM     46  F   UNL A   1      43.130  25.952  35.665  1.00  0.00    -0.206 F 
ATOM     47  C   UNL A   1      46.596  26.452  36.584  1.00  0.00     0.006 A 
ENDBRANCH  26  40
BRANCH  27  48
ATOM     48  C   UNL A   1      37.327  31.338  29.166  1.00  0.00     0.057 A 
ATOM     49  C   UNL A   1      37.303  32.635  28.646  1.00  0.00     0.134 A 
ATOM     50  C   UNL A   1      36.164  30.568  29.054  1.00  0.00     0.134 A 
ATOM     51  F   UNL A   1      38.378  33.430  28.755  1.00  0.00    -0.206 F 
ATOM     52  C   UNL A   1      36.146  33.166  28.069  1.00  0.00     0.040 A 
ATOM     53  C   UNL A   1      35.001  31.088  28.486  1.00  0.00     0.040 A 
ATOM     54  F   UNL A   1      36.129  29.318  29.536  1.00  0.00    -0.206 F 
ATOM     55  C   UNL A   1      34.988  32.393  27.999  1.00  0.00     0.006 A 
ENDBRANCH  27  48
BRANCH  39  56
ATOM     56  C   UNL A   1      39.223  32.373  35.712  1.00  0.00     0.057 A 
ATOM     57  C   UNL A   1      38.282  31.830  36.597  1.00  0.00     0.134 A 
ATOM     58  C   UNL A   1      39.591  33.710  35.886  1.00  0.00     0.134 A 
ATOM     59  F   UNL A   1      37.873  30.559  36.460  1.00  0.00    -0.206 F 
ATOM     60  C   UNL A   1      37.715  32.599  37.611  1.00  0.00     0.040 A 
ATOM     61  C   UNL A   1      39.050  34.482  36.912  1.00  0.00     0.040 A 
ATOM     62  F   UNL A   1      40.486  34.283  35.066  1.00  0.00    -0.206 F 
ATOM     63  C   UNL A   1      38.106  33.928  37.775  1.00  0.00     0.006 A 
ENDBRANCH  39  56
ENDBRANCH  13  14
ENDBRANCH   6   8
ENDBRANCH   5   6
ENDBRANCH   4   5
ENDBRANCH   3   4
ENDBRANCH   2   3
ENDBRANCH   1   2
BRANCH   1  64
ATOM     64  C   UNL A   1      40.469  21.486  26.013  1.00  0.00     0.188 C 
BRANCH  64  65
ATOM     65  O   UNL A   1      39.092  21.866  25.972  1.00  0.00    -0.376 OA
BRANCH  65  66
ATOM     66  C   UNL A   1      38.732  23.106  26.569  1.00  0.00     0.202 C 
BRANCH  66  67
ATOM     67  C   UNL A   1      37.604  23.909  25.906  1.00  0.00     0.261 C 
BRANCH  67  68
ATOM     68  O   UNL A   1      36.286  23.422  26.187  1.00  0.00    -0.461 OA
BRANCH  68  69
ATOM     69  C   UNL A   1      35.337  23.759  25.277  1.00  0.00     0.343 C 
ATOM     70  O   UNL A   1      34.773  24.851  25.224  1.00  0.00    -0.249 OA
BRANCH  69  71
ATOM     71  C   UNL A   1      35.073  22.663  24.270  1.00  0.00     0.308 C 
ATOM     72  F   UNL A   1      35.969  22.630  23.238  1.00  0.00    -0.232 F 
BRANCH  71  73
ATOM     73  C   UNL A   1      35.056  21.322  25.030  1.00  0.00     0.190 C 
BRANCH  73  74
ATOM     74  C   UNL A   1      34.122  20.227  24.531  1.00  0.00    -0.015 A 
ATOM     75  C   UNL A   1      32.974  20.603  23.807  1.00  0.00     0.006 A 
ATOM     76  C   UNL A   1      34.421  18.857  24.607  1.00  0.00     0.027 A 
ATOM     77  C   UNL A   1      32.160  19.653  23.187  1.00  0.00     0.002 A 
ATOM     78  C   UNL A   1      33.594  17.910  23.994  1.00  0.00     0.041 A 
ATOM     79  C   UNL A   1      32.465  18.302  23.285  1.00  0.00     0.020 A 
ATOM     80  Cl  UNL A   1      34.005  16.239  24.073  1.00  0.00    -0.084 Cl
ENDBRANCH  73  74
BRANCH  73  81
ATOM     81  O   UNL A   1      36.388  20.788  25.088  1.00  0.00    -0.385 OA
ATOM     82  H   UNL A   1      36.362  19.832  24.925  1.00  0.00     0.211 HD
ENDBRANCH  73  81
ENDBRANCH  71  73
ENDBRANCH  69  71
ENDBRANCH  68  69
ENDBRANCH  67  68
ENDBRANCH  66  67
ENDBRANCH  65  66
ENDBRANCH  64  65
ENDBRANCH   1  64
TORSDOF 20
ENDMDL
MODEL 3
REMARK VINA RESULT:      -8.7      1.701      2.420
REMARK SMILES O=C(OCCOCCOCCOC(=O)[C@@H](F)[C@H](O)c1cccc(Cl)c1)c1ccc(-c2c3nc(c(-c4c(F)cccc4F)c4ccc([nH]4)c(-c4c(F)cccc4F)c4nc(c(-c5c(F)cccc5F)c5ccc2[nH]5)C=C4)C=C3)cc1
REMARK SMILES IDX 7 1 6 2 5 3 4 4 3 5 2 6 1 7 26 8 27 9 79 10 28 11 78 12
REMARK SMILES IDX 29 13 30 14 31 15 72 16 32 17 77 18 71 19 73 20 33 21 76 22
REMARK SMILES IDX 70 23 69 24 34 26 60 27 43 28 59 29 44 30 47 31 58 32 74 33
REMARK SMILES IDX 45 34 46 35 57 37 75 38 48 39 35 40 36 41 41 42 37 43 38 44
REMARK SMILES IDX 40 45 42 46 39 47 61 48 62 49 67 50 63 51 64 52 66 53 68 54
REMARK SMILES IDX 65 55 49 56 50 57 55 58 51 59 52 60 54 61 56 62 53 63 8 64
REMARK SMILES IDX 9 65 10 66 11 67 12 68 13 69 14 70 15 71 16 72 17 73 19 74
REMARK SMILES IDX 20 75 25 76 21 77 23 78 22 79 24 80 18 81
REMARK H PARENT 73 25 47 36 18 82
REMARK Flexibility Score: inf
ROOT
ATOM      1  C   UNL A   1      33.326  35.457  29.414  1.00  0.00     0.188 C 
ENDROOT
BRANCH   1   2
ATOM      2  O   UNL A   1      34.022  35.195  28.193  1.00  0.00    -0.376 OA
BRANCH   2   3
ATOM      3  C   UNL A   1      34.975  34.132  28.258  1.00  0.00     0.202 C 
BRANCH   3   4
ATOM      4  C   UNL A   1      34.605  32.917  29.131  1.00  0.00     0.261 C 
BRANCH   4   5
ATOM      5  O   UNL A   1      34.038  31.816  28.402  1.00  0.00    -0.460 OA
BRANCH   5   6
ATOM      6  C   UNL A   1      34.688  30.769  27.835  1.00  0.00     0.338 C 
ATOM      7  O   UNL A   1      34.165  30.194  26.883  1.00  0.00    -0.246 OA
BRANCH   6   8
ATOM      8  C   UNL A   1      36.006  30.260  28.321  1.00  0.00     0.060 A 
ATOM      9  C   UNL A   1      37.239  30.637  27.794  1.00  0.00     0.016 A 
ATOM     10  C   UNL A   1      36.005  29.429  29.453  1.00  0.00     0.016 A 
ATOM     11  C   UNL A   1      38.433  30.152  28.305  1.00  0.00     0.010 A 
ATOM     12  C   UNL A   1      37.205  28.973  30.011  1.00  0.00     0.010 A 
ATOM     13  C   UNL A   1      38.425  29.321  29.421  1.00  0.00    -0.014 A 
BRANCH  13  14
ATOM     14  C   UNL A   1      39.713  28.784  29.893  1.00  0.00     0.031 A 
ATOM     15  C   UNL A   1      40.305  29.335  31.151  1.00  0.00     0.074 A 
ATOM     16  C   UNL A   1      40.279  27.748  29.248  1.00  0.00     0.049 A 
ATOM     17  N   UNL A   1      41.451  29.060  31.713  1.00  0.00    -0.248 NA
ATOM     18  C   UNL A   1      39.498  30.329  31.880  1.00  0.00     0.031 C 
ATOM     19  C   UNL A   1      39.736  27.093  28.056  1.00  0.00     0.029 A 
ATOM     20  N   UNL A   1      41.428  27.053  29.514  1.00  0.00    -0.354 N 
ATOM     21  C   UNL A   1      41.526  29.881  32.828  1.00  0.00     0.074 A 
ATOM     22  C   UNL A   1      40.303  30.649  32.881  1.00  0.00     0.031 C 
ATOM     23  C   UNL A   1      40.557  26.093  27.693  1.00  0.00     0.029 A 
ATOM     24  C   UNL A   1      41.693  26.063  28.599  1.00  0.00     0.049 A 
ATOM     25  H   UNL A   1      42.009  27.244  30.286  1.00  0.00     0.167 HD
ATOM     26  C   UNL A   1      42.544  29.990  33.709  1.00  0.00     0.037 A 
ATOM     27  C   UNL A   1      42.761  25.257  28.487  1.00  0.00     0.037 A 
ATOM     28  C   UNL A   1      43.746  29.204  33.639  1.00  0.00     0.049 A 
ATOM     29  C   UNL A   1      43.891  25.435  29.456  1.00  0.00     0.074 A 
ATOM     30  C   UNL A   1      44.848  29.232  34.472  1.00  0.00     0.029 A 
ATOM     31  N   UNL A   1      44.000  28.248  32.665  1.00  0.00    -0.354 N 
ATOM     32  N   UNL A   1      43.980  26.244  30.482  1.00  0.00    -0.248 NA
ATOM     33  C   UNL A   1      45.086  24.611  29.225  1.00  0.00     0.031 C 
ATOM     34  C   UNL A   1      45.794  28.333  33.970  1.00  0.00     0.029 A 
ATOM     35  C   UNL A   1      45.258  27.707  32.855  1.00  0.00     0.049 A 
ATOM     36  H   UNL A   1      43.376  27.991  31.947  1.00  0.00     0.167 HD
ATOM     37  C   UNL A   1      45.250  26.055  30.999  1.00  0.00     0.074 A 
ATOM     38  C   UNL A   1      45.877  25.016  30.207  1.00  0.00     0.031 C 
ATOM     39  C   UNL A   1      45.857  26.696  32.024  1.00  0.00     0.037 A 
BRANCH  26  40
ATOM     40  C   UNL A   1      42.437  31.050  34.760  1.00  0.00     0.057 A 
ATOM     41  C   UNL A   1      42.897  32.357  34.563  1.00  0.00     0.134 A 
ATOM     42  C   UNL A   1      41.846  30.750  35.995  1.00  0.00     0.134 A 
ATOM     43  F   UNL A   1      43.498  32.700  33.413  1.00  0.00    -0.206 F 
ATOM     44  C   UNL A   1      42.780  33.327  35.561  1.00  0.00     0.040 A 
ATOM     45  C   UNL A   1      41.705  31.716  36.991  1.00  0.00     0.040 A 
ATOM     46  F   UNL A   1      41.394  29.513  36.250  1.00  0.00    -0.206 F 
ATOM     47  C   UNL A   1      42.176  33.009  36.776  1.00  0.00     0.006 A 
ENDBRANCH  26  40
BRANCH  27  48
ATOM     48  C   UNL A   1      42.911  24.318  27.353  1.00  0.00     0.057 A 
ATOM     49  C   UNL A   1      43.445  24.725  26.127  1.00  0.00     0.134 A 
ATOM     50  C   UNL A   1      42.374  23.028  27.435  1.00  0.00     0.134 A 
ATOM     51  F   UNL A   1      43.943  25.961  25.981  1.00  0.00    -0.206 F 
ATOM     52  C   UNL A   1      43.407  23.892  25.005  1.00  0.00     0.040 A 
ATOM     53  C   UNL A   1      42.325  22.190  26.321  1.00  0.00     0.040 A 
ATOM     54  F   UNL A   1      41.848  22.584  28.585  1.00  0.00    -0.206 F 
ATOM     55  C   UNL A   1      42.836  22.624  25.100  1.00  0.00     0.006 A 
ENDBRANCH  27  48
BRANCH  39  56
ATOM     56  C   UNL A   1      47.268  26.297  32.315  1.00  0.00     0.057 A 
ATOM     57  C   UNL A   1      47.562  25.264  33.214  1.00  0.00     0.134 A 
ATOM     58  C   UNL A   1      48.336  26.935  31.676  1.00  0.00     0.134 A 
ATOM     59  F   UNL A   1      46.578  24.635  33.874  1.00  0.00    -0.206 F 
ATOM     60  C   UNL A   1      48.878  24.891  33.481  1.00  0.00     0.040 A 
ATOM     61  C   UNL A   1      49.654  26.553  31.915  1.00  0.00     0.040 A 
ATOM     62  F   UNL A   1      48.112  27.933  30.807  1.00  0.00    -0.206 F 
ATOM     63  C   UNL A   1      49.928  25.531  32.823  1.00  0.00     0.006 A 
ENDBRANCH  39  56
ENDBRANCH  13  14
ENDBRANCH   6   8
ENDBRANCH   5   6
ENDBRANCH   4   5
ENDBRANCH   3   4
ENDBRANCH   2   3
ENDBRANCH   1   2
BRANCH   1  64
ATOM     64  C   UNL A   1      33.279  36.952  29.733  1.00  0.00     0.188 C 
BRANCH  64  65
ATOM     65  O   UNL A   1      32.767  37.334  31.011  1.00  0.00    -0.376 OA
BRANCH  65  66
ATOM     66  C   UNL A   1      33.707  37.618  32.040  1.00  0.00     0.202 C 
BRANCH  66  67
ATOM     67  C   UNL A   1      33.973  36.518  33.078  1.00  0.00     0.261 C 
BRANCH  67  68
ATOM     68  O   UNL A   1      33.241  35.306  32.856  1.00  0.00    -0.461 OA
BRANCH  68  69
ATOM     69  C   UNL A   1      33.908  34.163  33.160  1.00  0.00     0.343 C 
ATOM     70  O   UNL A   1      33.387  33.052  33.253  1.00  0.00    -0.249 OA
BRANCH  69  71
ATOM     71  C   UNL A   1      35.397  34.375  33.318  1.00  0.00     0.308 C 
ATOM     72  F   UNL A   1      35.792  34.597  34.608  1.00  0.00    -0.232 F 
BRANCH  71  73
ATOM     73  C   UNL A   1      36.111  33.144  32.727  1.00  0.00     0.190 C 
BRANCH  73  74
ATOM     74  C   UNL A   1      37.468  33.351  32.067  1.00  0.00    -0.015 A 
ATOM     75  C   UNL A   1      37.582  33.128  30.681  1.00  0.00     0.006 A 
ATOM     76  C   UNL A   1      38.576  33.908  32.726  1.00  0.00     0.027 A 
ATOM     77  C   UNL A   1      38.748  33.447  29.985  1.00  0.00     0.002 A 
ATOM     78  C   UNL A   1      39.747  34.214  32.024  1.00  0.00     0.041 A 
ATOM     79  C   UNL A   1      39.837  33.985  30.657  1.00  0.00     0.020 A 
ATOM     80  Cl  UNL A   1      41.075  34.931  32.852  1.00  0.00    -0.084 Cl
ENDBRANCH  73  74
BRANCH  73  81
ATOM     81  O   UNL A   1      36.250  32.138  33.742  1.00  0.00    -0.385 OA
ATOM     82  H   UNL A   1      37.151  31.777  33.718  1.00  0.00     0.211 HD
ENDBRANCH  73  81
ENDBRANCH  71  73
ENDBRANCH  69  71
ENDBRANCH  68  69
ENDBRANCH  67  68
ENDBRANCH  66  67
ENDBRANCH  65  66
ENDBRANCH  64  65
ENDBRANCH   1  64
TORSDOF 20
ENDMDL
