MODEL 1
REMARK VINA RESULT:      -9.9      0.000      0.000
REMARK SMILES CCOc1cccc2c(SCC(=O)OCCOCCOCCOC(=O)c3ccc(-c4c5nc(c(-c6c(F)cccc6F)c6ccc([nH]6)c(-c6c(F)cccc6F)c6nc(c(-c7c(F)cccc7F)c7ccc4[nH]7)C=C6)C=C5)cc3)cc(C)nc12
REMARK SMILES IDX 18 1 17 2 16 3 15 4 14 5 12 6 13 7 11 8 10 9 9 10 4 11 5 12
REMARK SMILES IDX 84 13 6 14 8 15 83 16 7 17 81 18 80 19 82 20 3 21 2 22 1 23
REMARK SMILES IDX 19 24 20 25 21 26 22 27 23 28 24 29 25 30 26 31 27 32 79 33
REMARK SMILES IDX 28 34 78 35 29 36 30 37 31 38 72 39 32 40 77 41 71 42 73 43
REMARK SMILES IDX 33 44 76 45 70 46 69 47 34 49 60 50 43 51 59 52 44 53 47 54
REMARK SMILES IDX 58 55 74 56 45 57 46 58 57 60 75 61 48 62 35 63 36 64 41 65
REMARK SMILES IDX 37 66 38 67 40 68 42 69 39 70 61 71 62 72 67 73 63 74 64 75
REMARK SMILES IDX 66 76 68 77 65 78 49 79 50 80 55 81 51 82 52 83 54 84 56 85
REMARK SMILES IDX 53 86
REMARK H PARENT 73 48 47 59
REMARK Flexibility Score: inf
ROOT
ATOM      1  C   UNL A   1      37.412  22.766  25.023  1.00  0.00     0.188 C 
ENDROOT
BRANCH   1   2
ATOM      2  O   UNL A   1      36.981  22.915  23.676  1.00  0.00    -0.376 OA
BRANCH   2   3
ATOM      3  C   UNL A   1      35.579  22.883  23.415  1.00  0.00     0.202 C 
BRANCH   3   4
ATOM      4  C   UNL A   1      34.905  24.258  23.401  1.00  0.00     0.261 C 
BRANCH   4   5
ATOM      5  O   UNL A   1      34.012  24.339  22.271  1.00  0.00    -0.463 OA
BRANCH   5   6
ATOM      6  C   UNL A   1      33.261  25.464  22.156  1.00  0.00     0.316 C 
ATOM      7  O   UNL A   1      33.289  26.203  21.178  1.00  0.00    -0.251 OA
BRANCH   6   8
ATOM      8  C   UNL A   1      32.201  25.585  23.244  1.00  0.00     0.197 C 
BRANCH   8   9
ATOM      9  S   UNL A   1      31.043  24.171  23.377  1.00  0.00    -0.114 SA
BRANCH   9  10
ATOM     10  C   UNL A   1      31.877  22.936  24.436  1.00  0.00     0.019 A 
ATOM     11  C   UNL A   1      32.757  19.318  24.454  1.00  0.00     0.145 A 
ATOM     12  C   UNL A   1      32.571  18.924  23.132  1.00  0.00     0.049 A 
ATOM     13  C   UNL A   1      32.597  20.648  24.863  1.00  0.00     0.114 A 
ATOM     14  C   UNL A   1      32.129  19.857  22.207  1.00  0.00     0.005 A 
ATOM     15  C   UNL A   1      32.085  21.602  23.952  1.00  0.00     0.018 A 
ATOM     16  N   UNL A   1      32.973  20.985  26.102  1.00  0.00    -0.249 NA
ATOM     17  C   UNL A   1      31.855  21.166  22.618  1.00  0.00     0.012 A 
ATOM     18  C   UNL A   1      32.922  22.267  26.491  1.00  0.00     0.039 A 
ATOM     19  C   UNL A   1      32.353  23.262  25.711  1.00  0.00     0.039 A 
ATOM     20  C   UNL A   1      33.579  22.539  27.805  1.00  0.00     0.067 C 
BRANCH  11  21
ATOM     21  O   UNL A   1      33.190  18.353  25.341  1.00  0.00    -0.492 OA
BRANCH  21  22
ATOM     22  C   UNL A   1      32.387  17.166  25.233  1.00  0.00     0.226 C 
ATOM     23  C   UNL A   1      33.260  15.926  25.316  1.00  0.00     0.049 C 
ENDBRANCH  21  22
ENDBRANCH  11  21
ENDBRANCH   9  10
ENDBRANCH   8   9
ENDBRANCH   6   8
ENDBRANCH   5   6
ENDBRANCH   4   5
ENDBRANCH   3   4
ENDBRANCH   2   3
ENDBRANCH   1   2
BRANCH   1  24
ATOM     24  C   UNL A   1      37.343  21.363  25.661  1.00  0.00     0.188 C 
BRANCH  24  25
ATOM     25  O   UNL A   1      37.218  20.236  24.809  1.00  0.00    -0.376 OA
BRANCH  25  26
ATOM     26  C   UNL A   1      38.198  19.220  24.956  1.00  0.00     0.202 C 
BRANCH  26  27
ATOM     27  C   UNL A   1      39.316  19.546  25.946  1.00  0.00     0.261 C 
BRANCH  27  28
ATOM     28  O   UNL A   1      40.575  18.945  25.569  1.00  0.00    -0.460 OA
BRANCH  28  29
ATOM     29  C   UNL A   1      41.637  19.416  26.268  1.00  0.00     0.338 C 
ATOM     30  O   UNL A   1      42.632  18.784  26.572  1.00  0.00    -0.246 OA
BRANCH  29  31
ATOM     31  C   UNL A   1      41.471  20.829  26.683  1.00  0.00     0.060 A 
ATOM     32  C   UNL A   1      40.943  21.800  25.834  1.00  0.00     0.016 A 
ATOM     33  C   UNL A   1      42.081  21.226  27.875  1.00  0.00     0.016 A 
ATOM     34  C   UNL A   1      41.144  23.155  26.122  1.00  0.00     0.010 A 
ATOM     35  C   UNL A   1      42.222  22.585  28.189  1.00  0.00     0.010 A 
ATOM     36  C   UNL A   1      41.826  23.577  27.279  1.00  0.00    -0.014 A 
BRANCH  36  37
ATOM     37  C   UNL A   1      42.225  25.014  27.467  1.00  0.00     0.031 A 
ATOM     38  C   UNL A   1      43.514  25.559  26.876  1.00  0.00     0.074 A 
ATOM     39  C   UNL A   1      41.411  25.888  28.099  1.00  0.00     0.049 A 
ATOM     40  N   UNL A   1      44.095  26.719  27.082  1.00  0.00    -0.248 NA
ATOM     41  C   UNL A   1      44.243  24.697  25.933  1.00  0.00     0.031 C 
ATOM     42  C   UNL A   1      40.106  25.568  28.673  1.00  0.00     0.029 A 
ATOM     43  N   UNL A   1      41.555  27.236  28.337  1.00  0.00    -0.354 N 
ATOM     44  C   UNL A   1      45.283  26.695  26.357  1.00  0.00     0.074 A 
ATOM     45  C   UNL A   1      45.332  25.415  25.684  1.00  0.00     0.031 C 
ATOM     46  C   UNL A   1      39.534  26.695  29.121  1.00  0.00     0.029 A 
ATOM     47  C   UNL A   1      40.483  27.795  28.991  1.00  0.00     0.049 A 
ATOM     48  H   UNL A   1      42.349  27.750  28.066  1.00  0.00     0.167 HD
ATOM     49  C   UNL A   1      46.250  27.642  26.267  1.00  0.00     0.037 A 
ATOM     50  C   UNL A   1      40.290  29.030  29.492  1.00  0.00     0.037 A 
ATOM     51  C   UNL A   1      46.186  28.951  26.869  1.00  0.00     0.049 A 
ATOM     52  C   UNL A   1      41.382  30.054  29.411  1.00  0.00     0.074 A 
ATOM     53  C   UNL A   1      47.132  29.966  26.833  1.00  0.00     0.029 A 
ATOM     54  N   UNL A   1      45.110  29.442  27.589  1.00  0.00    -0.354 N 
ATOM     55  N   UNL A   1      42.559  29.961  28.843  1.00  0.00    -0.248 NA
ATOM     56  C   UNL A   1      41.133  31.341  30.076  1.00  0.00     0.031 C 
ATOM     57  C   UNL A   1      46.640  31.057  27.560  1.00  0.00     0.029 A 
ATOM     58  C   UNL A   1      45.372  30.737  28.011  1.00  0.00     0.049 A 
ATOM     59  H   UNL A   1      44.282  28.945  27.775  1.00  0.00     0.167 HD
ATOM     60  C   UNL A   1      43.198  31.167  29.100  1.00  0.00     0.074 A 
ATOM     61  C   UNL A   1      42.263  31.992  29.836  1.00  0.00     0.031 C 
ATOM     62  C   UNL A   1      44.455  31.547  28.767  1.00  0.00     0.037 A 
BRANCH  49  63
ATOM     63  C   UNL A   1      47.508  27.295  25.521  1.00  0.00     0.057 A 
ATOM     64  C   UNL A   1      47.671  27.561  24.157  1.00  0.00     0.134 A 
ATOM     65  C   UNL A   1      48.609  26.767  26.212  1.00  0.00     0.134 A 
ATOM     66  F   UNL A   1      46.656  28.059  23.436  1.00  0.00    -0.206 F 
ATOM     67  C   UNL A   1      48.882  27.308  23.505  1.00  0.00     0.040 A 
ATOM     68  C   UNL A   1      49.829  26.532  25.578  1.00  0.00     0.040 A 
ATOM     69  F   UNL A   1      48.522  26.500  27.524  1.00  0.00    -0.206 F 
ATOM     70  C   UNL A   1      49.968  26.802  24.219  1.00  0.00     0.006 A 
ENDBRANCH  49  63
BRANCH  50  71
ATOM     71  C   UNL A   1      39.021  29.337  30.201  1.00  0.00     0.057 A 
ATOM     72  C   UNL A   1      38.846  29.017  31.551  1.00  0.00     0.134 A 
ATOM     73  C   UNL A   1      37.969  29.990  29.547  1.00  0.00     0.134 A 
ATOM     74  F   UNL A   1      39.805  28.361  32.220  1.00  0.00    -0.206 F 
ATOM     75  C   UNL A   1      37.670  29.346  32.229  1.00  0.00     0.040 A 
ATOM     76  C   UNL A   1      36.804  30.355  30.220  1.00  0.00     0.040 A 
ATOM     77  F   UNL A   1      38.077  30.319  28.251  1.00  0.00    -0.206 F 
ATOM     78  C   UNL A   1      36.653  30.031  31.566  1.00  0.00     0.006 A 
ENDBRANCH  50  71
BRANCH  62  79
ATOM     79  C   UNL A   1      44.884  32.916  29.205  1.00  0.00     0.057 A 
ATOM     80  C   UNL A   1      44.647  34.046  28.411  1.00  0.00     0.134 A 
ATOM     81  C   UNL A   1      45.564  33.105  30.414  1.00  0.00     0.134 A 
ATOM     82  F   UNL A   1      44.014  33.930  27.234  1.00  0.00    -0.206 F 
ATOM     83  C   UNL A   1      45.103  35.311  28.788  1.00  0.00     0.040 A 
ATOM     84  C   UNL A   1      46.006  34.368  30.811  1.00  0.00     0.040 A 
ATOM     85  F   UNL A   1      45.818  32.066  31.223  1.00  0.00    -0.206 F 
ATOM     86  C   UNL A   1      45.786  35.474  29.992  1.00  0.00     0.006 A 
ENDBRANCH  62  79
ENDBRANCH  36  37
ENDBRANCH  29  31
ENDBRANCH  28  29
ENDBRANCH  27  28
ENDBRANCH  26  27
ENDBRANCH  25  26
ENDBRANCH  24  25
ENDBRANCH   1  24
TORSDOF 21
ENDMDL
MODEL 2
REMARK VINA RESULT:      -9.8      3.974      7.404
REMARK SMILES CCOc1cccc2c(SCC(=O)OCCOCCOCCOC(=O)c3ccc(-c4c5nc(c(-c6c(F)cccc6F)c6ccc([nH]6)c(-c6c(F)cccc6F)c6nc(c(-c7c(F)cccc7F)c7ccc4[nH]7)C=C6)C=C5)cc3)cc(C)nc12
REMARK SMILES IDX 18 1 17 2 16 3 15 4 14 5 12 6 13 7 11 8 10 9 9 10 4 11 5 12
REMARK SMILES IDX 84 13 6 14 8 15 83 16 7 17 81 18 80 19 82 20 3 21 2 22 1 23
REMARK SMILES IDX 19 24 20 25 21 26 22 27 23 28 24 29 25 30 26 31 27 32 79 33
REMARK SMILES IDX 28 34 78 35 29 36 30 37 31 38 72 39 32 40 77 41 71 42 73 43
REMARK SMILES IDX 33 44 76 45 70 46 69 47 34 49 60 50 43 51 59 52 44 53 47 54
REMARK SMILES IDX 58 55 74 56 45 57 46 58 57 60 75 61 48 62 35 63 36 64 41 65
REMARK SMILES IDX 37 66 38 67 40 68 42 69 39 70 61 71 62 72 67 73 63 74 64 75
REMARK SMILES IDX 66 76 68 77 65 78 49 79 50 80 55 81 51 82 52 83 54 84 56 85
REMARK SMILES IDX 53 86
REMARK H PARENT 73 48 47 59
REMARK Flexibility Score: inf
ROOT
ATOM      1  C   UNL A   1      33.732  27.389  23.018  1.00  0.00     0.188 C 
ENDROOT
BRANCH   1   2
ATOM      2  O   UNL A   1      34.125  26.069  23.371  1.00  0.00    -0.376 OA
BRANCH   2   3
ATOM      3  C   UNL A   1      33.453  24.980  22.739  1.00  0.00     0.202 C 
BRANCH   3   4
ATOM      4  C   UNL A   1      32.256  25.388  21.875  1.00  0.00     0.261 C 
BRANCH   4   5
ATOM      5  O   UNL A   1      31.096  25.554  22.716  1.00  0.00    -0.463 OA
BRANCH   5   6
ATOM      6  C   UNL A   1      31.066  24.847  23.874  1.00  0.00     0.316 C 
ATOM      7  O   UNL A   1      30.943  25.361  24.981  1.00  0.00    -0.251 OA
BRANCH   6   8
ATOM      8  C   UNL A   1      30.947  23.345  23.651  1.00  0.00     0.197 C 
BRANCH   8   9
ATOM      9  S   UNL A   1      30.988  22.317  25.166  1.00  0.00    -0.114 SA
BRANCH   9  10
ATOM     10  C   UNL A   1      32.581  21.421  25.124  1.00  0.00     0.019 A 
ATOM     11  C   UNL A   1      36.225  22.055  25.550  1.00  0.00     0.145 A 
ATOM     12  C   UNL A   1      36.276  23.312  26.145  1.00  0.00     0.049 A 
ATOM     13  C   UNL A   1      35.012  21.408  25.281  1.00  0.00     0.114 A 
ATOM     14  C   UNL A   1      35.092  23.984  26.401  1.00  0.00     0.005 A 
ATOM     15  C   UNL A   1      33.794  22.102  25.475  1.00  0.00     0.018 A 
ATOM     16  N   UNL A   1      35.043  20.132  24.883  1.00  0.00    -0.249 NA
ATOM     17  C   UNL A   1      33.872  23.405  26.039  1.00  0.00     0.012 A 
ATOM     18  C   UNL A   1      33.897  19.457  24.710  1.00  0.00     0.039 A 
ATOM     19  C   UNL A   1      32.654  20.065  24.785  1.00  0.00     0.039 A 
ATOM     20  C   UNL A   1      34.073  17.990  24.490  1.00  0.00     0.067 C 
BRANCH  11  21
ATOM     21  O   UNL A   1      37.429  21.427  25.305  1.00  0.00    -0.492 OA
BRANCH  21  22
ATOM     22  C   UNL A   1      38.529  22.255  25.717  1.00  0.00     0.226 C 
ATOM     23  C   UNL A   1      39.695  21.399  26.179  1.00  0.00     0.049 C 
ENDBRANCH  21  22
ENDBRANCH  11  21
ENDBRANCH   9  10
ENDBRANCH   8   9
ENDBRANCH   6   8
ENDBRANCH   5   6
ENDBRANCH   4   5
ENDBRANCH   3   4
ENDBRANCH   2   3
ENDBRANCH   1   2
BRANCH   1  24
ATOM     24  C   UNL A   1      33.744  28.473  24.115  1.00  0.00     0.188 C 
BRANCH  24  25
ATOM     25  O   UNL A   1      32.726  29.459  24.107  1.00  0.00    -0.376 OA
BRANCH  25  26
ATOM     26  C   UNL A   1      31.776  29.398  25.160  1.00  0.00     0.202 C 
BRANCH  26  27
ATOM     27  C   UNL A   1      31.479  30.739  25.831  1.00  0.00     0.261 C 
BRANCH  27  28
ATOM     28  O   UNL A   1      32.003  30.808  27.176  1.00  0.00    -0.460 OA
BRANCH  28  29
ATOM     29  C   UNL A   1      32.857  31.841  27.379  1.00  0.00     0.338 C 
ATOM     30  O   UNL A   1      32.569  33.024  27.360  1.00  0.00    -0.246 OA
BRANCH  29  31
ATOM     31  C   UNL A   1      34.252  31.396  27.608  1.00  0.00     0.060 A 
ATOM     32  C   UNL A   1      34.598  30.052  27.729  1.00  0.00     0.016 A 
ATOM     33  C   UNL A   1      35.193  32.374  27.942  1.00  0.00     0.016 A 
ATOM     34  C   UNL A   1      35.827  29.701  28.300  1.00  0.00     0.010 A 
ATOM     35  C   UNL A   1      36.447  32.014  28.455  1.00  0.00     0.010 A 
ATOM     36  C   UNL A   1      36.757  30.672  28.718  1.00  0.00    -0.014 A 
BRANCH  36  37
ATOM     37  C   UNL A   1      37.968  30.293  29.524  1.00  0.00     0.031 A 
ATOM     38  C   UNL A   1      39.076  29.438  28.930  1.00  0.00     0.074 A 
ATOM     39  C   UNL A   1      38.151  30.766  30.775  1.00  0.00     0.049 A 
ATOM     40  N   UNL A   1      40.101  28.877  29.529  1.00  0.00    -0.248 NA
ATOM     41  C   UNL A   1      39.030  29.182  27.481  1.00  0.00     0.031 C 
ATOM     42  C   UNL A   1      37.234  31.652  31.489  1.00  0.00     0.029 A 
ATOM     43  N   UNL A   1      39.191  30.587  31.660  1.00  0.00    -0.354 N 
ATOM     44  C   UNL A   1      40.774  28.149  28.551  1.00  0.00     0.074 A 
ATOM     45  C   UNL A   1      40.056  28.358  27.312  1.00  0.00     0.031 C 
ATOM     46  C   UNL A   1      37.784  32.005  32.660  1.00  0.00     0.029 A 
ATOM     47  C   UNL A   1      39.029  31.267  32.843  1.00  0.00     0.049 A 
ATOM     48  H   UNL A   1      39.975  30.026  31.463  1.00  0.00     0.167 HD
ATOM     49  C   UNL A   1      41.878  27.370  28.671  1.00  0.00     0.037 A 
ATOM     50  C   UNL A   1      39.751  31.262  33.980  1.00  0.00     0.037 A 
ATOM     51  C   UNL A   1      42.650  27.209  29.879  1.00  0.00     0.049 A 
ATOM     52  C   UNL A   1      40.951  30.372  34.105  1.00  0.00     0.074 A 
ATOM     53  C   UNL A   1      43.777  26.427  30.086  1.00  0.00     0.029 A 
ATOM     54  N   UNL A   1      42.397  27.858  31.075  1.00  0.00    -0.354 N 
ATOM     55  N   UNL A   1      41.486  29.580  33.211  1.00  0.00    -0.248 NA
ATOM     56  C   UNL A   1      41.620  30.345  35.414  1.00  0.00     0.031 C 
ATOM     57  C   UNL A   1      44.185  26.579  31.416  1.00  0.00     0.029 A 
ATOM     58  C   UNL A   1      43.339  27.489  32.025  1.00  0.00     0.049 A 
ATOM     59  H   UNL A   1      41.658  28.490  31.229  1.00  0.00     0.167 HD
ATOM     60  C   UNL A   1      42.543  28.945  33.853  1.00  0.00     0.074 A 
ATOM     61  C   UNL A   1      42.599  29.477  35.198  1.00  0.00     0.031 C 
ATOM     62  C   UNL A   1      43.378  27.995  33.371  1.00  0.00     0.037 A 
BRANCH  49  63
ATOM     63  C   UNL A   1      42.314  26.576  27.472  1.00  0.00     0.057 A 
ATOM     64  C   UNL A   1      43.199  27.084  26.514  1.00  0.00     0.134 A 
ATOM     65  C   UNL A   1      41.904  25.242  27.329  1.00  0.00     0.134 A 
ATOM     66  F   UNL A   1      43.623  28.354  26.588  1.00  0.00    -0.206 F 
ATOM     67  C   UNL A   1      43.657  26.296  25.455  1.00  0.00     0.040 A 
ATOM     68  C   UNL A   1      42.373  24.438  26.289  1.00  0.00     0.040 A 
ATOM     69  F   UNL A   1      41.066  24.690  28.219  1.00  0.00    -0.206 F 
ATOM     70  C   UNL A   1      43.251  24.966  25.347  1.00  0.00     0.006 A 
ENDBRANCH  49  63
BRANCH  50  71
ATOM     71  C   UNL A   1      39.297  32.082  35.132  1.00  0.00     0.057 A 
ATOM     72  C   UNL A   1      38.505  31.535  36.147  1.00  0.00     0.134 A 
ATOM     73  C   UNL A   1      39.677  33.424  35.259  1.00  0.00     0.134 A 
ATOM     74  F   UNL A   1      38.082  30.265  36.064  1.00  0.00    -0.206 F 
ATOM     75  C   UNL A   1      38.116  32.292  37.253  1.00  0.00     0.040 A 
ATOM     76  C   UNL A   1      39.325  34.181  36.374  1.00  0.00     0.040 A 
ATOM     77  F   UNL A   1      40.434  34.005  34.315  1.00  0.00    -0.206 F 
ATOM     78  C   UNL A   1      38.540  33.615  37.375  1.00  0.00     0.006 A 
ENDBRANCH  50  71
BRANCH  62  79
ATOM     79  C   UNL A   1      44.421  27.472  34.313  1.00  0.00     0.057 A 
ATOM     80  C   UNL A   1      44.190  26.340  35.106  1.00  0.00     0.134 A 
ATOM     81  C   UNL A   1      45.655  28.118  34.453  1.00  0.00     0.134 A 
ATOM     82  F   UNL A   1      43.022  25.684  35.031  1.00  0.00    -0.206 F 
ATOM     83  C   UNL A   1      45.135  25.890  36.030  1.00  0.00     0.040 A 
ATOM     84  C   UNL A   1      46.617  27.666  35.357  1.00  0.00     0.040 A 
ATOM     85  F   UNL A   1      45.943  29.203  33.719  1.00  0.00    -0.206 F 
ATOM     86  C   UNL A   1      46.354  26.555  36.158  1.00  0.00     0.006 A 
ENDBRANCH  62  79
ENDBRANCH  36  37
ENDBRANCH  29  31
ENDBRANCH  28  29
ENDBRANCH  27  28
ENDBRANCH  26  27
ENDBRANCH  25  26
ENDBRANCH  24  25
ENDBRANCH   1  24
TORSDOF 21
ENDMDL
MODEL 3
REMARK VINA RESULT:      -9.7      2.849      7.957
REMARK SMILES CCOc1cccc2c(SCC(=O)OCCOCCOCCOC(=O)c3ccc(-c4c5nc(c(-c6c(F)cccc6F)c6ccc([nH]6)c(-c6c(F)cccc6F)c6nc(c(-c7c(F)cccc7F)c7ccc4[nH]7)C=C6)C=C5)cc3)cc(C)nc12
REMARK SMILES IDX 18 1 17 2 16 3 15 4 14 5 12 6 13 7 11 8 10 9 9 10 4 11 5 12
REMARK SMILES IDX 84 13 6 14 8 15 83 16 7 17 81 18 80 19 82 20 3 21 2 22 1 23
REMARK SMILES IDX 19 24 20 25 21 26 22 27 23 28 24 29 25 30 26 31 27 32 79 33
REMARK SMILES IDX 28 34 78 35 29 36 30 37 31 38 72 39 32 40 77 41 71 42 73 43
REMARK SMILES IDX 33 44 76 45 70 46 69 47 34 49 60 50 43 51 59 52 44 53 47 54
REMARK SMILES IDX 58 55 74 56 45 57 46 58 57 60 75 61 48 62 35 63 36 64 41 65
REMARK SMILES IDX 37 66 38 67 40 68 42 69 39 70 61 71 62 72 67 73 63 74 64 75
REMARK SMILES IDX 66 76 68 77 65 78 49 79 50 80 55 81 51 82 52 83 54 84 56 85
REMARK SMILES IDX 53 86
REMARK H PARENT 73 48 47 59
REMARK Flexibility Score: inf
ROOT
ATOM      1  C   UNL A   1      33.013  27.341  25.796  1.00  0.00     0.188 C 
ENDROOT
BRANCH   1   2
ATOM      2  O   UNL A   1      33.901  26.262  26.058  1.00  0.00    -0.376 OA
BRANCH   2   3
ATOM      3  C   UNL A   1      34.450  25.562  24.942  1.00  0.00     0.202 C 
BRANCH   3   4
ATOM      4  C   UNL A   1      35.431  24.446  25.313  1.00  0.00     0.261 C 
BRANCH   4   5
ATOM      5  O   UNL A   1      35.522  23.509  24.220  1.00  0.00    -0.463 OA
BRANCH   5   6
ATOM      6  C   UNL A   1      35.370  22.194  24.519  1.00  0.00     0.316 C 
ATOM      7  O   UNL A   1      36.276  21.370  24.443  1.00  0.00    -0.251 OA
BRANCH   6   8
ATOM      8  C   UNL A   1      34.040  21.888  25.196  1.00  0.00     0.197 C 
BRANCH   8   9
ATOM      9  S   UNL A   1      32.633  21.574  24.066  1.00  0.00    -0.114 SA
BRANCH   9  10
ATOM     10  C   UNL A   1      32.191  23.198  23.350  1.00  0.00     0.019 A 
ATOM     11  C   UNL A   1      29.982  26.115  24.037  1.00  0.00     0.145 A 
ATOM     12  C   UNL A   1      29.599  25.936  25.364  1.00  0.00     0.049 A 
ATOM     13  C   UNL A   1      30.887  25.254  23.403  1.00  0.00     0.114 A 
ATOM     14  C   UNL A   1      30.056  24.825  26.053  1.00  0.00     0.005 A 
ATOM     15  C   UNL A   1      31.315  24.080  24.066  1.00  0.00     0.018 A 
ATOM     16  N   UNL A   1      31.351  25.593  22.195  1.00  0.00    -0.249 NA
ATOM     17  C   UNL A   1      30.872  23.892  25.404  1.00  0.00     0.012 A 
ATOM     18  C   UNL A   1      32.289  24.841  21.603  1.00  0.00     0.039 A 
ATOM     19  C   UNL A   1      32.710  23.626  22.124  1.00  0.00     0.039 A 
ATOM     20  C   UNL A   1      32.882  25.447  20.373  1.00  0.00     0.067 C 
BRANCH  11  21
ATOM     21  O   UNL A   1      29.494  27.231  23.388  1.00  0.00    -0.492 OA
BRANCH  21  22
ATOM     22  C   UNL A   1      30.172  28.417  23.834  1.00  0.00     0.226 C 
ATOM     23  C   UNL A   1      29.555  29.652  23.201  1.00  0.00     0.049 C 
ENDBRANCH  21  22
ENDBRANCH  11  21
ENDBRANCH   9  10
ENDBRANCH   8   9
ENDBRANCH   6   8
ENDBRANCH   5   6
ENDBRANCH   4   5
ENDBRANCH   3   4
ENDBRANCH   2   3
ENDBRANCH   1   2
BRANCH   1  24
ATOM     24  C   UNL A   1      32.156  27.879  26.960  1.00  0.00     0.188 C 
BRANCH  24  25
ATOM     25  O   UNL A   1      32.606  29.027  27.659  1.00  0.00    -0.376 OA
BRANCH  25  26
ATOM     26  C   UNL A   1      33.532  29.861  26.979  1.00  0.00     0.202 C 
BRANCH  26  27
ATOM     27  C   UNL A   1      33.746  31.233  27.617  1.00  0.00     0.261 C 
BRANCH  27  28
ATOM     28  O   UNL A   1      35.146  31.547  27.788  1.00  0.00    -0.460 OA
BRANCH  28  29
ATOM     29  C   UNL A   1      35.651  31.162  28.985  1.00  0.00     0.338 C 
ATOM     30  O   UNL A   1      35.283  31.553  30.078  1.00  0.00    -0.246 OA
BRANCH  29  31
ATOM     31  C   UNL A   1      36.769  30.198  28.854  1.00  0.00     0.060 A 
ATOM     32  C   UNL A   1      37.380  29.606  29.957  1.00  0.00     0.016 A 
ATOM     33  C   UNL A   1      37.364  30.070  27.596  1.00  0.00     0.016 A 
ATOM     34  C   UNL A   1      38.637  29.007  29.815  1.00  0.00     0.010 A 
ATOM     35  C   UNL A   1      38.594  29.413  27.451  1.00  0.00     0.010 A 
ATOM     36  C   UNL A   1      39.292  28.939  28.571  1.00  0.00    -0.014 A 
BRANCH  36  37
ATOM     37  C   UNL A   1      40.725  28.494  28.469  1.00  0.00     0.031 A 
ATOM     38  C   UNL A   1      41.869  29.440  28.793  1.00  0.00     0.074 A 
ATOM     39  C   UNL A   1      41.040  27.217  28.164  1.00  0.00     0.049 A 
ATOM     40  N   UNL A   1      43.158  29.280  28.596  1.00  0.00    -0.248 NA
ATOM     41  C   UNL A   1      41.527  30.726  29.420  1.00  0.00     0.031 C 
ATOM     42  C   UNL A   1      40.081  26.149  27.887  1.00  0.00     0.029 A 
ATOM     43  N   UNL A   1      42.264  26.594  28.064  1.00  0.00    -0.354 N 
ATOM     44  C   UNL A   1      43.766  30.464  29.004  1.00  0.00     0.074 A 
ATOM     45  C   UNL A   1      42.709  31.328  29.484  1.00  0.00     0.031 C 
ATOM     46  C   UNL A   1      40.741  24.993  27.732  1.00  0.00     0.029 A 
ATOM     47  C   UNL A   1      42.176  25.256  27.762  1.00  0.00     0.049 A 
ATOM     48  H   UNL A   1      43.119  27.062  28.196  1.00  0.00     0.167 HD
ATOM     49  C   UNL A   1      45.077  30.808  28.973  1.00  0.00     0.037 A 
ATOM     50  C   UNL A   1      43.124  24.343  27.476  1.00  0.00     0.037 A 
ATOM     51  C   UNL A   1      46.153  29.936  28.569  1.00  0.00     0.049 A 
ATOM     52  C   UNL A   1      44.566  24.749  27.416  1.00  0.00     0.074 A 
ATOM     53  C   UNL A   1      47.510  30.214  28.499  1.00  0.00     0.029 A 
ATOM     54  N   UNL A   1      46.003  28.611  28.195  1.00  0.00    -0.354 N 
ATOM     55  N   UNL A   1      45.105  25.915  27.667  1.00  0.00    -0.248 NA
ATOM     56  C   UNL A   1      45.525  23.719  26.993  1.00  0.00     0.031 C 
ATOM     57  C   UNL A   1      48.176  29.066  28.050  1.00  0.00     0.029 A 
ATOM     58  C   UNL A   1      47.239  28.063  27.884  1.00  0.00     0.049 A 
ATOM     59  H   UNL A   1      45.146  28.130  28.155  1.00  0.00     0.167 HD
ATOM     60  C   UNL A   1      46.462  25.766  27.413  1.00  0.00     0.074 A 
ATOM     61  C   UNL A   1      46.670  24.386  27.031  1.00  0.00     0.031 C 
ATOM     62  C   UNL A   1      47.443  26.698  27.476  1.00  0.00     0.037 A 
BRANCH  49  63
ATOM     63  C   UNL A   1      45.445  32.217  29.345  1.00  0.00     0.057 A 
ATOM     64  C   UNL A   1      45.443  33.265  28.418  1.00  0.00     0.134 A 
ATOM     65  C   UNL A   1      45.718  32.539  30.683  1.00  0.00     0.134 A 
ATOM     66  F   UNL A   1      45.197  33.025  27.122  1.00  0.00    -0.206 F 
ATOM     67  C   UNL A   1      45.704  34.582  28.807  1.00  0.00     0.040 A 
ATOM     68  C   UNL A   1      45.957  33.853  31.087  1.00  0.00     0.040 A 
ATOM     69  F   UNL A   1      45.724  31.583  31.624  1.00  0.00    -0.206 F 
ATOM     70  C   UNL A   1      45.952  34.880  30.147  1.00  0.00     0.006 A 
ENDBRANCH  49  63
BRANCH  50  71
ATOM     71  C   UNL A   1      42.717  22.955  27.138  1.00  0.00     0.057 A 
ATOM     72  C   UNL A   1      42.696  22.505  25.814  1.00  0.00     0.134 A 
ATOM     73  C   UNL A   1      42.372  22.039  28.140  1.00  0.00     0.134 A 
ATOM     74  F   UNL A   1      42.983  23.346  24.810  1.00  0.00    -0.206 F 
ATOM     75  C   UNL A   1      42.358  21.187  25.500  1.00  0.00     0.040 A 
ATOM     76  C   UNL A   1      42.066  20.712  27.843  1.00  0.00     0.040 A 
ATOM     77  F   UNL A   1      42.370  22.414  29.428  1.00  0.00    -0.206 F 
ATOM     78  C   UNL A   1      42.057  20.284  26.519  1.00  0.00     0.006 A 
ENDBRANCH  50  71
BRANCH  62  79
ATOM     79  C   UNL A   1      48.828  26.246  27.118  1.00  0.00     0.057 A 
ATOM     80  C   UNL A   1      49.686  25.689  28.075  1.00  0.00     0.134 A 
ATOM     81  C   UNL A   1      49.319  26.393  25.815  1.00  0.00     0.134 A 
ATOM     82  F   UNL A   1      49.281  25.536  29.344  1.00  0.00    -0.206 F 
ATOM     83  C   UNL A   1      50.997  25.328  27.757  1.00  0.00     0.040 A 
ATOM     84  C   UNL A   1      50.620  26.016  25.480  1.00  0.00     0.040 A 
ATOM     85  F   UNL A   1      48.546  26.914  24.850  1.00  0.00    -0.206 F 
ATOM     86  C   UNL A   1      51.467  25.492  26.455  1.00  0.00     0.006 A 
ENDBRANCH  62  79
ENDBRANCH  36  37
ENDBRANCH  29  31
ENDBRANCH  28  29
ENDBRANCH  27  28
ENDBRANCH  26  27
ENDBRANCH  25  26
ENDBRANCH  24  25
ENDBRANCH   1  24
TORSDOF 21
ENDMDL
