MODEL 1
REMARK VINA RESULT:     -12.3      0.000      0.000
REMARK SMILES Cn1cc(C(=O)OCCOCCOCCOC(=O)c2ccc(-c3c4nc(c(-c5c(F)cccc5F)c5ccc([nH]5)c(-c5c(F)cccc5F)c5nc(c(-c6c(F)cccc6F)c6ccc3[nH]6)C=C5)C=C4)cc2)c(C(=O)Nc2ccc(-c3nc4cc(Cl)ccc4o3)cc2)n1
REMARK SMILES IDX 11 1 10 2 9 3 8 4 7 5 5 6 6 7 4 8 1 9 2 10 3 11 93 12 73 13
REMARK SMILES IDX 74 14 75 15 76 16 77 18 78 19 92 20 79 21 91 22 80 23 81 24
REMARK SMILES IDX 82 25 90 26 83 27 89 28 84 29 88 30 85 31 87 32 86 33 12 34
REMARK SMILES IDX 13 35 14 36 15 37 16 38 17 39 18 40 19 41 20 42 72 43 21 44
REMARK SMILES IDX 71 45 22 46 23 47 24 48 65 49 25 50 70 51 64 52 66 53 26 54
REMARK SMILES IDX 69 55 63 56 62 57 27 59 53 60 36 61 52 62 37 63 40 64 51 65
REMARK SMILES IDX 67 66 38 67 39 68 50 70 68 71 41 72 28 73 29 74 34 75 30 76
REMARK SMILES IDX 31 77 33 78 35 79 32 80 54 81 55 82 60 83 56 84 57 85 59 86
REMARK SMILES IDX 61 87 58 88 42 89 43 90 48 91 44 92 45 93 47 94 49 95 46 96
REMARK H PARENT 76 17 66 58 40 69
REMARK Flexibility Score: inf
ROOT
ATOM      1  C   UNL A   1      45.387  18.975  23.970  1.00  0.00     0.188 C 
ENDROOT
BRANCH   1   2
ATOM      2  O   UNL A   1      44.260  18.403  24.633  1.00  0.00    -0.376 OA
BRANCH   2   3
ATOM      3  C   UNL A   1      43.412  19.297  25.348  1.00  0.00     0.202 C 
BRANCH   3   4
ATOM      4  C   UNL A   1      42.184  18.713  26.040  1.00  0.00     0.261 C 
BRANCH   4   5
ATOM      5  O   UNL A   1      41.088  19.626  25.843  1.00  0.00    -0.460 OA
BRANCH   5   6
ATOM      6  C   UNL A   1      40.676  20.375  26.879  1.00  0.00     0.342 C 
ATOM      7  O   UNL A   1      40.915  20.129  28.057  1.00  0.00    -0.246 OA
BRANCH   6   8
ATOM      8  C   UNL A   1      39.763  21.414  26.454  1.00  0.00     0.111 A 
ATOM      9  C   UNL A   1      38.734  24.834  26.872  1.00  0.00     0.173 C 
ATOM     10  N   UNL A   1      38.989  23.462  26.504  1.00  0.00    -0.274 N 
ATOM     11  C   UNL A   1      40.060  22.717  26.832  1.00  0.00     0.125 A 
ATOM     12  N   UNL A   1      38.072  22.784  25.827  1.00  0.00    -0.167 NA
ATOM     13  C   UNL A   1      38.485  21.489  25.775  1.00  0.00     0.165 A 
BRANCH  13  14
ATOM     14  C   UNL A   1      37.486  20.598  25.096  1.00  0.00     0.277 C 
ATOM     15  O   UNL A   1      37.810  19.422  24.845  1.00  0.00    -0.267 OA
ATOM     16  N   UNL A   1      36.201  20.819  24.654  1.00  0.00    -0.321 N 
ATOM     17  H   UNL A   1      35.818  19.987  24.292  1.00  0.00     0.170 HD
BRANCH  16  18
ATOM     18  C   UNL A   1      35.279  21.852  24.558  1.00  0.00     0.041 A 
ATOM     19  C   UNL A   1      35.445  22.789  23.519  1.00  0.00     0.027 A 
ATOM     20  C   UNL A   1      34.262  22.040  25.457  1.00  0.00     0.027 A 
ATOM     21  C   UNL A   1      34.773  24.021  23.544  1.00  0.00     0.016 A 
ATOM     22  C   UNL A   1      33.626  23.274  25.521  1.00  0.00     0.016 A 
ATOM     23  C   UNL A   1      33.922  24.301  24.608  1.00  0.00     0.037 A 
BRANCH  23  24
ATOM     24  C   UNL A   1      33.495  25.652  24.968  1.00  0.00     0.227 A 
ATOM     25  N   UNL A   1      32.302  25.984  25.440  1.00  0.00    -0.209 NA
ATOM     26  O   UNL A   1      34.088  26.630  24.207  1.00  0.00    -0.436 OA
ATOM     27  C   UNL A   1      31.979  27.104  24.710  1.00  0.00     0.111 A 
ATOM     28  C   UNL A   1      33.074  27.499  23.959  1.00  0.00     0.155 A 
ATOM     29  C   UNL A   1      30.759  27.770  24.531  1.00  0.00     0.053 A 
ATOM     30  C   UNL A   1      33.076  28.517  23.017  1.00  0.00     0.051 A 
ATOM     31  C   UNL A   1      30.705  28.760  23.540  1.00  0.00     0.043 A 
ATOM     32  C   UNL A   1      31.837  29.128  22.798  1.00  0.00     0.024 A 
ATOM     33  Cl  UNL A   1      29.192  29.495  23.167  1.00  0.00    -0.084 Cl
ENDBRANCH  23  24
ENDBRANCH  16  18
ENDBRANCH  13  14
ENDBRANCH   6   8
ENDBRANCH   5   6
ENDBRANCH   4   5
ENDBRANCH   3   4
ENDBRANCH   2   3
ENDBRANCH   1   2
BRANCH   1  34
ATOM     34  C   UNL A   1      46.381  19.589  24.974  1.00  0.00     0.188 C 
BRANCH  34  35
ATOM     35  O   UNL A   1      46.712  20.939  24.652  1.00  0.00    -0.376 OA
BRANCH  35  36
ATOM     36  C   UNL A   1      45.830  21.943  25.154  1.00  0.00     0.202 C 
BRANCH  36  37
ATOM     37  C   UNL A   1      45.216  22.917  24.133  1.00  0.00     0.261 C 
BRANCH  37  38
ATOM     38  O   UNL A   1      44.346  23.922  24.690  1.00  0.00    -0.460 OA
BRANCH  38  39
ATOM     39  C   UNL A   1      44.902  25.088  25.079  1.00  0.00     0.338 C 
ATOM     40  O   UNL A   1      45.971  25.553  24.727  1.00  0.00    -0.246 OA
BRANCH  39  41
ATOM     41  C   UNL A   1      43.904  25.828  25.875  1.00  0.00     0.060 A 
ATOM     42  C   UNL A   1      43.884  27.227  25.790  1.00  0.00     0.016 A 
ATOM     43  C   UNL A   1      43.031  25.155  26.732  1.00  0.00     0.016 A 
ATOM     44  C   UNL A   1      43.033  27.961  26.614  1.00  0.00     0.010 A 
ATOM     45  C   UNL A   1      42.200  25.891  27.579  1.00  0.00     0.010 A 
ATOM     46  C   UNL A   1      42.239  27.296  27.558  1.00  0.00    -0.014 A 
BRANCH  46  47
ATOM     47  C   UNL A   1      41.695  28.062  28.704  1.00  0.00     0.031 A 
ATOM     48  C   UNL A   1      42.440  27.983  30.010  1.00  0.00     0.074 A 
ATOM     49  C   UNL A   1      40.595  28.826  28.596  1.00  0.00     0.049 A 
ATOM     50  N   UNL A   1      42.178  28.557  31.156  1.00  0.00    -0.248 NA
ATOM     51  C   UNL A   1      43.650  27.141  30.022  1.00  0.00     0.031 C 
ATOM     52  C   UNL A   1      39.812  29.024  27.380  1.00  0.00     0.029 A 
ATOM     53  N   UNL A   1      39.948  29.579  29.545  1.00  0.00    -0.354 N 
ATOM     54  C   UNL A   1      43.197  28.162  32.014  1.00  0.00     0.074 A 
ATOM     55  C   UNL A   1      44.063  27.273  31.272  1.00  0.00     0.031 C 
ATOM     56  C   UNL A   1      38.777  29.839  27.660  1.00  0.00     0.029 A 
ATOM     57  C   UNL A   1      38.819  30.203  29.076  1.00  0.00     0.049 A 
ATOM     58  H   UNL A   1      40.265  29.663  30.473  1.00  0.00     0.167 HD
ATOM     59  C   UNL A   1      43.402  28.513  33.303  1.00  0.00     0.037 A 
ATOM     60  C   UNL A   1      37.923  30.971  29.724  1.00  0.00     0.037 A 
ATOM     61  C   UNL A   1      42.536  29.374  34.055  1.00  0.00     0.049 A 
ATOM     62  C   UNL A   1      38.122  31.272  31.188  1.00  0.00     0.074 A 
ATOM     63  C   UNL A   1      42.657  29.788  35.369  1.00  0.00     0.029 A 
ATOM     64  N   UNL A   1      41.376  29.946  33.556  1.00  0.00    -0.354 N 
ATOM     65  N   UNL A   1      39.104  30.919  31.981  1.00  0.00    -0.248 NA
ATOM     66  C   UNL A   1      37.084  32.081  31.845  1.00  0.00     0.031 C 
ATOM     67  C   UNL A   1      41.547  30.582  35.678  1.00  0.00     0.029 A 
ATOM     68  C   UNL A   1      40.757  30.689  34.544  1.00  0.00     0.049 A 
ATOM     69  H   UNL A   1      41.043  29.840  32.636  1.00  0.00     0.167 HD
ATOM     70  C   UNL A   1      38.817  31.482  33.219  1.00  0.00     0.074 A 
ATOM     71  C   UNL A   1      37.572  32.205  33.072  1.00  0.00     0.031 C 
ATOM     72  C   UNL A   1      39.521  31.408  34.375  1.00  0.00     0.037 A 
BRANCH  59  73
ATOM     73  C   UNL A   1      44.607  27.937  33.977  1.00  0.00     0.057 A 
ATOM     74  C   UNL A   1      44.551  26.713  34.656  1.00  0.00     0.134 A 
ATOM     75  C   UNL A   1      45.833  28.612  33.951  1.00  0.00     0.134 A 
ATOM     76  F   UNL A   1      43.399  26.031  34.734  1.00  0.00    -0.206 F 
ATOM     77  C   UNL A   1      45.672  26.188  35.302  1.00  0.00     0.040 A 
ATOM     78  C   UNL A   1      46.964  28.089  34.579  1.00  0.00     0.040 A 
ATOM     79  F   UNL A   1      45.947  29.792  33.324  1.00  0.00    -0.206 F 
ATOM     80  C   UNL A   1      46.884  26.875  35.261  1.00  0.00     0.006 A 
ENDBRANCH  59  73
BRANCH  60  81
ATOM     81  C   UNL A   1      36.739  31.506  29.007  1.00  0.00     0.057 A 
ATOM     82  C   UNL A   1      36.669  32.851  28.628  1.00  0.00     0.134 A 
ATOM     83  C   UNL A   1      35.633  30.697  28.729  1.00  0.00     0.134 A 
ATOM     84  F   UNL A   1      37.687  33.683  28.896  1.00  0.00    -0.206 F 
ATOM     85  C   UNL A   1      35.532  33.376  28.011  1.00  0.00     0.040 A 
ATOM     86  C   UNL A   1      34.497  31.204  28.096  1.00  0.00     0.040 A 
ATOM     87  F   UNL A   1      35.637  29.400  29.074  1.00  0.00    -0.206 F 
ATOM     88  C   UNL A   1      34.442  32.550  27.741  1.00  0.00     0.006 A 
ENDBRANCH  60  81
BRANCH  72  89
ATOM     89  C   UNL A   1      38.978  32.144  35.563  1.00  0.00     0.057 A 
ATOM     90  C   UNL A   1      38.246  31.490  36.560  1.00  0.00     0.134 A 
ATOM     91  C   UNL A   1      39.243  33.508  35.738  1.00  0.00     0.134 A 
ATOM     92  F   UNL A   1      37.951  30.186  36.443  1.00  0.00    -0.206 F 
ATOM     93  C   UNL A   1      37.784  32.171  37.687  1.00  0.00     0.040 A 
ATOM     94  C   UNL A   1      38.803  34.194  36.870  1.00  0.00     0.040 A 
ATOM     95  F   UNL A   1      39.948  34.189  34.822  1.00  0.00    -0.206 F 
ATOM     96  C   UNL A   1      38.069  33.526  37.847  1.00  0.00     0.006 A 
ENDBRANCH  72  89
ENDBRANCH  46  47
ENDBRANCH  39  41
ENDBRANCH  38  39
ENDBRANCH  37  38
ENDBRANCH  36  37
ENDBRANCH  35  36
ENDBRANCH  34  35
ENDBRANCH   1  34
TORSDOF 20
ENDMDL
MODEL 2
REMARK VINA RESULT:     -12.2      0.753      5.857
REMARK SMILES Cn1cc(C(=O)OCCOCCOCCOC(=O)c2ccc(-c3c4nc(c(-c5c(F)cccc5F)c5ccc([nH]5)c(-c5c(F)cccc5F)c5nc(c(-c6c(F)cccc6F)c6ccc3[nH]6)C=C5)C=C4)cc2)c(C(=O)Nc2ccc(-c3nc4cc(Cl)ccc4o3)cc2)n1
REMARK SMILES IDX 11 1 10 2 9 3 8 4 7 5 5 6 6 7 4 8 1 9 2 10 3 11 93 12 73 13
REMARK SMILES IDX 74 14 75 15 76 16 77 18 78 19 92 20 79 21 91 22 80 23 81 24
REMARK SMILES IDX 82 25 90 26 83 27 89 28 84 29 88 30 85 31 87 32 86 33 12 34
REMARK SMILES IDX 13 35 14 36 15 37 16 38 17 39 18 40 19 41 20 42 72 43 21 44
REMARK SMILES IDX 71 45 22 46 23 47 24 48 65 49 25 50 70 51 64 52 66 53 26 54
REMARK SMILES IDX 69 55 63 56 62 57 27 59 53 60 36 61 52 62 37 63 40 64 51 65
REMARK SMILES IDX 67 66 38 67 39 68 50 70 68 71 41 72 28 73 29 74 34 75 30 76
REMARK SMILES IDX 31 77 33 78 35 79 32 80 54 81 55 82 60 83 56 84 57 85 59 86
REMARK SMILES IDX 61 87 58 88 42 89 43 90 48 91 44 92 45 93 47 94 49 95 46 96
REMARK H PARENT 76 17 66 58 40 69
REMARK Flexibility Score: inf
ROOT
ATOM      1  C   UNL A   1      45.401  18.887  24.332  1.00  0.00     0.188 C 
ENDROOT
BRANCH   1   2
ATOM      2  O   UNL A   1      44.270  18.311  24.984  1.00  0.00    -0.376 OA
BRANCH   2   3
ATOM      3  C   UNL A   1      43.277  19.212  25.465  1.00  0.00     0.202 C 
BRANCH   3   4
ATOM      4  C   UNL A   1      42.003  18.617  26.057  1.00  0.00     0.261 C 
BRANCH   4   5
ATOM      5  O   UNL A   1      40.936  19.564  25.858  1.00  0.00    -0.460 OA
BRANCH   5   6
ATOM      6  C   UNL A   1      40.612  20.393  26.864  1.00  0.00     0.342 C 
ATOM      7  O   UNL A   1      40.919  20.219  28.038  1.00  0.00    -0.246 OA
BRANCH   6   8
ATOM      8  C   UNL A   1      39.701  21.429  26.426  1.00  0.00     0.111 A 
ATOM      9  C   UNL A   1      38.700  24.864  26.782  1.00  0.00     0.173 C 
ATOM     10  N   UNL A   1      38.942  23.483  26.440  1.00  0.00    -0.274 N 
ATOM     11  C   UNL A   1      40.011  22.737  26.773  1.00  0.00     0.125 A 
ATOM     12  N   UNL A   1      38.013  22.797  25.787  1.00  0.00    -0.167 NA
ATOM     13  C   UNL A   1      38.417  21.498  25.758  1.00  0.00     0.165 A 
BRANCH  13  14
ATOM     14  C   UNL A   1      37.406  20.601  25.108  1.00  0.00     0.277 C 
ATOM     15  O   UNL A   1      37.811  19.612  24.467  1.00  0.00    -0.267 OA
ATOM     16  N   UNL A   1      36.031  20.642  25.057  1.00  0.00    -0.321 N 
ATOM     17  H   UNL A   1      35.684  19.856  24.575  1.00  0.00     0.170 HD
BRANCH  16  18
ATOM     18  C   UNL A   1      34.981  21.449  25.474  1.00  0.00     0.041 A 
ATOM     19  C   UNL A   1      33.945  21.708  24.556  1.00  0.00     0.027 A 
ATOM     20  C   UNL A   1      34.937  22.053  26.703  1.00  0.00     0.027 A 
ATOM     21  C   UNL A   1      33.035  22.754  24.771  1.00  0.00     0.016 A 
ATOM     22  C   UNL A   1      34.074  23.122  26.908  1.00  0.00     0.016 A 
ATOM     23  C   UNL A   1      33.159  23.527  25.921  1.00  0.00     0.037 A 
BRANCH  23  24
ATOM     24  C   UNL A   1      32.568  24.856  26.070  1.00  0.00     0.227 A 
ATOM     25  N   UNL A   1      31.413  25.249  25.553  1.00  0.00    -0.209 NA
ATOM     26  O   UNL A   1      33.502  25.857  26.180  1.00  0.00    -0.436 OA
ATOM     27  C   UNL A   1      31.710  26.486  25.030  1.00  0.00     0.111 A 
ATOM     28  C   UNL A   1      32.987  26.857  25.416  1.00  0.00     0.155 A 
ATOM     29  C   UNL A   1      31.013  27.297  24.126  1.00  0.00     0.053 A 
ATOM     30  C   UNL A   1      33.663  27.986  24.977  1.00  0.00     0.051 A 
ATOM     31  C   UNL A   1      31.689  28.412  23.608  1.00  0.00     0.043 A 
ATOM     32  C   UNL A   1      32.985  28.752  24.023  1.00  0.00     0.024 A 
ATOM     33  Cl  UNL A   1      30.939  29.351  22.373  1.00  0.00    -0.084 Cl
ENDBRANCH  23  24
ENDBRANCH  16  18
ENDBRANCH  13  14
ENDBRANCH   6   8
ENDBRANCH   5   6
ENDBRANCH   4   5
ENDBRANCH   3   4
ENDBRANCH   2   3
ENDBRANCH   1   2
BRANCH   1  34
ATOM     34  C   UNL A   1      46.261  19.710  25.311  1.00  0.00     0.188 C 
BRANCH  34  35
ATOM     35  O   UNL A   1      46.398  21.070  24.901  1.00  0.00    -0.376 OA
BRANCH  35  36
ATOM     36  C   UNL A   1      45.393  21.973  25.359  1.00  0.00     0.202 C 
BRANCH  36  37
ATOM     37  C   UNL A   1      44.576  22.720  24.290  1.00  0.00     0.261 C 
BRANCH  37  38
ATOM     38  O   UNL A   1      43.825  23.852  24.771  1.00  0.00    -0.460 OA
BRANCH  38  39
ATOM     39  C   UNL A   1      44.516  24.941  25.165  1.00  0.00     0.338 C 
ATOM     40  O   UNL A   1      45.590  25.330  24.744  1.00  0.00    -0.246 OA
BRANCH  39  41
ATOM     41  C   UNL A   1      43.658  25.722  26.078  1.00  0.00     0.060 A 
ATOM     42  C   UNL A   1      43.862  27.105  26.170  1.00  0.00     0.016 A 
ATOM     43  C   UNL A   1      42.697  25.090  26.870  1.00  0.00     0.016 A 
ATOM     44  C   UNL A   1      43.149  27.852  27.105  1.00  0.00     0.010 A 
ATOM     45  C   UNL A   1      42.004  25.833  27.829  1.00  0.00     0.010 A 
ATOM     46  C   UNL A   1      42.268  27.205  27.983  1.00  0.00    -0.014 A 
BRANCH  46  47
ATOM     47  C   UNL A   1      41.867  27.894  29.232  1.00  0.00     0.031 A 
ATOM     48  C   UNL A   1      40.630  28.753  29.186  1.00  0.00     0.074 A 
ATOM     49  C   UNL A   1      42.551  27.751  30.379  1.00  0.00     0.049 A 
ATOM     50  N   UNL A   1      40.067  29.455  30.135  1.00  0.00    -0.248 NA
ATOM     51  C   UNL A   1      39.933  28.825  27.889  1.00  0.00     0.031 C 
ATOM     52  C   UNL A   1      43.732  26.915  30.567  1.00  0.00     0.029 A 
ATOM     53  N   UNL A   1      42.336  28.321  31.610  1.00  0.00    -0.354 N 
ATOM     54  C   UNL A   1      38.944  30.033  29.556  1.00  0.00     0.074 A 
ATOM     55  C   UNL A   1      38.922  29.633  28.167  1.00  0.00     0.031 C 
ATOM     56  C   UNL A   1      44.150  27.036  31.842  1.00  0.00     0.029 A 
ATOM     57  C   UNL A   1      43.274  27.969  32.549  1.00  0.00     0.049 A 
ATOM     58  H   UNL A   1      41.582  28.924  31.800  1.00  0.00     0.167 HD
ATOM     59  C   UNL A   1      38.007  30.822  30.129  1.00  0.00     0.037 A 
ATOM     60  C   UNL A   1      43.407  28.367  33.829  1.00  0.00     0.037 A 
ATOM     61  C   UNL A   1      38.033  31.245  31.499  1.00  0.00     0.049 A 
ATOM     62  C   UNL A   1      42.401  29.322  34.419  1.00  0.00     0.074 A 
ATOM     63  C   UNL A   1      37.131  32.047  32.174  1.00  0.00     0.029 A 
ATOM     64  N   UNL A   1      39.028  30.906  32.404  1.00  0.00    -0.354 N 
ATOM     65  N   UNL A   1      41.328  29.839  33.873  1.00  0.00    -0.248 NA
ATOM     66  C   UNL A   1      42.630  29.750  35.808  1.00  0.00     0.031 C 
ATOM     67  C   UNL A   1      37.599  32.225  33.480  1.00  0.00     0.029 A 
ATOM     68  C   UNL A   1      38.774  31.504  33.625  1.00  0.00     0.049 A 
ATOM     69  H   UNL A   1      39.798  30.326  32.207  1.00  0.00     0.167 HD
ATOM     70  C   UNL A   1      40.740  30.629  34.855  1.00  0.00     0.074 A 
ATOM     71  C   UNL A   1      41.573  30.519  36.034  1.00  0.00     0.031 C 
ATOM     72  C   UNL A   1      39.612  31.376  34.788  1.00  0.00     0.037 A 
BRANCH  59  73
ATOM     73  C   UNL A   1      36.889  31.290  29.252  1.00  0.00     0.057 A 
ATOM     74  C   UNL A   1      35.817  30.451  28.922  1.00  0.00     0.134 A 
ATOM     75  C   UNL A   1      36.885  32.588  28.730  1.00  0.00     0.134 A 
ATOM     76  F   UNL A   1      35.777  29.189  29.374  1.00  0.00    -0.206 F 
ATOM     77  C   UNL A   1      34.786  30.883  28.085  1.00  0.00     0.040 A 
ATOM     78  C   UNL A   1      35.851  33.037  27.907  1.00  0.00     0.040 A 
ATOM     79  F   UNL A   1      37.887  33.436  29.004  1.00  0.00    -0.206 F 
ATOM     80  C   UNL A   1      34.800  32.182  27.579  1.00  0.00     0.006 A 
ENDBRANCH  59  73
BRANCH  60  81
ATOM     81  C   UNL A   1      44.543  27.879  34.649  1.00  0.00     0.057 A 
ATOM     82  C   UNL A   1      44.399  26.785  35.509  1.00  0.00     0.134 A 
ATOM     83  C   UNL A   1      45.783  28.526  34.627  1.00  0.00     0.134 A 
ATOM     84  F   UNL A   1      43.224  26.144  35.596  1.00  0.00    -0.206 F 
ATOM     85  C   UNL A   1      45.445  26.361  36.331  1.00  0.00     0.040 A 
ATOM     86  C   UNL A   1      46.843  28.102  35.430  1.00  0.00     0.040 A 
ATOM     87  F   UNL A   1      45.982  29.586  33.828  1.00  0.00    -0.206 F 
ATOM     88  C   UNL A   1      46.672  27.020  36.291  1.00  0.00     0.006 A 
ENDBRANCH  60  81
BRANCH  72  89
ATOM     89  C   UNL A   1      39.198  32.114  36.026  1.00  0.00     0.057 A 
ATOM     90  C   UNL A   1      39.673  33.400  36.307  1.00  0.00     0.134 A 
ATOM     91  C   UNL A   1      38.269  31.554  36.912  1.00  0.00     0.134 A 
ATOM     92  F   UNL A   1      40.572  33.985  35.501  1.00  0.00    -0.206 F 
ATOM     93  C   UNL A   1      39.247  34.101  37.437  1.00  0.00     0.040 A 
ATOM     94  C   UNL A   1      37.821  32.253  38.033  1.00  0.00     0.040 A 
ATOM     95  F   UNL A   1      37.770  30.329  36.692  1.00  0.00    -0.206 F 
ATOM     96  C   UNL A   1      38.313  33.529  38.299  1.00  0.00     0.006 A 
ENDBRANCH  72  89
ENDBRANCH  46  47
ENDBRANCH  39  41
ENDBRANCH  38  39
ENDBRANCH  37  38
ENDBRANCH  36  37
ENDBRANCH  35  36
ENDBRANCH  34  35
ENDBRANCH   1  34
TORSDOF 20
ENDMDL
MODEL 3
REMARK VINA RESULT:     -12.1      4.136      8.995
REMARK SMILES Cn1cc(C(=O)OCCOCCOCCOC(=O)c2ccc(-c3c4nc(c(-c5c(F)cccc5F)c5ccc([nH]5)c(-c5c(F)cccc5F)c5nc(c(-c6c(F)cccc6F)c6ccc3[nH]6)C=C5)C=C4)cc2)c(C(=O)Nc2ccc(-c3nc4cc(Cl)ccc4o3)cc2)n1
REMARK SMILES IDX 11 1 10 2 9 3 8 4 7 5 5 6 6 7 4 8 1 9 2 10 3 11 93 12 73 13
REMARK SMILES IDX 74 14 75 15 76 16 77 18 78 19 92 20 79 21 91 22 80 23 81 24
REMARK SMILES IDX 82 25 90 26 83 27 89 28 84 29 88 30 85 31 87 32 86 33 12 34
REMARK SMILES IDX 13 35 14 36 15 37 16 38 17 39 18 40 19 41 20 42 72 43 21 44
REMARK SMILES IDX 71 45 22 46 23 47 24 48 65 49 25 50 70 51 64 52 66 53 26 54
REMARK SMILES IDX 69 55 63 56 62 57 27 59 53 60 36 61 52 62 37 63 40 64 51 65
REMARK SMILES IDX 67 66 38 67 39 68 50 70 68 71 41 72 28 73 29 74 34 75 30 76
REMARK SMILES IDX 31 77 33 78 35 79 32 80 54 81 55 82 60 83 56 84 57 85 59 86
REMARK SMILES IDX 61 87 58 88 42 89 43 90 48 91 44 92 45 93 47 94 49 95 46 96
REMARK H PARENT 76 17 66 58 40 69
REMARK Flexibility Score: inf
ROOT
ATOM      1  C   UNL A   1      37.100  23.250  24.906  1.00  0.00     0.188 C 
ENDROOT
BRANCH   1   2
ATOM      2  O   UNL A   1      36.070  23.939  24.198  1.00  0.00    -0.376 OA
BRANCH   2   3
ATOM      3  C   UNL A   1      35.442  23.236  23.130  1.00  0.00     0.202 C 
BRANCH   3   4
ATOM      4  C   UNL A   1      34.085  23.739  22.646  1.00  0.00     0.261 C 
BRANCH   4   5
ATOM      5  O   UNL A   1      34.050  25.167  22.830  1.00  0.00    -0.460 OA
BRANCH   5   6
ATOM      6  C   UNL A   1      33.156  25.887  22.133  1.00  0.00     0.342 C 
ATOM      7  O   UNL A   1      33.111  25.948  20.909  1.00  0.00    -0.246 OA
BRANCH   6   8
ATOM      8  C   UNL A   1      32.358  26.727  23.000  1.00  0.00     0.111 A 
ATOM      9  C   UNL A   1      30.051  29.479  23.187  1.00  0.00     0.173 C 
ATOM     10  N   UNL A   1      30.924  28.342  23.359  1.00  0.00    -0.274 N 
ATOM     11  C   UNL A   1      31.387  27.519  22.401  1.00  0.00     0.125 A 
ATOM     12  N   UNL A   1      31.414  28.069  24.561  1.00  0.00    -0.167 NA
ATOM     13  C   UNL A   1      32.333  27.078  24.406  1.00  0.00     0.165 A 
BRANCH  13  14
ATOM     14  C   UNL A   1      33.020  26.730  25.693  1.00  0.00     0.277 C 
ATOM     15  O   UNL A   1      33.570  27.642  26.341  1.00  0.00    -0.267 OA
ATOM     16  N   UNL A   1      33.192  25.536  26.357  1.00  0.00    -0.321 N 
ATOM     17  H   UNL A   1      33.660  25.685  27.211  1.00  0.00     0.170 HD
BRANCH  16  18
ATOM     18  C   UNL A   1      32.911  24.186  26.194  1.00  0.00     0.041 A 
ATOM     19  C   UNL A   1      33.866  23.256  26.648  1.00  0.00     0.027 A 
ATOM     20  C   UNL A   1      31.788  23.722  25.560  1.00  0.00     0.027 A 
ATOM     21  C   UNL A   1      33.819  21.915  26.235  1.00  0.00     0.016 A 
ATOM     22  C   UNL A   1      31.755  22.409  25.105  1.00  0.00     0.016 A 
ATOM     23  C   UNL A   1      32.799  21.510  25.379  1.00  0.00     0.037 A 
BRANCH  23  24
ATOM     24  C   UNL A   1      32.858  20.295  24.569  1.00  0.00     0.227 A 
ATOM     25  N   UNL A   1      31.946  19.335  24.550  1.00  0.00    -0.209 NA
ATOM     26  O   UNL A   1      34.140  19.853  24.345  1.00  0.00    -0.436 OA
ATOM     27  C   UNL A   1      32.700  18.186  24.613  1.00  0.00     0.111 A 
ATOM     28  C   UNL A   1      34.041  18.505  24.485  1.00  0.00     0.155 A 
ATOM     29  C   UNL A   1      32.342  16.862  24.900  1.00  0.00     0.053 A 
ATOM     30  C   UNL A   1      35.095  17.614  24.621  1.00  0.00     0.051 A 
ATOM     31  C   UNL A   1      33.383  15.945  25.111  1.00  0.00     0.043 A 
ATOM     32  C   UNL A   1      34.730  16.311  24.975  1.00  0.00     0.024 A 
ATOM     33  Cl  UNL A   1      33.003  14.345  25.624  1.00  0.00    -0.084 Cl
ENDBRANCH  23  24
ENDBRANCH  16  18
ENDBRANCH  13  14
ENDBRANCH   6   8
ENDBRANCH   5   6
ENDBRANCH   4   5
ENDBRANCH   3   4
ENDBRANCH   2   3
ENDBRANCH   1   2
BRANCH   1  34
ATOM     34  C   UNL A   1      37.165  21.764  24.504  1.00  0.00     0.188 C 
BRANCH  34  35
ATOM     35  O   UNL A   1      37.863  20.973  25.465  1.00  0.00    -0.376 OA
BRANCH  35  36
ATOM     36  C   UNL A   1      38.132  19.621  25.096  1.00  0.00     0.202 C 
BRANCH  36  37
ATOM     37  C   UNL A   1      39.324  18.927  25.779  1.00  0.00     0.261 C 
BRANCH  37  38
ATOM     38  O   UNL A   1      40.622  19.433  25.412  1.00  0.00    -0.460 OA
BRANCH  38  39
ATOM     39  C   UNL A   1      41.551  19.539  26.384  1.00  0.00     0.338 C 
ATOM     40  O   UNL A   1      42.338  18.687  26.754  1.00  0.00    -0.246 OA
BRANCH  39  41
ATOM     41  C   UNL A   1      41.600  20.949  26.818  1.00  0.00     0.060 A 
ATOM     42  C   UNL A   1      41.134  21.936  25.939  1.00  0.00     0.016 A 
ATOM     43  C   UNL A   1      42.142  21.297  28.057  1.00  0.00     0.016 A 
ATOM     44  C   UNL A   1      41.272  23.282  26.270  1.00  0.00     0.010 A 
ATOM     45  C   UNL A   1      42.308  22.647  28.376  1.00  0.00     0.010 A 
ATOM     46  C   UNL A   1      41.922  23.641  27.460  1.00  0.00    -0.014 A 
BRANCH  46  47
ATOM     47  C   UNL A   1      42.460  25.014  27.596  1.00  0.00     0.031 A 
ATOM     48  C   UNL A   1      41.581  26.043  28.258  1.00  0.00     0.074 A 
ATOM     49  C   UNL A   1      43.692  25.345  27.176  1.00  0.00     0.049 A 
ATOM     50  N   UNL A   1      41.815  27.307  28.502  1.00  0.00    -0.248 NA
ATOM     51  C   UNL A   1      40.258  25.578  28.710  1.00  0.00     0.031 C 
ATOM     52  C   UNL A   1      44.655  24.435  26.564  1.00  0.00     0.029 A 
ATOM     53  N   UNL A   1      44.338  26.557  27.205  1.00  0.00    -0.354 N 
ATOM     54  C   UNL A   1      40.680  27.779  29.150  1.00  0.00     0.074 A 
ATOM     55  C   UNL A   1      39.744  26.681  29.231  1.00  0.00     0.031 C 
ATOM     56  C   UNL A   1      45.771  25.125  26.261  1.00  0.00     0.029 A 
ATOM     57  C   UNL A   1      45.590  26.525  26.644  1.00  0.00     0.049 A 
ATOM     58  H   UNL A   1      43.940  27.370  27.591  1.00  0.00     0.167 HD
ATOM     59  C   UNL A   1      40.439  29.014  29.643  1.00  0.00     0.037 A 
ATOM     60  C   UNL A   1      46.479  27.520  26.457  1.00  0.00     0.037 A 
ATOM     61  C   UNL A   1      41.351  30.117  29.545  1.00  0.00     0.049 A 
ATOM     62  C   UNL A   1      46.148  28.912  26.931  1.00  0.00     0.074 A 
ATOM     63  C   UNL A   1      41.197  31.410  30.011  1.00  0.00     0.029 A 
ATOM     64  N   UNL A   1      42.589  30.056  28.925  1.00  0.00    -0.354 N 
ATOM     65  N   UNL A   1      45.086  29.341  27.568  1.00  0.00    -0.248 NA
ATOM     66  C   UNL A   1      47.144  29.960  26.656  1.00  0.00     0.031 C 
ATOM     67  C   UNL A   1      42.328  32.144  29.639  1.00  0.00     0.029 A 
ATOM     68  C   UNL A   1      43.199  31.295  28.974  1.00  0.00     0.049 A 
ATOM     69  H   UNL A   1      42.976  29.250  28.513  1.00  0.00     0.167 HD
ATOM     70  C   UNL A   1      45.296  30.696  27.794  1.00  0.00     0.074 A 
ATOM     71  C   UNL A   1      46.590  31.019  27.230  1.00  0.00     0.031 C 
ATOM     72  C   UNL A   1      44.492  31.594  28.413  1.00  0.00     0.037 A 
BRANCH  59  73
ATOM     73  C   UNL A   1      39.117  29.229  30.311  1.00  0.00     0.057 A 
ATOM     74  C   UNL A   1      38.940  28.983  31.679  1.00  0.00     0.134 A 
ATOM     75  C   UNL A   1      38.012  29.683  29.582  1.00  0.00     0.134 A 
ATOM     76  F   UNL A   1      39.956  28.525  32.424  1.00  0.00    -0.206 F 
ATOM     77  C   UNL A   1      37.700  29.163  32.295  1.00  0.00     0.040 A 
ATOM     78  C   UNL A   1      36.773  29.885  30.191  1.00  0.00     0.040 A 
ATOM     79  F   UNL A   1      38.118  29.930  28.268  1.00  0.00    -0.206 F 
ATOM     80  C   UNL A   1      36.614  29.620  31.551  1.00  0.00     0.006 A 
ENDBRANCH  59  73
BRANCH  60  81
ATOM     81  C   UNL A   1      47.770  27.251  25.777  1.00  0.00     0.057 A 
ATOM     82  C   UNL A   1      48.905  26.871  26.500  1.00  0.00     0.134 A 
ATOM     83  C   UNL A   1      47.909  27.415  24.394  1.00  0.00     0.134 A 
ATOM     84  F   UNL A   1      48.841  26.727  27.832  1.00  0.00    -0.206 F 
ATOM     85  C   UNL A   1      50.139  26.679  25.875  1.00  0.00     0.040 A 
ATOM     86  C   UNL A   1      49.131  27.209  23.753  1.00  0.00     0.040 A 
ATOM     87  F   UNL A   1      46.859  27.785  23.646  1.00  0.00    -0.206 F 
ATOM     88  C   UNL A   1      50.253  26.846  24.496  1.00  0.00     0.006 A 
ENDBRANCH  60  81
BRANCH  72  89
ATOM     89  C   UNL A   1      44.993  33.001  28.536  1.00  0.00     0.057 A 
ATOM     90  C   UNL A   1      45.808  33.399  29.602  1.00  0.00     0.134 A 
ATOM     91  C   UNL A   1      44.705  33.949  27.546  1.00  0.00     0.134 A 
ATOM     92  F   UNL A   1      46.110  32.539  30.586  1.00  0.00    -0.206 F 
ATOM     93  C   UNL A   1      46.311  34.699  29.686  1.00  0.00     0.040 A 
ATOM     94  C   UNL A   1      45.219  35.245  27.610  1.00  0.00     0.040 A 
ATOM     95  F   UNL A   1      43.938  33.626  26.494  1.00  0.00    -0.206 F 
ATOM     96  C   UNL A   1      46.021  35.623  28.684  1.00  0.00     0.006 A 
ENDBRANCH  72  89
ENDBRANCH  46  47
ENDBRANCH  39  41
ENDBRANCH  38  39
ENDBRANCH  37  38
ENDBRANCH  36  37
ENDBRANCH  35  36
ENDBRANCH  34  35
ENDBRANCH   1  34
TORSDOF 20
ENDMDL
