MODEL 1
REMARK VINA RESULT:     -11.2      0.000      0.000
REMARK SMILES O=C(OCCOCCOCCOC(=O)[C@H]1Cc2ccc(Cl)cc2C[N@@H+]1Cc1ccc(Cl)cc1)c1ccc(-c2c3nc(c(-c4c(F)cccc4F)c4ccc([nH]4)c(-c4c(F)cccc4F)c4nc(c(-c5c(F)cccc5F)c5ccc2[nH]5)C=C4)C=C3)cc1
REMARK SMILES IDX 7 1 6 2 5 3 4 4 3 5 2 6 1 7 34 8 35 9 87 10 36 11 86 12
REMARK SMILES IDX 37 13 38 14 39 15 80 16 40 17 85 18 79 19 81 20 41 21 84 22
REMARK SMILES IDX 78 23 77 24 42 26 68 27 51 28 67 29 52 30 55 31 66 32 82 33
REMARK SMILES IDX 53 34 54 35 65 37 83 38 56 39 43 40 44 41 49 42 45 43 46 44
REMARK SMILES IDX 48 45 50 46 47 47 69 48 70 49 75 50 71 51 72 52 74 53 76 54
REMARK SMILES IDX 73 55 57 56 58 57 63 58 59 59 60 60 62 61 64 62 61 63 8 64
REMARK SMILES IDX 9 65 10 66 11 67 12 68 13 69 14 70 15 71 16 72 25 73 17 74
REMARK SMILES IDX 24 75 18 77 23 78 19 79 22 80 20 81 21 82 26 83 27 84 28 85
REMARK SMILES IDX 33 86 29 87 32 88 30 89 31 90
REMARK H PARENT 81 25 55 36 25 76
REMARK Flexibility Score: inf
ROOT
ATOM      1  C   UNL A   1      41.295  20.102  26.494  1.00  0.00     0.188 C 
ENDROOT
BRANCH   1   2
ATOM      2  O   UNL A   1      42.697  20.284  26.474  1.00  0.00    -0.376 OA
BRANCH   2   3
ATOM      3  C   UNL A   1      43.328  21.013  25.436  1.00  0.00     0.202 C 
BRANCH   3   4
ATOM      4  C   UNL A   1      44.863  21.138  25.415  1.00  0.00     0.261 C 
BRANCH   4   5
ATOM      5  O   UNL A   1      45.384  22.448  25.648  1.00  0.00    -0.460 OA
BRANCH   5   6
ATOM      6  C   UNL A   1      44.735  23.622  25.443  1.00  0.00     0.338 C 
ATOM      7  O   UNL A   1      44.682  24.085  24.307  1.00  0.00    -0.246 OA
BRANCH   6   8
ATOM      8  C   UNL A   1      44.310  24.512  26.562  1.00  0.00     0.060 A 
ATOM      9  C   UNL A   1      42.820  23.971  27.428  1.00  0.00     0.016 A 
ATOM     10  C   UNL A   1      44.901  26.145  26.925  1.00  0.00     0.016 A 
ATOM     11  C   UNL A   1      41.932  25.266  28.713  1.00  0.00     0.010 A 
ATOM     12  C   UNL A   1      44.113  27.272  28.056  1.00  0.00     0.010 A 
ATOM     13  C   UNL A   1      42.657  26.887  28.949  1.00  0.00    -0.014 A 
BRANCH  13  14
ATOM     14  C   UNL A   1      42.237  27.759  30.060  1.00  0.00     0.031 A 
ATOM     15  C   UNL A   1      42.853  27.712  31.421  1.00  0.00     0.074 A 
ATOM     16  C   UNL A   1      41.197  28.565  29.809  1.00  0.00     0.049 A 
ATOM     17  N   UNL A   1      42.607  28.440  32.478  1.00  0.00    -0.248 NA
ATOM     18  C   UNL A   1      43.877  26.695  31.637  1.00  0.00     0.031 C 
ATOM     19  C   UNL A   1      40.477  28.639  28.546  1.00  0.00     0.029 A 
ATOM     20  N   UNL A   1      40.542  29.459  30.602  1.00  0.00    -0.354 N 
ATOM     21  C   UNL A   1      43.477  27.988  33.467  1.00  0.00     0.074 A 
ATOM     22  C   UNL A   1      44.211  26.888  32.907  1.00  0.00     0.031 C 
ATOM     23  C   UNL A   1      39.491  29.531  28.624  1.00  0.00     0.029 A 
ATOM     24  C   UNL A   1      39.466  30.038  29.977  1.00  0.00     0.049 A 
ATOM     25  H   UNL A   1      40.811  29.668  31.525  1.00  0.00     0.167 HD
ATOM     26  C   UNL A   1      43.647  28.467  34.719  1.00  0.00     0.037 A 
ATOM     27  C   UNL A   1      38.524  30.857  30.456  1.00  0.00     0.037 A 
ATOM     28  C   UNL A   1      42.850  29.523  35.253  1.00  0.00     0.049 A 
ATOM     29  C   UNL A   1      38.679  31.312  31.863  1.00  0.00     0.074 A 
ATOM     30  C   UNL A   1      42.941  30.131  36.488  1.00  0.00     0.029 A 
ATOM     31  N   UNL A   1      41.783  30.088  34.581  1.00  0.00    -0.354 N 
ATOM     32  N   UNL A   1      39.620  31.001  32.723  1.00  0.00    -0.248 NA
ATOM     33  C   UNL A   1      37.667  32.239  32.364  1.00  0.00     0.031 C 
ATOM     34  C   UNL A   1      41.857  31.001  36.601  1.00  0.00     0.029 A 
ATOM     35  C   UNL A   1      41.143  30.979  35.411  1.00  0.00     0.049 A 
ATOM     36  H   UNL A   1      41.523  29.885  33.654  1.00  0.00     0.167 HD
ATOM     37  C   UNL A   1      39.320  31.706  33.873  1.00  0.00     0.074 A 
ATOM     38  C   UNL A   1      38.131  32.485  33.580  1.00  0.00     0.031 C 
ATOM     39  C   UNL A   1      39.957  31.708  35.067  1.00  0.00     0.037 A 
BRANCH  26  40
ATOM     40  C   UNL A   1      44.712  27.901  35.605  1.00  0.00     0.057 A 
ATOM     41  C   UNL A   1      46.032  28.361  35.569  1.00  0.00     0.134 A 
ATOM     42  C   UNL A   1      44.443  26.781  36.397  1.00  0.00     0.134 A 
ATOM     43  F   UNL A   1      46.381  29.356  34.741  1.00  0.00    -0.206 F 
ATOM     44  C   UNL A   1      47.029  27.784  36.362  1.00  0.00     0.040 A 
ATOM     45  C   UNL A   1      45.436  26.177  37.172  1.00  0.00     0.040 A 
ATOM     46  F   UNL A   1      43.212  26.250  36.418  1.00  0.00    -0.206 F 
ATOM     47  C   UNL A   1      46.724  26.704  37.189  1.00  0.00     0.006 A 
ENDBRANCH  26  40
BRANCH  27  48
ATOM     48  C   UNL A   1      37.403  31.259  29.578  1.00  0.00     0.057 A 
ATOM     49  C   UNL A   1      36.353  30.374  29.290  1.00  0.00     0.134 A 
ATOM     50  C   UNL A   1      37.405  32.494  28.928  1.00  0.00     0.134 A 
ATOM     51  F   UNL A   1      36.325  29.150  29.842  1.00  0.00    -0.206 F 
ATOM     52  C   UNL A   1      35.346  30.705  28.385  1.00  0.00     0.040 A 
ATOM     53  C   UNL A   1      36.385  32.851  28.046  1.00  0.00     0.040 A 
ATOM     54  F   UNL A   1      38.399  33.368  29.143  1.00  0.00    -0.206 F 
ATOM     55  C   UNL A   1      35.355  31.953  27.769  1.00  0.00     0.006 A 
ENDBRANCH  27  48
BRANCH  39  56
ATOM     56  C   UNL A   1      39.357  32.549  36.136  1.00  0.00     0.057 A 
ATOM     57  C   UNL A   1      39.830  33.843  36.372  1.00  0.00     0.134 A 
ATOM     58  C   UNL A   1      38.355  32.043  36.969  1.00  0.00     0.134 A 
ATOM     59  F   UNL A   1      40.817  34.359  35.623  1.00  0.00    -0.206 F 
ATOM     60  C   UNL A   1      39.320  34.613  37.410  1.00  0.00     0.040 A 
ATOM     61  C   UNL A   1      37.804  32.822  37.978  1.00  0.00     0.040 A 
ATOM     62  F   UNL A   1      37.879  30.800  36.787  1.00  0.00    -0.206 F 
ATOM     63  C   UNL A   1      38.293  34.107  38.204  1.00  0.00     0.006 A 
ENDBRANCH  39  56
ENDBRANCH  13  14
ENDBRANCH   6   8
ENDBRANCH   5   6
ENDBRANCH   4   5
ENDBRANCH   3   4
ENDBRANCH   2   3
ENDBRANCH   1   2
BRANCH   1  64
ATOM     64  C   UNL A   1      40.274  21.237  26.438  1.00  0.00     0.188 C 
BRANCH  64  65
ATOM     65  O   UNL A   1      38.971  21.061  25.923  1.00  0.00    -0.376 OA
BRANCH  65  66
ATOM     66  C   UNL A   1      38.168  22.200  25.720  1.00  0.00     0.202 C 
BRANCH  66  67
ATOM     67  C   UNL A   1      36.705  21.956  25.309  1.00  0.00     0.261 C 
BRANCH  67  68
ATOM     68  O   UNL A   1      35.730  23.007  25.516  1.00  0.00    -0.459 OA
BRANCH  68  69
ATOM     69  C   UNL A   1      34.870  23.368  24.500  1.00  0.00     0.365 C 
ATOM     70  O   UNL A   1      35.092  23.185  23.312  1.00  0.00    -0.245 OA
BRANCH  69  71
ATOM     71  C   UNL A   1      33.699  24.203  25.095  1.00  0.00     0.300 C 
ATOM     72  C   UNL A   1      34.280  25.636  24.938  1.00  0.00     0.113 C 
ATOM     73  N   UNL A   1      32.335  24.030  24.493  1.00  0.00    -0.315 N 
ATOM     74  C   UNL A   1      33.299  26.740  24.680  1.00  0.00    -0.033 A 
ATOM     75  C   UNL A   1      31.407  25.111  24.866  1.00  0.00     0.300 C 
ATOM     76  H   UNL A   1      32.607  24.028  23.510  1.00  0.00     0.349 HD
ATOM     77  C   UNL A   1      33.756  28.042  24.477  1.00  0.00     0.006 A 
ATOM     78  C   UNL A   1      31.930  26.487  24.658  1.00  0.00     0.011 A 
ATOM     79  C   UNL A   1      32.841  29.071  24.268  1.00  0.00     0.021 A 
ATOM     80  C   UNL A   1      31.014  27.540  24.541  1.00  0.00     0.030 A 
ATOM     81  C   UNL A   1      31.474  28.829  24.340  1.00  0.00     0.041 A 
ATOM     82  Cl  UNL A   1      30.349  30.117  24.178  1.00  0.00    -0.084 Cl
BRANCH  73  83
ATOM     83  C   UNL A   1      31.590  22.780  24.734  1.00  0.00     0.300 C 
BRANCH  83  84
ATOM     84  C   UNL A   1      32.265  21.467  24.361  1.00  0.00     0.006 A 
ATOM     85  C   UNL A   1      33.047  20.411  25.554  1.00  0.00     0.011 A 
ATOM     86  C   UNL A   1      31.979  20.795  22.728  1.00  0.00     0.011 A 
ATOM     87  C   UNL A   1      33.507  18.713  25.231  1.00  0.00     0.021 A 
ATOM     88  C   UNL A   1      32.479  18.867  22.365  1.00  0.00     0.021 A 
ATOM     89  C   UNL A   1      33.229  17.921  23.691  1.00  0.00     0.041 A 
ATOM     90  Cl  UNL A   1      33.574  16.252  23.478  1.00  0.00    -0.084 Cl
ENDBRANCH  83  84
ENDBRANCH  73  83
ENDBRANCH  69  71
ENDBRANCH  68  69
ENDBRANCH  67  68
ENDBRANCH  66  67
ENDBRANCH  65  66
ENDBRANCH  64  65
ENDBRANCH   1  64
TORSDOF 19
ENDMDL
MODEL 2
REMARK VINA RESULT:     -11.0      4.767     10.370
REMARK SMILES O=C(OCCOCCOCCOC(=O)[C@H]1Cc2ccc(Cl)cc2C[N@@H+]1Cc1ccc(Cl)cc1)c1ccc(-c2c3nc(c(-c4c(F)cccc4F)c4ccc([nH]4)c(-c4c(F)cccc4F)c4nc(c(-c5c(F)cccc5F)c5ccc2[nH]5)C=C4)C=C3)cc1
REMARK SMILES IDX 7 1 6 2 5 3 4 4 3 5 2 6 1 7 34 8 35 9 87 10 36 11 86 12
REMARK SMILES IDX 37 13 38 14 39 15 80 16 40 17 85 18 79 19 81 20 41 21 84 22
REMARK SMILES IDX 78 23 77 24 42 26 68 27 51 28 67 29 52 30 55 31 66 32 82 33
REMARK SMILES IDX 53 34 54 35 65 37 83 38 56 39 43 40 44 41 49 42 45 43 46 44
REMARK SMILES IDX 48 45 50 46 47 47 69 48 70 49 75 50 71 51 72 52 74 53 76 54
REMARK SMILES IDX 73 55 57 56 58 57 63 58 59 59 60 60 62 61 64 62 61 63 8 64
REMARK SMILES IDX 9 65 10 66 11 67 12 68 13 69 14 70 15 71 16 72 25 73 17 74
REMARK SMILES IDX 24 75 18 77 23 78 19 79 22 80 20 81 21 82 26 83 27 84 28 85
REMARK SMILES IDX 33 86 29 87 32 88 30 89 31 90
REMARK H PARENT 81 25 55 36 25 76
REMARK Flexibility Score: inf
ROOT
ATOM      1  C   UNL A   1      34.673  33.780  28.200  1.00  0.00     0.188 C 
ENDROOT
BRANCH   1   2
ATOM      2  O   UNL A   1      34.456  34.905  29.028  1.00  0.00    -0.376 OA
BRANCH   2   3
ATOM      3  C   UNL A   1      33.587  34.839  30.146  1.00  0.00     0.202 C 
BRANCH   3   4
ATOM      4  C   UNL A   1      34.168  34.595  31.551  1.00  0.00     0.261 C 
BRANCH   4   5
ATOM      5  O   UNL A   1      34.303  33.227  31.941  1.00  0.00    -0.460 OA
BRANCH   5   6
ATOM      6  C   UNL A   1      35.302  32.698  32.692  1.00  0.00     0.338 C 
ATOM      7  O   UNL A   1      35.251  32.807  33.914  1.00  0.00    -0.246 OA
BRANCH   6   8
ATOM      8  C   UNL A   1      36.587  32.224  32.103  1.00  0.00     0.060 A 
ATOM      9  C   UNL A   1      36.609  32.167  30.297  1.00  0.00     0.016 A 
ATOM     10  C   UNL A   1      37.938  31.444  32.947  1.00  0.00     0.016 A 
ATOM     11  C   UNL A   1      38.145  31.203  29.385  1.00  0.00     0.010 A 
ATOM     12  C   UNL A   1      39.280  30.602  32.135  1.00  0.00     0.010 A 
ATOM     13  C   UNL A   1      39.421  30.455  30.396  1.00  0.00    -0.014 A 
BRANCH  13  14
ATOM     14  C   UNL A   1      40.691  29.995  29.807  1.00  0.00     0.031 A 
ATOM     15  C   UNL A   1      41.853  30.897  29.551  1.00  0.00     0.074 A 
ATOM     16  C   UNL A   1      40.729  28.709  29.434  1.00  0.00     0.049 A 
ATOM     17  N   UNL A   1      43.038  30.623  29.071  1.00  0.00    -0.248 NA
ATOM     18  C   UNL A   1      41.658  32.312  29.853  1.00  0.00     0.031 C 
ATOM     19  C   UNL A   1      39.632  27.761  29.570  1.00  0.00     0.029 A 
ATOM     20  N   UNL A   1      41.712  27.975  28.840  1.00  0.00    -0.354 N 
ATOM     21  C   UNL A   1      43.735  31.829  29.057  1.00  0.00     0.074 A 
ATOM     22  C   UNL A   1      42.827  32.843  29.514  1.00  0.00     0.031 C 
ATOM     23  C   UNL A   1      39.987  26.568  29.096  1.00  0.00     0.029 A 
ATOM     24  C   UNL A   1      41.320  26.692  28.551  1.00  0.00     0.049 A 
ATOM     25  H   UNL A   1      42.609  28.328  28.639  1.00  0.00     0.167 HD
ATOM     26  C   UNL A   1      45.021  32.051  28.705  1.00  0.00     0.037 A 
ATOM     27  C   UNL A   1      41.949  25.726  27.875  1.00  0.00     0.037 A 
ATOM     28  C   UNL A   1      45.868  31.022  28.197  1.00  0.00     0.049 A 
ATOM     29  C   UNL A   1      43.336  26.014  27.421  1.00  0.00     0.074 A 
ATOM     30  C   UNL A   1      47.199  31.098  27.841  1.00  0.00     0.029 A 
ATOM     31  N   UNL A   1      45.434  29.737  27.935  1.00  0.00    -0.354 N 
ATOM     32  N   UNL A   1      44.035  27.113  27.580  1.00  0.00    -0.248 NA
ATOM     33  C   UNL A   1      44.029  24.938  26.718  1.00  0.00     0.031 C 
ATOM     34  C   UNL A   1      47.543  29.876  27.265  1.00  0.00     0.029 A 
ATOM     35  C   UNL A   1      46.447  29.027  27.333  1.00  0.00     0.049 A 
ATOM     36  H   UNL A   1      44.540  29.384  28.148  1.00  0.00     0.167 HD
ATOM     37  C   UNL A   1      45.264  26.857  27.004  1.00  0.00     0.074 A 
ATOM     38  C   UNL A   1      45.219  25.488  26.526  1.00  0.00     0.031 C 
ATOM     39  C   UNL A   1      46.333  27.676  26.868  1.00  0.00     0.037 A 
BRANCH  26  40
ATOM     40  C   UNL A   1      45.618  33.415  28.852  1.00  0.00     0.057 A 
ATOM     41  C   UNL A   1      46.185  33.853  30.053  1.00  0.00     0.134 A 
ATOM     42  C   UNL A   1      45.490  34.352  27.823  1.00  0.00     0.134 A 
ATOM     43  F   UNL A   1      46.231  33.040  31.119  1.00  0.00    -0.206 F 
ATOM     44  C   UNL A   1      46.688  35.151  30.193  1.00  0.00     0.040 A 
ATOM     45  C   UNL A   1      45.962  35.659  27.960  1.00  0.00     0.040 A 
ATOM     46  F   UNL A   1      44.890  34.011  26.673  1.00  0.00    -0.206 F 
ATOM     47  C   UNL A   1      46.602  36.051  29.133  1.00  0.00     0.006 A 
ENDBRANCH  26  40
BRANCH  27  48
ATOM     48  C   UNL A   1      41.246  24.449  27.620  1.00  0.00     0.057 A 
ATOM     49  C   UNL A   1      41.598  23.277  28.307  1.00  0.00     0.134 A 
ATOM     50  C   UNL A   1      40.280  24.348  26.618  1.00  0.00     0.134 A 
ATOM     51  F   UNL A   1      42.559  23.301  29.243  1.00  0.00    -0.206 F 
ATOM     52  C   UNL A   1      41.013  22.049  28.002  1.00  0.00     0.040 A 
ATOM     53  C   UNL A   1      39.663  23.131  26.327  1.00  0.00     0.040 A 
ATOM     54  F   UNL A   1      39.926  25.430  25.910  1.00  0.00    -0.206 F 
ATOM     55  C   UNL A   1      40.032  21.978  27.016  1.00  0.00     0.006 A 
ENDBRANCH  27  48
BRANCH  39  56
ATOM     56  C   UNL A   1      47.509  27.115  26.151  1.00  0.00     0.057 A 
ATOM     57  C   UNL A   1      47.602  27.204  24.759  1.00  0.00     0.134 A 
ATOM     58  C   UNL A   1      48.513  26.433  26.844  1.00  0.00     0.134 A 
ATOM     59  F   UNL A   1      46.644  27.816  24.046  1.00  0.00    -0.206 F 
ATOM     60  C   UNL A   1      48.665  26.627  24.074  1.00  0.00     0.040 A 
ATOM     61  C   UNL A   1      49.606  25.896  26.175  1.00  0.00     0.040 A 
ATOM     62  F   UNL A   1      48.459  26.313  28.180  1.00  0.00    -0.206 F 
ATOM     63  C   UNL A   1      49.678  25.987  24.786  1.00  0.00     0.006 A 
ENDBRANCH  39  56
ENDBRANCH  13  14
ENDBRANCH   6   8
ENDBRANCH   5   6
ENDBRANCH   4   5
ENDBRANCH   3   4
ENDBRANCH   2   3
ENDBRANCH   1   2
BRANCH   1  64
ATOM     64  C   UNL A   1      33.676  32.639  28.012  1.00  0.00     0.188 C 
BRANCH  64  65
ATOM     65  O   UNL A   1      34.053  31.280  28.091  1.00  0.00    -0.376 OA
BRANCH  65  66
ATOM     66  C   UNL A   1      33.545  30.383  27.132  1.00  0.00     0.202 C 
BRANCH  66  67
ATOM     67  C   UNL A   1      33.176  28.973  27.626  1.00  0.00     0.261 C 
BRANCH  67  68
ATOM     68  O   UNL A   1      33.532  27.827  26.815  1.00  0.00    -0.459 OA
BRANCH  68  69
ATOM     69  C   UNL A   1      32.584  26.878  26.496  1.00  0.00     0.365 C 
ATOM     70  O   UNL A   1      31.522  26.740  27.087  1.00  0.00    -0.245 OA
BRANCH  69  71
ATOM     71  C   UNL A   1      33.165  25.915  25.420  1.00  0.00     0.300 C 
ATOM     72  C   UNL A   1      32.984  24.554  26.149  1.00  0.00     0.113 C 
ATOM     73  N   UNL A   1      32.567  25.954  24.045  1.00  0.00    -0.315 N 
ATOM     74  C   UNL A   1      32.708  23.358  25.288  1.00  0.00    -0.033 A 
ATOM     75  C   UNL A   1      32.923  24.775  23.236  1.00  0.00     0.300 C 
ATOM     76  H   UNL A   1      31.584  26.001  24.313  1.00  0.00     0.349 HD
ATOM     77  C   UNL A   1      32.483  22.114  25.879  1.00  0.00     0.006 A 
ATOM     78  C   UNL A   1      32.692  23.465  23.900  1.00  0.00     0.011 A 
ATOM     79  C   UNL A   1      32.258  20.999  25.077  1.00  0.00     0.021 A 
ATOM     80  C   UNL A   1      32.559  22.324  23.100  1.00  0.00     0.030 A 
ATOM     81  C   UNL A   1      32.336  21.094  23.692  1.00  0.00     0.041 A 
ATOM     82  Cl  UNL A   1      32.154  19.698  22.708  1.00  0.00    -0.084 Cl
BRANCH  73  83
ATOM     83  C   UNL A   1      32.829  27.115  23.173  1.00  0.00     0.300 C 
BRANCH  83  84
ATOM     84  C   UNL A   1      31.766  28.202  23.099  1.00  0.00     0.006 A 
ATOM     85  C   UNL A   1      30.249  28.008  22.198  1.00  0.00     0.011 A 
ATOM     86  C   UNL A   1      31.888  29.591  24.219  1.00  0.00     0.011 A 
ATOM     87  C   UNL A   1      28.833  29.082  22.391  1.00  0.00     0.021 A 
ATOM     88  C   UNL A   1      30.279  30.797  24.456  1.00  0.00     0.021 A 
ATOM     89  C   UNL A   1      28.805  30.443  23.497  1.00  0.00     0.041 A 
ATOM     90  Cl  UNL A   1      27.375  31.362  23.735  1.00  0.00    -0.084 Cl
ENDBRANCH  83  84
ENDBRANCH  73  83
ENDBRANCH  69  71
ENDBRANCH  68  69
ENDBRANCH  67  68
ENDBRANCH  66  67
ENDBRANCH  65  66
ENDBRANCH  64  65
ENDBRANCH   1  64
TORSDOF 19
ENDMDL
MODEL 3
REMARK VINA RESULT:     -11.0      5.021      9.532
REMARK SMILES O=C(OCCOCCOCCOC(=O)[C@H]1Cc2ccc(Cl)cc2C[N@@H+]1Cc1ccc(Cl)cc1)c1ccc(-c2c3nc(c(-c4c(F)cccc4F)c4ccc([nH]4)c(-c4c(F)cccc4F)c4nc(c(-c5c(F)cccc5F)c5ccc2[nH]5)C=C4)C=C3)cc1
REMARK SMILES IDX 7 1 6 2 5 3 4 4 3 5 2 6 1 7 34 8 35 9 87 10 36 11 86 12
REMARK SMILES IDX 37 13 38 14 39 15 80 16 40 17 85 18 79 19 81 20 41 21 84 22
REMARK SMILES IDX 78 23 77 24 42 26 68 27 51 28 67 29 52 30 55 31 66 32 82 33
REMARK SMILES IDX 53 34 54 35 65 37 83 38 56 39 43 40 44 41 49 42 45 43 46 44
REMARK SMILES IDX 48 45 50 46 47 47 69 48 70 49 75 50 71 51 72 52 74 53 76 54
REMARK SMILES IDX 73 55 57 56 58 57 63 58 59 59 60 60 62 61 64 62 61 63 8 64
REMARK SMILES IDX 9 65 10 66 11 67 12 68 13 69 14 70 15 71 16 72 25 73 17 74
REMARK SMILES IDX 24 75 18 77 23 78 19 79 22 80 20 81 21 82 26 83 27 84 28 85
REMARK SMILES IDX 33 86 29 87 32 88 30 89 31 90
REMARK H PARENT 81 25 55 36 25 76
REMARK Flexibility Score: inf
ROOT
ATOM      1  C   UNL A   1      31.656  32.064  26.788  1.00  0.00     0.188 C 
ENDROOT
BRANCH   1   2
ATOM      2  O   UNL A   1      32.844  32.477  27.434  1.00  0.00    -0.376 OA
BRANCH   2   3
ATOM      3  C   UNL A   1      32.971  33.780  27.975  1.00  0.00     0.202 C 
BRANCH   3   4
ATOM      4  C   UNL A   1      34.360  34.308  28.380  1.00  0.00     0.261 C 
BRANCH   4   5
ATOM      5  O   UNL A   1      34.744  34.074  29.736  1.00  0.00    -0.460 OA
BRANCH   5   6
ATOM      6  C   UNL A   1      35.130  32.887  30.271  1.00  0.00     0.338 C 
ATOM      7  O   UNL A   1      34.421  32.358  31.123  1.00  0.00    -0.246 OA
BRANCH   6   8
ATOM      8  C   UNL A   1      36.496  32.323  30.074  1.00  0.00     0.060 A 
ATOM      9  C   UNL A   1      36.709  31.391  28.540  1.00  0.00     0.016 A 
ATOM     10  C   UNL A   1      37.796  32.201  31.274  1.00  0.00     0.016 A 
ATOM     11  C   UNL A   1      38.386  30.271  28.322  1.00  0.00     0.010 A 
ATOM     12  C   UNL A   1      39.264  31.214  31.070  1.00  0.00     0.010 A 
ATOM     13  C   UNL A   1      39.593  30.251  29.645  1.00  0.00    -0.014 A 
BRANCH  13  14
ATOM     14  C   UNL A   1      40.943  29.696  29.441  1.00  0.00     0.031 A 
ATOM     15  C   UNL A   1      42.184  30.528  29.453  1.00  0.00     0.074 A 
ATOM     16  C   UNL A   1      41.001  28.387  29.162  1.00  0.00     0.049 A 
ATOM     17  N   UNL A   1      43.434  30.170  29.321  1.00  0.00    -0.248 NA
ATOM     18  C   UNL A   1      42.002  31.966  29.615  1.00  0.00     0.031 C 
ATOM     19  C   UNL A   1      39.852  27.500  29.054  1.00  0.00     0.029 A 
ATOM     20  N   UNL A   1      42.059  27.573  28.891  1.00  0.00    -0.354 N 
ATOM     21  C   UNL A   1      44.182  31.341  29.427  1.00  0.00     0.074 A 
ATOM     22  C   UNL A   1      43.248  32.422  29.570  1.00  0.00     0.031 C 
ATOM     23  C   UNL A   1      40.246  26.263  28.756  1.00  0.00     0.029 A 
ATOM     24  C   UNL A   1      41.680  26.291  28.579  1.00  0.00     0.049 A 
ATOM     25  H   UNL A   1      42.997  27.871  28.916  1.00  0.00     0.167 HD
ATOM     26  C   UNL A   1      45.526  31.482  29.417  1.00  0.00     0.037 A 
ATOM     27  C   UNL A   1      42.406  25.254  28.148  1.00  0.00     0.037 A 
ATOM     28  C   UNL A   1      46.414  30.384  29.209  1.00  0.00     0.049 A 
ATOM     29  C   UNL A   1      43.877  25.450  28.063  1.00  0.00     0.074 A 
ATOM     30  C   UNL A   1      47.794  30.378  29.215  1.00  0.00     0.029 A 
ATOM     31  N   UNL A   1      45.987  29.104  28.912  1.00  0.00    -0.354 N 
ATOM     32  N   UNL A   1      44.576  26.526  28.342  1.00  0.00    -0.248 NA
ATOM     33  C   UNL A   1      44.665  24.299  27.630  1.00  0.00     0.031 C 
ATOM     34  C   UNL A   1      48.203  29.105  28.819  1.00  0.00     0.029 A 
ATOM     35  C   UNL A   1      47.078  28.312  28.640  1.00  0.00     0.049 A 
ATOM     36  H   UNL A   1      45.049  28.806  28.898  1.00  0.00     0.167 HD
ATOM     37  C   UNL A   1      45.895  26.178  28.127  1.00  0.00     0.074 A 
ATOM     38  C   UNL A   1      45.894  24.782  27.731  1.00  0.00     0.031 C 
ATOM     39  C   UNL A   1      47.009  26.938  28.235  1.00  0.00     0.037 A 
BRANCH  26  40
ATOM     40  C   UNL A   1      46.145  32.826  29.643  1.00  0.00     0.057 A 
ATOM     41  C   UNL A   1      46.522  33.658  28.585  1.00  0.00     0.134 A 
ATOM     42  C   UNL A   1      46.502  33.224  30.934  1.00  0.00     0.134 A 
ATOM     43  F   UNL A   1      46.315  33.279  27.315  1.00  0.00    -0.206 F 
ATOM     44  C   UNL A   1      47.151  34.887  28.811  1.00  0.00     0.040 A 
ATOM     45  C   UNL A   1      47.158  34.435  31.171  1.00  0.00     0.040 A 
ATOM     46  F   UNL A   1      46.231  32.435  31.983  1.00  0.00    -0.206 F 
ATOM     47  C   UNL A   1      47.446  35.291  30.111  1.00  0.00     0.006 A 
ENDBRANCH  26  40
BRANCH  27  48
ATOM     48  C   UNL A   1      41.719  23.994  27.785  1.00  0.00     0.057 A 
ATOM     49  C   UNL A   1      41.794  22.863  28.612  1.00  0.00     0.134 A 
ATOM     50  C   UNL A   1      41.058  23.862  26.563  1.00  0.00     0.134 A 
ATOM     51  F   UNL A   1      42.462  22.914  29.775  1.00  0.00    -0.206 F 
ATOM     52  C   UNL A   1      41.237  21.643  28.232  1.00  0.00     0.040 A 
ATOM     53  C   UNL A   1      40.467  22.656  26.186  1.00  0.00     0.040 A 
ATOM     54  F   UNL A   1      40.981  24.902  25.721  1.00  0.00    -0.206 F 
ATOM     55  C   UNL A   1      40.560  21.542  27.019  1.00  0.00     0.006 A 
ENDBRANCH  27  48
BRANCH  39  56
ATOM     56  C   UNL A   1      48.296  26.279  27.889  1.00  0.00     0.057 A 
ATOM     57  C   UNL A   1      49.039  25.612  28.867  1.00  0.00     0.134 A 
ATOM     58  C   UNL A   1      48.823  26.369  26.597  1.00  0.00     0.134 A 
ATOM     59  F   UNL A   1      48.593  25.532  30.131  1.00  0.00    -0.206 F 
ATOM     60  C   UNL A   1      50.273  25.048  28.569  1.00  0.00     0.040 A 
ATOM     61  C   UNL A   1      50.033  25.766  26.275  1.00  0.00     0.040 A 
ATOM     62  F   UNL A   1      48.150  27.011  25.629  1.00  0.00    -0.206 F 
ATOM     63  C   UNL A   1      50.763  25.111  27.265  1.00  0.00     0.006 A 
ENDBRANCH  39  56
ENDBRANCH  13  14
ENDBRANCH   6   8
ENDBRANCH   5   6
ENDBRANCH   4   5
ENDBRANCH   3   4
ENDBRANCH   2   3
ENDBRANCH   1   2
BRANCH   1  64
ATOM     64  C   UNL A   1      31.543  30.835  25.889  1.00  0.00     0.188 C 
BRANCH  64  65
ATOM     65  O   UNL A   1      32.205  29.620  26.177  1.00  0.00    -0.376 OA
BRANCH  65  66
ATOM     66  C   UNL A   1      31.932  28.978  27.400  1.00  0.00     0.202 C 
BRANCH  66  67
ATOM     67  C   UNL A   1      31.232  27.609  27.325  1.00  0.00     0.261 C 
BRANCH  67  68
ATOM     68  O   UNL A   1      31.806  26.568  26.499  1.00  0.00    -0.459 OA
BRANCH  68  69
ATOM     69  C   UNL A   1      31.004  25.822  25.661  1.00  0.00     0.365 C 
ATOM     70  O   UNL A   1      30.500  24.750  25.964  1.00  0.00    -0.245 OA
BRANCH  69  71
ATOM     71  C   UNL A   1      31.015  26.461  24.241  1.00  0.00     0.300 C 
ATOM     72  C   UNL A   1      29.529  26.901  24.131  1.00  0.00     0.113 C 
ATOM     73  N   UNL A   1      31.998  27.562  23.974  1.00  0.00    -0.315 N 
ATOM     74  C   UNL A   1      29.248  28.140  23.336  1.00  0.00    -0.033 A 
ATOM     75  C   UNL A   1      31.676  28.329  22.757  1.00  0.00     0.300 C 
ATOM     76  H   UNL A   1      31.879  28.081  24.843  1.00  0.00     0.349 HD
ATOM     77  C   UNL A   1      27.942  28.622  23.239  1.00  0.00     0.006 A 
ATOM     78  C   UNL A   1      30.273  28.811  22.673  1.00  0.00     0.011 A 
ATOM     79  C   UNL A   1      27.679  29.755  22.475  1.00  0.00     0.021 A 
ATOM     80  C   UNL A   1      29.986  29.893  21.832  1.00  0.00     0.030 A 
ATOM     81  C   UNL A   1      28.689  30.366  21.740  1.00  0.00     0.041 A 
ATOM     82  Cl  UNL A   1      28.343  31.705  20.722  1.00  0.00    -0.084 Cl
BRANCH  73  83
ATOM     83  C   UNL A   1      33.433  27.241  23.859  1.00  0.00     0.300 C 
BRANCH  83  84
ATOM     84  C   UNL A   1      33.840  25.774  23.913  1.00  0.00     0.006 A 
ATOM     85  C   UNL A   1      34.526  25.015  25.363  1.00  0.00     0.011 A 
ATOM     86  C   UNL A   1      33.307  24.694  22.591  1.00  0.00     0.011 A 
ATOM     87  C   UNL A   1      34.659  23.247  25.593  1.00  0.00     0.021 A 
ATOM     88  C   UNL A   1      33.437  22.691  22.855  1.00  0.00     0.021 A 
ATOM     89  C   UNL A   1      34.121  22.082  24.397  1.00  0.00     0.041 A 
ATOM     90  Cl  UNL A   1      34.156  20.397  24.724  1.00  0.00    -0.084 Cl
ENDBRANCH  83  84
ENDBRANCH  73  83
ENDBRANCH  69  71
ENDBRANCH  68  69
ENDBRANCH  67  68
ENDBRANCH  66  67
ENDBRANCH  65  66
ENDBRANCH  64  65
ENDBRANCH   1  64
TORSDOF 19
ENDMDL
