MODEL 1
REMARK VINA RESULT:     -11.3      0.000      0.000
REMARK SMILES C[C@@H](C(=O)OCCOCCOCCOC(=O)c1ccc(-c2c3nc(c(-c4c(F)cccc4F)c4ccc([nH]4)c(-c4c(F)cccc4F)c4nc(c(-c5c(F)cccc5F)c5ccc2[nH]5)C=C4)C=C3)cc1)c1ccc2c3cc(Cl)ccc3n(C(=O)c3cocn3)c2c1
REMARK SMILES IDX 9 1 8 2 7 3 6 4 5 5 3 6 4 7 2 8 1 9 71 10 72 11 91 12 73 13
REMARK SMILES IDX 90 14 74 15 82 16 75 17 81 18 76 19 80 20 77 21 79 22 78 23
REMARK SMILES IDX 83 24 84 25 85 26 86 27 89 28 87 29 88 30 10 31 11 32 12 33
REMARK SMILES IDX 13 34 14 35 15 36 16 37 17 38 18 39 70 40 19 41 69 42 20 43
REMARK SMILES IDX 21 44 22 45 63 46 23 47 68 48 62 49 64 50 24 51 67 52 61 53
REMARK SMILES IDX 60 54 25 56 51 57 34 58 50 59 35 60 38 61 49 62 65 63 36 64
REMARK SMILES IDX 37 65 48 67 66 68 39 69 26 70 27 71 32 72 28 73 29 74 31 75
REMARK SMILES IDX 33 76 30 77 52 78 53 79 58 80 54 81 55 82 57 83 59 84 56 85
REMARK SMILES IDX 40 86 41 87 46 88 42 89 43 90 45 91 47 92 44 93
REMARK H PARENT 64 55 38 66
REMARK Flexibility Score: inf
ROOT
ATOM      1  C   UNL A   1      33.293  29.526  25.657  1.00  0.00     0.188 C 
ENDROOT
BRANCH   1   2
ATOM      2  O   UNL A   1      32.578  28.607  24.834  1.00  0.00    -0.376 OA
BRANCH   2   3
ATOM      3  C   UNL A   1      32.539  28.843  23.428  1.00  0.00     0.202 C 
BRANCH   3   4
ATOM      4  C   UNL A   1      31.328  28.289  22.674  1.00  0.00     0.261 C 
BRANCH   4   5
ATOM      5  O   UNL A   1      30.572  27.359  23.471  1.00  0.00    -0.463 OA
BRANCH   5   6
ATOM      6  C   UNL A   1      30.854  26.049  23.246  1.00  0.00     0.313 C 
ATOM      7  O   UNL A   1      31.360  25.628  22.211  1.00  0.00    -0.252 OA
BRANCH   6   8
ATOM      8  C   UNL A   1      30.581  25.158  24.464  1.00  0.00     0.126 C 
ATOM      9  C   UNL A   1      29.765  25.880  25.541  1.00  0.00     0.025 C 
BRANCH   8  10
ATOM     10  C   UNL A   1      31.814  24.369  24.931  1.00  0.00    -0.032 A 
ATOM     11  C   UNL A   1      32.814  25.058  25.628  1.00  0.00     0.005 A 
ATOM     12  C   UNL A   1      32.052  23.020  24.581  1.00  0.00     0.032 A 
ATOM     13  C   UNL A   1      34.031  24.456  25.951  1.00  0.00     0.011 A 
ATOM     14  C   UNL A   1      33.308  22.414  24.871  1.00  0.00     0.058 A 
ATOM     15  C   UNL A   1      34.295  23.137  25.538  1.00  0.00     0.008 A 
ATOM     16  N   UNL A   1      33.830  21.124  24.604  1.00  0.00    -0.274 N 
ATOM     17  C   UNL A   1      35.475  22.352  25.560  1.00  0.00     0.009 A 
ATOM     18  C   UNL A   1      35.201  21.137  24.925  1.00  0.00     0.057 A 
ATOM     19  C   UNL A   1      36.791  22.650  25.978  1.00  0.00     0.031 A 
ATOM     20  C   UNL A   1      36.250  20.228  24.666  1.00  0.00     0.029 A 
ATOM     21  C   UNL A   1      37.817  21.753  25.700  1.00  0.00     0.041 A 
ATOM     22  C   UNL A   1      37.551  20.546  25.075  1.00  0.00     0.023 A 
ATOM     23  Cl  UNL A   1      39.441  22.210  26.009  1.00  0.00    -0.084 Cl
BRANCH  16  24
ATOM     24  C   UNL A   1      33.079  20.038  24.056  1.00  0.00     0.284 C 
ATOM     25  O   UNL A   1      32.309  20.327  23.142  1.00  0.00    -0.266 OA
BRANCH  24  26
ATOM     26  C   UNL A   1      33.110  18.650  24.531  1.00  0.00     0.167 A 
ATOM     27  C   UNL A   1      33.911  17.599  24.131  1.00  0.00     0.231 A 
ATOM     28  N   UNL A   1      32.360  18.226  25.621  1.00  0.00    -0.211 NA
ATOM     29  O   UNL A   1      33.660  16.527  24.934  1.00  0.00    -0.451 OA
ATOM     30  C   UNL A   1      32.723  16.980  25.806  1.00  0.00     0.308 A 
ENDBRANCH  24  26
ENDBRANCH  16  24
ENDBRANCH   8  10
ENDBRANCH   6   8
ENDBRANCH   5   6
ENDBRANCH   4   5
ENDBRANCH   3   4
ENDBRANCH   2   3
ENDBRANCH   1   2
BRANCH   1  31
ATOM     31  C   UNL A   1      32.525  30.320  26.726  1.00  0.00     0.188 C 
BRANCH  31  32
ATOM     32  O   UNL A   1      31.412  31.047  26.232  1.00  0.00    -0.376 OA
BRANCH  32  33
ATOM     33  C   UNL A   1      31.419  32.439  26.516  1.00  0.00     0.202 C 
BRANCH  33  34
ATOM     34  C   UNL A   1      32.421  32.790  27.620  1.00  0.00     0.261 C 
BRANCH  34  35
ATOM     35  O   UNL A   1      32.779  34.183  27.659  1.00  0.00    -0.460 OA
BRANCH  35  36
ATOM     36  C   UNL A   1      33.184  34.660  28.858  1.00  0.00     0.338 C 
ATOM     37  O   UNL A   1      32.605  35.452  29.577  1.00  0.00    -0.246 OA
BRANCH  36  38
ATOM     38  C   UNL A   1      34.377  33.891  29.258  1.00  0.00     0.060 A 
ATOM     39  C   UNL A   1      34.216  32.798  30.115  1.00  0.00     0.016 A 
ATOM     40  C   UNL A   1      35.642  34.247  28.786  1.00  0.00     0.016 A 
ATOM     41  C   UNL A   1      35.331  32.064  30.509  1.00  0.00     0.010 A 
ATOM     42  C   UNL A   1      36.762  33.533  29.221  1.00  0.00     0.010 A 
ATOM     43  C   UNL A   1      36.614  32.457  30.110  1.00  0.00    -0.014 A 
BRANCH  43  44
ATOM     44  C   UNL A   1      37.799  31.868  30.781  1.00  0.00     0.031 A 
ATOM     45  C   UNL A   1      38.574  30.806  30.050  1.00  0.00     0.074 A 
ATOM     46  C   UNL A   1      38.210  32.293  31.989  1.00  0.00     0.049 A 
ATOM     47  N   UNL A   1      39.620  30.126  30.440  1.00  0.00    -0.248 NA
ATOM     48  C   UNL A   1      38.121  30.486  28.685  1.00  0.00     0.031 C 
ATOM     49  C   UNL A   1      37.594  33.371  32.758  1.00  0.00     0.029 A 
ATOM     50  N   UNL A   1      39.243  31.859  32.784  1.00  0.00    -0.354 N 
ATOM     51  C   UNL A   1      39.934  29.282  29.383  1.00  0.00     0.074 A 
ATOM     52  C   UNL A   1      38.974  29.537  28.332  1.00  0.00     0.031 C 
ATOM     53  C   UNL A   1      38.252  33.504  33.922  1.00  0.00     0.029 A 
ATOM     54  C   UNL A   1      39.308  32.494  34.002  1.00  0.00     0.049 A 
ATOM     55  H   UNL A   1      39.877  31.158  32.507  1.00  0.00     0.167 HD
ATOM     56  C   UNL A   1      40.927  28.366  29.299  1.00  0.00     0.037 A 
ATOM     57  C   UNL A   1      40.110  32.264  35.064  1.00  0.00     0.037 A 
ATOM     58  C   UNL A   1      41.880  28.103  30.342  1.00  0.00     0.049 A 
ATOM     59  C   UNL A   1      41.153  31.174  34.967  1.00  0.00     0.074 A 
ATOM     60  C   UNL A   1      42.919  27.190  30.353  1.00  0.00     0.029 A 
ATOM     61  N   UNL A   1      41.898  28.748  31.569  1.00  0.00    -0.354 N 
ATOM     62  N   UNL A   1      41.474  30.420  33.943  1.00  0.00    -0.248 NA
ATOM     63  C   UNL A   1      41.949  30.905  36.175  1.00  0.00     0.031 C 
ATOM     64  C   UNL A   1      43.544  27.254  31.603  1.00  0.00     0.029 A 
ATOM     65  C   UNL A   1      42.916  28.233  32.355  1.00  0.00     0.049 A 
ATOM     66  H   UNL A   1      41.280  29.464  31.842  1.00  0.00     0.167 HD
ATOM     67  C   UNL A   1      42.532  29.625  34.370  1.00  0.00     0.074 A 
ATOM     68  C   UNL A   1      42.814  30.004  35.737  1.00  0.00     0.031 C 
ATOM     69  C   UNL A   1      43.207  28.659  33.699  1.00  0.00     0.037 A 
BRANCH  56  70
ATOM     70  C   UNL A   1      40.999  27.548  28.046  1.00  0.00     0.057 A 
ATOM     71  C   UNL A   1      41.761  27.947  26.942  1.00  0.00     0.134 A 
ATOM     72  C   UNL A   1      40.303  26.336  27.951  1.00  0.00     0.134 A 
ATOM     73  F   UNL A   1      42.433  29.109  26.963  1.00  0.00    -0.206 F 
ATOM     74  C   UNL A   1      41.817  27.176  25.779  1.00  0.00     0.040 A 
ATOM     75  C   UNL A   1      40.367  25.547  26.803  1.00  0.00     0.040 A 
ATOM     76  F   UNL A   1      39.553  25.901  28.975  1.00  0.00    -0.206 F 
ATOM     77  C   UNL A   1      41.122  25.970  25.711  1.00  0.00     0.006 A 
ENDBRANCH  56  70
BRANCH  57  78
ATOM     78  C   UNL A   1      39.973  33.073  36.310  1.00  0.00     0.057 A 
ATOM     79  C   UNL A   1      40.779  34.195  36.540  1.00  0.00     0.134 A 
ATOM     80  C   UNL A   1      39.062  32.737  37.318  1.00  0.00     0.134 A 
ATOM     81  F   UNL A   1      41.753  34.512  35.677  1.00  0.00    -0.206 F 
ATOM     82  C   UNL A   1      40.660  34.973  37.693  1.00  0.00     0.040 A 
ATOM     83  C   UNL A   1      38.921  33.510  38.474  1.00  0.00     0.040 A 
ATOM     84  F   UNL A   1      38.286  31.650  37.196  1.00  0.00    -0.206 F 
ATOM     85  C   UNL A   1      39.719  34.637  38.661  1.00  0.00     0.006 A 
ENDBRANCH  57  78
BRANCH  69  86
ATOM     86  C   UNL A   1      44.343  27.986  34.414  1.00  0.00     0.057 A 
ATOM     87  C   UNL A   1      45.642  28.509  34.390  1.00  0.00     0.134 A 
ATOM     88  C   UNL A   1      44.125  26.826  35.167  1.00  0.00     0.134 A 
ATOM     89  F   UNL A   1      45.918  29.612  33.678  1.00  0.00    -0.206 F 
ATOM     90  C   UNL A   1      46.690  27.885  35.069  1.00  0.00     0.040 A 
ATOM     91  C   UNL A   1      45.159  26.208  35.872  1.00  0.00     0.040 A 
ATOM     92  F   UNL A   1      42.901  26.282  35.243  1.00  0.00    -0.206 F 
ATOM     93  C   UNL A   1      46.448  26.736  35.818  1.00  0.00     0.006 A 
ENDBRANCH  69  86
ENDBRANCH  43  44
ENDBRANCH  36  38
ENDBRANCH  35  36
ENDBRANCH  34  35
ENDBRANCH  33  34
ENDBRANCH  32  33
ENDBRANCH  31  32
ENDBRANCH   1  31
TORSDOF 20
ENDMDL
MODEL 2
REMARK VINA RESULT:     -11.2      0.734      5.839
REMARK SMILES C[C@@H](C(=O)OCCOCCOCCOC(=O)c1ccc(-c2c3nc(c(-c4c(F)cccc4F)c4ccc([nH]4)c(-c4c(F)cccc4F)c4nc(c(-c5c(F)cccc5F)c5ccc2[nH]5)C=C4)C=C3)cc1)c1ccc2c3cc(Cl)ccc3n(C(=O)c3cocn3)c2c1
REMARK SMILES IDX 9 1 8 2 7 3 6 4 5 5 3 6 4 7 2 8 1 9 71 10 72 11 91 12 73 13
REMARK SMILES IDX 90 14 74 15 82 16 75 17 81 18 76 19 80 20 77 21 79 22 78 23
REMARK SMILES IDX 83 24 84 25 85 26 86 27 89 28 87 29 88 30 10 31 11 32 12 33
REMARK SMILES IDX 13 34 14 35 15 36 16 37 17 38 18 39 70 40 19 41 69 42 20 43
REMARK SMILES IDX 21 44 22 45 63 46 23 47 68 48 62 49 64 50 24 51 67 52 61 53
REMARK SMILES IDX 60 54 25 56 51 57 34 58 50 59 35 60 38 61 49 62 65 63 36 64
REMARK SMILES IDX 37 65 48 67 66 68 39 69 26 70 27 71 32 72 28 73 29 74 31 75
REMARK SMILES IDX 33 76 30 77 52 78 53 79 58 80 54 81 55 82 57 83 59 84 56 85
REMARK SMILES IDX 40 86 41 87 46 88 42 89 43 90 45 91 47 92 44 93
REMARK H PARENT 64 55 38 66
REMARK Flexibility Score: inf
ROOT
ATOM      1  C   UNL A   1      33.018  29.694  25.321  1.00  0.00     0.188 C 
ENDROOT
BRANCH   1   2
ATOM      2  O   UNL A   1      32.514  28.578  24.592  1.00  0.00    -0.376 OA
BRANCH   2   3
ATOM      3  C   UNL A   1      31.935  28.810  23.310  1.00  0.00     0.202 C 
BRANCH   3   4
ATOM      4  C   UNL A   1      30.842  27.836  22.864  1.00  0.00     0.261 C 
BRANCH   4   5
ATOM      5  O   UNL A   1      30.496  26.899  23.901  1.00  0.00    -0.463 OA
BRANCH   5   6
ATOM      6  C   UNL A   1      30.832  25.609  23.643  1.00  0.00     0.313 C 
ATOM      7  O   UNL A   1      31.356  25.236  22.598  1.00  0.00    -0.252 OA
BRANCH   6   8
ATOM      8  C   UNL A   1      30.595  24.676  24.837  1.00  0.00     0.126 C 
ATOM      9  C   UNL A   1      29.844  25.372  25.977  1.00  0.00     0.025 C 
BRANCH   8  10
ATOM     10  C   UNL A   1      31.830  23.844  25.217  1.00  0.00    -0.032 A 
ATOM     11  C   UNL A   1      32.862  24.478  25.920  1.00  0.00     0.005 A 
ATOM     12  C   UNL A   1      32.037  22.516  24.780  1.00  0.00     0.032 A 
ATOM     13  C   UNL A   1      34.079  23.842  26.167  1.00  0.00     0.011 A 
ATOM     14  C   UNL A   1      33.292  21.877  24.993  1.00  0.00     0.058 A 
ATOM     15  C   UNL A   1      34.311  22.546  25.668  1.00  0.00     0.008 A 
ATOM     16  N   UNL A   1      33.786  20.598  24.634  1.00  0.00    -0.274 N 
ATOM     17  C   UNL A   1      35.479  21.746  25.606  1.00  0.00     0.009 A 
ATOM     18  C   UNL A   1      35.166  20.574  24.910  1.00  0.00     0.057 A 
ATOM     19  C   UNL A   1      36.812  22.002  25.997  1.00  0.00     0.031 A 
ATOM     20  C   UNL A   1      36.193  19.669  24.564  1.00  0.00     0.029 A 
ATOM     21  C   UNL A   1      37.814  21.110  25.634  1.00  0.00     0.041 A 
ATOM     22  C   UNL A   1      37.511  19.946  24.948  1.00  0.00     0.023 A 
ATOM     23  Cl  UNL A   1      39.455  21.527  25.916  1.00  0.00    -0.084 Cl
BRANCH  16  24
ATOM     24  C   UNL A   1      33.002  19.557  24.049  1.00  0.00     0.284 C 
ATOM     25  O   UNL A   1      32.277  19.893  23.114  1.00  0.00    -0.266 OA
BRANCH  24  26
ATOM     26  C   UNL A   1      32.950  18.163  24.506  1.00  0.00     0.167 A 
ATOM     27  C   UNL A   1      33.382  17.012  23.877  1.00  0.00     0.231 A 
ATOM     28  N   UNL A   1      32.542  17.823  25.790  1.00  0.00    -0.211 NA
ATOM     29  O   UNL A   1      33.232  15.963  24.734  1.00  0.00    -0.451 OA
ATOM     30  C   UNL A   1      32.728  16.527  25.861  1.00  0.00     0.308 A 
ENDBRANCH  24  26
ENDBRANCH  16  24
ENDBRANCH   8  10
ENDBRANCH   6   8
ENDBRANCH   5   6
ENDBRANCH   4   5
ENDBRANCH   3   4
ENDBRANCH   2   3
ENDBRANCH   1   2
BRANCH   1  31
ATOM     31  C   UNL A   1      32.126  30.348  26.390  1.00  0.00     0.188 C 
BRANCH  31  32
ATOM     32  O   UNL A   1      31.099  31.177  25.872  1.00  0.00    -0.376 OA
BRANCH  32  33
ATOM     33  C   UNL A   1      31.156  32.540  26.270  1.00  0.00     0.202 C 
BRANCH  33  34
ATOM     34  C   UNL A   1      32.203  32.770  27.365  1.00  0.00     0.261 C 
BRANCH  34  35
ATOM     35  O   UNL A   1      32.725  34.110  27.398  1.00  0.00    -0.460 OA
BRANCH  35  36
ATOM     36  C   UNL A   1      33.226  34.524  28.584  1.00  0.00     0.338 C 
ATOM     37  O   UNL A   1      32.749  35.344  29.346  1.00  0.00    -0.246 OA
BRANCH  36  38
ATOM     38  C   UNL A   1      34.368  33.651  28.910  1.00  0.00     0.060 A 
ATOM     39  C   UNL A   1      34.139  32.498  29.666  1.00  0.00     0.016 A 
ATOM     40  C   UNL A   1      35.654  33.969  28.466  1.00  0.00     0.016 A 
ATOM     41  C   UNL A   1      35.207  31.665  29.989  1.00  0.00     0.010 A 
ATOM     42  C   UNL A   1      36.727  33.152  28.831  1.00  0.00     0.010 A 
ATOM     43  C   UNL A   1      36.512  32.012  29.621  1.00  0.00    -0.014 A 
BRANCH  43  44
ATOM     44  C   UNL A   1      37.657  31.295  30.233  1.00  0.00     0.031 A 
ATOM     45  C   UNL A   1      37.970  31.561  31.680  1.00  0.00     0.074 A 
ATOM     46  C   UNL A   1      38.377  30.393  29.542  1.00  0.00     0.049 A 
ATOM     47  N   UNL A   1      38.932  31.081  32.423  1.00  0.00    -0.248 NA
ATOM     48  C   UNL A   1      37.058  32.475  32.391  1.00  0.00     0.031 C 
ATOM     49  C   UNL A   1      38.119  29.988  28.164  1.00  0.00     0.029 A 
ATOM     50  N   UNL A   1      39.480  29.661  29.909  1.00  0.00    -0.354 N 
ATOM     51  C   UNL A   1      38.759  31.653  33.677  1.00  0.00     0.074 A 
ATOM     52  C   UNL A   1      37.597  32.509  33.599  1.00  0.00     0.031 C 
ATOM     53  C   UNL A   1      39.049  29.089  27.794  1.00  0.00     0.029 A 
ATOM     54  C   UNL A   1      39.994  28.888  28.894  1.00  0.00     0.049 A 
ATOM     55  H   UNL A   1      39.867  29.688  30.814  1.00  0.00     0.167 HD
ATOM     56  C   UNL A   1      39.508  31.487  34.792  1.00  0.00     0.037 A 
ATOM     57  C   UNL A   1      41.111  28.131  28.854  1.00  0.00     0.037 A 
ATOM     58  C   UNL A   1      40.668  30.643  34.874  1.00  0.00     0.049 A 
ATOM     59  C   UNL A   1      41.973  28.036  30.093  1.00  0.00     0.074 A 
ATOM     60  C   UNL A   1      41.496  30.415  35.958  1.00  0.00     0.029 A 
ATOM     61  N   UNL A   1      41.171  29.896  33.819  1.00  0.00    -0.354 N 
ATOM     62  N   UNL A   1      41.768  28.539  31.287  1.00  0.00    -0.248 NA
ATOM     63  C   UNL A   1      43.221  27.267  29.979  1.00  0.00     0.031 C 
ATOM     64  C   UNL A   1      42.525  29.560  35.549  1.00  0.00     0.029 A 
ATOM     65  C   UNL A   1      42.314  29.227  34.221  1.00  0.00     0.049 A 
ATOM     66  H   UNL A   1      40.775  29.849  32.919  1.00  0.00     0.167 HD
ATOM     67  C   UNL A   1      42.833  28.109  32.071  1.00  0.00     0.074 A 
ATOM     68  C   UNL A   1      43.670  27.287  31.224  1.00  0.00     0.031 C 
ATOM     69  C   UNL A   1      43.106  28.377  33.372  1.00  0.00     0.037 A 
BRANCH  56  70
ATOM     70  C   UNL A   1      39.117  32.279  36.003  1.00  0.00     0.057 A 
ATOM     71  C   UNL A   1      39.574  33.585  36.214  1.00  0.00     0.134 A 
ATOM     72  C   UNL A   1      38.260  31.726  36.963  1.00  0.00     0.134 A 
ATOM     73  F   UNL A   1      40.414  34.162  35.341  1.00  0.00    -0.206 F 
ATOM     74  C   UNL A   1      39.204  34.311  37.348  1.00  0.00     0.040 A 
ATOM     75  C   UNL A   1      37.867  32.449  38.090  1.00  0.00     0.040 A 
ATOM     76  F   UNL A   1      37.791  30.478  36.818  1.00  0.00    -0.206 F 
ATOM     77  C   UNL A   1      38.343  33.743  38.287  1.00  0.00     0.006 A 
ENDBRANCH  56  70
BRANCH  57  78
ATOM     78  C   UNL A   1      41.488  27.396  27.612  1.00  0.00     0.057 A 
ATOM     79  C   UNL A   1      42.203  28.023  26.584  1.00  0.00     0.134 A 
ATOM     80  C   UNL A   1      41.122  26.061  27.398  1.00  0.00     0.134 A 
ATOM     81  F   UNL A   1      42.487  29.330  26.664  1.00  0.00    -0.206 F 
ATOM     82  C   UNL A   1      42.575  27.352  25.419  1.00  0.00     0.040 A 
ATOM     83  C   UNL A   1      41.497  25.369  26.242  1.00  0.00     0.040 A 
ATOM     84  F   UNL A   1      40.397  25.401  28.313  1.00  0.00    -0.206 F 
ATOM     85  C   UNL A   1      42.231  26.015  25.250  1.00  0.00     0.006 A 
ENDBRANCH  57  78
BRANCH  69  86
ATOM     86  C   UNL A   1      44.325  27.734  33.968  1.00  0.00     0.057 A 
ATOM     87  C   UNL A   1      44.280  26.459  34.545  1.00  0.00     0.134 A 
ATOM     88  C   UNL A   1      45.566  28.383  33.927  1.00  0.00     0.134 A 
ATOM     89  F   UNL A   1      43.119  25.790  34.624  1.00  0.00    -0.206 F 
ATOM     90  C   UNL A   1      45.421  25.862  35.085  1.00  0.00     0.040 A 
ATOM     91  C   UNL A   1      46.719  27.785  34.439  1.00  0.00     0.040 A 
ATOM     92  F   UNL A   1      45.681  29.600  33.375  1.00  0.00    -0.206 F 
ATOM     93  C   UNL A   1      46.645  26.523  35.026  1.00  0.00     0.006 A 
ENDBRANCH  69  86
ENDBRANCH  43  44
ENDBRANCH  36  38
ENDBRANCH  35  36
ENDBRANCH  34  35
ENDBRANCH  33  34
ENDBRANCH  32  33
ENDBRANCH  31  32
ENDBRANCH   1  31
TORSDOF 20
ENDMDL
MODEL 3
REMARK VINA RESULT:     -10.9      2.091      6.540
REMARK SMILES C[C@@H](C(=O)OCCOCCOCCOC(=O)c1ccc(-c2c3nc(c(-c4c(F)cccc4F)c4ccc([nH]4)c(-c4c(F)cccc4F)c4nc(c(-c5c(F)cccc5F)c5ccc2[nH]5)C=C4)C=C3)cc1)c1ccc2c3cc(Cl)ccc3n(C(=O)c3cocn3)c2c1
REMARK SMILES IDX 9 1 8 2 7 3 6 4 5 5 3 6 4 7 2 8 1 9 71 10 72 11 91 12 73 13
REMARK SMILES IDX 90 14 74 15 82 16 75 17 81 18 76 19 80 20 77 21 79 22 78 23
REMARK SMILES IDX 83 24 84 25 85 26 86 27 89 28 87 29 88 30 10 31 11 32 12 33
REMARK SMILES IDX 13 34 14 35 15 36 16 37 17 38 18 39 70 40 19 41 69 42 20 43
REMARK SMILES IDX 21 44 22 45 63 46 23 47 68 48 62 49 64 50 24 51 67 52 61 53
REMARK SMILES IDX 60 54 25 56 51 57 34 58 50 59 35 60 38 61 49 62 65 63 36 64
REMARK SMILES IDX 37 65 48 67 66 68 39 69 26 70 27 71 32 72 28 73 29 74 31 75
REMARK SMILES IDX 33 76 30 77 52 78 53 79 58 80 54 81 55 82 57 83 59 84 56 85
REMARK SMILES IDX 40 86 41 87 46 88 42 89 43 90 45 91 47 92 44 93
REMARK H PARENT 64 55 38 66
REMARK Flexibility Score: inf
ROOT
ATOM      1  C   UNL A   1      33.555  28.910  24.123  1.00  0.00     0.188 C 
ENDROOT
BRANCH   1   2
ATOM      2  O   UNL A   1      32.777  28.331  23.079  1.00  0.00    -0.376 OA
BRANCH   2   3
ATOM      3  C   UNL A   1      31.524  28.930  22.755  1.00  0.00     0.202 C 
BRANCH   3   4
ATOM      4  C   UNL A   1      30.337  27.981  22.573  1.00  0.00     0.261 C 
BRANCH   4   5
ATOM      5  O   UNL A   1      30.161  27.111  23.706  1.00  0.00    -0.463 OA
BRANCH   5   6
ATOM      6  C   UNL A   1      30.580  25.833  23.518  1.00  0.00     0.313 C 
ATOM      7  O   UNL A   1      31.136  25.440  22.497  1.00  0.00    -0.252 OA
BRANCH   6   8
ATOM      8  C   UNL A   1      30.393  24.950  24.758  1.00  0.00     0.126 C 
ATOM      9  C   UNL A   1      29.619  25.667  25.869  1.00  0.00     0.025 C 
BRANCH   8  10
ATOM     10  C   UNL A   1      31.667  24.194  25.167  1.00  0.00    -0.032 A 
ATOM     11  C   UNL A   1      32.657  24.898  25.864  1.00  0.00     0.005 A 
ATOM     12  C   UNL A   1      31.948  22.869  24.763  1.00  0.00     0.032 A 
ATOM     13  C   UNL A   1      33.904  24.332  26.136  1.00  0.00     0.011 A 
ATOM     14  C   UNL A   1      33.232  22.303  25.001  1.00  0.00     0.058 A 
ATOM     15  C   UNL A   1      34.208  23.040  25.669  1.00  0.00     0.008 A 
ATOM     16  N   UNL A   1      33.797  21.044  24.676  1.00  0.00    -0.274 N 
ATOM     17  C   UNL A   1      35.418  22.302  25.635  1.00  0.00     0.009 A 
ATOM     18  C   UNL A   1      35.174  21.099  24.964  1.00  0.00     0.057 A 
ATOM     19  C   UNL A   1      36.731  22.637  26.032  1.00  0.00     0.031 A 
ATOM     20  C   UNL A   1      36.250  20.243  24.647  1.00  0.00     0.029 A 
ATOM     21  C   UNL A   1      37.783  21.790  25.697  1.00  0.00     0.041 A 
ATOM     22  C   UNL A   1      37.548  20.597  25.036  1.00  0.00     0.023 A 
ATOM     23  Cl  UNL A   1      39.396  22.300  25.984  1.00  0.00    -0.084 Cl
BRANCH  16  24
ATOM     24  C   UNL A   1      33.074  19.949  24.108  1.00  0.00     0.284 C 
ATOM     25  O   UNL A   1      32.319  20.230  23.179  1.00  0.00    -0.266 OA
BRANCH  24  26
ATOM     26  C   UNL A   1      33.118  18.559  24.576  1.00  0.00     0.167 A 
ATOM     27  C   UNL A   1      33.949  17.525  24.194  1.00  0.00     0.231 A 
ATOM     28  N   UNL A   1      32.345  18.117  25.643  1.00  0.00    -0.211 NA
ATOM     29  O   UNL A   1      33.695  16.445  24.985  1.00  0.00    -0.451 OA
ATOM     30  C   UNL A   1      32.725  16.876  25.832  1.00  0.00     0.308 A 
ENDBRANCH  24  26
ENDBRANCH  16  24
ENDBRANCH   8  10
ENDBRANCH   6   8
ENDBRANCH   5   6
ENDBRANCH   4   5
ENDBRANCH   3   4
ENDBRANCH   2   3
ENDBRANCH   1   2
BRANCH   1  31
ATOM     31  C   UNL A   1      33.113  28.702  25.582  1.00  0.00     0.188 C 
BRANCH  31  32
ATOM     32  O   UNL A   1      32.039  29.531  25.994  1.00  0.00    -0.376 OA
BRANCH  32  33
ATOM     33  C   UNL A   1      32.407  30.666  26.767  1.00  0.00     0.202 C 
BRANCH  33  34
ATOM     34  C   UNL A   1      33.747  30.459  27.480  1.00  0.00     0.261 C 
BRANCH  34  35
ATOM     35  O   UNL A   1      34.445  31.683  27.772  1.00  0.00    -0.460 OA
BRANCH  35  36
ATOM     36  C   UNL A   1      34.856  31.843  29.050  1.00  0.00     0.338 C 
ATOM     37  O   UNL A   1      34.255  32.376  29.963  1.00  0.00    -0.246 OA
BRANCH  36  38
ATOM     38  C   UNL A   1      36.099  31.067  29.214  1.00  0.00     0.060 A 
ATOM     39  C   UNL A   1      36.104  29.984  30.100  1.00  0.00     0.016 A 
ATOM     40  C   UNL A   1      37.247  31.404  28.494  1.00  0.00     0.016 A 
ATOM     41  C   UNL A   1      37.270  29.244  30.272  1.00  0.00     0.010 A 
ATOM     42  C   UNL A   1      38.426  30.683  28.706  1.00  0.00     0.010 A 
ATOM     43  C   UNL A   1      38.450  29.619  29.620  1.00  0.00    -0.014 A 
BRANCH  43  44
ATOM     44  C   UNL A   1      39.740  29.026  30.049  1.00  0.00     0.031 A 
ATOM     45  C   UNL A   1      40.404  29.584  31.278  1.00  0.00     0.074 A 
ATOM     46  C   UNL A   1      40.292  27.987  29.397  1.00  0.00     0.049 A 
ATOM     47  N   UNL A   1      41.542  29.254  31.829  1.00  0.00    -0.248 NA
ATOM     48  C   UNL A   1      39.672  30.642  31.995  1.00  0.00     0.031 C 
ATOM     49  C   UNL A   1      39.704  27.305  28.247  1.00  0.00     0.029 A 
ATOM     50  N   UNL A   1      41.479  27.329  29.609  1.00  0.00    -0.354 N 
ATOM     51  C   UNL A   1      41.676  30.078  32.938  1.00  0.00     0.074 A 
ATOM     52  C   UNL A   1      40.501  30.920  32.989  1.00  0.00     0.031 C 
ATOM     53  C   UNL A   1      40.541  26.333  27.844  1.00  0.00     0.029 A 
ATOM     54  C   UNL A   1      41.743  26.351  28.679  1.00  0.00     0.049 A 
ATOM     55  H   UNL A   1      42.084  27.538  30.357  1.00  0.00     0.167 HD
ATOM     56  C   UNL A   1      42.692  30.137  33.831  1.00  0.00     0.037 A 
ATOM     57  C   UNL A   1      42.841  25.582  28.508  1.00  0.00     0.037 A 
ATOM     58  C   UNL A   1      43.865  29.309  33.782  1.00  0.00     0.049 A 
ATOM     59  C   UNL A   1      43.994  25.735  29.473  1.00  0.00     0.074 A 
ATOM     60  C   UNL A   1      44.952  29.299  34.637  1.00  0.00     0.029 A 
ATOM     61  N   UNL A   1      44.108  28.349  32.811  1.00  0.00    -0.354 N 
ATOM     62  N   UNL A   1      44.084  26.481  30.549  1.00  0.00    -0.248 NA
ATOM     63  C   UNL A   1      45.199  24.936  29.201  1.00  0.00     0.031 C 
ATOM     64  C   UNL A   1      45.872  28.359  34.162  1.00  0.00     0.029 A 
ATOM     65  C   UNL A   1      45.340  27.759  33.032  1.00  0.00     0.049 A 
ATOM     66  H   UNL A   1      43.496  28.121  32.074  1.00  0.00     0.167 HD
ATOM     67  C   UNL A   1      45.331  26.206  31.101  1.00  0.00     0.074 A 
ATOM     68  C   UNL A   1      45.952  25.209  30.255  1.00  0.00     0.031 C 
ATOM     69  C   UNL A   1      45.919  26.735  32.202  1.00  0.00     0.037 A 
BRANCH  56  70
ATOM     70  C   UNL A   1      42.595  31.172  34.910  1.00  0.00     0.057 A 
ATOM     71  C   UNL A   1      42.088  30.873  36.180  1.00  0.00     0.134 A 
ATOM     72  C   UNL A   1      43.028  32.483  34.675  1.00  0.00     0.134 A 
ATOM     73  F   UNL A   1      41.637  29.640  36.460  1.00  0.00    -0.206 F 
ATOM     74  C   UNL A   1      42.001  31.847  37.177  1.00  0.00     0.040 A 
ATOM     75  C   UNL A   1      42.965  33.460  35.669  1.00  0.00     0.040 A 
ATOM     76  F   UNL A   1      43.521  32.831  33.477  1.00  0.00    -0.206 F 
ATOM     77  C   UNL A   1      42.446  33.144  36.922  1.00  0.00     0.006 A 
ENDBRANCH  56  70
BRANCH  57  78
ATOM     78  C   UNL A   1      42.913  24.597  27.391  1.00  0.00     0.057 A 
ATOM     79  C   UNL A   1      43.286  24.988  26.099  1.00  0.00     0.134 A 
ATOM     80  C   UNL A   1      42.585  23.247  27.568  1.00  0.00     0.134 A 
ATOM     81  F   UNL A   1      43.503  26.282  25.824  1.00  0.00    -0.206 F 
ATOM     82  C   UNL A   1      43.371  24.081  25.041  1.00  0.00     0.040 A 
ATOM     83  C   UNL A   1      42.675  22.323  26.523  1.00  0.00     0.040 A 
ATOM     84  F   UNL A   1      42.172  22.800  28.763  1.00  0.00    -0.206 F 
ATOM     85  C   UNL A   1      43.075  22.739  25.255  1.00  0.00     0.006 A 
ENDBRANCH  57  78
BRANCH  69  86
ATOM     86  C   UNL A   1      47.273  26.211  32.581  1.00  0.00     0.057 A 
ATOM     87  C   UNL A   1      47.427  25.129  33.458  1.00  0.00     0.134 A 
ATOM     88  C   UNL A   1      48.435  26.768  32.031  1.00  0.00     0.134 A 
ATOM     89  F   UNL A   1      46.354  24.559  34.027  1.00  0.00    -0.206 F 
ATOM     90  C   UNL A   1      48.690  24.638  33.795  1.00  0.00     0.040 A 
ATOM     91  C   UNL A   1      49.701  26.269  32.339  1.00  0.00     0.040 A 
ATOM     92  F   UNL A   1      48.357  27.797  31.173  1.00  0.00    -0.206 F 
ATOM     93  C   UNL A   1      49.830  25.204  33.230  1.00  0.00     0.006 A 
ENDBRANCH  69  86
ENDBRANCH  43  44
ENDBRANCH  36  38
ENDBRANCH  35  36
ENDBRANCH  34  35
ENDBRANCH  33  34
ENDBRANCH  32  33
ENDBRANCH  31  32
ENDBRANCH   1  31
TORSDOF 20
ENDMDL
