MODEL 1
REMARK VINA RESULT:     -11.9      0.000      0.000
REMARK SMILES Cc1ccnc(C(=O)c2[nH]c3ccc(C(C)(C)C)cc3c2CC(=O)OCCOCCOCCOC(=O)c2ccc(-c3c4nc(c(-c5c(F)cccc5F)c5ccc([nH]5)c(-c5c(F)cccc5F)c5nc(c(-c6c(F)cccc6F)c6ccc3[nH]6)C=C5)C=C4)cc2)c1
REMARK SMILES IDX 29 1 28 2 27 3 26 4 25 5 23 6 24 7 22 8 21 9 9 10 10 11
REMARK SMILES IDX 11 12 20 14 12 15 19 16 13 17 14 18 7 19 8 20 6 21 1 22 2 23
REMARK SMILES IDX 3 24 91 25 4 26 5 27 15 28 16 29 17 30 18 31 30 32 31 33
REMARK SMILES IDX 32 34 33 35 34 36 35 37 36 38 37 39 38 40 90 41 39 42 89 43
REMARK SMILES IDX 40 44 41 45 42 46 83 47 43 48 88 49 82 50 84 51 44 52 87 53
REMARK SMILES IDX 81 54 80 55 45 57 71 58 54 59 70 60 55 61 58 62 69 63 85 64
REMARK SMILES IDX 56 65 57 66 68 68 86 69 59 70 46 71 47 72 52 73 48 74 49 75
REMARK SMILES IDX 51 76 53 77 50 78 72 79 73 80 78 81 74 82 75 83 77 84 79 85
REMARK SMILES IDX 76 86 60 87 61 88 66 89 62 90 63 91 65 92 67 93 64 94
REMARK H PARENT 10 13 84 56 58 67
REMARK Flexibility Score: inf
ROOT
ATOM      1  C   UNL A   1      41.011  20.758  26.866  1.00  0.00     0.188 C 
ENDROOT
BRANCH   1   2
ATOM      2  O   UNL A   1      39.608  20.990  26.893  1.00  0.00    -0.376 OA
BRANCH   2   3
ATOM      3  C   UNL A   1      39.042  21.768  25.846  1.00  0.00     0.202 C 
BRANCH   3   4
ATOM      4  C   UNL A   1      37.744  21.221  25.246  1.00  0.00     0.261 C 
BRANCH   4   5
ATOM      5  O   UNL A   1      36.899  22.272  24.728  1.00  0.00    -0.463 OA
BRANCH   5   6
ATOM      6  C   UNL A   1      35.649  22.334  25.251  1.00  0.00     0.310 C 
ATOM      7  O   UNL A   1      35.326  21.767  26.295  1.00  0.00    -0.252 OA
BRANCH   6   8
ATOM      8  C   UNL A   1      34.663  23.223  24.520  1.00  0.00     0.161 C 
BRANCH   8   9
ATOM      9  C   UNL A   1      33.196  23.210  24.887  1.00  0.00     0.000 A 
ATOM     10  C   UNL A   1      32.203  22.324  24.450  1.00  0.00     0.093 A 
ATOM     11  N   UNL A   1      31.031  22.694  25.076  1.00  0.00    -0.352 N 
ATOM     12  C   UNL A   1      31.142  23.979  25.539  1.00  0.00     0.046 A 
ATOM     13  H   UNL A   1      30.235  22.122  25.173  1.00  0.00     0.167 HD
ATOM     14  C   UNL A   1      32.488  24.313  25.466  1.00  0.00     0.004 A 
ATOM     15  C   UNL A   1      30.161  24.872  25.972  1.00  0.00     0.027 A 
ATOM     16  C   UNL A   1      32.871  25.620  25.817  1.00  0.00     0.015 A 
ATOM     17  C   UNL A   1      30.561  26.191  26.223  1.00  0.00     0.006 A 
ATOM     18  C   UNL A   1      31.899  26.599  26.113  1.00  0.00    -0.042 A 
BRANCH  10  19
ATOM     19  C   UNL A   1      32.319  21.231  23.507  1.00  0.00     0.227 C 
ATOM     20  O   UNL A   1      32.224  21.389  22.291  1.00  0.00    -0.285 OA
BRANCH  19  21
ATOM     21  C   UNL A   1      32.492  19.839  24.009  1.00  0.00     0.113 A 
ATOM     22  C   UNL A   1      34.068  16.573  22.941  1.00  0.00     0.044 C 
ATOM     23  C   UNL A   1      33.420  17.648  23.763  1.00  0.00    -0.047 A 
ATOM     24  C   UNL A   1      33.290  17.493  25.146  1.00  0.00     0.023 A 
ATOM     25  C   UNL A   1      33.029  18.860  23.181  1.00  0.00     0.036 A 
ATOM     26  C   UNL A   1      32.694  18.508  25.875  1.00  0.00     0.112 A 
ATOM     27  N   UNL A   1      32.263  19.665  25.331  1.00  0.00    -0.253 NA
ENDBRANCH  19  21
ENDBRANCH  10  19
BRANCH  18  28
ATOM     28  C   UNL A   1      32.339  28.070  26.201  1.00  0.00    -0.013 C 
ATOM     29  C   UNL A   1      31.996  28.635  27.593  1.00  0.00     0.016 C 
ATOM     30  C   UNL A   1      33.869  28.145  25.977  1.00  0.00     0.016 C 
ATOM     31  C   UNL A   1      31.685  28.983  25.143  1.00  0.00     0.016 C 
ENDBRANCH  18  28
ENDBRANCH   8   9
ENDBRANCH   6   8
ENDBRANCH   5   6
ENDBRANCH   4   5
ENDBRANCH   3   4
ENDBRANCH   2   3
ENDBRANCH   1   2
BRANCH   1  32
ATOM     32  C   UNL A   1      41.545  19.498  26.153  1.00  0.00     0.188 C 
BRANCH  32  33
ATOM     33  O   UNL A   1      42.553  19.642  25.160  1.00  0.00    -0.376 OA
BRANCH  33  34
ATOM     34  C   UNL A   1      43.840  20.050  25.600  1.00  0.00     0.202 C 
BRANCH  34  35
ATOM     35  C   UNL A   1      44.266  21.422  25.085  1.00  0.00     0.261 C 
BRANCH  35  36
ATOM     36  O   UNL A   1      43.540  22.465  25.762  1.00  0.00    -0.460 OA
BRANCH  36  37
ATOM     37  C   UNL A   1      43.744  23.698  25.249  1.00  0.00     0.338 C 
ATOM     38  O   UNL A   1      44.517  23.994  24.353  1.00  0.00    -0.246 OA
BRANCH  37  39
ATOM     39  C   UNL A   1      42.885  24.709  25.903  1.00  0.00     0.060 A 
ATOM     40  C   UNL A   1      43.141  26.066  25.737  1.00  0.00     0.016 A 
ATOM     41  C   UNL A   1      42.002  24.297  26.898  1.00  0.00     0.016 A 
ATOM     42  C   UNL A   1      42.668  26.987  26.675  1.00  0.00     0.010 A 
ATOM     43  C   UNL A   1      41.444  25.238  27.774  1.00  0.00     0.010 A 
ATOM     44  C   UNL A   1      41.839  26.587  27.730  1.00  0.00    -0.014 A 
BRANCH  44  45
ATOM     45  C   UNL A   1      41.492  27.532  28.838  1.00  0.00     0.031 A 
ATOM     46  C   UNL A   1      42.337  27.579  30.095  1.00  0.00     0.074 A 
ATOM     47  C   UNL A   1      40.469  28.404  28.721  1.00  0.00     0.049 A 
ATOM     48  N   UNL A   1      42.118  28.208  31.225  1.00  0.00    -0.248 NA
ATOM     49  C   UNL A   1      43.600  26.819  30.079  1.00  0.00     0.031 C 
ATOM     50  C   UNL A   1      39.615  28.562  27.543  1.00  0.00     0.029 A 
ATOM     51  N   UNL A   1      39.978  29.335  29.609  1.00  0.00    -0.354 N 
ATOM     52  C   UNL A   1      43.188  27.892  32.057  1.00  0.00     0.074 A 
ATOM     53  C   UNL A   1      44.055  27.008  31.310  1.00  0.00     0.031 C 
ATOM     54  C   UNL A   1      38.732  29.547  27.767  1.00  0.00     0.029 A 
ATOM     55  C   UNL A   1      38.885  30.021  29.137  1.00  0.00     0.049 A 
ATOM     56  H   UNL A   1      40.373  29.493  30.497  1.00  0.00     0.167 HD
ATOM     57  C   UNL A   1      43.428  28.297  33.329  1.00  0.00     0.037 A 
ATOM     58  C   UNL A   1      38.056  30.891  29.748  1.00  0.00     0.037 A 
ATOM     59  C   UNL A   1      42.577  29.185  34.080  1.00  0.00     0.049 A 
ATOM     60  C   UNL A   1      38.278  31.233  31.194  1.00  0.00     0.074 A 
ATOM     61  C   UNL A   1      42.715  29.610  35.392  1.00  0.00     0.029 A 
ATOM     62  N   UNL A   1      41.434  29.793  33.585  1.00  0.00    -0.354 N 
ATOM     63  N   UNL A   1      39.245  30.859  31.997  1.00  0.00    -0.248 NA
ATOM     64  C   UNL A   1      37.274  32.100  31.828  1.00  0.00     0.031 C 
ATOM     65  C   UNL A   1      41.630  30.438  35.704  1.00  0.00     0.029 A 
ATOM     66  C   UNL A   1      40.847  30.571  34.570  1.00  0.00     0.049 A 
ATOM     67  H   UNL A   1      41.090  29.686  32.669  1.00  0.00     0.167 HD
ATOM     68  C   UNL A   1      38.971  31.453  33.222  1.00  0.00     0.074 A 
ATOM     69  C   UNL A   1      37.767  32.238  33.048  1.00  0.00     0.031 C 
ATOM     70  C   UNL A   1      39.649  31.347  34.391  1.00  0.00     0.037 A 
BRANCH  57  71
ATOM     71  C   UNL A   1      44.647  27.754  34.017  1.00  0.00     0.057 A 
ATOM     72  C   UNL A   1      44.635  26.529  34.695  1.00  0.00     0.134 A 
ATOM     73  C   UNL A   1      45.868  28.438  33.943  1.00  0.00     0.134 A 
ATOM     74  F   UNL A   1      43.495  25.831  34.820  1.00  0.00    -0.206 F 
ATOM     75  C   UNL A   1      45.792  26.006  35.278  1.00  0.00     0.040 A 
ATOM     76  C   UNL A   1      47.035  27.917  34.502  1.00  0.00     0.040 A 
ATOM     77  F   UNL A   1      45.949  29.616  33.304  1.00  0.00    -0.206 F 
ATOM     78  C   UNL A   1      46.999  26.697  35.173  1.00  0.00     0.006 A 
ENDBRANCH  57  71
BRANCH  58  79
ATOM     79  C   UNL A   1      36.882  31.441  29.019  1.00  0.00     0.057 A 
ATOM     80  C   UNL A   1      36.856  32.767  28.573  1.00  0.00     0.134 A 
ATOM     81  C   UNL A   1      35.739  30.663  28.791  1.00  0.00     0.134 A 
ATOM     82  F   UNL A   1      37.903  33.576  28.793  1.00  0.00    -0.206 F 
ATOM     83  C   UNL A   1      35.732  33.303  27.939  1.00  0.00     0.040 A 
ATOM     84  C   UNL A   1      34.624  31.175  28.126  1.00  0.00     0.040 A 
ATOM     85  F   UNL A   1      35.693  29.387  29.203  1.00  0.00    -0.206 F 
ATOM     86  C   UNL A   1      34.615  32.502  27.706  1.00  0.00     0.006 A 
ENDBRANCH  58  79
BRANCH  70  87
ATOM     87  C   UNL A   1      39.113  32.126  35.557  1.00  0.00     0.057 A 
ATOM     88  C   UNL A   1      39.406  33.485  35.736  1.00  0.00     0.134 A 
ATOM     89  C   UNL A   1      38.312  31.505  36.523  1.00  0.00     0.134 A 
ATOM     90  F   UNL A   1      40.181  34.135  34.854  1.00  0.00    -0.206 F 
ATOM     91  C   UNL A   1      38.957  34.186  36.856  1.00  0.00     0.040 A 
ATOM     92  C   UNL A   1      37.834  32.203  37.633  1.00  0.00     0.040 A 
ATOM     93  F   UNL A   1      37.984  30.209  36.408  1.00  0.00    -0.206 F 
ATOM     94  C   UNL A   1      38.167  33.545  37.808  1.00  0.00     0.006 A 
ENDBRANCH  70  87
ENDBRANCH  44  45
ENDBRANCH  37  39
ENDBRANCH  36  37
ENDBRANCH  35  36
ENDBRANCH  34  35
ENDBRANCH  33  34
ENDBRANCH  32  33
ENDBRANCH   1  32
TORSDOF 21
ENDMDL
MODEL 2
REMARK VINA RESULT:     -11.7      4.917     10.173
REMARK SMILES Cc1ccnc(C(=O)c2[nH]c3ccc(C(C)(C)C)cc3c2CC(=O)OCCOCCOCCOC(=O)c2ccc(-c3c4nc(c(-c5c(F)cccc5F)c5ccc([nH]5)c(-c5c(F)cccc5F)c5nc(c(-c6c(F)cccc6F)c6ccc3[nH]6)C=C5)C=C4)cc2)c1
REMARK SMILES IDX 29 1 28 2 27 3 26 4 25 5 23 6 24 7 22 8 21 9 9 10 10 11
REMARK SMILES IDX 11 12 20 14 12 15 19 16 13 17 14 18 7 19 8 20 6 21 1 22 2 23
REMARK SMILES IDX 3 24 91 25 4 26 5 27 15 28 16 29 17 30 18 31 30 32 31 33
REMARK SMILES IDX 32 34 33 35 34 36 35 37 36 38 37 39 38 40 90 41 39 42 89 43
REMARK SMILES IDX 40 44 41 45 42 46 83 47 43 48 88 49 82 50 84 51 44 52 87 53
REMARK SMILES IDX 81 54 80 55 45 57 71 58 54 59 70 60 55 61 58 62 69 63 85 64
REMARK SMILES IDX 56 65 57 66 68 68 86 69 59 70 46 71 47 72 52 73 48 74 49 75
REMARK SMILES IDX 51 76 53 77 50 78 72 79 73 80 78 81 74 82 75 83 77 84 79 85
REMARK SMILES IDX 76 86 60 87 61 88 66 89 62 90 63 91 65 92 67 93 64 94
REMARK H PARENT 10 13 84 56 58 67
REMARK Flexibility Score: inf
ROOT
ATOM      1  C   UNL A   1      34.416  32.576  27.766  1.00  0.00     0.188 C 
ENDROOT
BRANCH   1   2
ATOM      2  O   UNL A   1      33.666  31.376  27.911  1.00  0.00    -0.376 OA
BRANCH   2   3
ATOM      3  C   UNL A   1      34.319  30.146  27.623  1.00  0.00     0.202 C 
BRANCH   3   4
ATOM      4  C   UNL A   1      33.758  29.365  26.433  1.00  0.00     0.261 C 
BRANCH   4   5
ATOM      5  O   UNL A   1      32.318  29.443  26.360  1.00  0.00    -0.463 OA
BRANCH   5   6
ATOM      6  C   UNL A   1      31.644  28.381  26.866  1.00  0.00     0.310 C 
ATOM      7  O   UNL A   1      31.605  28.117  28.067  1.00  0.00    -0.252 OA
BRANCH   6   8
ATOM      8  C   UNL A   1      30.850  27.557  25.870  1.00  0.00     0.161 C 
BRANCH   8   9
ATOM      9  C   UNL A   1      31.330  27.401  24.445  1.00  0.00     0.000 A 
ATOM     10  C   UNL A   1      30.677  27.783  23.266  1.00  0.00     0.093 A 
ATOM     11  N   UNL A   1      31.516  27.461  22.220  1.00  0.00    -0.352 N 
ATOM     12  C   UNL A   1      32.445  26.545  22.640  1.00  0.00     0.046 A 
ATOM     13  H   UNL A   1      31.456  27.832  21.309  1.00  0.00     0.167 HD
ATOM     14  C   UNL A   1      32.374  26.514  24.027  1.00  0.00     0.004 A 
ATOM     15  C   UNL A   1      33.300  25.723  21.905  1.00  0.00     0.027 A 
ATOM     16  C   UNL A   1      33.181  25.592  24.715  1.00  0.00     0.015 A 
ATOM     17  C   UNL A   1      34.020  24.751  22.613  1.00  0.00     0.006 A 
ATOM     18  C   UNL A   1      33.946  24.638  24.010  1.00  0.00    -0.042 A 
BRANCH  10  19
ATOM     19  C   UNL A   1      29.366  28.380  23.112  1.00  0.00     0.227 C 
ATOM     20  O   UNL A   1      28.328  27.720  23.137  1.00  0.00    -0.285 OA
BRANCH  19  21
ATOM     21  C   UNL A   1      29.248  29.840  22.841  1.00  0.00     0.113 A 
ATOM     22  C   UNL A   1      27.924  32.171  20.176  1.00  0.00     0.044 C 
ATOM     23  C   UNL A   1      28.463  31.636  21.469  1.00  0.00    -0.047 A 
ATOM     24  C   UNL A   1      28.527  32.458  22.598  1.00  0.00     0.023 A 
ATOM     25  C   UNL A   1      28.814  30.286  21.599  1.00  0.00     0.036 A 
ATOM     26  C   UNL A   1      29.023  31.930  23.778  1.00  0.00     0.112 A 
ATOM     27  N   UNL A   1      29.415  30.646  23.915  1.00  0.00    -0.253 NA
ENDBRANCH  19  21
ENDBRANCH  10  19
BRANCH  18  28
ATOM     28  C   UNL A   1      34.575  23.474  24.793  1.00  0.00    -0.013 C 
ATOM     29  C   UNL A   1      34.158  22.132  24.161  1.00  0.00     0.016 C 
ATOM     30  C   UNL A   1      36.117  23.612  24.737  1.00  0.00     0.016 C 
ATOM     31  C   UNL A   1      34.182  23.438  26.285  1.00  0.00     0.016 C 
ENDBRANCH  18  28
ENDBRANCH   8   9
ENDBRANCH   6   8
ENDBRANCH   5   6
ENDBRANCH   4   5
ENDBRANCH   3   4
ENDBRANCH   2   3
ENDBRANCH   1   2
BRANCH   1  32
ATOM     32  C   UNL A   1      33.743  33.922  28.109  1.00  0.00     0.188 C 
BRANCH  32  33
ATOM     33  O   UNL A   1      33.038  34.049  29.338  1.00  0.00    -0.376 OA
BRANCH  33  34
ATOM     34  C   UNL A   1      33.575  34.945  30.301  1.00  0.00     0.202 C 
BRANCH  34  35
ATOM     35  C   UNL A   1      34.680  34.340  31.162  1.00  0.00     0.261 C 
BRANCH  35  36
ATOM     36  O   UNL A   1      34.481  32.923  31.319  1.00  0.00    -0.460 OA
BRANCH  36  37
ATOM     37  C   UNL A   1      35.338  32.342  32.187  1.00  0.00     0.338 C 
ATOM     38  O   UNL A   1      35.416  32.555  33.386  1.00  0.00    -0.246 OA
BRANCH  37  39
ATOM     39  C   UNL A   1      36.213  31.358  31.513  1.00  0.00     0.060 A 
ATOM     40  C   UNL A   1      36.943  30.437  32.256  1.00  0.00     0.016 A 
ATOM     41  C   UNL A   1      36.513  31.541  30.165  1.00  0.00     0.016 A 
ATOM     42  C   UNL A   1      38.084  29.843  31.709  1.00  0.00     0.010 A 
ATOM     43  C   UNL A   1      37.595  30.861  29.589  1.00  0.00     0.010 A 
ATOM     44  C   UNL A   1      38.450  30.069  30.376  1.00  0.00    -0.014 A 
BRANCH  44  45
ATOM     45  C   UNL A   1      39.767  29.591  29.849  1.00  0.00     0.031 A 
ATOM     46  C   UNL A   1      40.962  30.523  29.821  1.00  0.00     0.074 A 
ATOM     47  C   UNL A   1      39.941  28.314  29.450  1.00  0.00     0.049 A 
ATOM     48  N   UNL A   1      42.138  30.355  29.264  1.00  0.00    -0.248 NA
ATOM     49  C   UNL A   1      40.818  31.815  30.514  1.00  0.00     0.031 C 
ATOM     50  C   UNL A   1      38.927  27.261  29.501  1.00  0.00     0.029 A 
ATOM     51  N   UNL A   1      41.046  27.680  28.928  1.00  0.00    -0.354 N 
ATOM     52  C   UNL A   1      42.852  31.524  29.509  1.00  0.00     0.074 A 
ATOM     53  C   UNL A   1      41.979  32.402  30.256  1.00  0.00     0.031 C 
ATOM     54  C   UNL A   1      39.463  26.111  29.064  1.00  0.00     0.029 A 
ATOM     55  C   UNL A   1      40.822  26.364  28.603  1.00  0.00     0.049 A 
ATOM     56  H   UNL A   1      41.914  28.128  28.799  1.00  0.00     0.167 HD
ATOM     57  C   UNL A   1      44.119  31.843  29.142  1.00  0.00     0.037 A 
ATOM     58  C   UNL A   1      41.593  25.469  27.953  1.00  0.00     0.037 A 
ATOM     59  C   UNL A   1      45.001  30.974  28.406  1.00  0.00     0.049 A 
ATOM     60  C   UNL A   1      42.949  25.886  27.456  1.00  0.00     0.074 A 
ATOM     61  C   UNL A   1      46.284  31.232  27.948  1.00  0.00     0.029 A 
ATOM     62  N   UNL A   1      44.700  29.676  28.028  1.00  0.00    -0.354 N 
ATOM     63  N   UNL A   1      43.579  27.025  27.617  1.00  0.00    -0.248 NA
ATOM     64  C   UNL A   1      43.691  24.897  26.660  1.00  0.00     0.031 C 
ATOM     65  C   UNL A   1      46.739  30.105  27.254  1.00  0.00     0.029 A 
ATOM     66  C   UNL A   1      45.761  29.128  27.326  1.00  0.00     0.049 A 
ATOM     67  H   UNL A   1      43.855  29.211  28.229  1.00  0.00     0.167 HD
ATOM     68  C   UNL A   1      44.792  26.883  26.955  1.00  0.00     0.074 A 
ATOM     69  C   UNL A   1      44.824  25.539  26.419  1.00  0.00     0.031 C 
ATOM     70  C   UNL A   1      45.785  27.791  26.794  1.00  0.00     0.037 A 
BRANCH  57  71
ATOM     71  C   UNL A   1      44.625  33.212  29.496  1.00  0.00     0.057 A 
ATOM     72  C   UNL A   1      45.305  33.468  30.693  1.00  0.00     0.134 A 
ATOM     73  C   UNL A   1      44.486  34.275  28.592  1.00  0.00     0.134 A 
ATOM     74  F   UNL A   1      45.456  32.499  31.610  1.00  0.00    -0.206 F 
ATOM     75  C   UNL A   1      45.825  34.733  30.980  1.00  0.00     0.040 A 
ATOM     76  C   UNL A   1      45.018  35.537  28.858  1.00  0.00     0.040 A 
ATOM     77  F   UNL A   1      43.848  34.096  27.425  1.00  0.00    -0.206 F 
ATOM     78  C   UNL A   1      45.690  35.769  30.057  1.00  0.00     0.006 A 
ENDBRANCH  57  71
BRANCH  58  79
ATOM     79  C   UNL A   1      41.073  24.108  27.658  1.00  0.00     0.057 A 
ATOM     80  C   UNL A   1      41.556  22.980  28.331  1.00  0.00     0.134 A 
ATOM     81  C   UNL A   1      40.108  23.900  26.663  1.00  0.00     0.134 A 
ATOM     82  F   UNL A   1      42.507  23.106  29.268  1.00  0.00    -0.206 F 
ATOM     83  C   UNL A   1      41.110  21.694  28.015  1.00  0.00     0.040 A 
ATOM     84  C   UNL A   1      39.627  22.625  26.364  1.00  0.00     0.040 A 
ATOM     85  F   UNL A   1      39.611  24.936  25.972  1.00  0.00    -0.206 F 
ATOM     86  C   UNL A   1      40.135  21.516  27.035  1.00  0.00     0.006 A 
ENDBRANCH  58  79
BRANCH  70  87
ATOM     87  C   UNL A   1      46.997  27.340  26.031  1.00  0.00     0.057 A 
ATOM     88  C   UNL A   1      48.090  26.737  26.669  1.00  0.00     0.134 A 
ATOM     89  C   UNL A   1      47.081  27.529  24.646  1.00  0.00     0.134 A 
ATOM     90  F   UNL A   1      48.078  26.541  27.997  1.00  0.00    -0.206 F 
ATOM     91  C   UNL A   1      49.239  26.379  25.964  1.00  0.00     0.040 A 
ATOM     92  C   UNL A   1      48.214  27.149  23.926  1.00  0.00     0.040 A 
ATOM     93  F   UNL A   1      46.067  28.090  23.971  1.00  0.00    -0.206 F 
ATOM     94  C   UNL A   1      49.303  26.583  24.586  1.00  0.00     0.006 A 
ENDBRANCH  70  87
ENDBRANCH  44  45
ENDBRANCH  37  39
ENDBRANCH  36  37
ENDBRANCH  35  36
ENDBRANCH  34  35
ENDBRANCH  33  34
ENDBRANCH  32  33
ENDBRANCH   1  32
TORSDOF 21
ENDMDL
MODEL 3
REMARK VINA RESULT:     -11.6      1.093      5.930
REMARK SMILES Cc1ccnc(C(=O)c2[nH]c3ccc(C(C)(C)C)cc3c2CC(=O)OCCOCCOCCOC(=O)c2ccc(-c3c4nc(c(-c5c(F)cccc5F)c5ccc([nH]5)c(-c5c(F)cccc5F)c5nc(c(-c6c(F)cccc6F)c6ccc3[nH]6)C=C5)C=C4)cc2)c1
REMARK SMILES IDX 29 1 28 2 27 3 26 4 25 5 23 6 24 7 22 8 21 9 9 10 10 11
REMARK SMILES IDX 11 12 20 14 12 15 19 16 13 17 14 18 7 19 8 20 6 21 1 22 2 23
REMARK SMILES IDX 3 24 91 25 4 26 5 27 15 28 16 29 17 30 18 31 30 32 31 33
REMARK SMILES IDX 32 34 33 35 34 36 35 37 36 38 37 39 38 40 90 41 39 42 89 43
REMARK SMILES IDX 40 44 41 45 42 46 83 47 43 48 88 49 82 50 84 51 44 52 87 53
REMARK SMILES IDX 81 54 80 55 45 57 71 58 54 59 70 60 55 61 58 62 69 63 85 64
REMARK SMILES IDX 56 65 57 66 68 68 86 69 59 70 46 71 47 72 52 73 48 74 49 75
REMARK SMILES IDX 51 76 53 77 50 78 72 79 73 80 78 81 74 82 75 83 77 84 79 85
REMARK SMILES IDX 76 86 60 87 61 88 66 89 62 90 63 91 65 92 67 93 64 94
REMARK H PARENT 10 13 84 56 58 67
REMARK Flexibility Score: inf
ROOT
ATOM      1  C   UNL A   1      40.414  22.099  27.104  1.00  0.00     0.188 C 
ENDROOT
BRANCH   1   2
ATOM      2  O   UNL A   1      39.609  22.564  26.026  1.00  0.00    -0.376 OA
BRANCH   2   3
ATOM      3  C   UNL A   1      38.395  21.876  25.758  1.00  0.00     0.202 C 
BRANCH   3   4
ATOM      4  C   UNL A   1      37.139  22.749  25.709  1.00  0.00     0.261 C 
BRANCH   4   5
ATOM      5  O   UNL A   1      36.526  22.748  24.401  1.00  0.00    -0.463 OA
BRANCH   5   6
ATOM      6  C   UNL A   1      35.539  23.659  24.212  1.00  0.00     0.310 C 
ATOM      7  O   UNL A   1      34.957  23.809  23.139  1.00  0.00    -0.252 OA
BRANCH   6   8
ATOM      8  C   UNL A   1      35.116  24.448  25.436  1.00  0.00     0.161 C 
BRANCH   8   9
ATOM      9  C   UNL A   1      33.699  24.358  25.957  1.00  0.00     0.000 A 
ATOM     10  C   UNL A   1      33.018  23.226  26.421  1.00  0.00     0.093 A 
ATOM     11  N   UNL A   1      31.763  23.643  26.813  1.00  0.00    -0.352 N 
ATOM     12  C   UNL A   1      31.485  24.860  26.246  1.00  0.00     0.046 A 
ATOM     13  H   UNL A   1      31.159  23.143  27.409  1.00  0.00     0.167 HD
ATOM     14  C   UNL A   1      32.683  25.344  25.736  1.00  0.00     0.004 A 
ATOM     15  C   UNL A   1      30.273  25.539  26.112  1.00  0.00     0.027 A 
ATOM     16  C   UNL A   1      32.664  26.559  25.028  1.00  0.00     0.015 A 
ATOM     17  C   UNL A   1      30.271  26.695  25.320  1.00  0.00     0.006 A 
ATOM     18  C   UNL A   1      31.442  27.202  24.735  1.00  0.00    -0.042 A 
BRANCH  10  19
ATOM     19  C   UNL A   1      33.480  21.854  26.477  1.00  0.00     0.227 C 
ATOM     20  O   UNL A   1      34.336  21.473  27.273  1.00  0.00    -0.285 OA
BRANCH  19  21
ATOM     21  C   UNL A   1      32.962  20.861  25.495  1.00  0.00     0.113 A 
ATOM     22  C   UNL A   1      31.924  20.683  21.864  1.00  0.00     0.044 C 
ATOM     23  C   UNL A   1      32.315  20.300  23.260  1.00  0.00    -0.047 A 
ATOM     24  C   UNL A   1      32.561  18.962  23.580  1.00  0.00     0.023 A 
ATOM     25  C   UNL A   1      32.541  21.278  24.238  1.00  0.00     0.036 A 
ATOM     26  C   UNL A   1      32.928  18.644  24.877  1.00  0.00     0.112 A 
ATOM     27  N   UNL A   1      33.103  19.563  25.849  1.00  0.00    -0.253 NA
ENDBRANCH  19  21
ENDBRANCH  10  19
BRANCH  18  28
ATOM     28  C   UNL A   1      31.442  28.355  23.719  1.00  0.00    -0.013 C 
ATOM     29  C   UNL A   1      30.989  29.658  24.406  1.00  0.00     0.016 C 
ATOM     30  C   UNL A   1      32.879  28.535  23.171  1.00  0.00     0.016 C 
ATOM     31  C   UNL A   1      30.524  28.117  22.501  1.00  0.00     0.016 C 
ENDBRANCH  18  28
ENDBRANCH   8   9
ENDBRANCH   6   8
ENDBRANCH   5   6
ENDBRANCH   4   5
ENDBRANCH   3   4
ENDBRANCH   2   3
ENDBRANCH   1   2
BRANCH   1  32
ATOM     32  C   UNL A   1      41.636  21.209  26.793  1.00  0.00     0.188 C 
BRANCH  32  33
ATOM     33  O   UNL A   1      42.363  21.430  25.591  1.00  0.00    -0.376 OA
BRANCH  33  34
ATOM     34  C   UNL A   1      43.771  21.581  25.707  1.00  0.00     0.202 C 
BRANCH  34  35
ATOM     35  C   UNL A   1      44.384  22.505  24.659  1.00  0.00     0.261 C 
BRANCH  35  36
ATOM     36  O   UNL A   1      43.611  23.714  24.536  1.00  0.00    -0.460 OA
BRANCH  36  37
ATOM     37  C   UNL A   1      44.265  24.826  24.937  1.00  0.00     0.338 C 
ATOM     38  O   UNL A   1      45.433  25.103  24.717  1.00  0.00    -0.246 OA
BRANCH  37  39
ATOM     39  C   UNL A   1      43.379  25.734  25.698  1.00  0.00     0.060 A 
ATOM     40  C   UNL A   1      43.773  27.039  25.972  1.00  0.00     0.016 A 
ATOM     41  C   UNL A   1      42.286  25.195  26.372  1.00  0.00     0.016 A 
ATOM     42  C   UNL A   1      43.201  27.734  27.041  1.00  0.00     0.010 A 
ATOM     43  C   UNL A   1      41.644  25.935  27.373  1.00  0.00     0.010 A 
ATOM     44  C   UNL A   1      42.149  27.183  27.783  1.00  0.00    -0.014 A 
BRANCH  44  45
ATOM     45  C   UNL A   1      41.667  27.838  29.040  1.00  0.00     0.031 A 
ATOM     46  C   UNL A   1      40.424  28.706  29.022  1.00  0.00     0.074 A 
ATOM     47  C   UNL A   1      42.282  27.624  30.222  1.00  0.00     0.049 A 
ATOM     48  N   UNL A   1      39.935  29.481  29.959  1.00  0.00    -0.248 NA
ATOM     49  C   UNL A   1      39.622  28.696  27.786  1.00  0.00     0.031 C 
ATOM     50  C   UNL A   1      43.430  26.743  30.437  1.00  0.00     0.029 A 
ATOM     51  N   UNL A   1      42.017  28.130  31.475  1.00  0.00    -0.354 N 
ATOM     52  C   UNL A   1      38.799  30.074  29.417  1.00  0.00     0.074 A 
ATOM     53  C   UNL A   1      38.671  29.578  28.064  1.00  0.00     0.031 C 
ATOM     54  C   UNL A   1      43.749  26.743  31.740  1.00  0.00     0.029 A 
ATOM     55  C   UNL A   1      42.900  27.702  32.437  1.00  0.00     0.049 A 
ATOM     56  H   UNL A   1      41.268  28.740  31.662  1.00  0.00     0.167 HD
ATOM     57  C   UNL A   1      37.939  30.954  29.988  1.00  0.00     0.037 A 
ATOM     58  C   UNL A   1      43.055  28.075  33.723  1.00  0.00     0.037 A 
ATOM     59  C   UNL A   1      38.050  31.448  31.337  1.00  0.00     0.049 A 
ATOM     60  C   UNL A   1      42.162  29.138  34.298  1.00  0.00     0.074 A 
ATOM     61  C   UNL A   1      37.254  32.379  31.984  1.00  0.00     0.029 A 
ATOM     62  N   UNL A   1      39.010  31.044  32.251  1.00  0.00    -0.354 N 
ATOM     63  N   UNL A   1      41.145  29.755  33.746  1.00  0.00    -0.248 NA
ATOM     64  C   UNL A   1      42.457  29.576  35.670  1.00  0.00     0.031 C 
ATOM     65  C   UNL A   1      37.761  32.573  33.275  1.00  0.00     0.029 A 
ATOM     66  C   UNL A   1      38.840  31.722  33.448  1.00  0.00     0.049 A 
ATOM     67  H   UNL A   1      39.711  30.375  32.075  1.00  0.00     0.167 HD
ATOM     68  C   UNL A   1      40.675  30.642  34.706  1.00  0.00     0.074 A 
ATOM     69  C   UNL A   1      41.495  30.460  35.884  1.00  0.00     0.031 C 
ATOM     70  C   UNL A   1      39.662  31.538  34.615  1.00  0.00     0.037 A 
BRANCH  57  71
ATOM     71  C   UNL A   1      36.813  31.480  29.145  1.00  0.00     0.057 A 
ATOM     72  C   UNL A   1      35.671  30.719  28.869  1.00  0.00     0.134 A 
ATOM     73  C   UNL A   1      36.847  32.794  28.657  1.00  0.00     0.134 A 
ATOM     74  F   UNL A   1      35.583  29.447  29.290  1.00  0.00    -0.206 F 
ATOM     75  C   UNL A   1      34.604  31.243  28.135  1.00  0.00     0.040 A 
ATOM     76  C   UNL A   1      35.779  33.336  27.940  1.00  0.00     0.040 A 
ATOM     77  F   UNL A   1      37.911  33.578  28.889  1.00  0.00    -0.206 F 
ATOM     78  C   UNL A   1      34.653  32.559  27.676  1.00  0.00     0.006 A 
ENDBRANCH  57  71
BRANCH  58  79
ATOM     79  C   UNL A   1      44.157  27.500  34.540  1.00  0.00     0.057 A 
ATOM     80  C   UNL A   1      45.418  28.104  34.594  1.00  0.00     0.134 A 
ATOM     81  C   UNL A   1      43.984  26.306  35.253  1.00  0.00     0.134 A 
ATOM     82  F   UNL A   1      45.660  29.229  33.905  1.00  0.00    -0.206 F 
ATOM     83  C   UNL A   1      46.471  27.535  35.315  1.00  0.00     0.040 A 
ATOM     84  C   UNL A   1      45.017  25.747  36.007  1.00  0.00     0.040 A 
ATOM     85  F   UNL A   1      42.805  25.669  35.235  1.00  0.00    -0.206 F 
ATOM     86  C   UNL A   1      46.268  26.357  36.032  1.00  0.00     0.006 A 
ENDBRANCH  58  79
BRANCH  70  87
ATOM     87  C   UNL A   1      39.373  32.361  35.836  1.00  0.00     0.057 A 
ATOM     88  C   UNL A   1      39.970  33.612  36.042  1.00  0.00     0.134 A 
ATOM     89  C   UNL A   1      38.504  31.889  36.827  1.00  0.00     0.134 A 
ATOM     90  F   UNL A   1      40.825  34.115  35.138  1.00  0.00    -0.206 F 
ATOM     91  C   UNL A   1      39.747  34.344  37.210  1.00  0.00     0.040 A 
ATOM     92  C   UNL A   1      38.250  32.624  37.986  1.00  0.00     0.040 A 
ATOM     93  F   UNL A   1      37.890  30.704  36.688  1.00  0.00    -0.206 F 
ATOM     94  C   UNL A   1      38.883  33.850  38.186  1.00  0.00     0.006 A 
ENDBRANCH  70  87
ENDBRANCH  44  45
ENDBRANCH  37  39
ENDBRANCH  36  37
ENDBRANCH  35  36
ENDBRANCH  34  35
ENDBRANCH  33  34
ENDBRANCH  32  33
ENDBRANCH   1  32
TORSDOF 21
ENDMDL
