MODEL 1
REMARK VINA RESULT:      -9.9      0.000      0.000
REMARK SMILES NC(=O)C[C@H](NC(=O)[C@@H]1CCC[NH2+]1)C(=O)OCCOCCOCCOC(=O)c1ccc(-c2c3nc(c(-c4c(F)cccc4F)c4ccc([nH]4)c(-c4c(F)cccc4F)c4nc(c(-c5c(F)cccc5F)c5ccc2[nH]5)C=C4)C=C3)cc1
REMARK SMILES IDX 20 1 19 2 18 3 17 4 16 5 14 6 15 7 5 8 4 9 2 10 1 11 3 14
REMARK SMILES IDX 6 15 7 16 8 18 9 19 10 20 13 21 11 22 12 23 21 26 22 27
REMARK SMILES IDX 23 28 24 29 25 30 26 31 27 32 28 33 29 34 81 35 30 36 80 37
REMARK SMILES IDX 31 38 32 39 33 40 74 41 34 42 79 43 73 44 75 45 35 46 78 47
REMARK SMILES IDX 72 48 71 49 36 51 62 52 45 53 61 54 46 55 49 56 60 57 76 58
REMARK SMILES IDX 47 59 48 60 59 62 77 63 50 64 37 65 38 66 43 67 39 68 40 69
REMARK SMILES IDX 42 70 44 71 41 72 63 73 64 74 69 75 65 76 66 77 68 78 70 79
REMARK SMILES IDX 67 80 51 81 52 82 57 83 53 84 54 85 56 86 58 87 55 88
REMARK H PARENT 1 12 1 13 6 17 13 24 13 25 75 50 49 61
REMARK Flexibility Score: inf
ROOT
ATOM      1  C   UNL A   1      39.216  22.592  26.484  1.00  0.00     0.188 C 
ENDROOT
BRANCH   1   2
ATOM      2  O   UNL A   1      37.862  22.738  26.074  1.00  0.00    -0.376 OA
BRANCH   2   3
ATOM      3  C   UNL A   1      37.441  22.327  24.781  1.00  0.00     0.202 C 
BRANCH   3   4
ATOM      4  C   UNL A   1      36.178  21.468  24.639  1.00  0.00     0.261 C 
BRANCH   4   5
ATOM      5  O   UNL A   1      35.570  21.041  25.870  1.00  0.00    -0.462 OA
BRANCH   5   6
ATOM      6  C   UNL A   1      34.298  21.467  26.087  1.00  0.00     0.329 C 
ATOM      7  O   UNL A   1      33.756  21.530  27.187  1.00  0.00    -0.250 OA
BRANCH   6   8
ATOM      8  C   UNL A   1      33.575  21.891  24.793  1.00  0.00     0.201 C 
BRANCH   8   9
ATOM      9  C   UNL A   1      32.895  23.199  25.167  1.00  0.00     0.136 C 
BRANCH   9  10
ATOM     10  C   UNL A   1      31.385  23.149  25.236  1.00  0.00     0.220 C 
ATOM     11  N   UNL A   1      30.668  24.098  24.584  1.00  0.00    -0.370 N 
ATOM     12  H   UNL A   1      29.685  24.083  24.618  1.00  0.00     0.159 HD
ATOM     13  H   UNL A   1      31.132  24.805  24.079  1.00  0.00     0.159 HD
ATOM     14  O   UNL A   1      30.804  22.296  25.903  1.00  0.00    -0.275 OA
ENDBRANCH   9  10
ENDBRANCH   8   9
BRANCH   8  15
ATOM     15  N   UNL A   1      32.662  20.838  24.285  1.00  0.00    -0.337 N 
ATOM     16  C   UNL A   1      32.747  19.503  24.627  1.00  0.00     0.278 C 
ATOM     17  H   UNL A   1      31.948  21.108  23.662  1.00  0.00     0.164 HD
ATOM     18  O   UNL A   1      31.911  19.046  25.408  1.00  0.00    -0.268 OA
BRANCH  16  19
ATOM     19  C   UNL A   1      33.822  18.611  23.969  1.00  0.00     0.272 C 
ATOM     20  C   UNL A   1      33.300  17.437  23.167  1.00  0.00     0.081 C 
ATOM     21  N   UNL A   1      34.762  18.089  24.989  1.00  0.00    -0.336 N 
ATOM     22  C   UNL A   1      34.294  16.319  23.429  1.00  0.00     0.068 C 
ATOM     23  C   UNL A   1      34.999  16.671  24.726  1.00  0.00     0.261 C 
ATOM     24  H   UNL A   1      34.359  18.203  25.918  1.00  0.00     0.346 HD
ATOM     25  H   UNL A   1      35.643  18.603  24.944  1.00  0.00     0.346 HD
ENDBRANCH  16  19
ENDBRANCH   8  15
ENDBRANCH   6   8
ENDBRANCH   5   6
ENDBRANCH   4   5
ENDBRANCH   3   4
ENDBRANCH   2   3
ENDBRANCH   1   2
BRANCH   1  26
ATOM     26  C   UNL A   1      39.953  21.250  26.323  1.00  0.00     0.188 C 
BRANCH  26  27
ATOM     27  O   UNL A   1      41.251  21.231  26.877  1.00  0.00    -0.376 OA
BRANCH  27  28
ATOM     28  C   UNL A   1      42.248  20.530  26.143  1.00  0.00     0.202 C 
BRANCH  28  29
ATOM     29  C   UNL A   1      43.484  21.294  25.622  1.00  0.00     0.261 C 
BRANCH  29  30
ATOM     30  O   UNL A   1      43.907  22.441  26.381  1.00  0.00    -0.460 OA
BRANCH  30  31
ATOM     31  C   UNL A   1      43.996  23.628  25.733  1.00  0.00     0.338 C 
ATOM     32  O   UNL A   1      44.343  23.813  24.585  1.00  0.00    -0.246 OA
BRANCH  31  33
ATOM     33  C   UNL A   1      43.376  24.653  26.609  1.00  0.00     0.060 A 
ATOM     34  C   UNL A   1      43.879  25.964  26.586  1.00  0.00     0.016 A 
ATOM     35  C   UNL A   1      42.287  24.334  27.420  1.00  0.00     0.016 A 
ATOM     36  C   UNL A   1      43.300  26.954  27.386  1.00  0.00     0.010 A 
ATOM     37  C   UNL A   1      41.727  25.319  28.242  1.00  0.00     0.010 A 
ATOM     38  C   UNL A   1      42.245  26.628  28.247  1.00  0.00    -0.014 A 
BRANCH  38  39
ATOM     39  C   UNL A   1      41.812  27.584  29.299  1.00  0.00     0.031 A 
ATOM     40  C   UNL A   1      42.541  27.567  30.615  1.00  0.00     0.074 A 
ATOM     41  C   UNL A   1      40.796  28.443  29.106  1.00  0.00     0.049 A 
ATOM     42  N   UNL A   1      42.284  28.219  31.719  1.00  0.00    -0.248 NA
ATOM     43  C   UNL A   1      43.717  26.686  30.694  1.00  0.00     0.031 C 
ATOM     44  C   UNL A   1      40.040  28.599  27.866  1.00  0.00     0.029 A 
ATOM     45  N   UNL A   1      40.214  29.338  29.972  1.00  0.00    -0.354 N 
ATOM     46  C   UNL A   1      43.257  27.817  32.627  1.00  0.00     0.074 A 
ATOM     47  C   UNL A   1      44.093  26.847  31.953  1.00  0.00     0.031 C 
ATOM     48  C   UNL A   1      39.076  29.519  28.057  1.00  0.00     0.029 A 
ATOM     49  C   UNL A   1      39.125  29.987  29.443  1.00  0.00     0.049 A 
ATOM     50  H   UNL A   1      40.546  29.500  30.884  1.00  0.00     0.167 HD
ATOM     51  C   UNL A   1      43.440  28.220  33.906  1.00  0.00     0.037 A 
ATOM     52  C   UNL A   1      38.249  30.834  30.020  1.00  0.00     0.037 A 
ATOM     53  C   UNL A   1      42.606  29.179  34.579  1.00  0.00     0.049 A 
ATOM     54  C   UNL A   1      38.420  31.203  31.475  1.00  0.00     0.074 A 
ATOM     55  C   UNL A   1      42.718  29.662  35.871  1.00  0.00     0.029 A 
ATOM     56  N   UNL A   1      41.497  29.793  34.016  1.00  0.00    -0.354 N 
ATOM     57  N   UNL A   1      39.350  30.832  32.320  1.00  0.00    -0.248 NA
ATOM     58  C   UNL A   1      37.414  32.106  32.054  1.00  0.00     0.031 C 
ATOM     59  C   UNL A   1      41.644  30.526  36.109  1.00  0.00     0.029 A 
ATOM     60  C   UNL A   1      40.899  30.629  34.944  1.00  0.00     0.049 A 
ATOM     61  H   UNL A   1      41.180  29.654  33.094  1.00  0.00     0.167 HD
ATOM     62  C   UNL A   1      39.063  31.481  33.516  1.00  0.00     0.074 A 
ATOM     63  C   UNL A   1      37.876  32.276  33.284  1.00  0.00     0.031 C 
ATOM     64  C   UNL A   1      39.725  31.427  34.698  1.00  0.00     0.037 A 
BRANCH  51  65
ATOM     65  C   UNL A   1      44.569  27.593  34.672  1.00  0.00     0.057 A 
ATOM     66  C   UNL A   1      44.406  26.407  35.398  1.00  0.00     0.134 A 
ATOM     67  C   UNL A   1      45.843  28.175  34.662  1.00  0.00     0.134 A 
ATOM     68  F   UNL A   1      43.207  25.808  35.463  1.00  0.00    -0.206 F 
ATOM     69  C   UNL A   1      45.464  25.834  36.107  1.00  0.00     0.040 A 
ATOM     70  C   UNL A   1      46.914  27.596  35.341  1.00  0.00     0.040 A 
ATOM     71  F   UNL A   1      46.068  29.310  33.984  1.00  0.00    -0.206 F 
ATOM     72  C   UNL A   1      46.725  26.426  36.073  1.00  0.00     0.006 A 
ENDBRANCH  51  65
BRANCH  52  73
ATOM     73  C   UNL A   1      37.107  31.381  29.240  1.00  0.00     0.057 A 
ATOM     74  C   UNL A   1      37.119  32.696  28.760  1.00  0.00     0.134 A 
ATOM     75  C   UNL A   1      35.962  30.615  28.987  1.00  0.00     0.134 A 
ATOM     76  F   UNL A   1      38.174  33.489  28.994  1.00  0.00    -0.206 F 
ATOM     77  C   UNL A   1      36.029  33.236  28.074  1.00  0.00     0.040 A 
ATOM     78  C   UNL A   1      34.877  31.132  28.278  1.00  0.00     0.040 A 
ATOM     79  F   UNL A   1      35.885  29.349  29.422  1.00  0.00    -0.206 F 
ATOM     80  C   UNL A   1      34.905  32.449  27.827  1.00  0.00     0.006 A 
ENDBRANCH  52  73
BRANCH  64  81
ATOM     81  C   UNL A   1      39.217  32.286  35.823  1.00  0.00     0.057 A 
ATOM     82  C   UNL A   1      39.610  33.622  35.974  1.00  0.00     0.134 A 
ATOM     83  C   UNL A   1      38.277  31.782  36.731  1.00  0.00     0.134 A 
ATOM     84  F   UNL A   1      40.514  34.164  35.145  1.00  0.00    -0.206 F 
ATOM     85  C   UNL A   1      39.101  34.419  37.002  1.00  0.00     0.040 A 
ATOM     86  C   UNL A   1      37.739  32.578  37.744  1.00  0.00     0.040 A 
ATOM     87  F   UNL A   1      37.848  30.514  36.635  1.00  0.00    -0.206 F 
ATOM     88  C   UNL A   1      38.156  33.899  37.885  1.00  0.00     0.006 A 
ENDBRANCH  64  81
ENDBRANCH  38  39
ENDBRANCH  31  33
ENDBRANCH  30  31
ENDBRANCH  29  30
ENDBRANCH  28  29
ENDBRANCH  27  28
ENDBRANCH  26  27
ENDBRANCH   1  26
TORSDOF 21
ENDMDL
MODEL 2
REMARK VINA RESULT:      -9.6      3.765      6.153
REMARK SMILES NC(=O)C[C@H](NC(=O)[C@@H]1CCC[NH2+]1)C(=O)OCCOCCOCCOC(=O)c1ccc(-c2c3nc(c(-c4c(F)cccc4F)c4ccc([nH]4)c(-c4c(F)cccc4F)c4nc(c(-c5c(F)cccc5F)c5ccc2[nH]5)C=C4)C=C3)cc1
REMARK SMILES IDX 20 1 19 2 18 3 17 4 16 5 14 6 15 7 5 8 4 9 2 10 1 11 3 14
REMARK SMILES IDX 6 15 7 16 8 18 9 19 10 20 13 21 11 22 12 23 21 26 22 27
REMARK SMILES IDX 23 28 24 29 25 30 26 31 27 32 28 33 29 34 81 35 30 36 80 37
REMARK SMILES IDX 31 38 32 39 33 40 74 41 34 42 79 43 73 44 75 45 35 46 78 47
REMARK SMILES IDX 72 48 71 49 36 51 62 52 45 53 61 54 46 55 49 56 60 57 76 58
REMARK SMILES IDX 47 59 48 60 59 62 77 63 50 64 37 65 38 66 43 67 39 68 40 69
REMARK SMILES IDX 42 70 44 71 41 72 63 73 64 74 69 75 65 76 66 77 68 78 70 79
REMARK SMILES IDX 67 80 51 81 52 82 57 83 53 84 54 85 56 86 58 87 55 88
REMARK H PARENT 1 12 1 13 6 17 13 24 13 25 75 50 49 61
REMARK Flexibility Score: inf
ROOT
ATOM      1  C   UNL A   1      36.842  23.514  25.279  1.00  0.00     0.188 C 
ENDROOT
BRANCH   1   2
ATOM      2  O   UNL A   1      35.532  24.058  25.372  1.00  0.00    -0.376 OA
BRANCH   2   3
ATOM      3  C   UNL A   1      34.817  24.450  24.209  1.00  0.00     0.202 C 
BRANCH   3   4
ATOM      4  C   UNL A   1      34.141  23.379  23.344  1.00  0.00     0.261 C 
BRANCH   4   5
ATOM      5  O   UNL A   1      32.704  23.363  23.379  1.00  0.00    -0.462 OA
BRANCH   5   6
ATOM      6  C   UNL A   1      32.121  22.135  23.350  1.00  0.00     0.329 C 
ATOM      7  O   UNL A   1      32.126  21.377  22.385  1.00  0.00    -0.250 OA
BRANCH   6   8
ATOM      8  C   UNL A   1      31.440  21.760  24.682  1.00  0.00     0.201 C 
BRANCH   8   9
ATOM      9  C   UNL A   1      31.034  23.101  25.274  1.00  0.00     0.136 C 
BRANCH   9  10
ATOM     10  C   UNL A   1      30.736  23.091  26.757  1.00  0.00     0.220 C 
ATOM     11  N   UNL A   1      29.456  23.267  27.168  1.00  0.00    -0.370 N 
ATOM     12  H   UNL A   1      29.242  23.265  28.129  1.00  0.00     0.159 HD
ATOM     13  H   UNL A   1      28.739  23.399  26.506  1.00  0.00     0.159 HD
ATOM     14  O   UNL A   1      31.633  22.973  27.588  1.00  0.00    -0.275 OA
ENDBRANCH   9  10
ENDBRANCH   8   9
BRANCH   8  15
ATOM     15  N   UNL A   1      32.314  20.934  25.551  1.00  0.00    -0.337 N 
ATOM     16  C   UNL A   1      33.162  19.949  25.089  1.00  0.00     0.278 C 
ATOM     17  H   UNL A   1      32.288  21.100  26.522  1.00  0.00     0.164 HD
ATOM     18  O   UNL A   1      34.372  20.181  25.068  1.00  0.00    -0.268 OA
BRANCH  16  19
ATOM     19  C   UNL A   1      32.591  18.571  24.691  1.00  0.00     0.272 C 
ATOM     20  C   UNL A   1      32.627  17.508  25.770  1.00  0.00     0.081 C 
ATOM     21  N   UNL A   1      33.291  18.039  23.499  1.00  0.00    -0.336 N 
ATOM     22  C   UNL A   1      32.938  16.218  25.030  1.00  0.00     0.068 C 
ATOM     23  C   UNL A   1      33.586  16.625  23.719  1.00  0.00     0.261 C 
ATOM     24  H   UNL A   1      34.160  18.552  23.355  1.00  0.00     0.346 HD
ATOM     25  H   UNL A   1      32.702  18.146  22.673  1.00  0.00     0.346 HD
ENDBRANCH  16  19
ENDBRANCH   8  15
ENDBRANCH   6   8
ENDBRANCH   5   6
ENDBRANCH   4   5
ENDBRANCH   3   4
ENDBRANCH   2   3
ENDBRANCH   1   2
BRANCH   1  26
ATOM     26  C   UNL A   1      37.139  22.076  25.746  1.00  0.00     0.188 C 
BRANCH  26  27
ATOM     27  O   UNL A   1      37.872  21.306  24.819  1.00  0.00    -0.376 OA
BRANCH  27  28
ATOM     28  C   UNL A   1      37.918  19.902  25.051  1.00  0.00     0.202 C 
BRANCH  28  29
ATOM     29  C   UNL A   1      39.251  19.244  25.465  1.00  0.00     0.261 C 
BRANCH  29  30
ATOM     30  O   UNL A   1      39.826  19.670  26.713  1.00  0.00    -0.460 OA
BRANCH  30  31
ATOM     31  C   UNL A   1      41.155  19.931  26.739  1.00  0.00     0.338 C 
ATOM     32  O   UNL A   1      42.054  19.192  26.394  1.00  0.00    -0.246 OA
BRANCH  31  33
ATOM     33  C   UNL A   1      41.314  21.372  27.057  1.00  0.00     0.060 A 
ATOM     34  C   UNL A   1      40.692  22.325  26.234  1.00  0.00     0.016 A 
ATOM     35  C   UNL A   1      42.042  21.779  28.176  1.00  0.00     0.016 A 
ATOM     36  C   UNL A   1      40.809  23.688  26.524  1.00  0.00     0.010 A 
ATOM     37  C   UNL A   1      42.183  23.145  28.447  1.00  0.00     0.010 A 
ATOM     38  C   UNL A   1      41.587  24.107  27.610  1.00  0.00    -0.014 A 
BRANCH  38  39
ATOM     39  C   UNL A   1      41.953  25.540  27.761  1.00  0.00     0.031 A 
ATOM     40  C   UNL A   1      43.279  25.993  27.214  1.00  0.00     0.074 A 
ATOM     41  C   UNL A   1      41.143  26.421  28.374  1.00  0.00     0.049 A 
ATOM     42  N   UNL A   1      43.871  27.155  27.318  1.00  0.00    -0.248 NA
ATOM     43  C   UNL A   1      44.042  24.992  26.450  1.00  0.00     0.031 C 
ATOM     44  C   UNL A   1      39.815  26.127  28.903  1.00  0.00     0.029 A 
ATOM     45  N   UNL A   1      41.338  27.749  28.669  1.00  0.00    -0.354 N 
ATOM     46  C   UNL A   1      45.080  27.020  26.646  1.00  0.00     0.074 A 
ATOM     47  C   UNL A   1      45.148  25.659  26.161  1.00  0.00     0.031 C 
ATOM     48  C   UNL A   1      39.320  27.238  29.480  1.00  0.00     0.029 A 
ATOM     49  C   UNL A   1      40.314  28.308  29.393  1.00  0.00     0.049 A 
ATOM     50  H   UNL A   1      42.135  28.253  28.387  1.00  0.00     0.167 HD
ATOM     51  C   UNL A   1      46.047  27.948  26.449  1.00  0.00     0.037 A 
ATOM     52  C   UNL A   1      40.207  29.531  29.951  1.00  0.00     0.037 A 
ATOM     53  C   UNL A   1      45.983  29.299  26.936  1.00  0.00     0.049 A 
ATOM     54  C   UNL A   1      41.336  30.522  29.794  1.00  0.00     0.074 A 
ATOM     55  C   UNL A   1      46.906  30.317  26.776  1.00  0.00     0.029 A 
ATOM     56  N   UNL A   1      44.940  29.818  27.689  1.00  0.00    -0.354 N 
ATOM     57  N   UNL A   1      42.467  30.393  29.145  1.00  0.00    -0.248 NA
ATOM     58  C   UNL A   1      41.172  31.827  30.453  1.00  0.00     0.031 C 
ATOM     59  C   UNL A   1      46.449  31.436  27.481  1.00  0.00     0.029 A 
ATOM     60  C   UNL A   1      45.211  31.134  28.026  1.00  0.00     0.049 A 
ATOM     61  H   UNL A   1      44.128  29.324  27.947  1.00  0.00     0.167 HD
ATOM     62  C   UNL A   1      43.131  31.607  29.286  1.00  0.00     0.074 A 
ATOM     63  C   UNL A   1      42.272  32.463  30.076  1.00  0.00     0.031 C 
ATOM     64  C   UNL A   1      44.341  31.981  28.802  1.00  0.00     0.037 A 
BRANCH  51  65
ATOM     65  C   UNL A   1      47.275  27.516  25.700  1.00  0.00     0.057 A 
ATOM     66  C   UNL A   1      47.388  27.661  24.312  1.00  0.00     0.134 A 
ATOM     67  C   UNL A   1      48.368  26.970  26.384  1.00  0.00     0.134 A 
ATOM     68  F   UNL A   1      46.370  28.161  23.595  1.00  0.00    -0.206 F 
ATOM     69  C   UNL A   1      48.535  27.255  23.627  1.00  0.00     0.040 A 
ATOM     70  C   UNL A   1      49.531  26.588  25.715  1.00  0.00     0.040 A 
ATOM     71  F   UNL A   1      48.327  26.806  27.715  1.00  0.00    -0.206 F 
ATOM     72  C   UNL A   1      49.614  26.724  24.331  1.00  0.00     0.006 A 
ENDBRANCH  51  65
BRANCH  52  73
ATOM     73  C   UNL A   1      38.999  29.894  30.739  1.00  0.00     0.057 A 
ATOM     74  C   UNL A   1      38.869  29.522  32.082  1.00  0.00     0.134 A 
ATOM     75  C   UNL A   1      37.931  30.590  30.158  1.00  0.00     0.134 A 
ATOM     76  F   UNL A   1      39.845  28.830  32.687  1.00  0.00    -0.206 F 
ATOM     77  C   UNL A   1      37.716  29.811  32.814  1.00  0.00     0.040 A 
ATOM     78  C   UNL A   1      36.783  30.910  30.886  1.00  0.00     0.040 A 
ATOM     79  F   UNL A   1      37.990  30.973  28.875  1.00  0.00    -0.206 F 
ATOM     80  C   UNL A   1      36.670  30.512  32.216  1.00  0.00     0.006 A 
ENDBRANCH  52  73
BRANCH  64  81
ATOM     81  C   UNL A   1      44.793  33.390  29.064  1.00  0.00     0.057 A 
ATOM     82  C   UNL A   1      45.596  33.721  30.163  1.00  0.00     0.134 A 
ATOM     83  C   UNL A   1      44.466  34.419  28.170  1.00  0.00     0.134 A 
ATOM     84  F   UNL A   1      45.937  32.788  31.063  1.00  0.00    -0.206 F 
ATOM     85  C   UNL A   1      46.040  35.030  30.374  1.00  0.00     0.040 A 
ATOM     86  C   UNL A   1      44.928  35.722  28.354  1.00  0.00     0.040 A 
ATOM     87  F   UNL A   1      43.711  34.167  27.090  1.00  0.00    -0.206 F 
ATOM     88  C   UNL A   1      45.713  36.032  29.462  1.00  0.00     0.006 A 
ENDBRANCH  64  81
ENDBRANCH  38  39
ENDBRANCH  31  33
ENDBRANCH  30  31
ENDBRANCH  29  30
ENDBRANCH  28  29
ENDBRANCH  27  28
ENDBRANCH  26  27
ENDBRANCH   1  26
TORSDOF 21
ENDMDL
MODEL 3
REMARK VINA RESULT:      -9.5      1.789      3.286
REMARK SMILES NC(=O)C[C@H](NC(=O)[C@@H]1CCC[NH2+]1)C(=O)OCCOCCOCCOC(=O)c1ccc(-c2c3nc(c(-c4c(F)cccc4F)c4ccc([nH]4)c(-c4c(F)cccc4F)c4nc(c(-c5c(F)cccc5F)c5ccc2[nH]5)C=C4)C=C3)cc1
REMARK SMILES IDX 20 1 19 2 18 3 17 4 16 5 14 6 15 7 5 8 4 9 2 10 1 11 3 14
REMARK SMILES IDX 6 15 7 16 8 18 9 19 10 20 13 21 11 22 12 23 21 26 22 27
REMARK SMILES IDX 23 28 24 29 25 30 26 31 27 32 28 33 29 34 81 35 30 36 80 37
REMARK SMILES IDX 31 38 32 39 33 40 74 41 34 42 79 43 73 44 75 45 35 46 78 47
REMARK SMILES IDX 72 48 71 49 36 51 62 52 45 53 61 54 46 55 49 56 60 57 76 58
REMARK SMILES IDX 47 59 48 60 59 62 77 63 50 64 37 65 38 66 43 67 39 68 40 69
REMARK SMILES IDX 42 70 44 71 41 72 63 73 64 74 69 75 65 76 66 77 68 78 70 79
REMARK SMILES IDX 67 80 51 81 52 82 57 83 53 84 54 85 56 86 58 87 55 88
REMARK H PARENT 1 12 1 13 6 17 13 24 13 25 75 50 49 61
REMARK Flexibility Score: inf
ROOT
ATOM      1  C   UNL A   1      39.278  22.674  26.293  1.00  0.00     0.188 C 
ENDROOT
BRANCH   1   2
ATOM      2  O   UNL A   1      37.990  22.808  25.707  1.00  0.00    -0.376 OA
BRANCH   2   3
ATOM      3  C   UNL A   1      37.333  21.694  25.117  1.00  0.00     0.202 C 
BRANCH   3   4
ATOM      4  C   UNL A   1      35.999  21.211  25.701  1.00  0.00     0.261 C 
BRANCH   4   5
ATOM      5  O   UNL A   1      34.817  21.767  25.100  1.00  0.00    -0.462 OA
BRANCH   5   6
ATOM      6  C   UNL A   1      34.426  22.983  25.565  1.00  0.00     0.329 C 
ATOM      7  O   UNL A   1      34.469  23.332  26.741  1.00  0.00    -0.250 OA
BRANCH   6   8
ATOM      8  C   UNL A   1      33.920  23.921  24.450  1.00  0.00     0.201 C 
BRANCH   8   9
ATOM      9  C   UNL A   1      34.299  23.198  23.166  1.00  0.00     0.136 C 
BRANCH   9  10
ATOM     10  C   UNL A   1      33.293  23.304  22.041  1.00  0.00     0.220 C 
ATOM     11  N   UNL A   1      32.352  22.337  21.911  1.00  0.00    -0.370 N 
ATOM     12  H   UNL A   1      31.689  22.389  21.185  1.00  0.00     0.159 HD
ATOM     13  H   UNL A   1      32.331  21.582  22.543  1.00  0.00     0.159 HD
ATOM     14  O   UNL A   1      33.344  24.221  21.224  1.00  0.00    -0.275 OA
ENDBRANCH   9  10
ENDBRANCH   8   9
BRANCH   8  15
ATOM     15  N   UNL A   1      34.466  25.294  24.575  1.00  0.00    -0.337 N 
ATOM     16  C   UNL A   1      33.692  26.434  24.652  1.00  0.00     0.278 C 
ATOM     17  H   UNL A   1      35.445  25.401  24.606  1.00  0.00     0.164 HD
ATOM     18  O   UNL A   1      33.583  26.995  25.744  1.00  0.00    -0.268 OA
BRANCH  16  19
ATOM     19  C   UNL A   1      33.057  27.016  23.371  1.00  0.00     0.272 C 
ATOM     20  C   UNL A   1      32.801  28.509  23.383  1.00  0.00     0.081 C 
ATOM     21  N   UNL A   1      31.777  26.333  23.066  1.00  0.00    -0.336 N 
ATOM     22  C   UNL A   1      31.492  28.683  22.633  1.00  0.00     0.068 C 
ATOM     23  C   UNL A   1      30.785  27.340  22.693  1.00  0.00     0.261 C 
ATOM     24  H   UNL A   1      31.456  25.824  23.888  1.00  0.00     0.346 HD
ATOM     25  H   UNL A   1      31.909  25.676  22.297  1.00  0.00     0.346 HD
ENDBRANCH  16  19
ENDBRANCH   8  15
ENDBRANCH   6   8
ENDBRANCH   5   6
ENDBRANCH   4   5
ENDBRANCH   3   4
ENDBRANCH   2   3
ENDBRANCH   1   2
BRANCH   1  26
ATOM     26  C   UNL A   1      39.884  21.284  26.566  1.00  0.00     0.188 C 
BRANCH  26  27
ATOM     27  O   UNL A   1      40.900  20.907  25.663  1.00  0.00    -0.376 OA
BRANCH  27  28
ATOM     28  C   UNL A   1      42.222  20.830  26.185  1.00  0.00     0.202 C 
BRANCH  28  29
ATOM     29  C   UNL A   1      43.357  21.621  25.501  1.00  0.00     0.261 C 
BRANCH  29  30
ATOM     30  O   UNL A   1      42.999  22.878  24.896  1.00  0.00    -0.460 OA
BRANCH  30  31
ATOM     31  C   UNL A   1      43.863  23.912  25.035  1.00  0.00     0.338 C 
ATOM     32  O   UNL A   1      44.869  24.120  24.389  1.00  0.00    -0.246 OA
BRANCH  31  33
ATOM     33  C   UNL A   1      43.243  24.879  25.976  1.00  0.00     0.060 A 
ATOM     34  C   UNL A   1      43.636  26.226  25.927  1.00  0.00     0.016 A 
ATOM     35  C   UNL A   1      42.259  24.467  26.875  1.00  0.00     0.016 A 
ATOM     36  C   UNL A   1      43.053  27.160  26.788  1.00  0.00     0.010 A 
ATOM     37  C   UNL A   1      41.697  25.398  27.756  1.00  0.00     0.010 A 
ATOM     38  C   UNL A   1      42.108  26.745  27.734  1.00  0.00    -0.014 A 
BRANCH  38  39
ATOM     39  C   UNL A   1      41.695  27.656  28.832  1.00  0.00     0.031 A 
ATOM     40  C   UNL A   1      42.461  27.599  30.125  1.00  0.00     0.074 A 
ATOM     41  C   UNL A   1      40.664  28.509  28.700  1.00  0.00     0.049 A 
ATOM     42  N   UNL A   1      42.228  28.206  31.260  1.00  0.00    -0.248 NA
ATOM     43  C   UNL A   1      43.649  26.730  30.138  1.00  0.00     0.031 C 
ATOM     44  C   UNL A   1      39.871  28.702  27.489  1.00  0.00     0.029 A 
ATOM     45  N   UNL A   1      40.096  29.365  29.614  1.00  0.00    -0.354 N 
ATOM     46  C   UNL A   1      43.231  27.783  32.124  1.00  0.00     0.074 A 
ATOM     47  C   UNL A   1      44.058  26.850  31.391  1.00  0.00     0.031 C 
ATOM     48  C   UNL A   1      38.903  29.603  27.741  1.00  0.00     0.029 A 
ATOM     49  C   UNL A   1      38.986  30.020  29.141  1.00  0.00     0.049 A 
ATOM     50  H   UNL A   1      40.453  29.496  30.522  1.00  0.00     0.167 HD
ATOM     51  C   UNL A   1      43.446  28.141  33.412  1.00  0.00     0.037 A 
ATOM     52  C   UNL A   1      38.118  30.834  29.774  1.00  0.00     0.037 A 
ATOM     53  C   UNL A   1      42.621  29.064  34.144  1.00  0.00     0.049 A 
ATOM     54  C   UNL A   1      38.326  31.150  31.236  1.00  0.00     0.074 A 
ATOM     55  C   UNL A   1      42.765  29.500  35.449  1.00  0.00     0.029 A 
ATOM     56  N   UNL A   1      41.489  29.685  33.635  1.00  0.00    -0.354 N 
ATOM     57  N   UNL A   1      39.284  30.760  32.040  1.00  0.00    -0.248 NA
ATOM     58  C   UNL A   1      37.327  32.019  31.877  1.00  0.00     0.031 C 
ATOM     59  C   UNL A   1      41.688  30.341  35.749  1.00  0.00     0.029 A 
ATOM     60  C   UNL A   1      40.909  30.479  34.611  1.00  0.00     0.049 A 
ATOM     61  H   UNL A   1      41.148  29.577  32.718  1.00  0.00     0.167 HD
ATOM     62  C   UNL A   1      39.024  31.361  33.267  1.00  0.00     0.074 A 
ATOM     63  C   UNL A   1      37.822  32.149  33.099  1.00  0.00     0.031 C 
ATOM     64  C   UNL A   1      39.720  31.271  34.427  1.00  0.00     0.037 A 
BRANCH  51  65
ATOM     65  C   UNL A   1      44.603  27.500  34.122  1.00  0.00     0.057 A 
ATOM     66  C   UNL A   1      45.888  28.057  34.100  1.00  0.00     0.134 A 
ATOM     67  C   UNL A   1      44.422  26.323  34.858  1.00  0.00     0.134 A 
ATOM     68  F   UNL A   1      46.134  29.175  33.400  1.00  0.00    -0.206 F 
ATOM     69  C   UNL A   1      46.957  27.452  34.764  1.00  0.00     0.040 A 
ATOM     70  C   UNL A   1      45.475  25.725  35.550  1.00  0.00     0.040 A 
ATOM     71  F   UNL A   1      43.215  25.739  34.923  1.00  0.00    -0.206 F 
ATOM     72  C   UNL A   1      46.749  26.285  35.499  1.00  0.00     0.006 A 
ENDBRANCH  51  65
BRANCH  52  73
ATOM     73  C   UNL A   1      36.948  31.395  29.047  1.00  0.00     0.057 A 
ATOM     74  C   UNL A   1      36.935  32.725  28.611  1.00  0.00     0.134 A 
ATOM     75  C   UNL A   1      35.802  30.627  28.804  1.00  0.00     0.134 A 
ATOM     76  F   UNL A   1      37.990  33.520  28.839  1.00  0.00    -0.206 F 
ATOM     77  C   UNL A   1      35.820  33.277  27.976  1.00  0.00     0.040 A 
ATOM     78  C   UNL A   1      34.691  31.158  28.146  1.00  0.00     0.040 A 
ATOM     79  F   UNL A   1      35.748  29.347  29.199  1.00  0.00    -0.206 F 
ATOM     80  C   UNL A   1      34.695  32.489  27.737  1.00  0.00     0.006 A 
ENDBRANCH  52  73
BRANCH  64  81
ATOM     81  C   UNL A   1      39.235  32.082  35.597  1.00  0.00     0.057 A 
ATOM     82  C   UNL A   1      39.593  33.425  35.771  1.00  0.00     0.134 A 
ATOM     83  C   UNL A   1      38.350  31.524  36.529  1.00  0.00     0.134 A 
ATOM     84  F   UNL A   1      40.444  34.018  34.922  1.00  0.00    -0.206 F 
ATOM     85  C   UNL A   1      39.104  34.176  36.843  1.00  0.00     0.040 A 
ATOM     86  C   UNL A   1      37.832  32.273  37.586  1.00  0.00     0.040 A 
ATOM     87  F   UNL A   1      37.956  30.246  36.414  1.00  0.00    -0.206 F 
ATOM     88  C   UNL A   1      38.214  33.602  37.748  1.00  0.00     0.006 A 
ENDBRANCH  64  81
ENDBRANCH  38  39
ENDBRANCH  31  33
ENDBRANCH  30  31
ENDBRANCH  29  30
ENDBRANCH  28  29
ENDBRANCH  27  28
ENDBRANCH  26  27
ENDBRANCH   1  26
TORSDOF 21
ENDMDL
