MODEL 1
REMARK VINA RESULT:     -11.2      0.000      0.000
REMARK SMILES CS(=O)(=O)c1ccc(/C=C(/C(=O)OCCOCCOCCOC(=O)c2ccc(-c3c4nc(c(-c5c(F)cccc5F)c5ccc([nH]5)c(-c5c(F)cccc5F)c5nc(c(-c6c(F)cccc6F)c6ccc3[nH]6)C=C5)C=C4)cc2)c2cccc(Br)c2)cc1
REMARK SMILES IDX 17 1 16 2 15 3 14 4 13 5 11 6 12 7 10 8 9 9 8 10 5 11 6 12
REMARK SMILES IDX 87 13 7 14 86 15 2 16 1 17 3 18 4 19 79 20 80 21 85 22 81 23
REMARK SMILES IDX 83 24 82 25 84 26 18 27 19 28 20 29 21 30 22 31 23 32 24 33
REMARK SMILES IDX 25 34 26 35 78 36 27 37 77 38 28 39 29 40 30 41 71 42 31 43
REMARK SMILES IDX 76 44 70 45 72 46 32 47 75 48 69 49 68 50 33 52 59 53 42 54
REMARK SMILES IDX 58 55 43 56 46 57 57 58 73 59 44 60 45 61 56 63 74 64 47 65
REMARK SMILES IDX 34 66 35 67 40 68 36 69 37 70 39 71 41 72 38 73 60 74 61 75
REMARK SMILES IDX 66 76 62 77 63 78 65 79 67 80 64 81 48 82 49 83 54 84 50 85
REMARK SMILES IDX 51 86 53 87 55 88 52 89
REMARK H PARENT 72 51 46 62
REMARK Flexibility Score: inf
ROOT
ATOM      1  C   UNL A   1      42.807  19.025  26.252  1.00  0.00     0.188 C 
ENDROOT
BRANCH   1   2
ATOM      2  O   UNL A   1      41.516  19.420  25.831  1.00  0.00    -0.376 OA
BRANCH   2   3
ATOM      3  C   UNL A   1      40.821  20.353  26.637  1.00  0.00     0.202 C 
BRANCH   3   4
ATOM      4  C   UNL A   1      40.011  21.472  25.960  1.00  0.00     0.261 C 
BRANCH   4   5
ATOM      5  O   UNL A   1      38.589  21.456  26.167  1.00  0.00    -0.460 OA
BRANCH   5   6
ATOM      6  C   UNL A   1      37.814  20.877  25.219  1.00  0.00     0.338 C 
ATOM      7  O   UNL A   1      38.074  19.833  24.642  1.00  0.00    -0.246 OA
BRANCH   6   8
ATOM      8  C   UNL A   1      36.524  21.634  25.045  1.00  0.00     0.067 C 
ATOM      9  C   UNL A   1      36.552  22.918  24.604  1.00  0.00     0.024 C 
BRANCH   9  10
ATOM     10  C   UNL A   1      35.419  23.803  24.231  1.00  0.00    -0.025 A 
ATOM     11  C   UNL A   1      33.023  25.133  23.616  1.00  0.00     0.067 A 
ATOM     12  C   UNL A   1      33.775  25.541  24.714  1.00  0.00     0.021 A 
ATOM     13  C   UNL A   1      33.511  24.157  22.748  1.00  0.00     0.021 A 
ATOM     14  C   UNL A   1      34.987  24.900  24.991  1.00  0.00     0.009 A 
ATOM     15  C   UNL A   1      34.703  23.493  23.062  1.00  0.00     0.009 A 
BRANCH  11  16
ATOM     16  S   UNL A   1      31.405  25.815  23.340  1.00  0.00     0.175 S 
ATOM     17  C   UNL A   1      30.340  24.393  23.397  1.00  0.00     0.163 C 
ATOM     18  O   UNL A   1      31.391  26.348  21.994  1.00  0.00    -0.224 OA
ATOM     19  O   UNL A   1      31.074  26.648  24.483  1.00  0.00    -0.224 OA
ENDBRANCH  11  16
ENDBRANCH   9  10
BRANCH   8  20
ATOM     20  C   UNL A   1      35.264  20.925  25.354  1.00  0.00    -0.010 A 
ATOM     21  C   UNL A   1      34.399  21.453  26.329  1.00  0.00     0.009 A 
ATOM     22  C   UNL A   1      34.856  19.811  24.610  1.00  0.00     0.024 A 
ATOM     23  C   UNL A   1      33.136  20.897  26.533  1.00  0.00     0.002 A 
ATOM     24  C   UNL A   1      33.585  19.272  24.811  1.00  0.00     0.018 A 
ATOM     25  C   UNL A   1      32.724  19.809  25.767  1.00  0.00     0.016 A 
ATOM     26  Br  UNL A   1      32.999  17.838  23.727  1.00  0.00    -0.051 Br
ENDBRANCH   8  20
ENDBRANCH   6   8
ENDBRANCH   5   6
ENDBRANCH   4   5
ENDBRANCH   3   4
ENDBRANCH   2   3
ENDBRANCH   1   2
BRANCH   1  27
ATOM     27  C   UNL A   1      43.824  18.954  25.094  1.00  0.00     0.188 C 
BRANCH  27  28
ATOM     28  O   UNL A   1      44.428  20.139  24.592  1.00  0.00    -0.376 OA
BRANCH  28  29
ATOM     29  C   UNL A   1      45.363  20.845  25.395  1.00  0.00     0.202 C 
BRANCH  29  30
ATOM     30  C   UNL A   1      45.612  22.335  25.119  1.00  0.00     0.261 C 
BRANCH  30  31
ATOM     31  O   UNL A   1      44.831  23.246  25.909  1.00  0.00    -0.460 OA
BRANCH  31  32
ATOM     32  C   UNL A   1      43.611  23.551  25.401  1.00  0.00     0.338 C 
ATOM     33  O   UNL A   1      43.037  23.013  24.472  1.00  0.00    -0.246 OA
BRANCH  32  34
ATOM     34  C   UNL A   1      42.957  24.561  26.261  1.00  0.00     0.060 A 
ATOM     35  C   UNL A   1      43.564  25.818  26.383  1.00  0.00     0.016 A 
ATOM     36  C   UNL A   1      41.803  24.260  26.986  1.00  0.00     0.016 A 
ATOM     37  C   UNL A   1      43.029  26.775  27.243  1.00  0.00     0.010 A 
ATOM     38  C   UNL A   1      41.283  25.210  27.872  1.00  0.00     0.010 A 
ATOM     39  C   UNL A   1      41.907  26.462  28.022  1.00  0.00    -0.014 A 
BRANCH  39  40
ATOM     40  C   UNL A   1      41.498  27.375  29.114  1.00  0.00     0.031 A 
ATOM     41  C   UNL A   1      42.248  27.325  30.416  1.00  0.00     0.074 A 
ATOM     42  C   UNL A   1      40.489  28.248  28.952  1.00  0.00     0.049 A 
ATOM     43  N   UNL A   1      42.052  28.007  31.515  1.00  0.00    -0.248 NA
ATOM     44  C   UNL A   1      43.370  26.375  30.484  1.00  0.00     0.031 C 
ATOM     45  C   UNL A   1      39.704  28.418  27.732  1.00  0.00     0.029 A 
ATOM     46  N   UNL A   1      39.950  29.157  29.830  1.00  0.00    -0.354 N 
ATOM     47  C   UNL A   1      43.024  27.570  32.406  1.00  0.00     0.074 A 
ATOM     48  C   UNL A   1      43.793  26.549  31.727  1.00  0.00     0.031 C 
ATOM     49  C   UNL A   1      38.781  29.373  27.938  1.00  0.00     0.029 A 
ATOM     50  C   UNL A   1      38.884  29.853  29.316  1.00  0.00     0.049 A 
ATOM     51  H   UNL A   1      40.296  29.295  30.741  1.00  0.00     0.167 HD
ATOM     52  C   UNL A   1      43.255  27.981  33.675  1.00  0.00     0.037 A 
ATOM     53  C   UNL A   1      38.071  30.754  29.901  1.00  0.00     0.037 A 
ATOM     54  C   UNL A   1      42.476  28.977  34.361  1.00  0.00     0.049 A 
ATOM     55  C   UNL A   1      38.295  31.132  31.343  1.00  0.00     0.074 A 
ATOM     56  C   UNL A   1      42.635  29.460  35.648  1.00  0.00     0.029 A 
ATOM     57  N   UNL A   1      41.379  29.631  33.821  1.00  0.00    -0.354 N 
ATOM     58  N   UNL A   1      39.233  30.734  32.170  1.00  0.00    -0.248 NA
ATOM     59  C   UNL A   1      37.342  32.083  31.935  1.00  0.00     0.031 C 
ATOM     60  C   UNL A   1      41.604  30.371  35.904  1.00  0.00     0.029 A 
ATOM     61  C   UNL A   1      40.835  30.493  34.758  1.00  0.00     0.049 A 
ATOM     62  H   UNL A   1      41.039  29.501  32.907  1.00  0.00     0.167 HD
ATOM     63  C   UNL A   1      38.999  31.403  33.365  1.00  0.00     0.074 A 
ATOM     64  C   UNL A   1      37.838  32.243  33.155  1.00  0.00     0.031 C 
ATOM     65  C   UNL A   1      39.684  31.331  34.534  1.00  0.00     0.037 A 
BRANCH  52  66
ATOM     66  C   UNL A   1      44.378  27.318  34.415  1.00  0.00     0.057 A 
ATOM     67  C   UNL A   1      44.177  26.167  35.189  1.00  0.00     0.134 A 
ATOM     68  C   UNL A   1      45.680  27.830  34.343  1.00  0.00     0.134 A 
ATOM     69  F   UNL A   1      42.951  25.638  35.313  1.00  0.00    -0.206 F 
ATOM     70  C   UNL A   1      45.225  25.565  35.886  1.00  0.00     0.040 A 
ATOM     71  C   UNL A   1      46.741  27.222  35.014  1.00  0.00     0.040 A 
ATOM     72  F   UNL A   1      45.941  28.928  33.617  1.00  0.00    -0.206 F 
ATOM     73  C   UNL A   1      46.513  26.090  35.795  1.00  0.00     0.006 A 
ENDBRANCH  52  66
BRANCH  53  74
ATOM     74  C   UNL A   1      36.949  31.353  29.137  1.00  0.00     0.057 A 
ATOM     75  C   UNL A   1      37.003  32.678  28.689  1.00  0.00     0.134 A 
ATOM     76  C   UNL A   1      35.781  30.628  28.866  1.00  0.00     0.134 A 
ATOM     77  F   UNL A   1      38.084  33.431  28.941  1.00  0.00    -0.206 F 
ATOM     78  C   UNL A   1      35.931  33.266  28.016  1.00  0.00     0.040 A 
ATOM     79  C   UNL A   1      34.713  31.196  28.172  1.00  0.00     0.040 A 
ATOM     80  F   UNL A   1      35.666  29.355  29.272  1.00  0.00    -0.206 F 
ATOM     81  C   UNL A   1      34.783  32.522  27.751  1.00  0.00     0.006 A 
ENDBRANCH  53  74
BRANCH  65  82
ATOM     82  C   UNL A   1      39.224  32.206  35.663  1.00  0.00     0.057 A 
ATOM     83  C   UNL A   1      39.676  33.523  35.813  1.00  0.00     0.134 A 
ATOM     84  C   UNL A   1      38.275  31.740  36.583  1.00  0.00     0.134 A 
ATOM     85  F   UNL A   1      40.593  34.028  34.974  1.00  0.00    -0.206 F 
ATOM     86  C   UNL A   1      39.217  34.337  36.851  1.00  0.00     0.040 A 
ATOM     87  C   UNL A   1      37.790  32.553  37.608  1.00  0.00     0.040 A 
ATOM     88  F   UNL A   1      37.792  30.492  36.491  1.00  0.00    -0.206 F 
ATOM     89  C   UNL A   1      38.265  33.856  37.747  1.00  0.00     0.006 A 
ENDBRANCH  65  82
ENDBRANCH  39  40
ENDBRANCH  32  34
ENDBRANCH  31  32
ENDBRANCH  30  31
ENDBRANCH  29  30
ENDBRANCH  28  29
ENDBRANCH  27  28
ENDBRANCH   1  27
TORSDOF 20
ENDMDL
MODEL 2
REMARK VINA RESULT:     -11.2      2.662      7.246
REMARK SMILES CS(=O)(=O)c1ccc(/C=C(/C(=O)OCCOCCOCCOC(=O)c2ccc(-c3c4nc(c(-c5c(F)cccc5F)c5ccc([nH]5)c(-c5c(F)cccc5F)c5nc(c(-c6c(F)cccc6F)c6ccc3[nH]6)C=C5)C=C4)cc2)c2cccc(Br)c2)cc1
REMARK SMILES IDX 17 1 16 2 15 3 14 4 13 5 11 6 12 7 10 8 9 9 8 10 5 11 6 12
REMARK SMILES IDX 87 13 7 14 86 15 2 16 1 17 3 18 4 19 79 20 80 21 85 22 81 23
REMARK SMILES IDX 83 24 82 25 84 26 18 27 19 28 20 29 21 30 22 31 23 32 24 33
REMARK SMILES IDX 25 34 26 35 78 36 27 37 77 38 28 39 29 40 30 41 71 42 31 43
REMARK SMILES IDX 76 44 70 45 72 46 32 47 75 48 69 49 68 50 33 52 59 53 42 54
REMARK SMILES IDX 58 55 43 56 46 57 57 58 73 59 44 60 45 61 56 63 74 64 47 65
REMARK SMILES IDX 34 66 35 67 40 68 36 69 37 70 39 71 41 72 38 73 60 74 61 75
REMARK SMILES IDX 66 76 62 77 63 78 65 79 67 80 64 81 48 82 49 83 54 84 50 85
REMARK SMILES IDX 51 86 53 87 55 88 52 89
REMARK H PARENT 72 51 46 62
REMARK Flexibility Score: inf
ROOT
ATOM      1  C   UNL A   1      38.559  23.195  26.328  1.00  0.00     0.188 C 
ENDROOT
BRANCH   1   2
ATOM      2  O   UNL A   1      37.447  23.558  25.535  1.00  0.00    -0.376 OA
BRANCH   2   3
ATOM      3  C   UNL A   1      36.494  22.552  25.242  1.00  0.00     0.202 C 
BRANCH   3   4
ATOM      4  C   UNL A   1      35.198  22.937  24.508  1.00  0.00     0.261 C 
BRANCH   4   5
ATOM      5  O   UNL A   1      34.717  24.277  24.707  1.00  0.00    -0.460 OA
BRANCH   5   6
ATOM      6  C   UNL A   1      33.685  24.461  25.564  1.00  0.00     0.338 C 
ATOM      7  O   UNL A   1      33.523  23.852  26.610  1.00  0.00    -0.246 OA
BRANCH   6   8
ATOM      8  C   UNL A   1      32.812  25.604  25.114  1.00  0.00     0.067 C 
ATOM      9  C   UNL A   1      32.079  25.483  23.978  1.00  0.00     0.024 C 
BRANCH   9  10
ATOM     10  C   UNL A   1      31.059  26.407  23.421  1.00  0.00    -0.025 A 
ATOM     11  C   UNL A   1      29.110  28.323  22.771  1.00  0.00     0.067 A 
ATOM     12  C   UNL A   1      30.383  28.419  22.217  1.00  0.00     0.021 A 
ATOM     13  C   UNL A   1      28.758  27.216  23.544  1.00  0.00     0.021 A 
ATOM     14  C   UNL A   1      31.337  27.440  22.514  1.00  0.00     0.009 A 
ATOM     15  C   UNL A   1      29.734  26.267  23.869  1.00  0.00     0.009 A 
BRANCH  11  16
ATOM     16  S   UNL A   1      27.937  29.638  22.547  1.00  0.00     0.175 S 
ATOM     17  C   UNL A   1      28.611  30.967  23.515  1.00  0.00     0.163 C 
ATOM     18  O   UNL A   1      26.694  29.210  23.153  1.00  0.00    -0.224 OA
ATOM     19  O   UNL A   1      27.992  30.048  21.155  1.00  0.00    -0.224 OA
ENDBRANCH  11  16
ENDBRANCH   9  10
BRANCH   8  20
ATOM     20  C   UNL A   1      32.785  26.819  25.955  1.00  0.00    -0.010 A 
ATOM     21  C   UNL A   1      31.638  27.102  26.717  1.00  0.00     0.009 A 
ATOM     22  C   UNL A   1      33.921  27.623  26.107  1.00  0.00     0.024 A 
ATOM     23  C   UNL A   1      31.638  28.151  27.637  1.00  0.00     0.002 A 
ATOM     24  C   UNL A   1      33.916  28.660  27.040  1.00  0.00     0.018 A 
ATOM     25  C   UNL A   1      32.782  28.927  27.806  1.00  0.00     0.016 A 
ATOM     26  Br  UNL A   1      35.489  29.671  27.319  1.00  0.00    -0.051 Br
ENDBRANCH   8  20
ENDBRANCH   6   8
ENDBRANCH   5   6
ENDBRANCH   4   5
ENDBRANCH   3   4
ENDBRANCH   2   3
ENDBRANCH   1   2
BRANCH   1  27
ATOM     27  C   UNL A   1      39.099  21.786  26.002  1.00  0.00     0.188 C 
BRANCH  27  28
ATOM     28  O   UNL A   1      40.095  21.188  26.823  1.00  0.00    -0.376 OA
BRANCH  28  29
ATOM     29  C   UNL A   1      41.428  21.085  26.345  1.00  0.00     0.202 C 
BRANCH  29  30
ATOM     30  C   UNL A   1      42.165  22.358  25.903  1.00  0.00     0.261 C 
BRANCH  30  31
ATOM     31  O   UNL A   1      42.144  23.441  26.846  1.00  0.00    -0.460 OA
BRANCH  31  32
ATOM     32  C   UNL A   1      42.414  24.664  26.327  1.00  0.00     0.338 C 
ATOM     33  O   UNL A   1      42.844  24.922  25.217  1.00  0.00    -0.246 OA
BRANCH  32  34
ATOM     34  C   UNL A   1      41.944  25.710  27.259  1.00  0.00     0.060 A 
ATOM     35  C   UNL A   1      42.663  26.912  27.321  1.00  0.00     0.016 A 
ATOM     36  C   UNL A   1      40.855  25.494  28.106  1.00  0.00     0.016 A 
ATOM     37  C   UNL A   1      42.306  27.896  28.241  1.00  0.00     0.010 A 
ATOM     38  C   UNL A   1      40.515  26.470  29.048  1.00  0.00     0.010 A 
ATOM     39  C   UNL A   1      41.254  27.665  29.136  1.00  0.00    -0.014 A 
BRANCH  39  40
ATOM     40  C   UNL A   1      41.044  28.592  30.272  1.00  0.00     0.031 A 
ATOM     41  C   UNL A   1      39.941  29.609  30.180  1.00  0.00     0.074 A 
ATOM     42  C   UNL A   1      41.808  28.525  31.377  1.00  0.00     0.049 A 
ATOM     43  N   UNL A   1      39.592  30.536  31.034  1.00  0.00    -0.248 NA
ATOM     44  C   UNL A   1      39.124  29.574  28.957  1.00  0.00     0.031 C 
ATOM     45  C   UNL A   1      42.887  27.567  31.603  1.00  0.00     0.029 A 
ATOM     46  N   UNL A   1      41.790  29.290  32.517  1.00  0.00    -0.354 N 
ATOM     47  C   UNL A   1      38.516  31.195  30.454  1.00  0.00     0.074 A 
ATOM     48  C   UNL A   1      38.285  30.577  29.166  1.00  0.00     0.031 C 
ATOM     49  C   UNL A   1      43.430  27.802  32.810  1.00  0.00     0.029 A 
ATOM     50  C   UNL A   1      42.765  28.951  33.423  1.00  0.00     0.049 A 
ATOM     51  H   UNL A   1      41.140  30.014  32.670  1.00  0.00     0.167 HD
ATOM     52  C   UNL A   1      37.786  32.222  30.948  1.00  0.00     0.037 A 
ATOM     53  C   UNL A   1      43.095  29.522  34.598  1.00  0.00     0.037 A 
ATOM     54  C   UNL A   1      38.029  32.856  32.217  1.00  0.00     0.049 A 
ATOM     55  C   UNL A   1      42.322  30.720  35.087  1.00  0.00     0.074 A 
ATOM     56  C   UNL A   1      37.341  33.904  32.803  1.00  0.00     0.029 A 
ATOM     57  N   UNL A   1      39.051  32.510  33.088  1.00  0.00    -0.354 N 
ATOM     58  N   UNL A   1      41.289  31.319  34.544  1.00  0.00    -0.248 NA
ATOM     59  C   UNL A   1      42.766  31.324  36.352  1.00  0.00     0.031 C 
ATOM     60  C   UNL A   1      37.978  34.225  34.008  1.00  0.00     0.029 A 
ATOM     61  C   UNL A   1      39.029  33.342  34.195  1.00  0.00     0.049 A 
ATOM     62  H   UNL A   1      39.695  31.781  32.941  1.00  0.00     0.167 HD
ATOM     63  C   UNL A   1      40.945  32.350  35.412  1.00  0.00     0.074 A 
ATOM     64  C   UNL A   1      41.872  32.288  36.523  1.00  0.00     0.031 C 
ATOM     65  C   UNL A   1      39.951  33.265  35.299  1.00  0.00     0.037 A 
BRANCH  52  66
ATOM     66  C   UNL A   1      36.676  32.749  30.088  1.00  0.00     0.057 A 
ATOM     67  C   UNL A   1      36.914  33.656  29.047  1.00  0.00     0.134 A 
ATOM     68  C   UNL A   1      35.354  32.334  30.296  1.00  0.00     0.134 A 
ATOM     69  F   UNL A   1      38.155  34.106  28.807  1.00  0.00    -0.206 F 
ATOM     70  C   UNL A   1      35.873  34.152  28.260  1.00  0.00     0.040 A 
ATOM     71  C   UNL A   1      34.309  32.804  29.499  1.00  0.00     0.040 A 
ATOM     72  F   UNL A   1      35.059  31.466  31.275  1.00  0.00    -0.206 F 
ATOM     73  C   UNL A   1      34.567  33.721  28.483  1.00  0.00     0.006 A 
ENDBRANCH  52  66
BRANCH  53  74
ATOM     74  C   UNL A   1      44.227  28.986  35.394  1.00  0.00     0.057 A 
ATOM     75  C   UNL A   1      45.542  29.400  35.153  1.00  0.00     0.134 A 
ATOM     76  C   UNL A   1      44.027  28.022  36.390  1.00  0.00     0.134 A 
ATOM     77  F   UNL A   1      45.800  30.301  34.194  1.00  0.00    -0.206 F 
ATOM     78  C   UNL A   1      46.619  28.863  35.861  1.00  0.00     0.040 A 
ATOM     79  C   UNL A   1      45.091  27.495  37.122  1.00  0.00     0.040 A 
ATOM     80  F   UNL A   1      42.791  27.581  36.666  1.00  0.00    -0.206 F 
ATOM     81  C   UNL A   1      46.393  27.910  36.853  1.00  0.00     0.006 A 
ENDBRANCH  53  74
BRANCH  65  82
ATOM     82  C   UNL A   1      39.786  34.251  36.421  1.00  0.00     0.057 A 
ATOM     83  C   UNL A   1      39.103  33.926  37.599  1.00  0.00     0.134 A 
ATOM     84  C   UNL A   1      40.363  35.525  36.337  1.00  0.00     0.134 A 
ATOM     85  F   UNL A   1      38.517  32.727  37.739  1.00  0.00    -0.206 F 
ATOM     86  C   UNL A   1      38.982  34.842  38.647  1.00  0.00     0.040 A 
ATOM     87  C   UNL A   1      40.271  36.438  37.388  1.00  0.00     0.040 A 
ATOM     88  F   UNL A   1      41.040  35.897  35.241  1.00  0.00    -0.206 F 
ATOM     89  C   UNL A   1      39.574  36.099  38.547  1.00  0.00     0.006 A 
ENDBRANCH  65  82
ENDBRANCH  39  40
ENDBRANCH  32  34
ENDBRANCH  31  32
ENDBRANCH  30  31
ENDBRANCH  29  30
ENDBRANCH  28  29
ENDBRANCH  27  28
ENDBRANCH   1  27
TORSDOF 20
ENDMDL
MODEL 3
REMARK VINA RESULT:     -11.0      3.845      7.969
REMARK SMILES CS(=O)(=O)c1ccc(/C=C(/C(=O)OCCOCCOCCOC(=O)c2ccc(-c3c4nc(c(-c5c(F)cccc5F)c5ccc([nH]5)c(-c5c(F)cccc5F)c5nc(c(-c6c(F)cccc6F)c6ccc3[nH]6)C=C5)C=C4)cc2)c2cccc(Br)c2)cc1
REMARK SMILES IDX 17 1 16 2 15 3 14 4 13 5 11 6 12 7 10 8 9 9 8 10 5 11 6 12
REMARK SMILES IDX 87 13 7 14 86 15 2 16 1 17 3 18 4 19 79 20 80 21 85 22 81 23
REMARK SMILES IDX 83 24 82 25 84 26 18 27 19 28 20 29 21 30 22 31 23 32 24 33
REMARK SMILES IDX 25 34 26 35 78 36 27 37 77 38 28 39 29 40 30 41 71 42 31 43
REMARK SMILES IDX 76 44 70 45 72 46 32 47 75 48 69 49 68 50 33 52 59 53 42 54
REMARK SMILES IDX 58 55 43 56 46 57 57 58 73 59 44 60 45 61 56 63 74 64 47 65
REMARK SMILES IDX 34 66 35 67 40 68 36 69 37 70 39 71 41 72 38 73 60 74 61 75
REMARK SMILES IDX 66 76 62 77 63 78 65 79 67 80 64 81 48 82 49 83 54 84 50 85
REMARK SMILES IDX 51 86 53 87 55 88 52 89
REMARK H PARENT 72 51 46 62
REMARK Flexibility Score: inf
ROOT
ATOM      1  C   UNL A   1      36.023  21.802  25.070  1.00  0.00     0.188 C 
ENDROOT
BRANCH   1   2
ATOM      2  O   UNL A   1      34.908  22.369  25.727  1.00  0.00    -0.376 OA
BRANCH   2   3
ATOM      3  C   UNL A   1      34.305  21.616  26.764  1.00  0.00     0.202 C 
BRANCH   3   4
ATOM      4  C   UNL A   1      33.369  22.323  27.758  1.00  0.00     0.261 C 
BRANCH   4   5
ATOM      5  O   UNL A   1      32.797  23.571  27.332  1.00  0.00    -0.460 OA
BRANCH   5   6
ATOM      6  C   UNL A   1      31.488  23.585  26.984  1.00  0.00     0.338 C 
ATOM      7  O   UNL A   1      30.590  23.039  27.607  1.00  0.00    -0.246 OA
BRANCH   6   8
ATOM      8  C   UNL A   1      31.262  24.463  25.781  1.00  0.00     0.067 C 
ATOM      9  C   UNL A   1      30.504  25.582  25.899  1.00  0.00     0.024 C 
BRANCH   9  10
ATOM     10  C   UNL A   1      30.261  26.655  24.901  1.00  0.00    -0.025 A 
ATOM     11  C   UNL A   1      29.439  28.770  23.244  1.00  0.00     0.067 A 
ATOM     12  C   UNL A   1      30.596  28.901  24.006  1.00  0.00     0.021 A 
ATOM     13  C   UNL A   1      28.757  27.554  23.199  1.00  0.00     0.021 A 
ATOM     14  C   UNL A   1      31.021  27.830  24.799  1.00  0.00     0.009 A 
ATOM     15  C   UNL A   1      29.167  26.505  24.031  1.00  0.00     0.009 A 
BRANCH  11  16
ATOM     16  S   UNL A   1      28.787  30.168  22.362  1.00  0.00     0.175 S 
ATOM     17  C   UNL A   1      29.033  31.520  23.488  1.00  0.00     0.163 C 
ATOM     18  O   UNL A   1      27.364  29.949  22.208  1.00  0.00    -0.224 OA
ATOM     19  O   UNL A   1      29.642  30.403  21.211  1.00  0.00    -0.224 OA
ENDBRANCH  11  16
ENDBRANCH   9  10
BRANCH   8  20
ATOM     20  C   UNL A   1      31.901  24.062  24.510  1.00  0.00    -0.010 A 
ATOM     21  C   UNL A   1      32.942  24.850  23.985  1.00  0.00     0.009 A 
ATOM     22  C   UNL A   1      31.581  22.850  23.886  1.00  0.00     0.024 A 
ATOM     23  C   UNL A   1      33.668  24.418  22.876  1.00  0.00     0.002 A 
ATOM     24  C   UNL A   1      32.324  22.420  22.786  1.00  0.00     0.018 A 
ATOM     25  C   UNL A   1      33.366  23.197  22.279  1.00  0.00     0.016 A 
ATOM     26  Br  UNL A   1      31.958  20.733  22.016  1.00  0.00    -0.051 Br
ENDBRANCH   8  20
ENDBRANCH   6   8
ENDBRANCH   5   6
ENDBRANCH   4   5
ENDBRANCH   3   4
ENDBRANCH   2   3
ENDBRANCH   1   2
BRANCH   1  27
ATOM     27  C   UNL A   1      35.935  20.267  24.945  1.00  0.00     0.188 C 
BRANCH  27  28
ATOM     28  O   UNL A   1      37.116  19.484  24.825  1.00  0.00    -0.376 OA
BRANCH  28  29
ATOM     29  C   UNL A   1      38.380  20.080  25.075  1.00  0.00     0.202 C 
BRANCH  29  30
ATOM     30  C   UNL A   1      39.457  19.269  25.812  1.00  0.00     0.261 C 
BRANCH  30  31
ATOM     31  O   UNL A   1      40.780  19.359  25.262  1.00  0.00    -0.460 OA
BRANCH  31  32
ATOM     32  C   UNL A   1      41.782  19.422  26.174  1.00  0.00     0.338 C 
ATOM     33  O   UNL A   1      42.587  18.553  26.454  1.00  0.00    -0.246 OA
BRANCH  32  34
ATOM     34  C   UNL A   1      41.887  20.800  26.699  1.00  0.00     0.060 A 
ATOM     35  C   UNL A   1      42.090  21.842  25.783  1.00  0.00     0.016 A 
ATOM     36  C   UNL A   1      41.850  21.061  28.070  1.00  0.00     0.016 A 
ATOM     37  C   UNL A   1      42.274  23.147  26.236  1.00  0.00     0.010 A 
ATOM     38  C   UNL A   1      42.064  22.366  28.525  1.00  0.00     0.010 A 
ATOM     39  C   UNL A   1      42.301  23.410  27.612  1.00  0.00    -0.014 A 
BRANCH  39  40
ATOM     40  C   UNL A   1      42.751  24.737  28.093  1.00  0.00     0.031 A 
ATOM     41  C   UNL A   1      41.720  25.804  28.336  1.00  0.00     0.074 A 
ATOM     42  C   UNL A   1      44.050  24.990  28.326  1.00  0.00     0.049 A 
ATOM     43  N   UNL A   1      41.881  27.041  28.729  1.00  0.00    -0.248 NA
ATOM     44  C   UNL A   1      40.319  25.420  28.104  1.00  0.00     0.031 C 
ATOM     45  C   UNL A   1      45.142  24.035  28.159  1.00  0.00     0.029 A 
ATOM     46  N   UNL A   1      44.669  26.140  28.751  1.00  0.00    -0.354 N 
ATOM     47  C   UNL A   1      40.605  27.584  28.790  1.00  0.00     0.074 A 
ATOM     48  C   UNL A   1      39.683  26.550  28.373  1.00  0.00     0.031 C 
ATOM     49  C   UNL A   1      46.300  24.638  28.478  1.00  0.00     0.029 A 
ATOM     50  C   UNL A   1      46.035  26.033  28.832  1.00  0.00     0.049 A 
ATOM     51  H   UNL A   1      44.178  26.964  28.977  1.00  0.00     0.167 HD
ATOM     52  C   UNL A   1      40.233  28.833  29.161  1.00  0.00     0.037 A 
ATOM     53  C   UNL A   1      46.963  26.962  29.133  1.00  0.00     0.037 A 
ATOM     54  C   UNL A   1      41.149  29.871  29.551  1.00  0.00     0.049 A 
ATOM     55  C   UNL A   1      46.531  28.369  29.457  1.00  0.00     0.074 A 
ATOM     56  C   UNL A   1      40.865  31.167  29.945  1.00  0.00     0.029 A 
ATOM     57  N   UNL A   1      42.528  29.735  29.583  1.00  0.00    -0.354 N 
ATOM     58  N   UNL A   1      45.320  28.866  29.539  1.00  0.00    -0.248 NA
ATOM     59  C   UNL A   1      47.597  29.345  29.727  1.00  0.00     0.031 C 
ATOM     60  C   UNL A   1      42.078  31.832  30.166  1.00  0.00     0.029 A 
ATOM     61  C   UNL A   1      43.112  30.933  29.962  1.00  0.00     0.049 A 
ATOM     62  H   UNL A   1      43.020  28.910  29.368  1.00  0.00     0.167 HD
ATOM     63  C   UNL A   1      45.478  30.201  29.894  1.00  0.00     0.074 A 
ATOM     64  C   UNL A   1      46.902  30.434  30.024  1.00  0.00     0.031 C 
ATOM     65  C   UNL A   1      44.530  31.150  30.096  1.00  0.00     0.037 A 
BRANCH  52  66
ATOM     66  C   UNL A   1      38.768  29.150  29.120  1.00  0.00     0.057 A 
ATOM     67  C   UNL A   1      37.960  29.059  30.262  1.00  0.00     0.134 A 
ATOM     68  C   UNL A   1      38.160  29.562  27.928  1.00  0.00     0.134 A 
ATOM     69  F   UNL A   1      38.478  28.653  31.431  1.00  0.00    -0.206 F 
ATOM     70  C   UNL A   1      36.595  29.343  30.212  1.00  0.00     0.040 A 
ATOM     71  C   UNL A   1      36.801  29.873  27.872  1.00  0.00     0.040 A 
ATOM     72  F   UNL A   1      38.878  29.671  26.799  1.00  0.00    -0.206 F 
ATOM     73  C   UNL A   1      36.013  29.756  29.015  1.00  0.00     0.006 A 
ENDBRANCH  52  66
BRANCH  53  74
ATOM     74  C   UNL A   1      48.405  26.606  29.121  1.00  0.00     0.057 A 
ATOM     75  C   UNL A   1      49.175  26.741  27.961  1.00  0.00     0.134 A 
ATOM     76  C   UNL A   1      49.038  26.090  30.259  1.00  0.00     0.134 A 
ATOM     77  F   UNL A   1      48.618  27.205  26.832  1.00  0.00    -0.206 F 
ATOM     78  C   UNL A   1      50.517  26.359  27.926  1.00  0.00     0.040 A 
ATOM     79  C   UNL A   1      50.385  25.729  30.246  1.00  0.00     0.040 A 
ATOM     80  F   UNL A   1      48.353  25.933  31.401  1.00  0.00    -0.206 F 
ATOM     81  C   UNL A   1      51.127  25.856  29.074  1.00  0.00     0.006 A 
ENDBRANCH  53  74
BRANCH  65  82
ATOM     82  C   UNL A   1      44.994  32.516  30.515  1.00  0.00     0.057 A 
ATOM     83  C   UNL A   1      45.241  32.837  31.855  1.00  0.00     0.134 A 
ATOM     84  C   UNL A   1      45.244  33.506  29.556  1.00  0.00     0.134 A 
ATOM     85  F   UNL A   1      45.011  31.938  32.824  1.00  0.00    -0.206 F 
ATOM     86  C   UNL A   1      45.700  34.102  32.229  1.00  0.00     0.040 A 
ATOM     87  C   UNL A   1      45.728  34.765  29.915  1.00  0.00     0.040 A 
ATOM     88  F   UNL A   1      45.038  33.261  28.253  1.00  0.00    -0.206 F 
ATOM     89  C   UNL A   1      45.954  35.067  31.257  1.00  0.00     0.006 A 
ENDBRANCH  65  82
ENDBRANCH  39  40
ENDBRANCH  32  34
ENDBRANCH  31  32
ENDBRANCH  30  31
ENDBRANCH  29  30
ENDBRANCH  28  29
ENDBRANCH  27  28
ENDBRANCH   1  27
TORSDOF 20
ENDMDL
