MODEL 1
REMARK VINA RESULT:     -10.1      0.000      0.000
REMARK SMILES Cc1cc2nc(SCC(=O)OCCOCCOCCOC(=O)c3ccc(-c4c5nc(c(-c6c(F)cccc6F)c6ccc([nH]6)c(-c6c(F)cccc6F)c6nc(c(-c7c(F)cccc7F)c7ccc4[nH]7)C=C6)C=C5)cc3)n(CC(C)C)c(=O)c2[nH]1
REMARK SMILES IDX 15 1 14 2 13 3 12 4 11 5 9 6 10 7 8 8 7 9 6 10 1 11 2 12
REMARK SMILES IDX 3 13 85 14 4 15 84 16 5 18 82 19 77 20 83 21 78 22 79 23
REMARK SMILES IDX 80 24 81 25 16 26 17 27 18 28 19 29 20 30 21 31 22 32 23 33
REMARK SMILES IDX 24 34 76 35 25 36 75 37 26 38 27 39 28 40 69 41 29 42 74 43
REMARK SMILES IDX 68 44 70 45 30 46 73 47 67 48 66 49 31 51 57 52 40 53 56 54
REMARK SMILES IDX 41 55 44 56 55 57 71 58 42 59 43 60 54 62 72 63 45 64 32 65
REMARK SMILES IDX 33 66 38 67 34 68 35 69 37 70 39 71 36 72 58 73 59 74 64 75
REMARK SMILES IDX 60 76 61 77 63 78 65 79 62 80 46 81 47 82 52 83 48 84 49 85
REMARK SMILES IDX 51 86 53 87 50 88
REMARK H PARENT 85 17 70 50 44 61
REMARK Flexibility Score: inf
ROOT
ATOM      1  C   UNL A   1      37.585  22.534  25.451  1.00  0.00     0.188 C 
ENDROOT
BRANCH   1   2
ATOM      2  O   UNL A   1      36.213  22.395  25.780  1.00  0.00    -0.376 OA
BRANCH   2   3
ATOM      3  C   UNL A   1      35.295  23.289  25.163  1.00  0.00     0.202 C 
BRANCH   3   4
ATOM      4  C   UNL A   1      34.234  23.922  26.075  1.00  0.00     0.261 C 
BRANCH   4   5
ATOM      5  O   UNL A   1      33.170  23.000  26.389  1.00  0.00    -0.463 OA
BRANCH   5   6
ATOM      6  C   UNL A   1      31.918  23.515  26.478  1.00  0.00     0.316 C 
ATOM      7  O   UNL A   1      31.351  23.722  27.548  1.00  0.00    -0.251 OA
BRANCH   6   8
ATOM      8  C   UNL A   1      31.381  24.059  25.163  1.00  0.00     0.200 C 
BRANCH   8   9
ATOM      9  S   UNL A   1      30.348  25.488  25.187  1.00  0.00    -0.076 SA
BRANCH   9  10
ATOM     10  C   UNL A   1      31.182  27.047  25.064  1.00  0.00     0.172 A 
ATOM     11  C   UNL A   1      33.967  31.473  27.847  1.00  0.00     0.064 C 
ATOM     12  C   UNL A   1      33.496  30.282  27.088  1.00  0.00     0.014 A 
ATOM     13  C   UNL A   1      32.819  29.151  27.524  1.00  0.00     0.052 A 
ATOM     14  N   UNL A   1      33.630  30.174  25.714  1.00  0.00    -0.353 N 
ATOM     15  C   UNL A   1      32.418  28.463  26.368  1.00  0.00     0.097 A 
ATOM     16  C   UNL A   1      32.914  29.085  25.276  1.00  0.00     0.131 A 
ATOM     17  H   UNL A   1      34.155  30.780  25.142  1.00  0.00     0.166 HD
ATOM     18  N   UNL A   1      31.614  27.344  26.262  1.00  0.00    -0.222 NA
ATOM     19  C   UNL A   1      32.582  28.678  23.944  1.00  0.00     0.278 A 
ATOM     20  N   UNL A   1      31.488  27.769  23.882  1.00  0.00    -0.286 N 
ATOM     21  O   UNL A   1      33.157  29.121  22.970  1.00  0.00    -0.267 OA
BRANCH  20  22
ATOM     22  C   UNL A   1      30.917  27.626  22.500  1.00  0.00     0.131 C 
BRANCH  22  23
ATOM     23  C   UNL A   1      29.623  28.476  22.174  1.00  0.00     0.003 C 
ATOM     24  C   UNL A   1      28.454  28.413  23.187  1.00  0.00     0.009 C 
ATOM     25  C   UNL A   1      29.926  29.982  22.068  1.00  0.00     0.009 C 
ENDBRANCH  22  23
ENDBRANCH  20  22
ENDBRANCH   9  10
ENDBRANCH   8   9
ENDBRANCH   6   8
ENDBRANCH   5   6
ENDBRANCH   4   5
ENDBRANCH   3   4
ENDBRANCH   2   3
ENDBRANCH   1   2
BRANCH   1  26
ATOM     26  C   UNL A   1      38.578  21.397  25.752  1.00  0.00     0.188 C 
BRANCH  26  27
ATOM     27  O   UNL A   1      39.657  21.615  26.636  1.00  0.00    -0.376 OA
BRANCH  27  28
ATOM     28  C   UNL A   1      40.972  21.572  26.121  1.00  0.00     0.202 C 
BRANCH  28  29
ATOM     29  C   UNL A   1      41.792  22.840  26.257  1.00  0.00     0.261 C 
BRANCH  29  30
ATOM     30  O   UNL A   1      41.091  23.924  26.865  1.00  0.00    -0.460 OA
BRANCH  30  31
ATOM     31  C   UNL A   1      41.306  25.070  26.200  1.00  0.00     0.338 C 
ATOM     32  O   UNL A   1      42.224  25.331  25.438  1.00  0.00    -0.246 OA
BRANCH  31  33
ATOM     33  C   UNL A   1      40.426  26.125  26.666  1.00  0.00     0.060 A 
ATOM     34  C   UNL A   1      40.813  27.412  26.307  1.00  0.00     0.016 A 
ATOM     35  C   UNL A   1      39.648  25.875  27.788  1.00  0.00     0.016 A 
ATOM     36  C   UNL A   1      40.655  28.444  27.182  1.00  0.00     0.010 A 
ATOM     37  C   UNL A   1      39.468  26.912  28.674  1.00  0.00     0.010 A 
ATOM     38  C   UNL A   1      40.092  28.139  28.412  1.00  0.00    -0.014 A 
BRANCH  38  39
ATOM     39  C   UNL A   1      40.219  29.154  29.436  1.00  0.00     0.031 A 
ATOM     40  C   UNL A   1      39.060  30.077  29.516  1.00  0.00     0.074 A 
ATOM     41  C   UNL A   1      41.296  29.139  30.243  1.00  0.00     0.049 A 
ATOM     42  N   UNL A   1      39.058  31.370  29.541  1.00  0.00    -0.248 NA
ATOM     43  C   UNL A   1      37.719  29.475  29.386  1.00  0.00     0.031 C 
ATOM     44  C   UNL A   1      42.378  28.146  30.277  1.00  0.00     0.029 A 
ATOM     45  N   UNL A   1      41.568  29.911  31.323  1.00  0.00    -0.354 N 
ATOM     46  C   UNL A   1      37.718  31.732  29.632  1.00  0.00     0.074 A 
ATOM     47  C   UNL A   1      36.944  30.555  29.347  1.00  0.00     0.031 C 
ATOM     48  C   UNL A   1      42.987  28.203  31.479  1.00  0.00     0.029 A 
ATOM     49  C   UNL A   1      42.404  29.292  32.239  1.00  0.00     0.049 A 
ATOM     50  H   UNL A   1      41.209  30.820  31.444  1.00  0.00     0.167 HD
ATOM     51  C   UNL A   1      37.334  32.902  30.205  1.00  0.00     0.037 A 
ATOM     52  C   UNL A   1      42.474  29.574  33.563  1.00  0.00     0.037 A 
ATOM     53  C   UNL A   1      38.388  33.878  30.187  1.00  0.00     0.049 A 
ATOM     54  C   UNL A   1      41.850  30.910  33.763  1.00  0.00     0.074 A 
ATOM     55  C   UNL A   1      39.106  34.506  29.188  1.00  0.00     0.029 A 
ATOM     56  N   UNL A   1      39.085  34.101  31.349  1.00  0.00    -0.354 N 
ATOM     57  N   UNL A   1      42.381  32.025  33.343  1.00  0.00    -0.248 NA
ATOM     58  C   UNL A   1      40.413  30.963  34.007  1.00  0.00     0.031 C 
ATOM     59  C   UNL A   1      40.417  34.670  29.717  1.00  0.00     0.029 A 
ATOM     60  C   UNL A   1      40.414  34.164  31.018  1.00  0.00     0.049 A 
ATOM     61  H   UNL A   1      38.702  34.198  32.250  1.00  0.00     0.167 HD
ATOM     62  C   UNL A   1      41.311  32.779  32.875  1.00  0.00     0.074 A 
ATOM     63  C   UNL A   1      40.118  32.112  33.391  1.00  0.00     0.031 C 
ATOM     64  C   UNL A   1      41.474  33.691  31.872  1.00  0.00     0.037 A 
BRANCH  51  65
ATOM     65  C   UNL A   1      36.141  32.999  31.121  1.00  0.00     0.057 A 
ATOM     66  C   UNL A   1      36.095  32.442  32.419  1.00  0.00     0.134 A 
ATOM     67  C   UNL A   1      35.126  33.924  30.831  1.00  0.00     0.134 A 
ATOM     68  F   UNL A   1      37.040  31.617  32.885  1.00  0.00    -0.206 F 
ATOM     69  C   UNL A   1      35.125  32.787  33.359  1.00  0.00     0.040 A 
ATOM     70  C   UNL A   1      34.181  34.317  31.786  1.00  0.00     0.040 A 
ATOM     71  F   UNL A   1      35.072  34.534  29.638  1.00  0.00    -0.206 F 
ATOM     72  C   UNL A   1      34.184  33.755  33.057  1.00  0.00     0.006 A 
ENDBRANCH  51  65
BRANCH  52  73
ATOM     73  C   UNL A   1      42.759  28.625  34.664  1.00  0.00     0.057 A 
ATOM     74  C   UNL A   1      41.946  27.503  34.924  1.00  0.00     0.134 A 
ATOM     75  C   UNL A   1      43.736  28.904  35.626  1.00  0.00     0.134 A 
ATOM     76  F   UNL A   1      40.904  27.196  34.138  1.00  0.00    -0.206 F 
ATOM     77  C   UNL A   1      42.114  26.692  36.050  1.00  0.00     0.040 A 
ATOM     78  C   UNL A   1      43.902  28.111  36.771  1.00  0.00     0.040 A 
ATOM     79  F   UNL A   1      44.523  29.983  35.504  1.00  0.00    -0.206 F 
ATOM     80  C   UNL A   1      43.091  27.000  36.984  1.00  0.00     0.006 A 
ENDBRANCH  52  73
BRANCH  64  81
ATOM     81  C   UNL A   1      42.880  34.009  31.446  1.00  0.00     0.057 A 
ATOM     82  C   UNL A   1      43.499  35.161  31.938  1.00  0.00     0.134 A 
ATOM     83  C   UNL A   1      43.568  33.290  30.456  1.00  0.00     0.134 A 
ATOM     84  F   UNL A   1      42.870  35.938  32.833  1.00  0.00    -0.206 F 
ATOM     85  C   UNL A   1      44.756  35.568  31.485  1.00  0.00     0.040 A 
ATOM     86  C   UNL A   1      44.840  33.665  30.020  1.00  0.00     0.040 A 
ATOM     87  F   UNL A   1      43.001  32.244  29.842  1.00  0.00    -0.206 F 
ATOM     88  C   UNL A   1      45.438  34.812  30.533  1.00  0.00     0.006 A 
ENDBRANCH  64  81
ENDBRANCH  38  39
ENDBRANCH  31  33
ENDBRANCH  30  31
ENDBRANCH  29  30
ENDBRANCH  28  29
ENDBRANCH  27  28
ENDBRANCH  26  27
ENDBRANCH   1  26
TORSDOF 21
ENDMDL
MODEL 2
REMARK VINA RESULT:     -10.0      2.104      6.063
REMARK SMILES Cc1cc2nc(SCC(=O)OCCOCCOCCOC(=O)c3ccc(-c4c5nc(c(-c6c(F)cccc6F)c6ccc([nH]6)c(-c6c(F)cccc6F)c6nc(c(-c7c(F)cccc7F)c7ccc4[nH]7)C=C6)C=C5)cc3)n(CC(C)C)c(=O)c2[nH]1
REMARK SMILES IDX 15 1 14 2 13 3 12 4 11 5 9 6 10 7 8 8 7 9 6 10 1 11 2 12
REMARK SMILES IDX 3 13 85 14 4 15 84 16 5 18 82 19 77 20 83 21 78 22 79 23
REMARK SMILES IDX 80 24 81 25 16 26 17 27 18 28 19 29 20 30 21 31 22 32 23 33
REMARK SMILES IDX 24 34 76 35 25 36 75 37 26 38 27 39 28 40 69 41 29 42 74 43
REMARK SMILES IDX 68 44 70 45 30 46 73 47 67 48 66 49 31 51 57 52 40 53 56 54
REMARK SMILES IDX 41 55 44 56 55 57 71 58 42 59 43 60 54 62 72 63 45 64 32 65
REMARK SMILES IDX 33 66 38 67 34 68 35 69 37 70 39 71 36 72 58 73 59 74 64 75
REMARK SMILES IDX 60 76 61 77 63 78 65 79 62 80 46 81 47 82 52 83 48 84 49 85
REMARK SMILES IDX 51 86 53 87 50 88
REMARK H PARENT 85 17 70 50 44 61
REMARK Flexibility Score: inf
ROOT
ATOM      1  C   UNL A   1      36.620  22.762  25.804  1.00  0.00     0.188 C 
ENDROOT
BRANCH   1   2
ATOM      2  O   UNL A   1      36.202  21.408  25.849  1.00  0.00    -0.376 OA
BRANCH   2   3
ATOM      3  C   UNL A   1      35.082  21.037  25.056  1.00  0.00     0.202 C 
BRANCH   3   4
ATOM      4  C   UNL A   1      33.695  21.330  25.647  1.00  0.00     0.261 C 
BRANCH   4   5
ATOM      5  O   UNL A   1      32.987  22.336  24.893  1.00  0.00    -0.463 OA
BRANCH   5   6
ATOM      6  C   UNL A   1      32.911  23.574  25.443  1.00  0.00     0.316 C 
ATOM      7  O   UNL A   1      33.682  24.485  25.155  1.00  0.00    -0.251 OA
BRANCH   6   8
ATOM      8  C   UNL A   1      31.640  23.816  26.241  1.00  0.00     0.200 C 
BRANCH   8   9
ATOM      9  S   UNL A   1      30.525  25.076  25.712  1.00  0.00    -0.076 SA
BRANCH   9  10
ATOM     10  C   UNL A   1      31.231  26.685  25.483  1.00  0.00     0.172 A 
ATOM     11  C   UNL A   1      34.734  30.968  27.599  1.00  0.00     0.064 C 
ATOM     12  C   UNL A   1      34.049  29.832  26.923  1.00  0.00     0.014 A 
ATOM     13  C   UNL A   1      33.592  28.627  27.437  1.00  0.00     0.052 A 
ATOM     14  N   UNL A   1      33.691  29.869  25.586  1.00  0.00    -0.353 N 
ATOM     15  C   UNL A   1      32.821  28.035  26.424  1.00  0.00     0.097 A 
ATOM     16  C   UNL A   1      32.887  28.789  25.306  1.00  0.00     0.131 A 
ATOM     17  H   UNL A   1      33.967  30.558  24.939  1.00  0.00     0.166 HD
ATOM     18  N   UNL A   1      32.053  26.886  26.480  1.00  0.00    -0.222 NA
ATOM     19  C   UNL A   1      32.114  28.497  24.136  1.00  0.00     0.278 A 
ATOM     20  N   UNL A   1      31.086  27.537  24.358  1.00  0.00    -0.286 N 
ATOM     21  O   UNL A   1      32.298  29.068  23.080  1.00  0.00    -0.267 OA
BRANCH  20  22
ATOM     22  C   UNL A   1      30.066  27.498  23.256  1.00  0.00     0.131 C 
BRANCH  22  23
ATOM     23  C   UNL A   1      29.025  28.690  23.209  1.00  0.00     0.003 C 
ATOM     24  C   UNL A   1      29.032  29.594  21.954  1.00  0.00     0.009 C 
ATOM     25  C   UNL A   1      27.569  28.195  23.289  1.00  0.00     0.009 C 
ENDBRANCH  22  23
ENDBRANCH  20  22
ENDBRANCH   9  10
ENDBRANCH   8   9
ENDBRANCH   6   8
ENDBRANCH   5   6
ENDBRANCH   4   5
ENDBRANCH   3   4
ENDBRANCH   2   3
ENDBRANCH   1   2
BRANCH   1  26
ATOM     26  C   UNL A   1      38.115  23.115  25.716  1.00  0.00     0.188 C 
BRANCH  26  27
ATOM     27  O   UNL A   1      39.091  22.149  26.046  1.00  0.00    -0.376 OA
BRANCH  27  28
ATOM     28  C   UNL A   1      39.921  22.383  27.165  1.00  0.00     0.202 C 
BRANCH  28  29
ATOM     29  C   UNL A   1      41.007  23.428  26.992  1.00  0.00     0.261 C 
BRANCH  29  30
ATOM     30  O   UNL A   1      40.886  24.543  27.874  1.00  0.00    -0.460 OA
BRANCH  30  31
ATOM     31  C   UNL A   1      40.351  25.600  27.242  1.00  0.00     0.338 C 
ATOM     32  O   UNL A   1      40.668  26.059  26.155  1.00  0.00    -0.246 OA
BRANCH  31  33
ATOM     33  C   UNL A   1      39.461  26.343  28.114  1.00  0.00     0.060 A 
ATOM     34  C   UNL A   1      38.877  27.465  27.537  1.00  0.00     0.016 A 
ATOM     35  C   UNL A   1      39.654  26.234  29.485  1.00  0.00     0.016 A 
ATOM     36  C   UNL A   1      38.705  28.601  28.269  1.00  0.00     0.010 A 
ATOM     37  C   UNL A   1      39.469  27.370  30.239  1.00  0.00     0.010 A 
ATOM     38  C   UNL A   1      39.127  28.563  29.589  1.00  0.00    -0.014 A 
BRANCH  38  39
ATOM     39  C   UNL A   1      39.235  29.843  30.257  1.00  0.00     0.031 A 
ATOM     40  C   UNL A   1      40.603  30.419  30.239  1.00  0.00     0.074 A 
ATOM     41  C   UNL A   1      38.125  30.415  30.758  1.00  0.00     0.049 A 
ATOM     42  N   UNL A   1      41.292  30.891  31.225  1.00  0.00    -0.248 NA
ATOM     43  C   UNL A   1      41.358  30.299  28.977  1.00  0.00     0.031 C 
ATOM     44  C   UNL A   1      36.742  29.932  30.654  1.00  0.00     0.029 A 
ATOM     45  N   UNL A   1      37.971  31.639  31.319  1.00  0.00    -0.354 N 
ATOM     46  C   UNL A   1      42.494  31.311  30.663  1.00  0.00     0.074 A 
ATOM     47  C   UNL A   1      42.553  30.759  29.337  1.00  0.00     0.031 C 
ATOM     48  C   UNL A   1      35.900  30.968  30.851  1.00  0.00     0.029 A 
ATOM     49  C   UNL A   1      36.685  32.141  31.188  1.00  0.00     0.049 A 
ATOM     50  H   UNL A   1      38.698  32.123  31.774  1.00  0.00     0.167 HD
ATOM     51  C   UNL A   1      43.231  32.307  31.219  1.00  0.00     0.037 A 
ATOM     52  C   UNL A   1      36.342  33.451  31.204  1.00  0.00     0.037 A 
ATOM     53  C   UNL A   1      42.948  32.464  32.619  1.00  0.00     0.049 A 
ATOM     54  C   UNL A   1      37.477  34.198  31.809  1.00  0.00     0.074 A 
ATOM     55  C   UNL A   1      43.064  31.646  33.726  1.00  0.00     0.029 A 
ATOM     56  N   UNL A   1      42.141  33.507  33.004  1.00  0.00    -0.354 N 
ATOM     57  N   UNL A   1      37.808  34.114  33.068  1.00  0.00    -0.248 NA
ATOM     58  C   UNL A   1      38.536  34.667  30.922  1.00  0.00     0.031 C 
ATOM     59  C   UNL A   1      41.961  31.987  34.560  1.00  0.00     0.029 A 
ATOM     60  C   UNL A   1      41.258  33.014  33.929  1.00  0.00     0.049 A 
ATOM     61  H   UNL A   1      42.189  34.434  32.677  1.00  0.00     0.167 HD
ATOM     62  C   UNL A   1      39.198  34.110  33.076  1.00  0.00     0.074 A 
ATOM     63  C   UNL A   1      39.589  34.543  31.736  1.00  0.00     0.031 C 
ATOM     64  C   UNL A   1      39.898  33.474  34.061  1.00  0.00     0.037 A 
BRANCH  51  65
ATOM     65  C   UNL A   1      43.900  33.374  30.392  1.00  0.00     0.057 A 
ATOM     66  C   UNL A   1      45.298  33.465  30.204  1.00  0.00     0.134 A 
ATOM     67  C   UNL A   1      43.127  34.149  29.515  1.00  0.00     0.134 A 
ATOM     68  F   UNL A   1      46.171  32.722  30.893  1.00  0.00    -0.206 F 
ATOM     69  C   UNL A   1      45.880  34.255  29.213  1.00  0.00     0.040 A 
ATOM     70  C   UNL A   1      43.699  34.902  28.482  1.00  0.00     0.040 A 
ATOM     71  F   UNL A   1      41.788  34.134  29.583  1.00  0.00    -0.206 F 
ATOM     72  C   UNL A   1      45.079  34.950  28.323  1.00  0.00     0.006 A 
ENDBRANCH  51  65
BRANCH  52  73
ATOM     73  C   UNL A   1      35.242  34.095  30.448  1.00  0.00     0.057 A 
ATOM     74  C   UNL A   1      35.296  34.288  29.052  1.00  0.00     0.134 A 
ATOM     75  C   UNL A   1      34.181  34.725  31.108  1.00  0.00     0.134 A 
ATOM     76  F   UNL A   1      36.323  33.831  28.322  1.00  0.00    -0.206 F 
ATOM     77  C   UNL A   1      34.340  35.030  28.354  1.00  0.00     0.040 A 
ATOM     78  C   UNL A   1      33.226  35.490  30.422  1.00  0.00     0.040 A 
ATOM     79  F   UNL A   1      34.072  34.654  32.442  1.00  0.00    -0.206 F 
ATOM     80  C   UNL A   1      33.303  35.642  29.041  1.00  0.00     0.006 A 
ENDBRANCH  52  73
BRANCH  64  81
ATOM     81  C   UNL A   1      39.124  32.970  35.246  1.00  0.00     0.057 A 
ATOM     82  C   UNL A   1      39.013  33.776  36.382  1.00  0.00     0.134 A 
ATOM     83  C   UNL A   1      38.622  31.664  35.342  1.00  0.00     0.134 A 
ATOM     84  F   UNL A   1      39.535  35.013  36.389  1.00  0.00    -0.206 F 
ATOM     85  C   UNL A   1      38.410  33.314  37.554  1.00  0.00     0.040 A 
ATOM     86  C   UNL A   1      37.984  31.199  36.494  1.00  0.00     0.040 A 
ATOM     87  F   UNL A   1      38.791  30.784  34.347  1.00  0.00    -0.206 F 
ATOM     88  C   UNL A   1      37.880  32.026  37.609  1.00  0.00     0.006 A 
ENDBRANCH  64  81
ENDBRANCH  38  39
ENDBRANCH  31  33
ENDBRANCH  30  31
ENDBRANCH  29  30
ENDBRANCH  28  29
ENDBRANCH  27  28
ENDBRANCH  26  27
ENDBRANCH   1  26
TORSDOF 21
ENDMDL
MODEL 3
REMARK VINA RESULT:      -9.9      2.306      6.309
REMARK SMILES Cc1cc2nc(SCC(=O)OCCOCCOCCOC(=O)c3ccc(-c4c5nc(c(-c6c(F)cccc6F)c6ccc([nH]6)c(-c6c(F)cccc6F)c6nc(c(-c7c(F)cccc7F)c7ccc4[nH]7)C=C6)C=C5)cc3)n(CC(C)C)c(=O)c2[nH]1
REMARK SMILES IDX 15 1 14 2 13 3 12 4 11 5 9 6 10 7 8 8 7 9 6 10 1 11 2 12
REMARK SMILES IDX 3 13 85 14 4 15 84 16 5 18 82 19 77 20 83 21 78 22 79 23
REMARK SMILES IDX 80 24 81 25 16 26 17 27 18 28 19 29 20 30 21 31 22 32 23 33
REMARK SMILES IDX 24 34 76 35 25 36 75 37 26 38 27 39 28 40 69 41 29 42 74 43
REMARK SMILES IDX 68 44 70 45 30 46 73 47 67 48 66 49 31 51 57 52 40 53 56 54
REMARK SMILES IDX 41 55 44 56 55 57 71 58 42 59 43 60 54 62 72 63 45 64 32 65
REMARK SMILES IDX 33 66 38 67 34 68 35 69 37 70 39 71 36 72 58 73 59 74 64 75
REMARK SMILES IDX 60 76 61 77 63 78 65 79 62 80 46 81 47 82 52 83 48 84 49 85
REMARK SMILES IDX 51 86 53 87 50 88
REMARK H PARENT 85 17 70 50 44 61
REMARK Flexibility Score: inf
ROOT
ATOM      1  C   UNL A   1      38.097  22.428  25.781  1.00  0.00     0.188 C 
ENDROOT
BRANCH   1   2
ATOM      2  O   UNL A   1      36.764  21.964  25.650  1.00  0.00    -0.376 OA
BRANCH   2   3
ATOM      3  C   UNL A   1      35.736  22.730  26.267  1.00  0.00     0.202 C 
BRANCH   3   4
ATOM      4  C   UNL A   1      34.698  23.366  25.331  1.00  0.00     0.261 C 
BRANCH   4   5
ATOM      5  O   UNL A   1      33.857  24.313  26.022  1.00  0.00    -0.463 OA
BRANCH   5   6
ATOM      6  C   UNL A   1      32.553  23.972  26.183  1.00  0.00     0.316 C 
ATOM      7  O   UNL A   1      32.187  22.835  26.470  1.00  0.00    -0.251 OA
BRANCH   6   8
ATOM      8  C   UNL A   1      31.608  25.162  26.239  1.00  0.00     0.200 C 
BRANCH   8   9
ATOM      9  S   UNL A   1      30.398  25.354  24.971  1.00  0.00    -0.076 SA
BRANCH   9  10
ATOM     10  C   UNL A   1      30.676  26.682  23.832  1.00  0.00     0.172 A 
ATOM     11  C   UNL A   1      28.413  31.247  20.809  1.00  0.00     0.064 C 
ATOM     12  C   UNL A   1      29.067  30.274  21.726  1.00  0.00     0.014 A 
ATOM     13  C   UNL A   1      28.512  29.288  22.532  1.00  0.00     0.052 A 
ATOM     14  N   UNL A   1      30.443  30.179  21.852  1.00  0.00    -0.353 N 
ATOM     15  C   UNL A   1      29.586  28.514  23.000  1.00  0.00     0.097 A 
ATOM     16  C   UNL A   1      30.751  29.059  22.589  1.00  0.00     0.131 A 
ATOM     17  H   UNL A   1      31.096  30.812  21.475  1.00  0.00     0.166 HD
ATOM     18  N   UNL A   1      29.552  27.346  23.739  1.00  0.00    -0.222 NA
ATOM     19  C   UNL A   1      32.016  28.430  22.820  1.00  0.00     0.278 A 
ATOM     20  N   UNL A   1      31.909  27.078  23.255  1.00  0.00    -0.286 N 
ATOM     21  O   UNL A   1      33.069  28.996  22.605  1.00  0.00    -0.267 OA
BRANCH  20  22
ATOM     22  C   UNL A   1      33.202  26.321  23.152  1.00  0.00     0.131 C 
BRANCH  22  23
ATOM     23  C   UNL A   1      33.279  25.195  22.042  1.00  0.00     0.003 C 
ATOM     24  C   UNL A   1      32.684  23.810  22.389  1.00  0.00     0.009 C 
ATOM     25  C   UNL A   1      32.535  25.594  20.754  1.00  0.00     0.009 C 
ENDBRANCH  22  23
ENDBRANCH  20  22
ENDBRANCH   9  10
ENDBRANCH   8   9
ENDBRANCH   6   8
ENDBRANCH   5   6
ENDBRANCH   4   5
ENDBRANCH   3   4
ENDBRANCH   2   3
ENDBRANCH   1   2
BRANCH   1  26
ATOM     26  C   UNL A   1      39.251  21.433  25.995  1.00  0.00     0.188 C 
BRANCH  26  27
ATOM     27  O   UNL A   1      40.360  21.796  26.792  1.00  0.00    -0.376 OA
BRANCH  27  28
ATOM     28  C   UNL A   1      41.530  22.258  26.150  1.00  0.00     0.202 C 
BRANCH  28  29
ATOM     29  C   UNL A   1      41.983  23.663  26.502  1.00  0.00     0.261 C 
BRANCH  29  30
ATOM     30  O   UNL A   1      40.932  24.627  26.509  1.00  0.00    -0.460 OA
BRANCH  30  31
ATOM     31  C   UNL A   1      41.372  25.816  26.953  1.00  0.00     0.338 C 
ATOM     32  O   UNL A   1      42.500  26.276  26.862  1.00  0.00    -0.246 OA
BRANCH  31  33
ATOM     33  C   UNL A   1      40.392  26.459  27.807  1.00  0.00     0.060 A 
ATOM     34  C   UNL A   1      39.726  27.534  27.229  1.00  0.00     0.016 A 
ATOM     35  C   UNL A   1      40.550  26.341  29.182  1.00  0.00     0.016 A 
ATOM     36  C   UNL A   1      39.429  28.635  27.974  1.00  0.00     0.010 A 
ATOM     37  C   UNL A   1      40.240  27.441  29.948  1.00  0.00     0.010 A 
ATOM     38  C   UNL A   1      39.812  28.611  29.306  1.00  0.00    -0.014 A 
BRANCH  38  39
ATOM     39  C   UNL A   1      39.782  29.882  29.998  1.00  0.00     0.031 A 
ATOM     40  C   UNL A   1      41.095  30.572  30.048  1.00  0.00     0.074 A 
ATOM     41  C   UNL A   1      38.607  30.349  30.460  1.00  0.00     0.049 A 
ATOM     42  N   UNL A   1      41.700  31.081  31.070  1.00  0.00    -0.248 NA
ATOM     43  C   UNL A   1      41.909  30.541  28.818  1.00  0.00     0.031 C 
ATOM     44  C   UNL A   1      37.276  29.752  30.290  1.00  0.00     0.029 A 
ATOM     45  N   UNL A   1      38.326  31.543  31.033  1.00  0.00    -0.354 N 
ATOM     46  C   UNL A   1      42.884  31.612  30.567  1.00  0.00     0.074 A 
ATOM     47  C   UNL A   1      43.045  31.093  29.236  1.00  0.00     0.031 C 
ATOM     48  C   UNL A   1      36.341  30.709  30.467  1.00  0.00     0.029 A 
ATOM     49  C   UNL A   1      37.008  31.937  30.855  1.00  0.00     0.049 A 
ATOM     50  H   UNL A   1      38.989  32.078  31.526  1.00  0.00     0.167 HD
ATOM     51  C   UNL A   1      43.509  32.657  31.169  1.00  0.00     0.037 A 
ATOM     52  C   UNL A   1      36.554  33.213  30.876  1.00  0.00     0.037 A 
ATOM     53  C   UNL A   1      43.156  32.762  32.558  1.00  0.00     0.049 A 
ATOM     54  C   UNL A   1      37.596  34.042  31.542  1.00  0.00     0.074 A 
ATOM     55  C   UNL A   1      43.296  31.936  33.656  1.00  0.00     0.029 A 
ATOM     56  N   UNL A   1      42.248  33.725  32.924  1.00  0.00    -0.354 N 
ATOM     57  N   UNL A   1      37.880  33.962  32.812  1.00  0.00    -0.248 NA
ATOM     58  C   UNL A   1      38.647  34.616  30.708  1.00  0.00     0.031 C 
ATOM     59  C   UNL A   1      42.135  32.166  34.447  1.00  0.00     0.029 A 
ATOM     60  C   UNL A   1      41.373  33.142  33.803  1.00  0.00     0.049 A 
ATOM     61  H   UNL A   1      42.230  34.659  32.615  1.00  0.00     0.167 HD
ATOM     62  C   UNL A   1      39.263  34.075  32.879  1.00  0.00     0.074 A 
ATOM     63  C   UNL A   1      39.671  34.566  31.565  1.00  0.00     0.031 C 
ATOM     64  C   UNL A   1      39.974  33.482  33.883  1.00  0.00     0.037 A 
BRANCH  51  65
ATOM     65  C   UNL A   1      44.118  33.792  30.389  1.00  0.00     0.057 A 
ATOM     66  C   UNL A   1      45.510  33.994  30.246  1.00  0.00     0.134 A 
ATOM     67  C   UNL A   1      43.314  34.529  29.506  1.00  0.00     0.134 A 
ATOM     68  F   UNL A   1      46.417  33.302  30.945  1.00  0.00    -0.206 F 
ATOM     69  C   UNL A   1      46.059  34.851  29.293  1.00  0.00     0.040 A 
ATOM     70  C   UNL A   1      43.857  35.349  28.510  1.00  0.00     0.040 A 
ATOM     71  F   UNL A   1      41.978  34.410  29.532  1.00  0.00    -0.206 F 
ATOM     72  C   UNL A   1      45.233  35.506  28.395  1.00  0.00     0.006 A 
ENDBRANCH  51  65
BRANCH  52  73
ATOM     73  C   UNL A   1      35.436  33.776  30.084  1.00  0.00     0.057 A 
ATOM     74  C   UNL A   1      35.461  33.833  28.676  1.00  0.00     0.134 A 
ATOM     75  C   UNL A   1      34.384  34.463  30.702  1.00  0.00     0.134 A 
ATOM     76  F   UNL A   1      36.477  33.312  27.973  1.00  0.00    -0.206 F 
ATOM     77  C   UNL A   1      34.487  34.500  27.928  1.00  0.00     0.040 A 
ATOM     78  C   UNL A   1      33.411  35.154  29.965  1.00  0.00     0.040 A 
ATOM     79  F   UNL A   1      34.301  34.521  32.039  1.00  0.00    -0.206 F 
ATOM     80  C   UNL A   1      33.459  35.171  28.574  1.00  0.00     0.006 A 
ENDBRANCH  52  73
BRANCH  64  81
ATOM     81  C   UNL A   1      39.197  32.892  35.026  1.00  0.00     0.057 A 
ATOM     82  C   UNL A   1      38.985  33.658  36.176  1.00  0.00     0.134 A 
ATOM     83  C   UNL A   1      38.792  31.549  35.074  1.00  0.00     0.134 A 
ATOM     84  F   UNL A   1      39.411  34.930  36.230  1.00  0.00    -0.206 F 
ATOM     85  C   UNL A   1      38.376  33.122  37.312  1.00  0.00     0.040 A 
ATOM     86  C   UNL A   1      38.150  31.009  36.189  1.00  0.00     0.040 A 
ATOM     87  F   UNL A   1      39.063  30.710  34.066  1.00  0.00    -0.206 F 
ATOM     88  C   UNL A   1      37.943  31.797  37.318  1.00  0.00     0.006 A 
ENDBRANCH  64  81
ENDBRANCH  38  39
ENDBRANCH  31  33
ENDBRANCH  30  31
ENDBRANCH  29  30
ENDBRANCH  28  29
ENDBRANCH  27  28
ENDBRANCH  26  27
ENDBRANCH   1  26
TORSDOF 21
ENDMDL
