MODEL 1
REMARK VINA RESULT:     -10.3      0.000      0.000
REMARK SMILES O=C(OCCOCCOCCOC(=O)[C@@]1(c2ccccc2)CCCC[NH2+]1)c1ccc(-c2c3nc(c(-c4c(F)cccc4F)c4ccc([nH]4)c(-c4c(F)cccc4F)c4nc(c(-c5c(F)cccc5F)c5ccc2[nH]5)C=C4)C=C3)cc1
REMARK SMILES IDX 7 1 6 2 5 3 4 4 3 5 2 6 1 7 27 8 28 9 80 10 29 11 79 12
REMARK SMILES IDX 30 13 31 14 32 15 73 16 33 17 78 18 72 19 74 20 34 21 77 22
REMARK SMILES IDX 71 23 70 24 35 26 61 27 44 28 60 29 45 30 48 31 59 32 75 33
REMARK SMILES IDX 46 34 47 35 58 37 76 38 49 39 36 40 37 41 42 42 38 43 39 44
REMARK SMILES IDX 41 45 43 46 40 47 62 48 63 49 68 50 64 51 65 52 67 53 69 54
REMARK SMILES IDX 66 55 50 56 51 57 56 58 52 59 53 60 55 61 57 62 54 63 8 64
REMARK SMILES IDX 9 65 10 66 11 67 12 68 13 69 14 70 15 71 22 72 26 73 23 74
REMARK SMILES IDX 25 75 24 78 16 79 17 80 21 81 18 82 20 83 19 84
REMARK H PARENT 74 25 48 36 26 76 26 77
REMARK Flexibility Score: inf
ROOT
ATOM      1  C   UNL A   1      34.372  33.092  29.212  1.00  0.00     0.188 C 
ENDROOT
BRANCH   1   2
ATOM      2  O   UNL A   1      34.405  34.508  29.007  1.00  0.00    -0.376 OA
BRANCH   2   3
ATOM      3  C   UNL A   1      33.140  35.142  28.898  1.00  0.00     0.202 C 
BRANCH   3   4
ATOM      4  C   UNL A   1      32.949  36.467  29.645  1.00  0.00     0.261 C 
BRANCH   4   5
ATOM      5  O   UNL A   1      32.293  36.400  30.920  1.00  0.00    -0.460 OA
BRANCH   5   6
ATOM      6  C   UNL A   1      32.725  36.112  32.166  1.00  0.00     0.338 C 
ATOM      7  O   UNL A   1      32.183  36.701  33.103  1.00  0.00    -0.246 OA
BRANCH   6   8
ATOM      8  C   UNL A   1      33.840  35.171  32.502  1.00  0.00     0.060 A 
ATOM      9  C   UNL A   1      33.694  33.889  33.025  1.00  0.00     0.016 A 
ATOM     10  C   UNL A   1      35.157  35.645  32.289  1.00  0.00     0.016 A 
ATOM     11  C   UNL A   1      34.814  33.099  33.304  1.00  0.00     0.010 A 
ATOM     12  C   UNL A   1      36.287  34.869  32.589  1.00  0.00     0.010 A 
ATOM     13  C   UNL A   1      36.116  33.585  33.103  1.00  0.00    -0.014 A 
BRANCH  13  14
ATOM     14  C   UNL A   1      37.227  32.795  33.679  1.00  0.00     0.031 A 
ATOM     15  C   UNL A   1      37.903  31.839  32.748  1.00  0.00     0.074 A 
ATOM     16  C   UNL A   1      37.716  33.023  34.913  1.00  0.00     0.049 A 
ATOM     17  N   UNL A   1      39.019  31.181  32.897  1.00  0.00    -0.248 NA
ATOM     18  C   UNL A   1      37.216  31.594  31.467  1.00  0.00     0.031 C 
ATOM     19  C   UNL A   1      37.105  33.888  35.913  1.00  0.00     0.029 A 
ATOM     20  N   UNL A   1      38.884  32.613  35.508  1.00  0.00    -0.354 N 
ATOM     21  C   UNL A   1      39.150  30.419  31.746  1.00  0.00     0.074 A 
ATOM     22  C   UNL A   1      38.028  30.726  30.889  1.00  0.00     0.031 C 
ATOM     23  C   UNL A   1      37.972  34.087  36.918  1.00  0.00     0.029 A 
ATOM     24  C   UNL A   1      39.154  33.262  36.695  1.00  0.00     0.049 A 
ATOM     25  H   UNL A   1      39.472  31.924  35.124  1.00  0.00     0.167 HD
ATOM     26  C   UNL A   1      40.097  29.501  31.460  1.00  0.00     0.037 A 
ATOM     27  C   UNL A   1      40.229  33.182  37.507  1.00  0.00     0.037 A 
ATOM     28  C   UNL A   1      41.157  29.156  32.365  1.00  0.00     0.049 A 
ATOM     29  C   UNL A   1      41.287  32.168  37.155  1.00  0.00     0.074 A 
ATOM     30  C   UNL A   1      42.123  28.178  32.233  1.00  0.00     0.029 A 
ATOM     31  N   UNL A   1      41.369  29.773  33.592  1.00  0.00    -0.354 N 
ATOM     32  N   UNL A   1      41.389  31.419  36.081  1.00  0.00    -0.248 NA
ATOM     33  C   UNL A   1      42.340  31.932  38.153  1.00  0.00     0.031 C 
ATOM     34  C   UNL A   1      42.890  28.170  33.403  1.00  0.00     0.029 A 
ATOM     35  C   UNL A   1      42.443  29.187  34.234  1.00  0.00     0.049 A 
ATOM     36  H   UNL A   1      40.833  30.517  33.950  1.00  0.00     0.167 HD
ATOM     37  C   UNL A   1      42.489  30.599  36.288  1.00  0.00     0.074 A 
ATOM     38  C   UNL A   1      43.060  30.986  37.564  1.00  0.00     0.031 C 
ATOM     39  C   UNL A   1      42.970  29.596  35.513  1.00  0.00     0.037 A 
BRANCH  26  40
ATOM     40  C   UNL A   1      39.921  28.739  30.183  1.00  0.00     0.057 A 
ATOM     41  C   UNL A   1      39.191  27.546  30.117  1.00  0.00     0.134 A 
ATOM     42  C   UNL A   1      40.567  29.169  29.017  1.00  0.00     0.134 A 
ATOM     43  F   UNL A   1      38.590  27.055  31.211  1.00  0.00    -0.206 F 
ATOM     44  C   UNL A   1      39.134  26.792  28.943  1.00  0.00     0.040 A 
ATOM     45  C   UNL A   1      40.496  28.439  27.832  1.00  0.00     0.040 A 
ATOM     46  F   UNL A   1      41.302  30.292  29.020  1.00  0.00    -0.206 F 
ATOM     47  C   UNL A   1      39.784  27.241  27.795  1.00  0.00     0.006 A 
ENDBRANCH  26  40
BRANCH  27  48
ATOM     48  C   UNL A   1      40.335  34.008  38.746  1.00  0.00     0.057 A 
ATOM     49  C   UNL A   1      39.776  33.590  39.963  1.00  0.00     0.134 A 
ATOM     50  C   UNL A   1      40.974  35.256  38.745  1.00  0.00     0.134 A 
ATOM     51  F   UNL A   1      39.112  32.426  40.038  1.00  0.00    -0.206 F 
ATOM     52  C   UNL A   1      39.850  34.374  41.119  1.00  0.00     0.040 A 
ATOM     53  C   UNL A   1      41.092  36.030  39.902  1.00  0.00     0.040 A 
ATOM     54  F   UNL A   1      41.508  35.742  37.616  1.00  0.00    -0.206 F 
ATOM     55  C   UNL A   1      40.521  35.593  41.094  1.00  0.00     0.006 A 
ENDBRANCH  27  48
BRANCH  39  56
ATOM     56  C   UNL A   1      44.168  28.856  36.029  1.00  0.00     0.057 A 
ATOM     57  C   UNL A   1      44.043  27.672  36.765  1.00  0.00     0.134 A 
ATOM     58  C   UNL A   1      45.460  29.312  35.739  1.00  0.00     0.134 A 
ATOM     59  F   UNL A   1      42.832  27.189  37.081  1.00  0.00    -0.206 F 
ATOM     60  C   UNL A   1      45.166  26.977  37.217  1.00  0.00     0.040 A 
ATOM     61  C   UNL A   1      46.588  28.610  36.161  1.00  0.00     0.040 A 
ATOM     62  F   UNL A   1      45.643  30.433  35.026  1.00  0.00    -0.206 F 
ATOM     63  C   UNL A   1      46.443  27.444  36.909  1.00  0.00     0.006 A 
ENDBRANCH  39  56
ENDBRANCH  13  14
ENDBRANCH   6   8
ENDBRANCH   5   6
ENDBRANCH   4   5
ENDBRANCH   3   4
ENDBRANCH   2   3
ENDBRANCH   1   2
BRANCH   1  64
ATOM     64  C   UNL A   1      34.114  32.341  27.899  1.00  0.00     0.188 C 
BRANCH  64  65
ATOM     65  O   UNL A   1      33.952  30.923  27.988  1.00  0.00    -0.376 OA
BRANCH  65  66
ATOM     66  C   UNL A   1      32.940  30.332  27.181  1.00  0.00     0.202 C 
BRANCH  66  67
ATOM     67  C   UNL A   1      33.372  29.710  25.848  1.00  0.00     0.261 C 
BRANCH  67  68
ATOM     68  O   UNL A   1      32.291  29.510  24.934  1.00  0.00    -0.458 OA
BRANCH  68  69
ATOM     69  C   UNL A   1      32.556  28.838  23.782  1.00  0.00     0.373 C 
ATOM     70  O   UNL A   1      33.553  29.048  23.086  1.00  0.00    -0.244 OA
BRANCH  69  71
ATOM     71  C   UNL A   1      31.365  27.898  23.343  1.00  0.00     0.219 C 
ATOM     72  C   UNL A   1      31.609  26.992  22.127  1.00  0.00     0.087 C 
ATOM     73  N   UNL A   1      31.079  26.973  24.482  1.00  0.00    -0.328 N 
ATOM     74  C   UNL A   1      32.714  25.978  22.297  1.00  0.00     0.013 C 
ATOM     75  C   UNL A   1      32.262  26.195  24.859  1.00  0.00     0.261 C 
ATOM     76  H   UNL A   1      30.334  26.333  24.208  1.00  0.00     0.347 HD
ATOM     77  H   UNL A   1      30.800  27.537  25.286  1.00  0.00     0.347 HD
ATOM     78  C   UNL A   1      33.019  25.515  23.716  1.00  0.00     0.062 C 
BRANCH  71  79
ATOM     79  C   UNL A   1      30.114  28.724  22.946  1.00  0.00     0.024 A 
ATOM     80  C   UNL A   1      28.824  28.276  23.291  1.00  0.00     0.011 A 
ATOM     81  C   UNL A   1      30.210  29.827  22.075  1.00  0.00     0.011 A 
ATOM     82  C   UNL A   1      27.681  28.892  22.774  1.00  0.00     0.001 A 
ATOM     83  C   UNL A   1      29.067  30.458  21.579  1.00  0.00     0.001 A 
ATOM     84  C   UNL A   1      27.805  29.984  21.919  1.00  0.00     0.000 A 
ENDBRANCH  71  79
ENDBRANCH  69  71
ENDBRANCH  68  69
ENDBRANCH  67  68
ENDBRANCH  66  67
ENDBRANCH  65  66
ENDBRANCH  64  65
ENDBRANCH   1  64
TORSDOF 18
ENDMDL
MODEL 2
REMARK VINA RESULT:     -10.2      3.513      8.597
REMARK SMILES O=C(OCCOCCOCCOC(=O)[C@@]1(c2ccccc2)CCCC[NH2+]1)c1ccc(-c2c3nc(c(-c4c(F)cccc4F)c4ccc([nH]4)c(-c4c(F)cccc4F)c4nc(c(-c5c(F)cccc5F)c5ccc2[nH]5)C=C4)C=C3)cc1
REMARK SMILES IDX 7 1 6 2 5 3 4 4 3 5 2 6 1 7 27 8 28 9 80 10 29 11 79 12
REMARK SMILES IDX 30 13 31 14 32 15 73 16 33 17 78 18 72 19 74 20 34 21 77 22
REMARK SMILES IDX 71 23 70 24 35 26 61 27 44 28 60 29 45 30 48 31 59 32 75 33
REMARK SMILES IDX 46 34 47 35 58 37 76 38 49 39 36 40 37 41 42 42 38 43 39 44
REMARK SMILES IDX 41 45 43 46 40 47 62 48 63 49 68 50 64 51 65 52 67 53 69 54
REMARK SMILES IDX 66 55 50 56 51 57 56 58 52 59 53 60 55 61 57 62 54 63 8 64
REMARK SMILES IDX 9 65 10 66 11 67 12 68 13 69 14 70 15 71 22 72 26 73 23 74
REMARK SMILES IDX 25 75 24 78 16 79 17 80 21 81 18 82 20 83 19 84
REMARK H PARENT 74 25 48 36 26 76 26 77
REMARK Flexibility Score: inf
ROOT
ATOM      1  C   UNL A   1      33.637  27.746  23.210  1.00  0.00     0.188 C 
ENDROOT
BRANCH   1   2
ATOM      2  O   UNL A   1      33.676  28.386  24.490  1.00  0.00    -0.376 OA
BRANCH   2   3
ATOM      3  C   UNL A   1      32.421  28.542  25.136  1.00  0.00     0.202 C 
BRANCH   3   4
ATOM      4  C   UNL A   1      31.969  29.971  25.458  1.00  0.00     0.261 C 
BRANCH   4   5
ATOM      5  O   UNL A   1      32.257  30.455  26.779  1.00  0.00    -0.460 OA
BRANCH   5   6
ATOM      6  C   UNL A   1      33.179  31.313  27.267  1.00  0.00     0.338 C 
ATOM      7  O   UNL A   1      32.861  32.501  27.344  1.00  0.00    -0.246 OA
BRANCH   6   8
ATOM      8  C   UNL A   1      34.571  30.950  27.678  1.00  0.00     0.060 A 
ATOM      9  C   UNL A   1      35.059  29.656  27.849  1.00  0.00     0.016 A 
ATOM     10  C   UNL A   1      35.458  32.023  27.938  1.00  0.00     0.016 A 
ATOM     11  C   UNL A   1      36.384  29.438  28.241  1.00  0.00     0.010 A 
ATOM     12  C   UNL A   1      36.781  31.814  28.355  1.00  0.00     0.010 A 
ATOM     13  C   UNL A   1      37.249  30.511  28.511  1.00  0.00    -0.014 A 
BRANCH  13  14
ATOM     14  C   UNL A   1      38.531  30.191  29.179  1.00  0.00     0.031 A 
ATOM     15  C   UNL A   1      38.643  30.600  30.613  1.00  0.00     0.074 A 
ATOM     16  C   UNL A   1      39.484  29.438  28.596  1.00  0.00     0.049 A 
ATOM     17  N   UNL A   1      39.537  30.274  31.504  1.00  0.00    -0.248 NA
ATOM     18  C   UNL A   1      37.593  31.509  31.106  1.00  0.00     0.031 C 
ATOM     19  C   UNL A   1      39.498  29.034  27.198  1.00  0.00     0.029 A 
ATOM     20  N   UNL A   1      40.582  28.808  29.128  1.00  0.00    -0.354 N 
ATOM     21  C   UNL A   1      39.178  30.964  32.651  1.00  0.00     0.074 A 
ATOM     22  C   UNL A   1      37.963  31.690  32.362  1.00  0.00     0.031 C 
ATOM     23  C   UNL A   1      40.438  28.093  27.016  1.00  0.00     0.029 A 
ATOM     24  C   UNL A   1      41.180  27.917  28.259  1.00  0.00     0.049 A 
ATOM     25  H   UNL A   1      40.911  28.974  30.041  1.00  0.00     0.167 HD
ATOM     26  C   UNL A   1      39.840  31.027  33.826  1.00  0.00     0.037 A 
ATOM     27  C   UNL A   1      42.215  27.073  28.453  1.00  0.00     0.037 A 
ATOM     28  C   UNL A   1      41.089  30.359  34.061  1.00  0.00     0.049 A 
ATOM     29  C   UNL A   1      42.924  27.142  29.781  1.00  0.00     0.074 A 
ATOM     30  C   UNL A   1      41.906  30.418  35.173  1.00  0.00     0.029 A 
ATOM     31  N   UNL A   1      41.713  29.522  33.144  1.00  0.00    -0.354 N 
ATOM     32  N   UNL A   1      42.603  27.826  30.855  1.00  0.00    -0.248 NA
ATOM     33  C   UNL A   1      44.176  26.382  29.906  1.00  0.00     0.031 C 
ATOM     34  C   UNL A   1      43.049  29.656  34.909  1.00  0.00     0.029 A 
ATOM     35  C   UNL A   1      42.913  29.069  33.659  1.00  0.00     0.049 A 
ATOM     36  H   UNL A   1      41.354  29.287  32.257  1.00  0.00     0.167 HD
ATOM     37  C   UNL A   1      43.627  27.611  31.767  1.00  0.00     0.074 A 
ATOM     38  C   UNL A   1      44.549  26.683  31.142  1.00  0.00     0.031 C 
ATOM     39  C   UNL A   1      43.809  28.154  32.996  1.00  0.00     0.037 A 
BRANCH  26  40
ATOM     40  C   UNL A   1      39.276  31.952  34.859  1.00  0.00     0.057 A 
ATOM     41  C   UNL A   1      38.418  31.507  35.873  1.00  0.00     0.134 A 
ATOM     42  C   UNL A   1      39.531  33.327  34.781  1.00  0.00     0.134 A 
ATOM     43  F   UNL A   1      38.095  30.209  35.971  1.00  0.00    -0.206 F 
ATOM     44  C   UNL A   1      37.812  32.403  36.758  1.00  0.00     0.040 A 
ATOM     45  C   UNL A   1      38.953  34.228  35.675  1.00  0.00     0.040 A 
ATOM     46  F   UNL A   1      40.325  33.819  33.818  1.00  0.00    -0.206 F 
ATOM     47  C   UNL A   1      38.083  33.766  36.661  1.00  0.00     0.006 A 
ENDBRANCH  26  40
BRANCH  27  48
ATOM     48  C   UNL A   1      42.688  26.158  27.372  1.00  0.00     0.057 A 
ATOM     49  C   UNL A   1      43.565  26.595  26.368  1.00  0.00     0.134 A 
ATOM     50  C   UNL A   1      42.257  24.827  27.294  1.00  0.00     0.134 A 
ATOM     51  F   UNL A   1      43.992  27.866  26.348  1.00  0.00    -0.206 F 
ATOM     52  C   UNL A   1      43.989  25.748  25.337  1.00  0.00     0.040 A 
ATOM     53  C   UNL A   1      42.705  23.959  26.296  1.00  0.00     0.040 A 
ATOM     54  F   UNL A   1      41.395  24.340  28.199  1.00  0.00    -0.206 F 
ATOM     55  C   UNL A   1      43.569  24.421  25.308  1.00  0.00     0.006 A 
ENDBRANCH  27  48
BRANCH  39  56
ATOM     56  C   UNL A   1      45.049  27.752  33.737  1.00  0.00     0.057 A 
ATOM     57  C   UNL A   1      46.235  28.490  33.645  1.00  0.00     0.134 A 
ATOM     58  C   UNL A   1      45.036  26.642  34.590  1.00  0.00     0.134 A 
ATOM     59  F   UNL A   1      46.313  29.560  32.838  1.00  0.00    -0.206 F 
ATOM     60  C   UNL A   1      47.376  28.122  34.360  1.00  0.00     0.040 A 
ATOM     61  C   UNL A   1      46.160  26.282  35.330  1.00  0.00     0.040 A 
ATOM     62  F   UNL A   1      43.924  25.904  34.729  1.00  0.00    -0.206 F 
ATOM     63  C   UNL A   1      47.337  27.019  35.210  1.00  0.00     0.006 A 
ENDBRANCH  39  56
ENDBRANCH  13  14
ENDBRANCH   6   8
ENDBRANCH   5   6
ENDBRANCH   4   5
ENDBRANCH   3   4
ENDBRANCH   2   3
ENDBRANCH   1   2
BRANCH   1  64
ATOM     64  C   UNL A   1      33.410  26.234  23.345  1.00  0.00     0.188 C 
BRANCH  64  65
ATOM     65  O   UNL A   1      33.832  25.418  22.248  1.00  0.00    -0.376 OA
BRANCH  65  66
ATOM     66  C   UNL A   1      32.931  24.410  21.805  1.00  0.00     0.202 C 
BRANCH  66  67
ATOM     67  C   UNL A   1      32.208  23.587  22.878  1.00  0.00     0.261 C 
BRANCH  67  68
ATOM     68  O   UNL A   1      32.801  22.308  23.112  1.00  0.00    -0.458 OA
BRANCH  68  69
ATOM     69  C   UNL A   1      33.602  22.174  24.203  1.00  0.00     0.373 C 
ATOM     70  O   UNL A   1      34.670  22.775  24.341  1.00  0.00    -0.244 OA
BRANCH  69  71
ATOM     71  C   UNL A   1      33.105  21.037  25.180  1.00  0.00     0.219 C 
ATOM     72  C   UNL A   1      33.845  20.902  26.519  1.00  0.00     0.087 C 
ATOM     73  N   UNL A   1      31.685  21.337  25.535  1.00  0.00    -0.328 N 
ATOM     74  C   UNL A   1      33.753  22.105  27.425  1.00  0.00     0.013 C 
ATOM     75  C   UNL A   1      31.547  22.662  26.145  1.00  0.00     0.261 C 
ATOM     76  H   UNL A   1      31.353  20.632  26.194  1.00  0.00     0.347 HD
ATOM     77  H   UNL A   1      31.133  21.323  24.677  1.00  0.00     0.347 HD
ATOM     78  C   UNL A   1      32.525  22.995  27.273  1.00  0.00     0.062 C 
BRANCH  71  79
ATOM     79  C   UNL A   1      33.252  19.636  24.533  1.00  0.00     0.024 A 
ATOM     80  C   UNL A   1      34.412  18.866  24.750  1.00  0.00     0.011 A 
ATOM     81  C   UNL A   1      32.335  19.174  23.569  1.00  0.00     0.011 A 
ATOM     82  C   UNL A   1      34.653  17.699  24.021  1.00  0.00     0.001 A 
ATOM     83  C   UNL A   1      32.565  17.993  22.859  1.00  0.00     0.001 A 
ATOM     84  C   UNL A   1      33.728  17.262  23.077  1.00  0.00     0.000 A 
ENDBRANCH  71  79
ENDBRANCH  69  71
ENDBRANCH  68  69
ENDBRANCH  67  68
ENDBRANCH  66  67
ENDBRANCH  65  66
ENDBRANCH  64  65
ENDBRANCH   1  64
TORSDOF 18
ENDMDL
MODEL 3
REMARK VINA RESULT:     -10.2      4.035      8.785
REMARK SMILES O=C(OCCOCCOCCOC(=O)[C@@]1(c2ccccc2)CCCC[NH2+]1)c1ccc(-c2c3nc(c(-c4c(F)cccc4F)c4ccc([nH]4)c(-c4c(F)cccc4F)c4nc(c(-c5c(F)cccc5F)c5ccc2[nH]5)C=C4)C=C3)cc1
REMARK SMILES IDX 7 1 6 2 5 3 4 4 3 5 2 6 1 7 27 8 28 9 80 10 29 11 79 12
REMARK SMILES IDX 30 13 31 14 32 15 73 16 33 17 78 18 72 19 74 20 34 21 77 22
REMARK SMILES IDX 71 23 70 24 35 26 61 27 44 28 60 29 45 30 48 31 59 32 75 33
REMARK SMILES IDX 46 34 47 35 58 37 76 38 49 39 36 40 37 41 42 42 38 43 39 44
REMARK SMILES IDX 41 45 43 46 40 47 62 48 63 49 68 50 64 51 65 52 67 53 69 54
REMARK SMILES IDX 66 55 50 56 51 57 56 58 52 59 53 60 55 61 57 62 54 63 8 64
REMARK SMILES IDX 9 65 10 66 11 67 12 68 13 69 14 70 15 71 22 72 26 73 23 74
REMARK SMILES IDX 25 75 24 78 16 79 17 80 21 81 18 82 20 83 19 84
REMARK H PARENT 74 25 48 36 26 76 26 77
REMARK Flexibility Score: inf
ROOT
ATOM      1  C   UNL A   1      39.648  21.756  26.560  1.00  0.00     0.188 C 
ENDROOT
BRANCH   1   2
ATOM      2  O   UNL A   1      40.637  20.722  26.561  1.00  0.00    -0.376 OA
BRANCH   2   3
ATOM      3  C   UNL A   1      41.954  21.133  26.894  1.00  0.00     0.202 C 
BRANCH   3   4
ATOM      4  C   UNL A   1      42.851  21.615  25.747  1.00  0.00     0.261 C 
BRANCH   4   5
ATOM      5  O   UNL A   1      42.554  22.908  25.197  1.00  0.00    -0.460 OA
BRANCH   5   6
ATOM      6  C   UNL A   1      43.119  24.125  25.344  1.00  0.00     0.338 C 
ATOM      7  O   UNL A   1      44.088  24.389  24.630  1.00  0.00    -0.246 OA
BRANCH   6   8
ATOM      8  C   UNL A   1      42.696  25.164  26.335  1.00  0.00     0.060 A 
ATOM      9  C   UNL A   1      43.191  26.464  26.415  1.00  0.00     0.016 A 
ATOM     10  C   UNL A   1      41.725  24.775  27.289  1.00  0.00     0.016 A 
ATOM     11  C   UNL A   1      42.721  27.349  27.390  1.00  0.00     0.010 A 
ATOM     12  C   UNL A   1      41.265  25.649  28.285  1.00  0.00     0.010 A 
ATOM     13  C   UNL A   1      41.767  26.947  28.340  1.00  0.00    -0.014 A 
BRANCH  13  14
ATOM     14  C   UNL A   1      41.538  27.852  29.489  1.00  0.00     0.031 A 
ATOM     15  C   UNL A   1      40.321  28.717  29.408  1.00  0.00     0.074 A 
ATOM     16  C   UNL A   1      42.276  27.796  30.614  1.00  0.00     0.049 A 
ATOM     17  N   UNL A   1      39.750  29.440  30.332  1.00  0.00    -0.248 NA
ATOM     18  C   UNL A   1      39.657  28.774  28.092  1.00  0.00     0.031 C 
ATOM     19  C   UNL A   1      43.504  27.032  30.777  1.00  0.00     0.029 A 
ATOM     20  N   UNL A   1      42.056  28.329  31.860  1.00  0.00    -0.354 N 
ATOM     21  C   UNL A   1      38.684  30.062  29.702  1.00  0.00     0.074 A 
ATOM     22  C   UNL A   1      38.656  29.602  28.333  1.00  0.00     0.031 C 
ATOM     23  C   UNL A   1      43.836  26.996  32.077  1.00  0.00     0.029 A 
ATOM     24  C   UNL A   1      42.913  27.841  32.826  1.00  0.00     0.049 A 
ATOM     25  H   UNL A   1      41.355  28.994  32.048  1.00  0.00     0.167 HD
ATOM     26  C   UNL A   1      37.838  30.981  30.213  1.00  0.00     0.037 A 
ATOM     27  C   UNL A   1      42.947  28.069  34.156  1.00  0.00     0.037 A 
ATOM     28  C   UNL A   1      37.937  31.482  31.555  1.00  0.00     0.049 A 
ATOM     29  C   UNL A   1      41.977  29.080  34.709  1.00  0.00     0.074 A 
ATOM     30  C   UNL A   1      37.202  32.480  32.163  1.00  0.00     0.029 A 
ATOM     31  N   UNL A   1      38.858  31.028  32.492  1.00  0.00    -0.354 N 
ATOM     32  N   UNL A   1      40.990  29.698  34.101  1.00  0.00    -0.248 NA
ATOM     33  C   UNL A   1      42.164  29.484  36.110  1.00  0.00     0.031 C 
ATOM     34  C   UNL A   1      37.710  32.665  33.453  1.00  0.00     0.029 A 
ATOM     35  C   UNL A   1      38.718  31.736  33.671  1.00  0.00     0.049 A 
ATOM     36  H   UNL A   1      39.513  30.309  32.339  1.00  0.00     0.167 HD
ATOM     37  C   UNL A   1      40.465  30.586  35.028  1.00  0.00     0.074 A 
ATOM     38  C   UNL A   1      41.202  30.383  36.261  1.00  0.00     0.031 C 
ATOM     39  C   UNL A   1      39.484  31.510  34.872  1.00  0.00     0.037 A 
BRANCH  26  40
ATOM     40  C   UNL A   1      36.846  31.574  29.261  1.00  0.00     0.057 A 
ATOM     41  C   UNL A   1      36.965  32.881  28.773  1.00  0.00     0.134 A 
ATOM     42  C   UNL A   1      35.705  30.847  28.897  1.00  0.00     0.134 A 
ATOM     43  F   UNL A   1      38.009  33.647  29.125  1.00  0.00    -0.206 F 
ATOM     44  C   UNL A   1      35.970  33.454  27.977  1.00  0.00     0.040 A 
ATOM     45  C   UNL A   1      34.718  31.399  28.081  1.00  0.00     0.040 A 
ATOM     46  F   UNL A   1      35.520  29.598  29.351  1.00  0.00    -0.206 F 
ATOM     47  C   UNL A   1      34.845  32.710  27.626  1.00  0.00     0.006 A 
ENDBRANCH  26  40
BRANCH  27  48
ATOM     48  C   UNL A   1      43.954  27.404  35.035  1.00  0.00     0.057 A 
ATOM     49  C   UNL A   1      45.212  27.975  35.280  1.00  0.00     0.134 A 
ATOM     50  C   UNL A   1      43.700  26.163  35.636  1.00  0.00     0.134 A 
ATOM     51  F   UNL A   1      45.548  29.142  34.709  1.00  0.00    -0.206 F 
ATOM     52  C   UNL A   1      46.168  27.341  36.082  1.00  0.00     0.040 A 
ATOM     53  C   UNL A   1      44.629  25.539  36.472  1.00  0.00     0.040 A 
ATOM     54  F   UNL A   1      42.533  25.537  35.428  1.00  0.00    -0.206 F 
ATOM     55  C   UNL A   1      45.872  26.125  36.692  1.00  0.00     0.006 A 
ENDBRANCH  27  48
BRANCH  39  56
ATOM     56  C   UNL A   1      39.159  32.360  36.062  1.00  0.00     0.057 A 
ATOM     57  C   UNL A   1      38.282  31.925  37.064  1.00  0.00     0.134 A 
ATOM     58  C   UNL A   1      39.771  33.609  36.229  1.00  0.00     0.134 A 
ATOM     59  F   UNL A   1      37.658  30.742  36.957  1.00  0.00    -0.206 F 
ATOM     60  C   UNL A   1      38.007  32.714  38.181  1.00  0.00     0.040 A 
ATOM     61  C   UNL A   1      39.526  34.393  37.355  1.00  0.00     0.040 A 
ATOM     62  F   UNL A   1      40.630  34.073  35.310  1.00  0.00    -0.206 F 
ATOM     63  C   UNL A   1      38.636  33.949  38.331  1.00  0.00     0.006 A 
ENDBRANCH  39  56
ENDBRANCH  13  14
ENDBRANCH   6   8
ENDBRANCH   5   6
ENDBRANCH   4   5
ENDBRANCH   3   4
ENDBRANCH   2   3
ENDBRANCH   1   2
BRANCH   1  64
ATOM     64  C   UNL A   1      38.504  21.439  25.587  1.00  0.00     0.188 C 
BRANCH  64  65
ATOM     65  O   UNL A   1      37.361  22.298  25.634  1.00  0.00    -0.376 OA
BRANCH  65  66
ATOM     66  C   UNL A   1      36.085  21.689  25.470  1.00  0.00     0.202 C 
BRANCH  66  67
ATOM     67  C   UNL A   1      34.994  22.051  26.484  1.00  0.00     0.261 C 
BRANCH  67  68
ATOM     68  O   UNL A   1      34.561  23.411  26.397  1.00  0.00    -0.458 OA
BRANCH  68  69
ATOM     69  C   UNL A   1      33.229  23.639  26.244  1.00  0.00     0.373 C 
ATOM     70  O   UNL A   1      32.355  22.973  26.805  1.00  0.00    -0.244 OA
BRANCH  69  71
ATOM     71  C   UNL A   1      32.926  24.724  25.136  1.00  0.00     0.219 C 
ATOM     72  C   UNL A   1      33.985  24.908  24.039  1.00  0.00     0.087 C 
ATOM     73  N   UNL A   1      31.680  24.305  24.425  1.00  0.00    -0.328 N 
ATOM     74  C   UNL A   1      34.231  23.693  23.178  1.00  0.00     0.013 C 
ATOM     75  C   UNL A   1      31.813  22.968  23.840  1.00  0.00     0.261 C 
ATOM     76  H   UNL A   1      31.484  24.974  23.681  1.00  0.00     0.347 HD
ATOM     77  H   UNL A   1      30.919  24.280  25.105  1.00  0.00     0.347 HD
ATOM     78  C   UNL A   1      33.080  22.707  23.024  1.00  0.00     0.062 C 
BRANCH  71  79
ATOM     79  C   UNL A   1      32.785  26.137  25.757  1.00  0.00     0.024 A 
ATOM     80  C   UNL A   1      33.879  27.027  25.764  1.00  0.00     0.011 A 
ATOM     81  C   UNL A   1      31.643  26.504  26.494  1.00  0.00     0.011 A 
ATOM     82  C   UNL A   1      33.837  28.219  26.490  1.00  0.00     0.001 A 
ATOM     83  C   UNL A   1      31.593  27.709  27.200  1.00  0.00     0.001 A 
ATOM     84  C   UNL A   1      32.693  28.559  27.207  1.00  0.00     0.000 A 
ENDBRANCH  71  79
ENDBRANCH  69  71
ENDBRANCH  68  69
ENDBRANCH  67  68
ENDBRANCH  66  67
ENDBRANCH  65  66
ENDBRANCH  64  65
ENDBRANCH   1  64
TORSDOF 18
ENDMDL
