MODEL 1
REMARK VINA RESULT:     -12.2      0.000      0.000
REMARK SMILES Cc1nccn1C1(C(=O)OCCOCCOCCOC(=O)c2ccc(-c3c4nc(c(-c5c(F)cccc5F)c5ccc([nH]5)c(-c5c(F)cccc5F)c5nc(c(-c6c(F)cccc6F)c6ccc3[nH]6)C=C5)C=C4)cc2)CCN(C(=O)[C@@H]2C[C@H]2c2ccccc2)CC1
REMARK SMILES IDX 14 1 13 2 12 3 11 4 10 5 8 6 9 7 7 8 76 9 91 10 77 11 90 12
REMARK SMILES IDX 78 13 79 14 80 15 6 16 1 17 2 18 3 19 4 20 5 21 81 22 82 23
REMARK SMILES IDX 83 24 84 25 85 26 89 27 86 28 88 29 87 30 15 31 16 32 17 33
REMARK SMILES IDX 18 34 19 35 20 36 21 37 22 38 23 39 75 40 24 41 74 42 25 43
REMARK SMILES IDX 26 44 27 45 68 46 28 47 73 48 67 49 69 50 29 51 72 52 66 53
REMARK SMILES IDX 65 54 30 56 56 57 39 58 55 59 40 60 43 61 54 62 70 63 41 64
REMARK SMILES IDX 42 65 53 67 71 68 44 69 31 70 32 71 37 72 33 73 34 74 36 75
REMARK SMILES IDX 38 76 35 77 57 78 58 79 63 80 59 81 60 82 62 83 64 84 61 85
REMARK SMILES IDX 45 86 46 87 51 88 47 89 48 90 50 91 52 92 49 93
REMARK H PARENT 69 55 43 66
REMARK Flexibility Score: inf
ROOT
ATOM      1  C   UNL A   1      34.266  31.334  27.630  1.00  0.00     0.188 C 
ENDROOT
BRANCH   1   2
ATOM      2  O   UNL A   1      33.605  30.586  26.609  1.00  0.00    -0.376 OA
BRANCH   2   3
ATOM      3  C   UNL A   1      32.314  30.075  26.949  1.00  0.00     0.202 C 
BRANCH   3   4
ATOM      4  C   UNL A   1      32.241  28.562  27.243  1.00  0.00     0.261 C 
BRANCH   4   5
ATOM      5  O   UNL A   1      31.272  27.849  26.434  1.00  0.00    -0.461 OA
BRANCH   5   6
ATOM      6  C   UNL A   1      31.486  26.527  26.186  1.00  0.00     0.332 C 
ATOM      7  O   UNL A   1      31.346  25.666  27.052  1.00  0.00    -0.249 OA
BRANCH   6   8
ATOM      8  C   UNL A   1      31.892  26.195  24.690  1.00  0.00     0.146 C 
ATOM      9  C   UNL A   1      33.454  26.178  24.582  1.00  0.00     0.062 C 
ATOM     10  C   UNL A   1      31.298  24.773  24.502  1.00  0.00     0.062 C 
ATOM     11  C   UNL A   1      34.121  25.092  23.722  1.00  0.00     0.122 C 
ATOM     12  C   UNL A   1      31.925  24.089  23.319  1.00  0.00     0.122 C 
ATOM     13  N   UNL A   1      33.325  23.876  23.604  1.00  0.00    -0.342 N 
ATOM     14  C   UNL A   1      33.977  22.644  23.658  1.00  0.00     0.226 C 
ATOM     15  O   UNL A   1      35.191  22.567  23.479  1.00  0.00    -0.275 OA
BRANCH   8  16
ATOM     16  N   UNL A   1      31.215  27.144  23.739  1.00  0.00    -0.318 N 
ATOM     17  C   UNL A   1      28.613  26.690  23.803  1.00  0.00     0.087 C 
ATOM     18  C   UNL A   1      29.879  27.322  23.348  1.00  0.00     0.106 A 
ATOM     19  N   UNL A   1      29.774  28.300  22.464  1.00  0.00    -0.242 NA
ATOM     20  C   UNL A   1      30.997  28.850  22.331  1.00  0.00     0.131 A 
ATOM     21  C   UNL A   1      31.892  28.188  23.121  1.00  0.00     0.108 A 
ENDBRANCH   8  16
BRANCH  14  22
ATOM     22  C   UNL A   1      33.284  21.384  24.074  1.00  0.00     0.087 C 
ATOM     23  C   UNL A   1      32.626  21.263  25.426  1.00  0.00     0.023 C 
ATOM     24  C   UNL A   1      33.742  20.330  25.049  1.00  0.00     0.032 C 
BRANCH  24  25
ATOM     25  C   UNL A   1      33.598  18.863  24.800  1.00  0.00    -0.044 A 
ATOM     26  C   UNL A   1      32.502  18.180  25.350  1.00  0.00     0.004 A 
ATOM     27  C   UNL A   1      34.678  18.104  24.323  1.00  0.00     0.004 A 
ATOM     28  C   UNL A   1      32.524  16.796  25.512  1.00  0.00     0.000 A 
ATOM     29  C   UNL A   1      34.701  16.717  24.478  1.00  0.00     0.000 A 
ATOM     30  C   UNL A   1      33.635  16.068  25.098  1.00  0.00     0.000 A 
ENDBRANCH  24  25
ENDBRANCH  14  22
ENDBRANCH   6   8
ENDBRANCH   5   6
ENDBRANCH   4   5
ENDBRANCH   3   4
ENDBRANCH   2   3
ENDBRANCH   1   2
BRANCH   1  31
ATOM     31  C   UNL A   1      33.587  32.652  28.015  1.00  0.00     0.188 C 
BRANCH  31  32
ATOM     32  O   UNL A   1      34.484  33.580  28.616  1.00  0.00    -0.376 OA
BRANCH  32  33
ATOM     33  C   UNL A   1      34.284  34.985  28.482  1.00  0.00     0.202 C 
BRANCH  33  34
ATOM     34  C   UNL A   1      33.232  35.666  29.356  1.00  0.00     0.261 C 
BRANCH  34  35
ATOM     35  O   UNL A   1      32.882  34.967  30.546  1.00  0.00    -0.460 OA
BRANCH  35  36
ATOM     36  C   UNL A   1      33.025  35.553  31.753  1.00  0.00     0.338 C 
ATOM     37  O   UNL A   1      32.405  36.481  32.224  1.00  0.00    -0.246 OA
BRANCH  36  38
ATOM     38  C   UNL A   1      34.085  34.789  32.434  1.00  0.00     0.060 A 
ATOM     39  C   UNL A   1      35.160  35.499  32.963  1.00  0.00     0.016 A 
ATOM     40  C   UNL A   1      34.069  33.381  32.392  1.00  0.00     0.016 A 
ATOM     41  C   UNL A   1      36.334  34.812  33.172  1.00  0.00     0.010 A 
ATOM     42  C   UNL A   1      35.232  32.697  32.600  1.00  0.00     0.010 A 
ATOM     43  C   UNL A   1      36.368  33.449  32.860  1.00  0.00    -0.014 A 
BRANCH  43  44
ATOM     44  C   UNL A   1      37.650  32.839  32.615  1.00  0.00     0.031 A 
ATOM     45  C   UNL A   1      38.564  32.810  33.764  1.00  0.00     0.074 A 
ATOM     46  C   UNL A   1      37.888  32.230  31.439  1.00  0.00     0.049 A 
ATOM     47  N   UNL A   1      39.676  33.448  33.896  1.00  0.00    -0.248 NA
ATOM     48  C   UNL A   1      38.133  32.075  34.962  1.00  0.00     0.031 C 
ATOM     49  C   UNL A   1      36.935  31.905  30.371  1.00  0.00     0.029 A 
ATOM     50  N   UNL A   1      39.042  31.671  30.999  1.00  0.00    -0.354 N 
ATOM     51  C   UNL A   1      40.188  33.042  35.121  1.00  0.00     0.074 A 
ATOM     52  C   UNL A   1      39.123  32.358  35.807  1.00  0.00     0.031 C 
ATOM     53  C   UNL A   1      37.509  31.025  29.519  1.00  0.00     0.029 A 
ATOM     54  C   UNL A   1      38.891  30.817  29.918  1.00  0.00     0.049 A 
ATOM     55  H   UNL A   1      39.915  31.855  31.414  1.00  0.00     0.167 HD
ATOM     56  C   UNL A   1      41.523  33.069  35.369  1.00  0.00     0.037 A 
ATOM     57  C   UNL A   1      39.827  29.947  29.466  1.00  0.00     0.037 A 
ATOM     58  C   UNL A   1      42.222  33.915  34.435  1.00  0.00     0.049 A 
ATOM     59  C   UNL A   1      41.138  30.376  30.029  1.00  0.00     0.074 A 
ATOM     60  C   UNL A   1      42.115  35.245  34.069  1.00  0.00     0.029 A 
ATOM     61  N   UNL A   1      42.955  33.316  33.439  1.00  0.00    -0.354 N 
ATOM     62  N   UNL A   1      41.777  31.451  29.661  1.00  0.00    -0.248 NA
ATOM     63  C   UNL A   1      41.522  29.842  31.330  1.00  0.00     0.031 C 
ATOM     64  C   UNL A   1      42.359  35.265  32.665  1.00  0.00     0.029 A 
ATOM     65  C   UNL A   1      42.641  33.958  32.268  1.00  0.00     0.049 A 
ATOM     66  H   UNL A   1      43.588  32.568  33.546  1.00  0.00     0.167 HD
ATOM     67  C   UNL A   1      42.328  31.960  30.829  1.00  0.00     0.074 A 
ATOM     68  C   UNL A   1      42.216  30.880  31.806  1.00  0.00     0.031 C 
ATOM     69  C   UNL A   1      42.552  33.298  30.987  1.00  0.00     0.037 A 
BRANCH  56  70
ATOM     70  C   UNL A   1      42.221  32.055  36.231  1.00  0.00     0.057 A 
ATOM     71  C   UNL A   1      43.048  32.494  37.275  1.00  0.00     0.134 A 
ATOM     72  C   UNL A   1      42.326  30.684  35.913  1.00  0.00     0.134 A 
ATOM     73  F   UNL A   1      43.061  33.785  37.645  1.00  0.00    -0.206 F 
ATOM     74  C   UNL A   1      43.948  31.642  37.923  1.00  0.00     0.040 A 
ATOM     75  C   UNL A   1      43.177  29.812  36.593  1.00  0.00     0.040 A 
ATOM     76  F   UNL A   1      41.695  30.138  34.865  1.00  0.00    -0.206 F 
ATOM     77  C   UNL A   1      44.015  30.296  37.583  1.00  0.00     0.006 A 
ENDBRANCH  56  70
BRANCH  57  78
ATOM     78  C   UNL A   1      39.633  28.626  28.824  1.00  0.00     0.057 A 
ATOM     79  C   UNL A   1      40.138  28.373  27.540  1.00  0.00     0.134 A 
ATOM     80  C   UNL A   1      39.181  27.501  29.536  1.00  0.00     0.134 A 
ATOM     81  F   UNL A   1      40.630  29.372  26.791  1.00  0.00    -0.206 F 
ATOM     82  C   UNL A   1      40.215  27.079  27.009  1.00  0.00     0.040 A 
ATOM     83  C   UNL A   1      39.237  26.206  29.013  1.00  0.00     0.040 A 
ATOM     84  F   UNL A   1      38.748  27.603  30.801  1.00  0.00    -0.206 F 
ATOM     85  C   UNL A   1      39.771  25.989  27.750  1.00  0.00     0.006 A 
ENDBRANCH  57  78
BRANCH  69  86
ATOM     86  C   UNL A   1      42.418  34.181  29.778  1.00  0.00     0.057 A 
ATOM     87  C   UNL A   1      41.223  34.816  29.405  1.00  0.00     0.134 A 
ATOM     88  C   UNL A   1      43.567  34.527  29.058  1.00  0.00     0.134 A 
ATOM     89  F   UNL A   1      40.095  34.634  30.102  1.00  0.00    -0.206 F 
ATOM     90  C   UNL A   1      41.165  35.712  28.333  1.00  0.00     0.040 A 
ATOM     91  C   UNL A   1      43.531  35.449  28.009  1.00  0.00     0.040 A 
ATOM     92  F   UNL A   1      44.759  34.010  29.397  1.00  0.00    -0.206 F 
ATOM     93  C   UNL A   1      42.324  36.036  27.636  1.00  0.00     0.006 A 
ENDBRANCH  69  86
ENDBRANCH  43  44
ENDBRANCH  36  38
ENDBRANCH  35  36
ENDBRANCH  34  35
ENDBRANCH  33  34
ENDBRANCH  32  33
ENDBRANCH  31  32
ENDBRANCH   1  31
TORSDOF 20
ENDMDL
MODEL 2
REMARK VINA RESULT:     -12.1      5.149     10.772
REMARK SMILES Cc1nccn1C1(C(=O)OCCOCCOCCOC(=O)c2ccc(-c3c4nc(c(-c5c(F)cccc5F)c5ccc([nH]5)c(-c5c(F)cccc5F)c5nc(c(-c6c(F)cccc6F)c6ccc3[nH]6)C=C5)C=C4)cc2)CCN(C(=O)[C@@H]2C[C@H]2c2ccccc2)CC1
REMARK SMILES IDX 14 1 13 2 12 3 11 4 10 5 8 6 9 7 7 8 76 9 91 10 77 11 90 12
REMARK SMILES IDX 78 13 79 14 80 15 6 16 1 17 2 18 3 19 4 20 5 21 81 22 82 23
REMARK SMILES IDX 83 24 84 25 85 26 89 27 86 28 88 29 87 30 15 31 16 32 17 33
REMARK SMILES IDX 18 34 19 35 20 36 21 37 22 38 23 39 75 40 24 41 74 42 25 43
REMARK SMILES IDX 26 44 27 45 68 46 28 47 73 48 67 49 69 50 29 51 72 52 66 53
REMARK SMILES IDX 65 54 30 56 56 57 39 58 55 59 40 60 43 61 54 62 70 63 41 64
REMARK SMILES IDX 42 65 53 67 71 68 44 69 31 70 32 71 37 72 33 73 34 74 36 75
REMARK SMILES IDX 38 76 35 77 57 78 58 79 63 80 59 81 60 82 62 83 64 84 61 85
REMARK SMILES IDX 45 86 46 87 51 88 47 89 48 90 50 91 52 92 49 93
REMARK H PARENT 69 55 43 66
REMARK Flexibility Score: inf
ROOT
ATOM      1  C   UNL A   1      38.576  21.654  25.914  1.00  0.00     0.188 C 
ENDROOT
BRANCH   1   2
ATOM      2  O   UNL A   1      38.158  22.762  25.117  1.00  0.00    -0.376 OA
BRANCH   2   3
ATOM      3  C   UNL A   1      37.615  23.874  25.833  1.00  0.00     0.202 C 
BRANCH   3   4
ATOM      4  C   UNL A   1      36.078  24.006  25.813  1.00  0.00     0.261 C 
BRANCH   4   5
ATOM      5  O   UNL A   1      35.375  22.739  25.876  1.00  0.00    -0.461 OA
BRANCH   5   6
ATOM      6  C   UNL A   1      34.646  22.350  24.794  1.00  0.00     0.332 C 
ATOM      7  O   UNL A   1      35.149  22.202  23.682  1.00  0.00    -0.249 OA
BRANCH   6   8
ATOM      8  C   UNL A   1      33.115  22.072  25.097  1.00  0.00     0.146 C 
ATOM      9  C   UNL A   1      32.752  22.699  26.485  1.00  0.00     0.062 C 
ATOM     10  C   UNL A   1      32.414  22.829  23.936  1.00  0.00     0.062 C 
ATOM     11  C   UNL A   1      31.400  23.415  26.640  1.00  0.00     0.122 C 
ATOM     12  C   UNL A   1      30.964  23.064  24.256  1.00  0.00     0.122 C 
ATOM     13  N   UNL A   1      30.886  23.959  25.388  1.00  0.00    -0.342 N 
ATOM     14  C   UNL A   1      30.276  25.212  25.407  1.00  0.00     0.226 C 
ATOM     15  O   UNL A   1      29.880  25.704  26.463  1.00  0.00    -0.275 OA
BRANCH   8  16
ATOM     16  N   UNL A   1      32.815  20.603  24.982  1.00  0.00    -0.318 N 
ATOM     17  C   UNL A   1      32.184  20.063  22.474  1.00  0.00     0.087 C 
ATOM     18  C   UNL A   1      32.399  19.787  23.919  1.00  0.00     0.106 A 
ATOM     19  N   UNL A   1      32.260  18.533  24.315  1.00  0.00    -0.242 NA
ATOM     20  C   UNL A   1      32.675  18.471  25.596  1.00  0.00     0.131 A 
ATOM     21  C   UNL A   1      33.050  19.712  26.023  1.00  0.00     0.108 A 
ENDBRANCH   8  16
BRANCH  14  22
ATOM     22  C   UNL A   1      30.194  26.087  24.194  1.00  0.00     0.087 C 
ATOM     23  C   UNL A   1      31.438  26.652  23.553  1.00  0.00     0.023 C 
ATOM     24  C   UNL A   1      30.382  27.578  24.090  1.00  0.00     0.032 C 
BRANCH  24  25
ATOM     25  C   UNL A   1      29.503  28.461  23.263  1.00  0.00    -0.044 A 
ATOM     26  C   UNL A   1      30.015  29.675  22.777  1.00  0.00     0.004 A 
ATOM     27  C   UNL A   1      28.112  28.273  23.239  1.00  0.00     0.004 A 
ATOM     28  C   UNL A   1      29.165  30.704  22.376  1.00  0.00     0.000 A 
ATOM     29  C   UNL A   1      27.259  29.300  22.832  1.00  0.00     0.000 A 
ATOM     30  C   UNL A   1      27.786  30.524  22.428  1.00  0.00     0.000 A 
ENDBRANCH  24  25
ENDBRANCH  14  22
ENDBRANCH   6   8
ENDBRANCH   5   6
ENDBRANCH   4   5
ENDBRANCH   3   4
ENDBRANCH   2   3
ENDBRANCH   1   2
BRANCH   1  31
ATOM     31  C   UNL A   1      40.089  21.540  26.127  1.00  0.00     0.188 C 
BRANCH  31  32
ATOM     32  O   UNL A   1      40.436  20.582  27.122  1.00  0.00    -0.376 OA
BRANCH  32  33
ATOM     33  C   UNL A   1      41.785  20.155  27.290  1.00  0.00     0.202 C 
BRANCH  33  34
ATOM     34  C   UNL A   1      42.344  19.091  26.348  1.00  0.00     0.261 C 
BRANCH  34  35
ATOM     35  O   UNL A   1      42.815  19.572  25.094  1.00  0.00    -0.460 OA
BRANCH  35  36
ATOM     36  C   UNL A   1      44.137  19.606  24.824  1.00  0.00     0.338 C 
ATOM     37  O   UNL A   1      44.878  18.687  24.552  1.00  0.00    -0.246 OA
BRANCH  36  38
ATOM     38  C   UNL A   1      44.509  21.030  24.875  1.00  0.00     0.060 A 
ATOM     39  C   UNL A   1      45.678  21.371  25.550  1.00  0.00     0.016 A 
ATOM     40  C   UNL A   1      43.614  22.005  24.394  1.00  0.00     0.016 A 
ATOM     41  C   UNL A   1      45.797  22.666  26.000  1.00  0.00     0.010 A 
ATOM     42  C   UNL A   1      43.729  23.290  24.839  1.00  0.00     0.010 A 
ATOM     43  C   UNL A   1      44.751  23.557  25.738  1.00  0.00    -0.014 A 
BRANCH  43  44
ATOM     44  C   UNL A   1      44.625  24.723  26.574  1.00  0.00     0.031 A 
ATOM     45  C   UNL A   1      45.746  25.670  26.508  1.00  0.00     0.074 A 
ATOM     46  C   UNL A   1      43.478  24.950  27.241  1.00  0.00     0.049 A 
ATOM     47  N   UNL A   1      46.588  25.953  27.442  1.00  0.00    -0.248 NA
ATOM     48  C   UNL A   1      46.041  26.291  25.208  1.00  0.00     0.031 C 
ATOM     49  C   UNL A   1      42.192  24.256  27.103  1.00  0.00     0.029 A 
ATOM     50  N   UNL A   1      43.199  25.940  28.123  1.00  0.00    -0.354 N 
ATOM     51  C   UNL A   1      47.407  26.939  26.910  1.00  0.00     0.074 A 
ATOM     52  C   UNL A   1      47.151  26.970  25.493  1.00  0.00     0.031 C 
ATOM     53  C   UNL A   1      41.229  24.986  27.712  1.00  0.00     0.029 A 
ATOM     54  C   UNL A   1      41.848  26.125  28.370  1.00  0.00     0.049 A 
ATOM     55  H   UNL A   1      43.898  26.483  28.552  1.00  0.00     0.167 HD
ATOM     56  C   UNL A   1      48.041  27.834  27.711  1.00  0.00     0.037 A 
ATOM     57  C   UNL A   1      41.302  27.198  28.994  1.00  0.00     0.037 A 
ATOM     58  C   UNL A   1      48.094  27.382  29.078  1.00  0.00     0.049 A 
ATOM     59  C   UNL A   1      42.398  27.886  29.730  1.00  0.00     0.074 A 
ATOM     60  C   UNL A   1      48.588  26.253  29.703  1.00  0.00     0.029 A 
ATOM     61  N   UNL A   1      47.246  27.968  29.988  1.00  0.00    -0.354 N 
ATOM     62  N   UNL A   1      42.983  27.406  30.793  1.00  0.00    -0.248 NA
ATOM     63  C   UNL A   1      43.155  28.907  29.015  1.00  0.00     0.031 C 
ATOM     64  C   UNL A   1      47.654  25.962  30.740  1.00  0.00     0.029 A 
ATOM     65  C   UNL A   1      46.673  26.953  30.711  1.00  0.00     0.049 A 
ATOM     66  H   UNL A   1      47.083  28.933  30.101  1.00  0.00     0.167 HD
ATOM     67  C   UNL A   1      44.322  27.746  30.651  1.00  0.00     0.074 A 
ATOM     68  C   UNL A   1      44.352  28.746  29.588  1.00  0.00     0.031 C 
ATOM     69  C   UNL A   1      45.312  26.977  31.193  1.00  0.00     0.037 A 
BRANCH  56  70
ATOM     70  C   UNL A   1      48.291  29.262  27.313  1.00  0.00     0.057 A 
ATOM     71  C   UNL A   1      49.582  29.796  27.446  1.00  0.00     0.134 A 
ATOM     72  C   UNL A   1      47.271  30.204  27.061  1.00  0.00     0.134 A 
ATOM     73  F   UNL A   1      50.629  29.002  27.721  1.00  0.00    -0.206 F 
ATOM     74  C   UNL A   1      49.832  31.170  27.381  1.00  0.00     0.040 A 
ATOM     75  C   UNL A   1      47.517  31.571  26.933  1.00  0.00     0.040 A 
ATOM     76  F   UNL A   1      45.975  29.869  27.029  1.00  0.00    -0.206 F 
ATOM     77  C   UNL A   1      48.797  32.064  27.123  1.00  0.00     0.006 A 
ENDBRANCH  56  70
BRANCH  57  78
ATOM     78  C   UNL A   1      39.978  27.824  28.775  1.00  0.00     0.057 A 
ATOM     79  C   UNL A   1      39.022  27.856  29.800  1.00  0.00     0.134 A 
ATOM     80  C   UNL A   1      39.702  28.631  27.656  1.00  0.00     0.134 A 
ATOM     81  F   UNL A   1      39.206  27.152  30.927  1.00  0.00    -0.206 F 
ATOM     82  C   UNL A   1      37.877  28.660  29.730  1.00  0.00     0.040 A 
ATOM     83  C   UNL A   1      38.556  29.427  27.566  1.00  0.00     0.040 A 
ATOM     84  F   UNL A   1      40.575  28.746  26.645  1.00  0.00    -0.206 F 
ATOM     85  C   UNL A   1      37.646  29.457  28.613  1.00  0.00     0.006 A 
ENDBRANCH  57  78
BRANCH  69  86
ATOM     86  C   UNL A   1      44.914  25.891  32.154  1.00  0.00     0.057 A 
ATOM     87  C   UNL A   1      44.561  24.592  31.759  1.00  0.00     0.134 A 
ATOM     88  C   UNL A   1      45.043  26.119  33.528  1.00  0.00     0.134 A 
ATOM     89  F   UNL A   1      44.520  24.249  30.465  1.00  0.00    -0.206 F 
ATOM     90  C   UNL A   1      44.298  23.582  32.689  1.00  0.00     0.040 A 
ATOM     91  C   UNL A   1      44.819  25.110  34.467  1.00  0.00     0.040 A 
ATOM     92  F   UNL A   1      45.439  27.320  33.981  1.00  0.00    -0.206 F 
ATOM     93  C   UNL A   1      44.433  23.839  34.049  1.00  0.00     0.006 A 
ENDBRANCH  69  86
ENDBRANCH  43  44
ENDBRANCH  36  38
ENDBRANCH  35  36
ENDBRANCH  34  35
ENDBRANCH  33  34
ENDBRANCH  32  33
ENDBRANCH  31  32
ENDBRANCH   1  31
TORSDOF 20
ENDMDL
MODEL 3
REMARK VINA RESULT:     -11.3      2.778      8.470
REMARK SMILES Cc1nccn1C1(C(=O)OCCOCCOCCOC(=O)c2ccc(-c3c4nc(c(-c5c(F)cccc5F)c5ccc([nH]5)c(-c5c(F)cccc5F)c5nc(c(-c6c(F)cccc6F)c6ccc3[nH]6)C=C5)C=C4)cc2)CCN(C(=O)[C@@H]2C[C@H]2c2ccccc2)CC1
REMARK SMILES IDX 14 1 13 2 12 3 11 4 10 5 8 6 9 7 7 8 76 9 91 10 77 11 90 12
REMARK SMILES IDX 78 13 79 14 80 15 6 16 1 17 2 18 3 19 4 20 5 21 81 22 82 23
REMARK SMILES IDX 83 24 84 25 85 26 89 27 86 28 88 29 87 30 15 31 16 32 17 33
REMARK SMILES IDX 18 34 19 35 20 36 21 37 22 38 23 39 75 40 24 41 74 42 25 43
REMARK SMILES IDX 26 44 27 45 68 46 28 47 73 48 67 49 69 50 29 51 72 52 66 53
REMARK SMILES IDX 65 54 30 56 56 57 39 58 55 59 40 60 43 61 54 62 70 63 41 64
REMARK SMILES IDX 42 65 53 67 71 68 44 69 31 70 32 71 37 72 33 73 34 74 36 75
REMARK SMILES IDX 38 76 35 77 57 78 58 79 63 80 59 81 60 82 62 83 64 84 61 85
REMARK SMILES IDX 45 86 46 87 51 88 47 89 48 90 50 91 52 92 49 93
REMARK H PARENT 69 55 43 66
REMARK Flexibility Score: inf
ROOT
ATOM      1  C   UNL A   1      39.860  20.505  26.011  1.00  0.00     0.188 C 
ENDROOT
BRANCH   1   2
ATOM      2  O   UNL A   1      38.603  20.482  25.333  1.00  0.00    -0.376 OA
BRANCH   2   3
ATOM      3  C   UNL A   1      37.791  21.647  25.489  1.00  0.00     0.202 C 
BRANCH   3   4
ATOM      4  C   UNL A   1      36.834  21.965  24.320  1.00  0.00     0.261 C 
BRANCH   4   5
ATOM      5  O   UNL A   1      35.935  23.073  24.578  1.00  0.00    -0.461 OA
BRANCH   5   6
ATOM      6  C   UNL A   1      34.818  23.192  23.807  1.00  0.00     0.332 C 
ATOM      7  O   UNL A   1      34.875  23.374  22.593  1.00  0.00    -0.249 OA
BRANCH   6   8
ATOM      8  C   UNL A   1      33.453  23.041  24.598  1.00  0.00     0.146 C 
ATOM      9  C   UNL A   1      33.586  23.763  25.981  1.00  0.00     0.062 C 
ATOM     10  C   UNL A   1      32.456  23.783  23.668  1.00  0.00     0.062 C 
ATOM     11  C   UNL A   1      32.393  24.581  26.503  1.00  0.00     0.122 C 
ATOM     12  C   UNL A   1      31.199  24.138  24.412  1.00  0.00     0.122 C 
ATOM     13  N   UNL A   1      31.533  25.094  25.442  1.00  0.00    -0.342 N 
ATOM     14  C   UNL A   1      31.026  26.387  25.562  1.00  0.00     0.226 C 
ATOM     15  O   UNL A   1      31.015  26.960  26.651  1.00  0.00    -0.275 OA
BRANCH   8  16
ATOM     16  N   UNL A   1      33.058  21.592  24.691  1.00  0.00    -0.318 N 
ATOM     17  C   UNL A   1      32.029  20.847  22.375  1.00  0.00     0.087 C 
ATOM     18  C   UNL A   1      32.442  20.704  23.795  1.00  0.00     0.106 A 
ATOM     19  N   UNL A   1      32.294  19.510  24.344  1.00  0.00    -0.242 NA
ATOM     20  C   UNL A   1      32.892  19.549  25.551  1.00  0.00     0.131 A 
ATOM     21  C   UNL A   1      33.396  20.797  25.779  1.00  0.00     0.108 A 
ENDBRANCH   8  16
BRANCH  14  22
ATOM     22  C   UNL A   1      30.605  27.201  24.378  1.00  0.00     0.087 C 
ATOM     23  C   UNL A   1      31.609  27.669  23.354  1.00  0.00     0.023 C 
ATOM     24  C   UNL A   1      30.799  28.673  24.125  1.00  0.00     0.032 C 
BRANCH  24  25
ATOM     25  C   UNL A   1      29.737  29.554  23.549  1.00  0.00    -0.044 A 
ATOM     26  C   UNL A   1      29.214  29.256  22.281  1.00  0.00     0.004 A 
ATOM     27  C   UNL A   1      29.492  30.829  24.083  1.00  0.00     0.004 A 
ATOM     28  C   UNL A   1      28.557  30.228  21.528  1.00  0.00     0.000 A 
ATOM     29  C   UNL A   1      28.828  31.802  23.334  1.00  0.00     0.000 A 
ATOM     30  C   UNL A   1      28.387  31.508  22.046  1.00  0.00     0.000 A 
ENDBRANCH  24  25
ENDBRANCH  14  22
ENDBRANCH   6   8
ENDBRANCH   5   6
ENDBRANCH   4   5
ENDBRANCH   3   4
ENDBRANCH   2   3
ENDBRANCH   1   2
BRANCH   1  31
ATOM     31  C   UNL A   1      40.045  21.661  26.999  1.00  0.00     0.188 C 
BRANCH  31  32
ATOM     32  O   UNL A   1      40.725  22.773  26.427  1.00  0.00    -0.376 OA
BRANCH  32  33
ATOM     33  C   UNL A   1      42.106  22.694  26.086  1.00  0.00     0.202 C 
BRANCH  33  34
ATOM     34  C   UNL A   1      42.797  23.931  25.517  1.00  0.00     0.261 C 
BRANCH  34  35
ATOM     35  O   UNL A   1      42.552  25.144  26.221  1.00  0.00    -0.460 OA
BRANCH  35  36
ATOM     36  C   UNL A   1      42.333  26.295  25.550  1.00  0.00     0.338 C 
ATOM     37  O   UNL A   1      42.787  26.649  24.484  1.00  0.00    -0.246 OA
BRANCH  36  38
ATOM     38  C   UNL A   1      41.363  27.044  26.367  1.00  0.00     0.060 A 
ATOM     39  C   UNL A   1      41.213  28.404  26.112  1.00  0.00     0.016 A 
ATOM     40  C   UNL A   1      40.744  26.419  27.468  1.00  0.00     0.016 A 
ATOM     41  C   UNL A   1      40.694  29.186  27.119  1.00  0.00     0.010 A 
ATOM     42  C   UNL A   1      40.229  27.192  28.467  1.00  0.00     0.010 A 
ATOM     43  C   UNL A   1      40.336  28.567  28.320  1.00  0.00    -0.014 A 
BRANCH  43  44
ATOM     44  C   UNL A   1      40.254  29.379  29.507  1.00  0.00     0.031 A 
ATOM     45  C   UNL A   1      39.037  30.192  29.632  1.00  0.00     0.074 A 
ATOM     46  C   UNL A   1      41.189  29.258  30.468  1.00  0.00     0.049 A 
ATOM     47  N   UNL A   1      38.947  31.477  29.592  1.00  0.00    -0.248 NA
ATOM     48  C   UNL A   1      37.748  29.488  29.690  1.00  0.00     0.031 C 
ATOM     49  C   UNL A   1      42.239  28.240  30.594  1.00  0.00     0.029 A 
ATOM     50  N   UNL A   1      41.322  29.979  31.608  1.00  0.00    -0.354 N 
ATOM     51  C   UNL A   1      37.606  31.756  29.817  1.00  0.00     0.074 A 
ATOM     52  C   UNL A   1      36.895  30.512  29.680  1.00  0.00     0.031 C 
ATOM     53  C   UNL A   1      42.751  28.288  31.846  1.00  0.00     0.029 A 
ATOM     54  C   UNL A   1      42.148  29.401  32.559  1.00  0.00     0.049 A 
ATOM     55  H   UNL A   1      40.869  30.840  31.749  1.00  0.00     0.167 HD
ATOM     56  C   UNL A   1      37.215  32.940  30.356  1.00  0.00     0.037 A 
ATOM     57  C   UNL A   1      42.237  29.779  33.858  1.00  0.00     0.037 A 
ATOM     58  C   UNL A   1      38.249  33.939  30.257  1.00  0.00     0.049 A 
ATOM     59  C   UNL A   1      41.655  31.146  33.961  1.00  0.00     0.074 A 
ATOM     60  C   UNL A   1      38.964  34.487  29.208  1.00  0.00     0.029 A 
ATOM     61  N   UNL A   1      38.954  34.259  31.393  1.00  0.00    -0.354 N 
ATOM     62  N   UNL A   1      42.215  32.221  33.479  1.00  0.00    -0.248 NA
ATOM     63  C   UNL A   1      40.222  31.254  34.209  1.00  0.00     0.031 C 
ATOM     64  C   UNL A   1      40.284  34.673  29.715  1.00  0.00     0.029 A 
ATOM     65  C   UNL A   1      40.283  34.268  31.049  1.00  0.00     0.049 A 
ATOM     66  H   UNL A   1      38.577  34.447  32.283  1.00  0.00     0.167 HD
ATOM     67  C   UNL A   1      41.166  32.980  32.978  1.00  0.00     0.074 A 
ATOM     68  C   UNL A   1      39.959  32.379  33.539  1.00  0.00     0.031 C 
ATOM     69  C   UNL A   1      41.344  33.834  31.927  1.00  0.00     0.037 A 
BRANCH  56  70
ATOM     70  C   UNL A   1      36.037  33.075  31.281  1.00  0.00     0.057 A 
ATOM     71  C   UNL A   1      35.010  33.975  30.958  1.00  0.00     0.134 A 
ATOM     72  C   UNL A   1      35.999  32.560  32.595  1.00  0.00     0.134 A 
ATOM     73  F   UNL A   1      34.961  34.556  29.749  1.00  0.00    -0.206 F 
ATOM     74  C   UNL A   1      34.044  34.370  31.889  1.00  0.00     0.040 A 
ATOM     75  C   UNL A   1      35.005  32.902  33.513  1.00  0.00     0.040 A 
ATOM     76  F   UNL A   1      36.972  31.787  33.093  1.00  0.00    -0.206 F 
ATOM     77  C   UNL A   1      34.039  33.833  33.172  1.00  0.00     0.006 A 
ENDBRANCH  56  70
BRANCH  57  78
ATOM     78  C   UNL A   1      42.524  28.947  35.049  1.00  0.00     0.057 A 
ATOM     79  C   UNL A   1      41.905  27.700  35.218  1.00  0.00     0.134 A 
ATOM     80  C   UNL A   1      43.593  29.223  35.921  1.00  0.00     0.134 A 
ATOM     81  F   UNL A   1      40.900  27.324  34.414  1.00  0.00    -0.206 F 
ATOM     82  C   UNL A   1      42.340  26.773  36.174  1.00  0.00     0.040 A 
ATOM     83  C   UNL A   1      44.028  28.313  36.890  1.00  0.00     0.040 A 
ATOM     84  F   UNL A   1      44.314  30.347  35.809  1.00  0.00    -0.206 F 
ATOM     85  C   UNL A   1      43.411  27.076  37.009  1.00  0.00     0.006 A 
ENDBRANCH  57  78
BRANCH  69  86
ATOM     86  C   UNL A   1      42.751  34.118  31.481  1.00  0.00     0.057 A 
ATOM     87  C   UNL A   1      43.430  33.359  30.515  1.00  0.00     0.134 A 
ATOM     88  C   UNL A   1      43.382  35.286  31.924  1.00  0.00     0.134 A 
ATOM     89  F   UNL A   1      42.861  32.287  29.951  1.00  0.00    -0.206 F 
ATOM     90  C   UNL A   1      44.700  33.718  30.052  1.00  0.00     0.040 A 
ATOM     91  C   UNL A   1      44.634  35.676  31.442  1.00  0.00     0.040 A 
ATOM     92  F   UNL A   1      42.766  36.097  32.800  1.00  0.00    -0.206 F 
ATOM     93  C   UNL A   1      45.302  34.884  30.512  1.00  0.00     0.006 A 
ENDBRANCH  69  86
ENDBRANCH  43  44
ENDBRANCH  36  38
ENDBRANCH  35  36
ENDBRANCH  34  35
ENDBRANCH  33  34
ENDBRANCH  32  33
ENDBRANCH  31  32
ENDBRANCH   1  31
TORSDOF 20
ENDMDL
