MODEL 1
REMARK VINA RESULT:      -9.4      0.000      0.000
REMARK SMILES C=CCN(CC(=O)OCCOCCOCCOC(=O)c1ccc(-c2c3nc(c(-c4c(F)cccc4F)c4ccc([nH]4)c(-c4c(F)cccc4F)c4nc(c(-c5c(F)cccc5F)c5ccc2[nH]5)C=C4)C=C3)cc1)C(=O)c1ccc(C[NH3+])cc1
REMARK SMILES IDX 11 1 10 2 9 3 8 4 6 5 7 6 5 7 4 8 3 9 2 10 1 11 74 12 75 13
REMARK SMILES IDX 76 14 77 15 83 16 78 17 82 18 79 19 80 20 81 21 12 25 13 26
REMARK SMILES IDX 14 27 15 28 16 29 17 30 18 31 19 32 20 33 21 34 73 35 22 36
REMARK SMILES IDX 72 37 23 38 24 39 25 40 66 41 26 42 71 43 65 44 67 45 27 46
REMARK SMILES IDX 70 47 64 48 63 49 28 51 54 52 37 53 53 54 38 55 41 56 52 57
REMARK SMILES IDX 68 58 39 59 40 60 51 62 69 63 42 64 29 65 30 66 35 67 31 68
REMARK SMILES IDX 32 69 34 70 36 71 33 72 55 73 56 74 61 75 57 76 58 77 60 78
REMARK SMILES IDX 62 79 59 80 43 81 44 82 49 83 45 84 46 85 48 86 50 87 47 88
REMARK H PARENT 81 22 81 23 81 24 67 50 41 61
REMARK Flexibility Score: inf
ROOT
ATOM      1  O   UNL A   1      37.963  20.524  25.396  1.00  0.00    -0.376 OA
ENDROOT
BRANCH   1   2
ATOM      2  C   UNL A   1      37.618  21.823  24.934  1.00  0.00     0.202 C 
BRANCH   2   3
ATOM      3  C   UNL A   1      36.162  22.326  25.171  1.00  0.00     0.261 C 
BRANCH   3   4
ATOM      4  O   UNL A   1      35.438  21.809  26.347  1.00  0.00    -0.462 OA
BRANCH   4   5
ATOM      5  C   UNL A   1      34.096  22.018  26.449  1.00  0.00     0.325 C 
ATOM      6  O   UNL A   1      33.631  22.972  27.074  1.00  0.00    -0.250 OA
BRANCH   5   7
ATOM      7  C   UNL A   1      33.109  20.993  25.723  1.00  0.00     0.242 C 
BRANCH   7   8
ATOM      8  N   UNL A   1      32.797  20.763  24.267  1.00  0.00    -0.324 N 
BRANCH   8   9
ATOM      9  C   UNL A   1      32.714  19.349  23.881  1.00  0.00     0.147 C 
BRANCH   9  10
ATOM     10  C   UNL A   1      33.076  18.452  25.044  1.00  0.00    -0.014 C 
ATOM     11  C   UNL A   1      32.678  17.172  25.133  1.00  0.00     0.006 C 
ENDBRANCH   9  10
ENDBRANCH   8   9
BRANCH   8  12
ATOM     12  C   UNL A   1      32.383  21.663  23.234  1.00  0.00     0.254 C 
ATOM     13  O   UNL A   1      32.049  21.269  22.115  1.00  0.00    -0.269 OA
BRANCH  12  14
ATOM     14  C   UNL A   1      32.312  23.140  23.345  1.00  0.00     0.040 A 
ATOM     15  C   UNL A   1      33.797  24.127  23.239  1.00  0.00     0.014 A 
ATOM     16  C   UNL A   1      30.740  23.871  23.606  1.00  0.00     0.014 A 
ATOM     17  C   UNL A   1      33.652  25.937  23.408  1.00  0.00     0.010 A 
ATOM     18  C   UNL A   1      30.431  25.557  23.839  1.00  0.00     0.010 A 
ATOM     19  C   UNL A   1      31.800  26.706  23.764  1.00  0.00     0.006 A 
BRANCH  19  20
ATOM     20  C   UNL A   1      31.089  28.087  24.226  1.00  0.00     0.295 C 
BRANCH  20  21
ATOM     21  N   UNL A   1      31.528  29.292  23.507  1.00  0.00    -0.354 N 
ATOM     22  H   UNL A   1      30.720  29.750  23.086  1.00  0.00     0.344 HD
ATOM     23  H   UNL A   1      32.190  29.030  22.775  1.00  0.00     0.344 HD
ATOM     24  H   UNL A   1      31.981  29.931  24.160  1.00  0.00     0.344 HD
ENDBRANCH  20  21
ENDBRANCH  19  20
ENDBRANCH  12  14
ENDBRANCH   8  12
ENDBRANCH   7   8
ENDBRANCH   5   7
ENDBRANCH   4   5
ENDBRANCH   3   4
ENDBRANCH   2   3
ENDBRANCH   1   2
BRANCH   1  25
ATOM     25  C   UNL A   1      39.321  20.362  25.750  1.00  0.00     0.188 C 
BRANCH  25  26
ATOM     26  C   UNL A   1      39.962  21.503  26.567  1.00  0.00     0.188 C 
BRANCH  26  27
ATOM     27  O   UNL A   1      41.110  21.063  27.232  1.00  0.00    -0.376 OA
BRANCH  27  28
ATOM     28  C   UNL A   1      42.258  20.887  26.439  1.00  0.00     0.202 C 
BRANCH  28  29
ATOM     29  C   UNL A   1      42.663  21.932  25.373  1.00  0.00     0.261 C 
BRANCH  29  30
ATOM     30  O   UNL A   1      43.955  22.583  25.448  1.00  0.00    -0.460 OA
BRANCH  30  31
ATOM     31  C   UNL A   1      43.989  23.935  25.282  1.00  0.00     0.338 C 
ATOM     32  O   UNL A   1      44.537  24.502  24.354  1.00  0.00    -0.246 OA
BRANCH  31  33
ATOM     33  C   UNL A   1      43.423  24.597  26.552  1.00  0.00     0.060 A 
ATOM     34  C   UNL A   1      41.929  24.446  27.919  1.00  0.00     0.016 A 
ATOM     35  C   UNL A   1      44.252  26.213  26.455  1.00  0.00     0.016 A 
ATOM     36  C   UNL A   1      41.507  25.803  28.931  1.00  0.00     0.010 A 
ATOM     37  C   UNL A   1      43.735  27.490  27.572  1.00  0.00     0.010 A 
ATOM     38  C   UNL A   1      42.437  27.251  28.780  1.00  0.00    -0.014 A 
BRANCH  38  39
ATOM     39  C   UNL A   1      42.072  28.205  29.841  1.00  0.00     0.031 A 
ATOM     40  C   UNL A   1      40.817  28.964  29.658  1.00  0.00     0.074 A 
ATOM     41  C   UNL A   1      42.742  28.145  31.019  1.00  0.00     0.049 A 
ATOM     42  N   UNL A   1      40.193  29.719  30.513  1.00  0.00    -0.248 NA
ATOM     43  C   UNL A   1      40.157  28.842  28.351  1.00  0.00     0.031 C 
ATOM     44  C   UNL A   1      43.938  27.330  31.294  1.00  0.00     0.029 A 
ATOM     45  N   UNL A   1      42.468  28.689  32.247  1.00  0.00    -0.354 N 
ATOM     46  C   UNL A   1      39.074  30.175  29.837  1.00  0.00     0.074 A 
ATOM     47  C   UNL A   1      39.116  29.639  28.500  1.00  0.00     0.031 C 
ATOM     48  C   UNL A   1      44.213  27.331  32.603  1.00  0.00     0.029 A 
ATOM     49  C   UNL A   1      43.299  28.243  33.255  1.00  0.00     0.049 A 
ATOM     50  H   UNL A   1      41.742  29.339  32.397  1.00  0.00     0.167 HD
ATOM     51  C   UNL A   1      38.100  30.974  30.315  1.00  0.00     0.037 A 
ATOM     52  C   UNL A   1      43.333  28.555  34.563  1.00  0.00     0.037 A 
ATOM     53  C   UNL A   1      38.116  31.488  31.651  1.00  0.00     0.049 A 
ATOM     54  C   UNL A   1      42.302  29.542  35.026  1.00  0.00     0.074 A 
ATOM     55  C   UNL A   1      37.258  32.393  32.238  1.00  0.00     0.029 A 
ATOM     56  N   UNL A   1      39.061  31.136  32.612  1.00  0.00    -0.354 N 
ATOM     57  N   UNL A   1      41.291  30.043  34.355  1.00  0.00    -0.248 NA
ATOM     58  C   UNL A   1      42.428  30.034  36.398  1.00  0.00     0.031 C 
ATOM     59  C   UNL A   1      37.724  32.642  33.532  1.00  0.00     0.029 A 
ATOM     60  C   UNL A   1      38.822  31.829  33.782  1.00  0.00     0.049 A 
ATOM     61  H   UNL A   1      39.790  30.490  32.477  1.00  0.00     0.167 HD
ATOM     62  C   UNL A   1      40.650  30.907  35.224  1.00  0.00     0.074 A 
ATOM     63  C   UNL A   1      41.371  30.830  36.482  1.00  0.00     0.031 C 
ATOM     64  C   UNL A   1      39.574  31.702  35.007  1.00  0.00     0.037 A 
BRANCH  51  65
ATOM     65  C   UNL A   1      37.056  31.402  29.333  1.00  0.00     0.057 A 
ATOM     66  C   UNL A   1      37.039  32.680  28.758  1.00  0.00     0.134 A 
ATOM     67  C   UNL A   1      35.984  30.550  29.048  1.00  0.00     0.134 A 
ATOM     68  F   UNL A   1      38.006  33.568  29.041  1.00  0.00    -0.206 F 
ATOM     69  C   UNL A   1      35.976  33.105  27.959  1.00  0.00     0.040 A 
ATOM     70  C   UNL A   1      34.934  30.950  28.224  1.00  0.00     0.040 A 
ATOM     71  F   UNL A   1      35.923  29.326  29.595  1.00  0.00    -0.206 F 
ATOM     72  C   UNL A   1      34.922  32.235  27.685  1.00  0.00     0.006 A 
ENDBRANCH  51  65
BRANCH  52  73
ATOM     73  C   UNL A   1      44.389  28.024  35.475  1.00  0.00     0.057 A 
ATOM     74  C   UNL A   1      44.151  26.955  36.349  1.00  0.00     0.134 A 
ATOM     75  C   UNL A   1      45.664  28.609  35.530  1.00  0.00     0.134 A 
ATOM     76  F   UNL A   1      42.954  26.351  36.369  1.00  0.00    -0.206 F 
ATOM     77  C   UNL A   1      45.122  26.512  37.255  1.00  0.00     0.040 A 
ATOM     78  C   UNL A   1      46.655  28.152  36.403  1.00  0.00     0.040 A 
ATOM     79  F   UNL A   1      45.975  29.637  34.727  1.00  0.00    -0.206 F 
ATOM     80  C   UNL A   1      46.380  27.110  37.281  1.00  0.00     0.006 A 
ENDBRANCH  52  73
BRANCH  64  81
ATOM     81  C   UNL A   1      39.096  32.503  36.177  1.00  0.00     0.057 A 
ATOM     82  C   UNL A   1      38.226  31.971  37.136  1.00  0.00     0.134 A 
ATOM     83  C   UNL A   1      39.560  33.810  36.365  1.00  0.00     0.134 A 
ATOM     84  F   UNL A   1      37.739  30.728  37.000  1.00  0.00    -0.206 F 
ATOM     85  C   UNL A   1      37.811  32.726  38.231  1.00  0.00     0.040 A 
ATOM     86  C   UNL A   1      39.184  34.559  37.476  1.00  0.00     0.040 A 
ATOM     87  F   UNL A   1      40.406  34.367  35.484  1.00  0.00    -0.206 F 
ATOM     88  C   UNL A   1      38.300  34.020  38.407  1.00  0.00     0.006 A 
ENDBRANCH  64  81
ENDBRANCH  38  39
ENDBRANCH  31  33
ENDBRANCH  30  31
ENDBRANCH  29  30
ENDBRANCH  28  29
ENDBRANCH  27  28
ENDBRANCH  26  27
ENDBRANCH  25  26
ENDBRANCH   1  25
TORSDOF 24
ENDMDL
MODEL 2
REMARK VINA RESULT:      -9.4      6.748     11.003
REMARK SMILES C=CCN(CC(=O)OCCOCCOCCOC(=O)c1ccc(-c2c3nc(c(-c4c(F)cccc4F)c4ccc([nH]4)c(-c4c(F)cccc4F)c4nc(c(-c5c(F)cccc5F)c5ccc2[nH]5)C=C4)C=C3)cc1)C(=O)c1ccc(C[NH3+])cc1
REMARK SMILES IDX 11 1 10 2 9 3 8 4 6 5 7 6 5 7 4 8 3 9 2 10 1 11 74 12 75 13
REMARK SMILES IDX 76 14 77 15 83 16 78 17 82 18 79 19 80 20 81 21 12 25 13 26
REMARK SMILES IDX 14 27 15 28 16 29 17 30 18 31 19 32 20 33 21 34 73 35 22 36
REMARK SMILES IDX 72 37 23 38 24 39 25 40 66 41 26 42 71 43 65 44 67 45 27 46
REMARK SMILES IDX 70 47 64 48 63 49 28 51 54 52 37 53 53 54 38 55 41 56 52 57
REMARK SMILES IDX 68 58 39 59 40 60 51 62 69 63 42 64 29 65 30 66 35 67 31 68
REMARK SMILES IDX 32 69 34 70 36 71 33 72 55 73 56 74 61 75 57 76 58 77 60 78
REMARK SMILES IDX 62 79 59 80 43 81 44 82 49 83 45 84 46 85 48 86 50 87 47 88
REMARK H PARENT 81 22 81 23 81 24 67 50 41 61
REMARK Flexibility Score: inf
ROOT
ATOM      1  O   UNL A   1      36.962  23.721  24.759  1.00  0.00    -0.376 OA
ENDROOT
BRANCH   1   2
ATOM      2  C   UNL A   1      35.542  23.715  24.738  1.00  0.00     0.202 C 
BRANCH   2   3
ATOM      3  C   UNL A   1      34.827  23.583  23.359  1.00  0.00     0.261 C 
BRANCH   3   4
ATOM      4  O   UNL A   1      34.272  24.807  22.751  1.00  0.00    -0.462 OA
BRANCH   4   5
ATOM      5  C   UNL A   1      33.049  24.759  22.153  1.00  0.00     0.325 C 
ATOM      6  O   UNL A   1      32.898  25.013  20.958  1.00  0.00    -0.250 OA
BRANCH   5   7
ATOM      7  C   UNL A   1      31.785  24.349  23.039  1.00  0.00     0.242 C 
BRANCH   7   8
ATOM      8  N   UNL A   1      31.283  24.858  24.366  1.00  0.00    -0.324 N 
BRANCH   8   9
ATOM      9  C   UNL A   1      32.060  24.400  25.524  1.00  0.00     0.147 C 
BRANCH   9  10
ATOM     10  C   UNL A   1      31.825  22.927  25.780  1.00  0.00    -0.014 C 
ATOM     11  C   UNL A   1      30.617  22.420  26.075  1.00  0.00     0.006 C 
ENDBRANCH   9  10
ENDBRANCH   8   9
BRANCH   8  12
ATOM     12  C   UNL A   1      30.307  25.854  24.689  1.00  0.00     0.254 C 
ATOM     13  O   UNL A   1      29.613  25.787  25.706  1.00  0.00    -0.269 OA
BRANCH  12  14
ATOM     14  C   UNL A   1      29.987  27.053  23.878  1.00  0.00     0.040 A 
ATOM     15  C   UNL A   1      31.295  28.076  23.221  1.00  0.00     0.014 A 
ATOM     16  C   UNL A   1      28.298  27.439  23.612  1.00  0.00     0.014 A 
ATOM     17  C   UNL A   1      30.840  29.553  22.252  1.00  0.00     0.010 A 
ATOM     18  C   UNL A   1      27.693  28.821  22.766  1.00  0.00     0.010 A 
ATOM     19  C   UNL A   1      28.858  29.964  22.032  1.00  0.00     0.006 A 
BRANCH  19  20
ATOM     20  C   UNL A   1      27.877  31.158  21.546  1.00  0.00     0.295 C 
BRANCH  20  21
ATOM     21  N   UNL A   1      28.430  32.044  20.510  1.00  0.00    -0.354 N 
ATOM     22  H   UNL A   1      27.814  32.847  20.386  1.00  0.00     0.344 HD
ATOM     23  H   UNL A   1      28.505  31.533  19.630  1.00  0.00     0.344 HD
ATOM     24  H   UNL A   1      29.355  32.365  20.796  1.00  0.00     0.344 HD
ENDBRANCH  20  21
ENDBRANCH  19  20
ENDBRANCH  12  14
ENDBRANCH   8  12
ENDBRANCH   7   8
ENDBRANCH   5   7
ENDBRANCH   4   5
ENDBRANCH   3   4
ENDBRANCH   2   3
ENDBRANCH   1   2
BRANCH   1  25
ATOM     25  C   UNL A   1      37.546  22.778  25.636  1.00  0.00     0.188 C 
BRANCH  25  26
ATOM     26  C   UNL A   1      37.744  21.352  25.082  1.00  0.00     0.188 C 
BRANCH  26  27
ATOM     27  O   UNL A   1      38.901  20.765  25.604  1.00  0.00    -0.376 OA
BRANCH  27  28
ATOM     28  C   UNL A   1      39.748  21.610  26.343  1.00  0.00     0.202 C 
BRANCH  28  29
ATOM     29  C   UNL A   1      41.134  21.128  26.829  1.00  0.00     0.261 C 
BRANCH  29  30
ATOM     30  O   UNL A   1      42.183  22.089  27.101  1.00  0.00    -0.460 OA
BRANCH  30  31
ATOM     31  C   UNL A   1      43.023  22.410  26.077  1.00  0.00     0.338 C 
ATOM     32  O   UNL A   1      43.055  21.834  25.004  1.00  0.00    -0.246 OA
BRANCH  31  33
ATOM     33  C   UNL A   1      44.039  23.449  26.587  1.00  0.00     0.060 A 
ATOM     34  C   UNL A   1      44.853  24.207  28.287  1.00  0.00     0.016 A 
ATOM     35  C   UNL A   1      44.205  24.479  25.097  1.00  0.00     0.016 A 
ATOM     36  C   UNL A   1      45.667  25.750  28.273  1.00  0.00     0.010 A 
ATOM     37  C   UNL A   1      45.088  26.012  25.230  1.00  0.00     0.010 A 
ATOM     38  C   UNL A   1      45.814  26.579  26.763  1.00  0.00    -0.014 A 
BRANCH  38  39
ATOM     39  C   UNL A   1      46.696  27.750  26.908  1.00  0.00     0.031 A 
ATOM     40  C   UNL A   1      48.142  27.532  26.692  1.00  0.00     0.074 A 
ATOM     41  C   UNL A   1      46.128  28.980  26.965  1.00  0.00     0.049 A 
ATOM     42  N   UNL A   1      49.089  28.416  26.587  1.00  0.00    -0.248 NA
ATOM     43  C   UNL A   1      48.585  26.139  26.548  1.00  0.00     0.031 C 
ATOM     44  C   UNL A   1      44.686  29.263  27.076  1.00  0.00     0.029 A 
ATOM     45  N   UNL A   1      46.665  30.235  26.830  1.00  0.00    -0.354 N 
ATOM     46  C   UNL A   1      50.243  27.681  26.383  1.00  0.00     0.074 A 
ATOM     47  C   UNL A   1      49.888  26.284  26.405  1.00  0.00     0.031 C 
ATOM     48  C   UNL A   1      44.450  30.566  26.885  1.00  0.00     0.029 A 
ATOM     49  C   UNL A   1      45.723  31.242  26.763  1.00  0.00     0.049 A 
ATOM     50  H   UNL A   1      47.635  30.401  26.783  1.00  0.00     0.167 HD
ATOM     51  C   UNL A   1      51.490  28.153  26.191  1.00  0.00     0.037 A 
ATOM     52  C   UNL A   1      45.874  32.573  26.639  1.00  0.00     0.037 A 
ATOM     53  C   UNL A   1      51.788  29.554  26.190  1.00  0.00     0.049 A 
ATOM     54  C   UNL A   1      47.288  33.064  26.548  1.00  0.00     0.074 A 
ATOM     55  C   UNL A   1      53.017  30.175  26.118  1.00  0.00     0.029 A 
ATOM     56  N   UNL A   1      50.826  30.557  26.277  1.00  0.00    -0.354 N 
ATOM     57  N   UNL A   1      48.393  32.361  26.443  1.00  0.00    -0.248 NA
ATOM     58  C   UNL A   1      47.489  34.513  26.592  1.00  0.00     0.031 C 
ATOM     59  C   UNL A   1      52.803  31.552  26.230  1.00  0.00     0.029 A 
ATOM     60  C   UNL A   1      51.437  31.795  26.287  1.00  0.00     0.049 A 
ATOM     61  H   UNL A   1      49.855  30.405  26.325  1.00  0.00     0.167 HD
ATOM     62  C   UNL A   1      49.424  33.281  26.401  1.00  0.00     0.074 A 
ATOM     63  C   UNL A   1      48.805  34.594  26.456  1.00  0.00     0.031 C 
ATOM     64  C   UNL A   1      50.762  33.070  26.336  1.00  0.00     0.037 A 
BRANCH  51  65
ATOM     65  C   UNL A   1      52.578  27.130  26.100  1.00  0.00     0.057 A 
ATOM     66  C   UNL A   1      53.254  26.646  27.229  1.00  0.00     0.134 A 
ATOM     67  C   UNL A   1      53.029  26.711  24.845  1.00  0.00     0.134 A 
ATOM     68  F   UNL A   1      52.911  27.059  28.459  1.00  0.00    -0.206 F 
ATOM     69  C   UNL A   1      54.361  25.803  27.107  1.00  0.00     0.040 A 
ATOM     70  C   UNL A   1      54.111  25.842  24.712  1.00  0.00     0.040 A 
ATOM     71  F   UNL A   1      52.448  27.165  23.724  1.00  0.00    -0.206 F 
ATOM     72  C   UNL A   1      54.788  25.394  25.845  1.00  0.00     0.006 A 
ENDBRANCH  51  65
BRANCH  52  73
ATOM     73  C   UNL A   1      44.710  33.507  26.684  1.00  0.00     0.057 A 
ATOM     74  C   UNL A   1      44.056  33.939  25.522  1.00  0.00     0.134 A 
ATOM     75  C   UNL A   1      44.247  34.036  27.899  1.00  0.00     0.134 A 
ATOM     76  F   UNL A   1      44.447  33.494  24.320  1.00  0.00    -0.206 F 
ATOM     77  C   UNL A   1      43.015  34.875  25.566  1.00  0.00     0.040 A 
ATOM     78  C   UNL A   1      43.185  34.941  27.960  1.00  0.00     0.040 A 
ATOM     79  F   UNL A   1      44.818  33.674  29.057  1.00  0.00    -0.206 F 
ATOM     80  C   UNL A   1      42.575  35.376  26.789  1.00  0.00     0.006 A 
ENDBRANCH  52  73
BRANCH  64  81
ATOM     81  C   UNL A   1      51.623  34.292  26.268  1.00  0.00     0.057 A 
ATOM     82  C   UNL A   1      52.103  34.927  27.420  1.00  0.00     0.134 A 
ATOM     83  C   UNL A   1      52.014  34.802  25.025  1.00  0.00     0.134 A 
ATOM     84  F   UNL A   1      51.750  34.489  28.637  1.00  0.00    -0.206 F 
ATOM     85  C   UNL A   1      52.923  36.050  27.334  1.00  0.00     0.040 A 
ATOM     86  C   UNL A   1      52.866  35.898  24.928  1.00  0.00     0.040 A 
ATOM     87  F   UNL A   1      51.594  34.225  23.888  1.00  0.00    -0.206 F 
ATOM     88  C   UNL A   1      53.314  36.530  26.085  1.00  0.00     0.006 A 
ENDBRANCH  64  81
ENDBRANCH  38  39
ENDBRANCH  31  33
ENDBRANCH  30  31
ENDBRANCH  29  30
ENDBRANCH  28  29
ENDBRANCH  27  28
ENDBRANCH  26  27
ENDBRANCH  25  26
ENDBRANCH   1  25
TORSDOF 24
ENDMDL
MODEL 3
REMARK VINA RESULT:      -9.3      4.024      8.200
REMARK SMILES C=CCN(CC(=O)OCCOCCOCCOC(=O)c1ccc(-c2c3nc(c(-c4c(F)cccc4F)c4ccc([nH]4)c(-c4c(F)cccc4F)c4nc(c(-c5c(F)cccc5F)c5ccc2[nH]5)C=C4)C=C3)cc1)C(=O)c1ccc(C[NH3+])cc1
REMARK SMILES IDX 11 1 10 2 9 3 8 4 6 5 7 6 5 7 4 8 3 9 2 10 1 11 74 12 75 13
REMARK SMILES IDX 76 14 77 15 83 16 78 17 82 18 79 19 80 20 81 21 12 25 13 26
REMARK SMILES IDX 14 27 15 28 16 29 17 30 18 31 19 32 20 33 21 34 73 35 22 36
REMARK SMILES IDX 72 37 23 38 24 39 25 40 66 41 26 42 71 43 65 44 67 45 27 46
REMARK SMILES IDX 70 47 64 48 63 49 28 51 54 52 37 53 53 54 38 55 41 56 52 57
REMARK SMILES IDX 68 58 39 59 40 60 51 62 69 63 42 64 29 65 30 66 35 67 31 68
REMARK SMILES IDX 32 69 34 70 36 71 33 72 55 73 56 74 61 75 57 76 58 77 60 78
REMARK SMILES IDX 62 79 59 80 43 81 44 82 49 83 45 84 46 85 48 86 50 87 47 88
REMARK H PARENT 81 22 81 23 81 24 67 50 41 61
REMARK Flexibility Score: inf
ROOT
ATOM      1  O   UNL A   1      36.792  22.615  24.437  1.00  0.00    -0.376 OA
ENDROOT
BRANCH   1   2
ATOM      2  C   UNL A   1      35.966  23.770  24.479  1.00  0.00     0.202 C 
BRANCH   2   3
ATOM      3  C   UNL A   1      34.666  23.776  23.619  1.00  0.00     0.261 C 
BRANCH   3   4
ATOM      4  O   UNL A   1      34.472  24.890  22.672  1.00  0.00    -0.462 OA
BRANCH   4   5
ATOM      5  C   UNL A   1      33.526  25.833  22.935  1.00  0.00     0.325 C 
ATOM      6  O   UNL A   1      33.008  26.503  22.042  1.00  0.00    -0.250 OA
BRANCH   5   7
ATOM      7  C   UNL A   1      33.079  26.059  24.452  1.00  0.00     0.242 C 
BRANCH   7   8
ATOM      8  N   UNL A   1      31.816  25.694  25.189  1.00  0.00    -0.324 N 
BRANCH   8   9
ATOM      9  C   UNL A   1      30.976  26.841  25.558  1.00  0.00     0.147 C 
BRANCH   9  10
ATOM     10  C   UNL A   1      30.523  27.592  24.325  1.00  0.00    -0.014 C 
ATOM     11  C   UNL A   1      29.543  27.153  23.520  1.00  0.00     0.006 C 
ENDBRANCH   9  10
ENDBRANCH   8   9
BRANCH   8  12
ATOM     12  C   UNL A   1      31.193  24.428  25.430  1.00  0.00     0.254 C 
ATOM     13  O   UNL A   1      30.223  24.306  26.181  1.00  0.00    -0.269 OA
BRANCH  12  14
ATOM     14  C   UNL A   1      31.614  23.128  24.852  1.00  0.00     0.040 A 
ATOM     15  C   UNL A   1      31.396  22.800  23.110  1.00  0.00     0.014 A 
ATOM     16  C   UNL A   1      32.301  21.932  25.934  1.00  0.00     0.014 A 
ATOM     17  C   UNL A   1      31.908  21.175  22.461  1.00  0.00     0.010 A 
ATOM     18  C   UNL A   1      32.789  20.330  25.497  1.00  0.00     0.010 A 
ATOM     19  C   UNL A   1      32.647  19.819  23.789  1.00  0.00     0.006 A 
BRANCH  19  20
ATOM     20  C   UNL A   1      33.012  18.244  23.892  1.00  0.00     0.295 C 
BRANCH  20  21
ATOM     21  N   UNL A   1      31.943  17.383  24.419  1.00  0.00    -0.354 N 
ATOM     22  H   UNL A   1      32.287  16.427  24.503  1.00  0.00     0.344 HD
ATOM     23  H   UNL A   1      31.145  17.404  23.784  1.00  0.00     0.344 HD
ATOM     24  H   UNL A   1      31.655  17.723  25.337  1.00  0.00     0.344 HD
ENDBRANCH  20  21
ENDBRANCH  19  20
ENDBRANCH  12  14
ENDBRANCH   8  12
ENDBRANCH   7   8
ENDBRANCH   5   7
ENDBRANCH   4   5
ENDBRANCH   3   4
ENDBRANCH   2   3
ENDBRANCH   1   2
BRANCH   1  25
ATOM     25  C   UNL A   1      36.529  21.661  25.446  1.00  0.00     0.188 C 
BRANCH  25  26
ATOM     26  C   UNL A   1      36.242  20.220  24.975  1.00  0.00     0.188 C 
BRANCH  26  27
ATOM     27  O   UNL A   1      37.351  19.393  25.180  1.00  0.00    -0.376 OA
BRANCH  27  28
ATOM     28  C   UNL A   1      38.595  19.911  24.777  1.00  0.00     0.202 C 
BRANCH  28  29
ATOM     29  C   UNL A   1      39.807  19.919  25.737  1.00  0.00     0.261 C 
BRANCH  29  30
ATOM     30  O   UNL A   1      40.764  18.832  25.709  1.00  0.00    -0.460 OA
BRANCH  30  31
ATOM     31  C   UNL A   1      42.086  19.157  25.709  1.00  0.00     0.338 C 
ATOM     32  O   UNL A   1      42.996  18.349  25.648  1.00  0.00    -0.246 OA
BRANCH  31  33
ATOM     33  C   UNL A   1      42.220  20.661  26.015  1.00  0.00     0.060 A 
ATOM     34  C   UNL A   1      42.731  22.437  25.173  1.00  0.00     0.016 A 
ATOM     35  C   UNL A   1      42.238  20.607  27.833  1.00  0.00     0.016 A 
ATOM     36  C   UNL A   1      43.140  23.810  26.170  1.00  0.00     0.010 A 
ATOM     37  C   UNL A   1      42.644  22.093  28.713  1.00  0.00     0.010 A 
ATOM     38  C   UNL A   1      43.036  23.630  27.885  1.00  0.00    -0.014 A 
BRANCH  38  39
ATOM     39  C   UNL A   1      43.219  24.933  28.547  1.00  0.00     0.031 A 
ATOM     40  C   UNL A   1      44.608  25.397  28.743  1.00  0.00     0.074 A 
ATOM     41  C   UNL A   1      42.137  25.738  28.693  1.00  0.00     0.049 A 
ATOM     42  N   UNL A   1      45.028  26.564  29.130  1.00  0.00    -0.248 NA
ATOM     43  C   UNL A   1      45.674  24.431  28.441  1.00  0.00     0.031 C 
ATOM     44  C   UNL A   1      40.738  25.367  28.416  1.00  0.00     0.029 A 
ATOM     45  N   UNL A   1      42.032  27.069  29.008  1.00  0.00    -0.354 N 
ATOM     46  C   UNL A   1      46.408  26.466  29.135  1.00  0.00     0.074 A 
ATOM     47  C   UNL A   1      46.757  25.124  28.740  1.00  0.00     0.031 C 
ATOM     48  C   UNL A   1      39.952  26.449  28.451  1.00  0.00     0.029 A 
ATOM     49  C   UNL A   1      40.754  27.575  28.877  1.00  0.00     0.049 A 
ATOM     50  H   UNL A   1      42.799  27.614  29.299  1.00  0.00     0.167 HD
ATOM     51  C   UNL A   1      47.296  27.431  29.443  1.00  0.00     0.037 A 
ATOM     52  C   UNL A   1      40.278  28.814  29.099  1.00  0.00     0.037 A 
ATOM     53  C   UNL A   1      46.891  28.746  29.840  1.00  0.00     0.049 A 
ATOM     54  C   UNL A   1      41.284  29.828  29.556  1.00  0.00     0.074 A 
ATOM     55  C   UNL A   1      47.672  29.791  30.286  1.00  0.00     0.029 A 
ATOM     56  N   UNL A   1      45.572  29.190  29.844  1.00  0.00    -0.354 N 
ATOM     57  N   UNL A   1      42.588  29.704  29.645  1.00  0.00    -0.248 NA
ATOM     58  C   UNL A   1      40.765  31.130  29.976  1.00  0.00     0.031 C 
ATOM     59  C   UNL A   1      46.818  30.844  30.626  1.00  0.00     0.029 A 
ATOM     60  C   UNL A   1      45.513  30.487  30.312  1.00  0.00     0.049 A 
ATOM     61  H   UNL A   1      44.796  28.657  29.557  1.00  0.00     0.167 HD
ATOM     62  C   UNL A   1      43.052  30.915  30.124  1.00  0.00     0.074 A 
ATOM     63  C   UNL A   1      41.888  31.770  30.271  1.00  0.00     0.031 C 
ATOM     64  C   UNL A   1      44.319  31.290  30.428  1.00  0.00     0.037 A 
BRANCH  51  65
ATOM     65  C   UNL A   1      48.734  27.022  29.469  1.00  0.00     0.057 A 
ATOM     66  C   UNL A   1      49.345  26.483  30.611  1.00  0.00     0.134 A 
ATOM     67  C   UNL A   1      49.547  27.280  28.361  1.00  0.00     0.134 A 
ATOM     68  F   UNL A   1      48.633  26.271  31.729  1.00  0.00    -0.206 F 
ATOM     69  C   UNL A   1      50.720  26.246  30.656  1.00  0.00     0.040 A 
ATOM     70  C   UNL A   1      50.915  27.015  28.382  1.00  0.00     0.040 A 
ATOM     71  F   UNL A   1      49.031  27.828  27.250  1.00  0.00    -0.206 F 
ATOM     72  C   UNL A   1      51.508  26.506  29.536  1.00  0.00     0.006 A 
ENDBRANCH  51  65
BRANCH  52  73
ATOM     73  C   UNL A   1      38.824  29.132  28.988  1.00  0.00     0.057 A 
ATOM     74  C   UNL A   1      38.243  29.552  27.783  1.00  0.00     0.134 A 
ATOM     75  C   UNL A   1      37.977  29.070  30.105  1.00  0.00     0.134 A 
ATOM     76  F   UNL A   1      38.986  29.653  26.672  1.00  0.00    -0.206 F 
ATOM     77  C   UNL A   1      36.895  29.923  27.704  1.00  0.00     0.040 A 
ATOM     78  C   UNL A   1      36.622  29.400  30.031  1.00  0.00     0.040 A 
ATOM     79  F   UNL A   1      38.453  28.678  31.296  1.00  0.00    -0.206 F 
ATOM     80  C   UNL A   1      36.080  29.844  28.830  1.00  0.00     0.006 A 
ENDBRANCH  52  73
BRANCH  64  81
ATOM     81  C   UNL A   1      44.498  32.700  30.898  1.00  0.00     0.057 A 
ATOM     82  C   UNL A   1      44.491  33.037  32.256  1.00  0.00     0.134 A 
ATOM     83  C   UNL A   1      44.731  33.720  29.968  1.00  0.00     0.134 A 
ATOM     84  F   UNL A   1      44.259  32.102  33.189  1.00  0.00    -0.206 F 
ATOM     85  C   UNL A   1      44.683  34.352  32.673  1.00  0.00     0.040 A 
ATOM     86  C   UNL A   1      44.965  35.030  30.375  1.00  0.00     0.040 A 
ATOM     87  F   UNL A   1      44.762  33.452  28.654  1.00  0.00    -0.206 F 
ATOM     88  C   UNL A   1      44.931  35.350  31.730  1.00  0.00     0.006 A 
ENDBRANCH  64  81
ENDBRANCH  38  39
ENDBRANCH  31  33
ENDBRANCH  30  31
ENDBRANCH  29  30
ENDBRANCH  28  29
ENDBRANCH  27  28
ENDBRANCH  26  27
ENDBRANCH  25  26
ENDBRANCH   1  25
TORSDOF 24
ENDMDL
