MODEL 1
REMARK VINA RESULT:     -10.3      0.000      0.000
REMARK SMILES O=C(CC[N@H+]1CCC[C@@H](C(=O)OCCOCCOCCOC(=O)c2ccc(-c3c4nc(c(-c5c(F)cccc5F)c5ccc([nH]5)c(-c5c(F)cccc5F)c5nc(c(-c6c(F)cccc6F)c6ccc3[nH]6)C=C5)C=C4)cc2)C1)Nc1cccc(F)c1
REMARK SMILES IDX 16 1 15 2 14 3 13 4 12 5 10 6 11 7 9 8 5 9 6 10 78 11 7 13
REMARK SMILES IDX 8 14 4 15 3 16 2 17 1 18 79 19 80 21 81 22 86 23 82 24 84 25
REMARK SMILES IDX 83 26 85 27 17 28 18 29 19 30 20 31 21 32 22 33 23 34 24 35
REMARK SMILES IDX 25 36 77 37 26 38 76 39 27 40 28 41 29 42 70 43 30 44 75 45
REMARK SMILES IDX 69 46 71 47 31 48 74 49 68 50 67 51 32 53 58 54 41 55 57 56
REMARK SMILES IDX 42 57 45 58 56 59 72 60 43 61 44 62 55 64 73 65 46 66 33 67
REMARK SMILES IDX 34 68 39 69 35 70 36 71 38 72 40 73 37 74 59 75 60 76 65 77
REMARK SMILES IDX 61 78 62 79 64 80 66 81 63 82 47 83 48 84 53 85 49 86 50 87
REMARK SMILES IDX 52 88 54 89 51 90
REMARK H PARENT 5 12 79 20 71 52 45 63
REMARK Flexibility Score: inf
ROOT
ATOM      1  C   UNL A   1      35.357  33.720  28.846  1.00  0.00     0.188 C 
ENDROOT
BRANCH   1   2
ATOM      2  O   UNL A   1      35.337  32.583  27.989  1.00  0.00    -0.376 OA
BRANCH   2   3
ATOM      3  C   UNL A   1      34.199  31.736  27.984  1.00  0.00     0.202 C 
BRANCH   3   4
ATOM      4  C   UNL A   1      34.391  30.316  27.437  1.00  0.00     0.261 C 
BRANCH   4   5
ATOM      5  O   UNL A   1      33.191  29.527  27.319  1.00  0.00    -0.463 OA
BRANCH   5   6
ATOM      6  C   UNL A   1      33.282  28.368  26.614  1.00  0.00     0.314 C 
ATOM      7  O   UNL A   1      34.324  27.750  26.429  1.00  0.00    -0.252 OA
BRANCH   6   8
ATOM      8  C   UNL A   1      31.962  27.938  25.968  1.00  0.00     0.154 C 
ATOM      9  N   UNL A   1      30.863  27.232  23.766  1.00  0.00    -0.334 N 
ATOM     10  C   UNL A   1      30.331  26.027  24.395  1.00  0.00     0.262 C 
ATOM     11  C   UNL A   1      31.943  27.961  24.432  1.00  0.00     0.277 C 
ATOM     12  H   UNL A   1      30.142  27.918  23.988  1.00  0.00     0.348 HD
ATOM     13  C   UNL A   1      30.277  26.101  25.916  1.00  0.00     0.062 C 
ATOM     14  C   UNL A   1      31.603  26.557  26.505  1.00  0.00     0.027 C 
BRANCH   9  15
ATOM     15  C   UNL A   1      30.854  27.201  22.289  1.00  0.00     0.272 C 
BRANCH  15  16
ATOM     16  C   UNL A   1      31.572  26.083  21.510  1.00  0.00     0.161 C 
BRANCH  16  17
ATOM     17  C   UNL A   1      33.007  25.703  21.877  1.00  0.00     0.230 C 
ATOM     18  O   UNL A   1      33.927  26.486  21.657  1.00  0.00    -0.275 OA
ATOM     19  N   UNL A   1      33.127  24.515  22.554  1.00  0.00    -0.326 N 
ATOM     20  H   UNL A   1      32.389  23.877  22.426  1.00  0.00     0.169 HD
BRANCH  19  21
ATOM     21  C   UNL A   1      34.159  24.087  23.407  1.00  0.00     0.044 A 
ATOM     22  C   UNL A   1      34.256  24.731  24.652  1.00  0.00     0.026 A 
ATOM     23  C   UNL A   1      35.119  23.142  23.057  1.00  0.00     0.065 A 
ATOM     24  C   UNL A   1      35.305  24.449  25.528  1.00  0.00     0.005 A 
ATOM     25  C   UNL A   1      36.160  22.864  23.941  1.00  0.00     0.125 A 
ATOM     26  C   UNL A   1      36.264  23.511  25.168  1.00  0.00     0.039 A 
ATOM     27  F   UNL A   1      37.095  21.968  23.597  1.00  0.00    -0.207 F 
ENDBRANCH  19  21
ENDBRANCH  16  17
ENDBRANCH  15  16
ENDBRANCH   9  15
ENDBRANCH   6   8
ENDBRANCH   5   6
ENDBRANCH   4   5
ENDBRANCH   3   4
ENDBRANCH   2   3
ENDBRANCH   1   2
BRANCH   1  28
ATOM     28  C   UNL A   1      34.138  34.652  28.919  1.00  0.00     0.188 C 
BRANCH  28  29
ATOM     29  O   UNL A   1      34.371  35.919  28.336  1.00  0.00    -0.376 OA
BRANCH  29  30
ATOM     30  C   UNL A   1      33.535  36.964  28.805  1.00  0.00     0.202 C 
BRANCH  30  31
ATOM     31  C   UNL A   1      32.587  36.427  29.880  1.00  0.00     0.261 C 
BRANCH  31  32
ATOM     32  O   UNL A   1      32.759  37.032  31.179  1.00  0.00    -0.460 OA
BRANCH  32  33
ATOM     33  C   UNL A   1      32.532  36.246  32.256  1.00  0.00     0.338 C 
ATOM     34  O   UNL A   1      31.486  36.138  32.875  1.00  0.00    -0.246 OA
BRANCH  33  35
ATOM     35  C   UNL A   1      33.698  35.346  32.427  1.00  0.00     0.060 A 
ATOM     36  C   UNL A   1      33.474  34.012  32.798  1.00  0.00     0.016 A 
ATOM     37  C   UNL A   1      34.999  35.802  32.207  1.00  0.00     0.016 A 
ATOM     38  C   UNL A   1      34.552  33.135  32.961  1.00  0.00     0.010 A 
ATOM     39  C   UNL A   1      36.077  34.930  32.397  1.00  0.00     0.010 A 
ATOM     40  C   UNL A   1      35.863  33.597  32.794  1.00  0.00    -0.014 A 
BRANCH  40  41
ATOM     41  C   UNL A   1      37.023  32.760  33.202  1.00  0.00     0.031 A 
ATOM     42  C   UNL A   1      37.692  33.058  34.516  1.00  0.00     0.074 A 
ATOM     43  C   UNL A   1      37.496  31.769  32.425  1.00  0.00     0.049 A 
ATOM     44  N   UNL A   1      38.793  32.566  35.022  1.00  0.00    -0.248 NA
ATOM     45  C   UNL A   1      37.027  34.054  35.371  1.00  0.00     0.031 C 
ATOM     46  C   UNL A   1      36.917  31.333  31.157  1.00  0.00     0.029 A 
ATOM     47  N   UNL A   1      38.599  30.963  32.589  1.00  0.00    -0.354 N 
ATOM     48  C   UNL A   1      38.962  33.200  36.247  1.00  0.00     0.074 A 
ATOM     49  C   UNL A   1      37.860  34.127  36.398  1.00  0.00     0.031 C 
ATOM     50  C   UNL A   1      37.684  30.354  30.644  1.00  0.00     0.029 A 
ATOM     51  C   UNL A   1      38.831  30.126  31.524  1.00  0.00     0.049 A 
ATOM     52  H   UNL A   1      39.167  30.984  33.392  1.00  0.00     0.167 HD
ATOM     53  C   UNL A   1      39.943  33.029  37.164  1.00  0.00     0.037 A 
ATOM     54  C   UNL A   1      39.868  29.301  31.271  1.00  0.00     0.037 A 
ATOM     55  C   UNL A   1      41.045  32.114  37.015  1.00  0.00     0.049 A 
ATOM     56  C   UNL A   1      41.002  29.197  32.262  1.00  0.00     0.074 A 
ATOM     57  C   UNL A   1      42.082  31.865  37.898  1.00  0.00     0.029 A 
ATOM     58  N   UNL A   1      41.261  31.308  35.908  1.00  0.00    -0.354 N 
ATOM     59  N   UNL A   1      41.148  29.791  33.422  1.00  0.00    -0.248 NA
ATOM     60  C   UNL A   1      42.118  28.308  31.904  1.00  0.00     0.031 C 
ATOM     61  C   UNL A   1      42.955  30.950  37.302  1.00  0.00     0.029 A 
ATOM     62  C   UNL A   1      42.430  30.584  36.073  1.00  0.00     0.049 A 
ATOM     63  H   UNL A   1      40.670  31.259  35.122  1.00  0.00     0.167 HD
ATOM     64  C   UNL A   1      42.352  29.328  33.941  1.00  0.00     0.074 A 
ATOM     65  C   UNL A   1      42.891  28.392  32.978  1.00  0.00     0.031 C 
ATOM     66  C   UNL A   1      42.956  29.647  35.112  1.00  0.00     0.037 A 
BRANCH  53  67
ATOM     67  C   UNL A   1      39.889  33.880  38.397  1.00  0.00     0.057 A 
ATOM     68  C   UNL A   1      39.179  33.489  39.540  1.00  0.00     0.134 A 
ATOM     69  C   UNL A   1      40.580  35.098  38.452  1.00  0.00     0.134 A 
ATOM     70  F   UNL A   1      38.483  32.342  39.548  1.00  0.00    -0.206 F 
ATOM     71  C   UNL A   1      39.139  34.288  40.684  1.00  0.00     0.040 A 
ATOM     72  C   UNL A   1      40.571  35.892  39.599  1.00  0.00     0.040 A 
ATOM     73  F   UNL A   1      41.283  35.530  37.393  1.00  0.00    -0.206 F 
ATOM     74  C   UNL A   1      39.844  35.491  40.717  1.00  0.00     0.006 A 
ENDBRANCH  53  67
BRANCH  54  75
ATOM     75  C   UNL A   1      39.916  28.526  30.004  1.00  0.00     0.057 A 
ATOM     76  C   UNL A   1      40.567  29.026  28.870  1.00  0.00     0.134 A 
ATOM     77  C   UNL A   1      39.275  27.287  29.882  1.00  0.00     0.134 A 
ATOM     78  F   UNL A   1      41.172  30.223  28.912  1.00  0.00    -0.206 F 
ATOM     79  C   UNL A   1      40.563  28.333  27.658  1.00  0.00     0.040 A 
ATOM     80  C   UNL A   1      39.288  26.569  28.685  1.00  0.00     0.040 A 
ATOM     81  F   UNL A   1      38.624  26.755  30.928  1.00  0.00    -0.206 F 
ATOM     82  C   UNL A   1      39.926  27.097  27.565  1.00  0.00     0.006 A 
ENDBRANCH  54  75
BRANCH  66  83
ATOM     83  C   UNL A   1      44.248  28.952  35.444  1.00  0.00     0.057 A 
ATOM     84  C   UNL A   1      44.283  27.739  36.142  1.00  0.00     0.134 A 
ATOM     85  C   UNL A   1      45.473  29.485  35.018  1.00  0.00     0.134 A 
ATOM     86  F   UNL A   1      43.148  27.179  36.589  1.00  0.00    -0.206 F 
ATOM     87  C   UNL A   1      45.488  27.093  36.424  1.00  0.00     0.040 A 
ATOM     88  C   UNL A   1      46.682  28.834  35.268  1.00  0.00     0.040 A 
ATOM     89  F   UNL A   1      45.513  30.639  34.334  1.00  0.00    -0.206 F 
ATOM     90  C   UNL A   1      46.691  27.636  35.980  1.00  0.00     0.006 A 
ENDBRANCH  66  83
ENDBRANCH  40  41
ENDBRANCH  33  35
ENDBRANCH  32  33
ENDBRANCH  31  32
ENDBRANCH  30  31
ENDBRANCH  29  30
ENDBRANCH  28  29
ENDBRANCH   1  28
TORSDOF 21
ENDMDL
MODEL 2
REMARK VINA RESULT:     -10.2      1.659      3.037
REMARK SMILES O=C(CC[N@H+]1CCC[C@@H](C(=O)OCCOCCOCCOC(=O)c2ccc(-c3c4nc(c(-c5c(F)cccc5F)c5ccc([nH]5)c(-c5c(F)cccc5F)c5nc(c(-c6c(F)cccc6F)c6ccc3[nH]6)C=C5)C=C4)cc2)C1)Nc1cccc(F)c1
REMARK SMILES IDX 16 1 15 2 14 3 13 4 12 5 10 6 11 7 9 8 5 9 6 10 78 11 7 13
REMARK SMILES IDX 8 14 4 15 3 16 2 17 1 18 79 19 80 21 81 22 86 23 82 24 84 25
REMARK SMILES IDX 83 26 85 27 17 28 18 29 19 30 20 31 21 32 22 33 23 34 24 35
REMARK SMILES IDX 25 36 77 37 26 38 76 39 27 40 28 41 29 42 70 43 30 44 75 45
REMARK SMILES IDX 69 46 71 47 31 48 74 49 68 50 67 51 32 53 58 54 41 55 57 56
REMARK SMILES IDX 42 57 45 58 56 59 72 60 43 61 44 62 55 64 73 65 46 66 33 67
REMARK SMILES IDX 34 68 39 69 35 70 36 71 38 72 40 73 37 74 59 75 60 76 65 77
REMARK SMILES IDX 61 78 62 79 64 80 66 81 63 82 47 83 48 84 53 85 49 86 50 87
REMARK SMILES IDX 52 88 54 89 51 90
REMARK H PARENT 5 12 79 20 71 52 45 63
REMARK Flexibility Score: inf
ROOT
ATOM      1  C   UNL A   1      34.717  33.282  28.779  1.00  0.00     0.188 C 
ENDROOT
BRANCH   1   2
ATOM      2  O   UNL A   1      34.415  31.991  28.258  1.00  0.00    -0.376 OA
BRANCH   2   3
ATOM      3  C   UNL A   1      35.467  31.173  27.773  1.00  0.00     0.202 C 
BRANCH   3   4
ATOM      4  C   UNL A   1      35.170  29.677  27.618  1.00  0.00     0.261 C 
BRANCH   4   5
ATOM      5  O   UNL A   1      33.784  29.332  27.430  1.00  0.00    -0.463 OA
BRANCH   5   6
ATOM      6  C   UNL A   1      33.303  29.376  26.159  1.00  0.00     0.314 C 
ATOM      7  O   UNL A   1      32.547  30.242  25.736  1.00  0.00    -0.252 OA
BRANCH   6   8
ATOM      8  C   UNL A   1      33.713  28.173  25.307  1.00  0.00     0.154 C 
ATOM      9  N   UNL A   1      33.246  25.695  24.855  1.00  0.00    -0.334 N 
ATOM     10  C   UNL A   1      33.071  25.968  23.432  1.00  0.00     0.262 C 
ATOM     11  C   UNL A   1      33.198  26.811  25.801  1.00  0.00     0.277 C 
ATOM     12  H   UNL A   1      34.256  25.567  24.920  1.00  0.00     0.348 HD
ATOM     13  C   UNL A   1      33.692  27.284  22.978  1.00  0.00     0.062 C 
ATOM     14  C   UNL A   1      33.275  28.441  23.871  1.00  0.00     0.027 C 
BRANCH   9  15
ATOM     15  C   UNL A   1      32.712  24.390  25.294  1.00  0.00     0.272 C 
BRANCH  15  16
ATOM     16  C   UNL A   1      31.208  24.073  25.206  1.00  0.00     0.161 C 
BRANCH  16  17
ATOM     17  C   UNL A   1      30.187  25.209  25.269  1.00  0.00     0.230 C 
ATOM     18  O   UNL A   1      29.955  25.771  26.337  1.00  0.00    -0.275 OA
ATOM     19  N   UNL A   1      29.684  25.594  24.051  1.00  0.00    -0.326 N 
ATOM     20  H   UNL A   1      29.730  24.916  23.340  1.00  0.00     0.169 HD
BRANCH  19  21
ATOM     21  C   UNL A   1      29.114  26.824  23.681  1.00  0.00     0.044 A 
ATOM     22  C   UNL A   1      27.732  26.968  23.891  1.00  0.00     0.026 A 
ATOM     23  C   UNL A   1      29.814  27.851  23.054  1.00  0.00     0.065 A 
ATOM     24  C   UNL A   1      27.054  28.111  23.466  1.00  0.00     0.005 A 
ATOM     25  C   UNL A   1      29.129  28.991  22.637  1.00  0.00     0.125 A 
ATOM     26  C   UNL A   1      27.758  29.128  22.833  1.00  0.00     0.039 A 
ATOM     27  F   UNL A   1      29.798  29.972  22.017  1.00  0.00    -0.207 F 
ENDBRANCH  19  21
ENDBRANCH  16  17
ENDBRANCH  15  16
ENDBRANCH   9  15
ENDBRANCH   6   8
ENDBRANCH   5   6
ENDBRANCH   4   5
ENDBRANCH   3   4
ENDBRANCH   2   3
ENDBRANCH   1   2
BRANCH   1  28
ATOM     28  C   UNL A   1      33.727  34.441  28.589  1.00  0.00     0.188 C 
BRANCH  28  29
ATOM     29  O   UNL A   1      34.363  35.682  28.357  1.00  0.00    -0.376 OA
BRANCH  29  30
ATOM     30  C   UNL A   1      33.626  36.825  28.759  1.00  0.00     0.202 C 
BRANCH  30  31
ATOM     31  C   UNL A   1      32.548  36.418  29.768  1.00  0.00     0.261 C 
BRANCH  31  32
ATOM     32  O   UNL A   1      32.736  36.962  31.091  1.00  0.00    -0.460 OA
BRANCH  32  33
ATOM     33  C   UNL A   1      32.473  36.143  32.135  1.00  0.00     0.338 C 
ATOM     34  O   UNL A   1      31.404  36.010  32.707  1.00  0.00    -0.246 OA
BRANCH  33  35
ATOM     35  C   UNL A   1      33.638  35.246  32.325  1.00  0.00     0.060 A 
ATOM     36  C   UNL A   1      33.425  33.963  32.850  1.00  0.00     0.016 A 
ATOM     37  C   UNL A   1      34.926  35.654  31.975  1.00  0.00     0.016 A 
ATOM     38  C   UNL A   1      34.501  33.089  33.036  1.00  0.00     0.010 A 
ATOM     39  C   UNL A   1      36.005  34.788  32.187  1.00  0.00     0.010 A 
ATOM     40  C   UNL A   1      35.804  33.508  32.737  1.00  0.00    -0.014 A 
BRANCH  40  41
ATOM     41  C   UNL A   1      36.979  32.699  33.157  1.00  0.00     0.031 A 
ATOM     42  C   UNL A   1      37.636  33.021  34.472  1.00  0.00     0.074 A 
ATOM     43  C   UNL A   1      37.476  31.712  32.391  1.00  0.00     0.049 A 
ATOM     44  N   UNL A   1      38.744  32.556  34.987  1.00  0.00    -0.248 NA
ATOM     45  C   UNL A   1      36.946  34.009  35.316  1.00  0.00     0.031 C 
ATOM     46  C   UNL A   1      36.912  31.253  31.124  1.00  0.00     0.029 A 
ATOM     47  N   UNL A   1      38.594  30.930  32.565  1.00  0.00    -0.354 N 
ATOM     48  C   UNL A   1      38.895  33.203  36.207  1.00  0.00     0.074 A 
ATOM     49  C   UNL A   1      37.772  34.108  36.346  1.00  0.00     0.031 C 
ATOM     50  C   UNL A   1      37.702  30.287  30.621  1.00  0.00     0.029 A 
ATOM     51  C   UNL A   1      38.849  30.090  31.508  1.00  0.00     0.049 A 
ATOM     52  H   UNL A   1      39.158  30.969  33.371  1.00  0.00     0.167 HD
ATOM     53  C   UNL A   1      39.875  33.060  37.129  1.00  0.00     0.037 A 
ATOM     54  C   UNL A   1      39.904  29.285  31.267  1.00  0.00     0.037 A 
ATOM     55  C   UNL A   1      40.996  32.168  36.993  1.00  0.00     0.049 A 
ATOM     56  C   UNL A   1      41.035  29.212  32.264  1.00  0.00     0.074 A 
ATOM     57  C   UNL A   1      42.035  31.947  37.882  1.00  0.00     0.029 A 
ATOM     58  N   UNL A   1      41.234  31.357  35.893  1.00  0.00    -0.354 N 
ATOM     59  N   UNL A   1      41.164  29.818  33.419  1.00  0.00    -0.248 NA
ATOM     60  C   UNL A   1      42.171  28.344  31.917  1.00  0.00     0.031 C 
ATOM     61  C   UNL A   1      42.928  31.045  37.297  1.00  0.00     0.029 A 
ATOM     62  C   UNL A   1      42.417  30.659  36.069  1.00  0.00     0.049 A 
ATOM     63  H   UNL A   1      40.648  31.290  35.105  1.00  0.00     0.167 HD
ATOM     64  C   UNL A   1      42.375  29.384  33.947  1.00  0.00     0.074 A 
ATOM     65  C   UNL A   1      42.937  28.452  32.994  1.00  0.00     0.031 C 
ATOM     66  C   UNL A   1      42.967  29.725  35.118  1.00  0.00     0.037 A 
BRANCH  53  67
ATOM     67  C   UNL A   1      39.798  33.920  38.356  1.00  0.00     0.057 A 
ATOM     68  C   UNL A   1      39.123  33.506  39.511  1.00  0.00     0.134 A 
ATOM     69  C   UNL A   1      40.431  35.169  38.389  1.00  0.00     0.134 A 
ATOM     70  F   UNL A   1      38.481  32.328  39.540  1.00  0.00    -0.206 F 
ATOM     71  C   UNL A   1      39.061  34.314  40.649  1.00  0.00     0.040 A 
ATOM     72  C   UNL A   1      40.400  35.973  39.529  1.00  0.00     0.040 A 
ATOM     73  F   UNL A   1      41.098  35.624  37.317  1.00  0.00    -0.206 F 
ATOM     74  C   UNL A   1      39.708  35.549  40.661  1.00  0.00     0.006 A 
ENDBRANCH  53  67
BRANCH  54  75
ATOM     75  C   UNL A   1      39.974  28.501  30.006  1.00  0.00     0.057 A 
ATOM     76  C   UNL A   1      40.668  28.980  28.889  1.00  0.00     0.134 A 
ATOM     77  C   UNL A   1      39.312  27.274  29.872  1.00  0.00     0.134 A 
ATOM     78  F   UNL A   1      41.296  30.165  28.942  1.00  0.00    -0.206 F 
ATOM     79  C   UNL A   1      40.686  28.280  27.681  1.00  0.00     0.040 A 
ATOM     80  C   UNL A   1      39.345  26.548  28.680  1.00  0.00     0.040 A 
ATOM     81  F   UNL A   1      38.620  26.762  30.901  1.00  0.00    -0.206 F 
ATOM     82  C   UNL A   1      40.028  27.056  27.577  1.00  0.00     0.006 A 
ENDBRANCH  54  75
BRANCH  66  83
ATOM     83  C   UNL A   1      44.271  29.060  35.461  1.00  0.00     0.057 A 
ATOM     84  C   UNL A   1      45.507  29.620  35.112  1.00  0.00     0.134 A 
ATOM     85  C   UNL A   1      44.290  27.864  36.192  1.00  0.00     0.134 A 
ATOM     86  F   UNL A   1      45.562  30.758  34.403  1.00  0.00    -0.206 F 
ATOM     87  C   UNL A   1      46.712  29.003  35.457  1.00  0.00     0.040 A 
ATOM     88  C   UNL A   1      45.489  27.254  36.567  1.00  0.00     0.040 A 
ATOM     89  F   UNL A   1      43.144  27.279  36.570  1.00  0.00    -0.206 F 
ATOM     90  C   UNL A   1      46.704  27.821  36.192  1.00  0.00     0.006 A 
ENDBRANCH  66  83
ENDBRANCH  40  41
ENDBRANCH  33  35
ENDBRANCH  32  33
ENDBRANCH  31  32
ENDBRANCH  30  31
ENDBRANCH  29  30
ENDBRANCH  28  29
ENDBRANCH   1  28
TORSDOF 21
ENDMDL
MODEL 3
REMARK VINA RESULT:     -10.1      3.757      8.995
REMARK SMILES O=C(CC[N@H+]1CCC[C@@H](C(=O)OCCOCCOCCOC(=O)c2ccc(-c3c4nc(c(-c5c(F)cccc5F)c5ccc([nH]5)c(-c5c(F)cccc5F)c5nc(c(-c6c(F)cccc6F)c6ccc3[nH]6)C=C5)C=C4)cc2)C1)Nc1cccc(F)c1
REMARK SMILES IDX 16 1 15 2 14 3 13 4 12 5 10 6 11 7 9 8 5 9 6 10 78 11 7 13
REMARK SMILES IDX 8 14 4 15 3 16 2 17 1 18 79 19 80 21 81 22 86 23 82 24 84 25
REMARK SMILES IDX 83 26 85 27 17 28 18 29 19 30 20 31 21 32 22 33 23 34 24 35
REMARK SMILES IDX 25 36 77 37 26 38 76 39 27 40 28 41 29 42 70 43 30 44 75 45
REMARK SMILES IDX 69 46 71 47 31 48 74 49 68 50 67 51 32 53 58 54 41 55 57 56
REMARK SMILES IDX 42 57 45 58 56 59 72 60 43 61 44 62 55 64 73 65 46 66 33 67
REMARK SMILES IDX 34 68 39 69 35 70 36 71 38 72 40 73 37 74 59 75 60 76 65 77
REMARK SMILES IDX 61 78 62 79 64 80 66 81 63 82 47 83 48 84 53 85 49 86 50 87
REMARK SMILES IDX 52 88 54 89 51 90
REMARK H PARENT 5 12 79 20 71 52 45 63
REMARK Flexibility Score: inf
ROOT
ATOM      1  C   UNL A   1      39.331  21.119  26.111  1.00  0.00     0.188 C 
ENDROOT
BRANCH   1   2
ATOM      2  O   UNL A   1      38.167  21.490  25.378  1.00  0.00    -0.376 OA
BRANCH   2   3
ATOM      3  C   UNL A   1      37.633  22.794  25.534  1.00  0.00     0.202 C 
BRANCH   3   4
ATOM      4  C   UNL A   1      36.151  22.898  25.911  1.00  0.00     0.261 C 
BRANCH   4   5
ATOM      5  O   UNL A   1      35.492  21.650  26.201  1.00  0.00    -0.463 OA
BRANCH   5   6
ATOM      6  C   UNL A   1      34.228  21.720  26.696  1.00  0.00     0.314 C 
ATOM      7  O   UNL A   1      33.956  21.789  27.889  1.00  0.00    -0.252 OA
BRANCH   6   8
ATOM      8  C   UNL A   1      33.141  21.602  25.624  1.00  0.00     0.154 C 
ATOM      9  N   UNL A   1      32.188  22.685  23.509  1.00  0.00    -0.334 N 
ATOM     10  C   UNL A   1      32.283  21.417  22.793  1.00  0.00     0.262 C 
ATOM     11  C   UNL A   1      32.936  22.853  24.755  1.00  0.00     0.277 C 
ATOM     12  H   UNL A   1      31.278  22.601  23.961  1.00  0.00     0.348 HD
ATOM     13  C   UNL A   1      32.381  20.201  23.707  1.00  0.00     0.062 C 
ATOM     14  C   UNL A   1      33.455  20.379  24.769  1.00  0.00     0.027 C 
BRANCH   9  15
ATOM     15  C   UNL A   1      32.021  23.864  22.635  1.00  0.00     0.272 C 
BRANCH  15  16
ATOM     16  C   UNL A   1      33.238  24.662  22.130  1.00  0.00     0.161 C 
BRANCH  16  17
ATOM     17  C   UNL A   1      33.385  26.138  22.499  1.00  0.00     0.230 C 
ATOM     18  O   UNL A   1      33.651  26.967  21.631  1.00  0.00    -0.275 OA
ATOM     19  N   UNL A   1      33.080  26.433  23.805  1.00  0.00    -0.326 N 
ATOM     20  H   UNL A   1      33.153  25.684  24.437  1.00  0.00     0.169 HD
BRANCH  19  21
ATOM     21  C   UNL A   1      32.677  27.660  24.360  1.00  0.00     0.044 A 
ATOM     22  C   UNL A   1      33.415  28.125  25.462  1.00  0.00     0.026 A 
ATOM     23  C   UNL A   1      31.560  28.376  23.941  1.00  0.00     0.065 A 
ATOM     24  C   UNL A   1      33.034  29.280  26.147  1.00  0.00     0.005 A 
ATOM     25  C   UNL A   1      31.191  29.531  24.629  1.00  0.00     0.125 A 
ATOM     26  C   UNL A   1      31.913  29.986  25.728  1.00  0.00     0.039 A 
ATOM     27  F   UNL A   1      30.105  30.212  24.238  1.00  0.00    -0.207 F 
ENDBRANCH  19  21
ENDBRANCH  16  17
ENDBRANCH  15  16
ENDBRANCH   9  15
ENDBRANCH   6   8
ENDBRANCH   5   6
ENDBRANCH   4   5
ENDBRANCH   3   4
ENDBRANCH   2   3
ENDBRANCH   1   2
BRANCH   1  28
ATOM     28  C   UNL A   1      40.069  19.813  25.778  1.00  0.00     0.188 C 
BRANCH  28  29
ATOM     29  O   UNL A   1      41.475  19.957  25.765  1.00  0.00    -0.376 OA
BRANCH  29  30
ATOM     30  C   UNL A   1      41.956  21.239  26.130  1.00  0.00     0.202 C 
BRANCH  30  31
ATOM     31  C   UNL A   1      43.443  21.353  25.784  1.00  0.00     0.261 C 
BRANCH  31  32
ATOM     32  O   UNL A   1      44.086  22.535  26.306  1.00  0.00    -0.460 OA
BRANCH  32  33
ATOM     33  C   UNL A   1      43.923  23.682  25.607  1.00  0.00     0.338 C 
ATOM     34  O   UNL A   1      44.059  23.831  24.405  1.00  0.00    -0.246 OA
BRANCH  33  35
ATOM     35  C   UNL A   1      43.315  24.690  26.508  1.00  0.00     0.060 A 
ATOM     36  C   UNL A   1      43.732  26.026  26.407  1.00  0.00     0.016 A 
ATOM     37  C   UNL A   1      42.331  24.333  27.431  1.00  0.00     0.016 A 
ATOM     38  C   UNL A   1      43.174  27.004  27.238  1.00  0.00     0.010 A 
ATOM     39  C   UNL A   1      41.793  25.308  28.279  1.00  0.00     0.010 A 
ATOM     40  C   UNL A   1      42.224  26.646  28.202  1.00  0.00    -0.014 A 
BRANCH  40  41
ATOM     41  C   UNL A   1      41.806  27.611  29.253  1.00  0.00     0.031 A 
ATOM     42  C   UNL A   1      42.528  27.589  30.573  1.00  0.00     0.074 A 
ATOM     43  C   UNL A   1      40.795  28.478  29.064  1.00  0.00     0.049 A 
ATOM     44  N   UNL A   1      42.260  28.229  31.682  1.00  0.00    -0.248 NA
ATOM     45  C   UNL A   1      43.712  26.719  30.649  1.00  0.00     0.031 C 
ATOM     46  C   UNL A   1      40.044  28.650  27.823  1.00  0.00     0.029 A 
ATOM     47  N   UNL A   1      40.213  29.367  29.938  1.00  0.00    -0.354 N 
ATOM     48  C   UNL A   1      43.231  27.830  32.592  1.00  0.00     0.074 A 
ATOM     49  C   UNL A   1      44.084  26.878  31.910  1.00  0.00     0.031 C 
ATOM     50  C   UNL A   1      39.081  29.569  28.022  1.00  0.00     0.029 A 
ATOM     51  C   UNL A   1      39.121  30.018  29.415  1.00  0.00     0.049 A 
ATOM     52  H   UNL A   1      40.546  29.522  30.851  1.00  0.00     0.167 HD
ATOM     53  C   UNL A   1      43.401  28.219  33.877  1.00  0.00     0.037 A 
ATOM     54  C   UNL A   1      38.235  30.848  30.002  1.00  0.00     0.037 A 
ATOM     55  C   UNL A   1      42.553  29.160  34.562  1.00  0.00     0.049 A 
ATOM     56  C   UNL A   1      38.386  31.193  31.463  1.00  0.00     0.074 A 
ATOM     57  C   UNL A   1      42.656  29.623  35.863  1.00  0.00     0.029 A 
ATOM     58  N   UNL A   1      41.441  29.771  34.006  1.00  0.00    -0.354 N 
ATOM     59  N   UNL A   1      39.313  30.821  32.313  1.00  0.00    -0.248 NA
ATOM     60  C   UNL A   1      37.361  32.073  32.048  1.00  0.00     0.031 C 
ATOM     61  C   UNL A   1      41.573  30.472  36.112  1.00  0.00     0.029 A 
ATOM     62  C   UNL A   1      40.830  30.584  34.947  1.00  0.00     0.049 A 
ATOM     63  H   UNL A   1      41.131  29.646  33.080  1.00  0.00     0.167 HD
ATOM     64  C   UNL A   1      39.000  31.442  33.518  1.00  0.00     0.074 A 
ATOM     65  C   UNL A   1      37.806  32.226  33.287  1.00  0.00     0.031 C 
ATOM     66  C   UNL A   1      39.646  31.369  34.708  1.00  0.00     0.037 A 
BRANCH  53  67
ATOM     67  C   UNL A   1      44.531  27.595  34.642  1.00  0.00     0.057 A 
ATOM     68  C   UNL A   1      44.372  26.402  35.359  1.00  0.00     0.134 A 
ATOM     69  C   UNL A   1      45.803  28.182  34.637  1.00  0.00     0.134 A 
ATOM     70  F   UNL A   1      43.176  25.797  35.418  1.00  0.00    -0.206 F 
ATOM     71  C   UNL A   1      45.432  25.828  36.064  1.00  0.00     0.040 A 
ATOM     72  C   UNL A   1      46.877  27.603  35.314  1.00  0.00     0.040 A 
ATOM     73  F   UNL A   1      46.024  29.323  33.967  1.00  0.00    -0.206 F 
ATOM     74  C   UNL A   1      46.691  26.426  36.036  1.00  0.00     0.006 A 
ENDBRANCH  53  67
BRANCH  54  75
ATOM     75  C   UNL A   1      37.091  31.391  29.225  1.00  0.00     0.057 A 
ATOM     76  C   UNL A   1      37.111  32.695  28.716  1.00  0.00     0.134 A 
ATOM     77  C   UNL A   1      35.930  30.637  29.012  1.00  0.00     0.134 A 
ATOM     78  F   UNL A   1      38.180  33.481  28.915  1.00  0.00    -0.206 F 
ATOM     79  C   UNL A   1      36.015  33.235  28.040  1.00  0.00     0.040 A 
ATOM     80  C   UNL A   1      34.838  31.153  28.313  1.00  0.00     0.040 A 
ATOM     81  F   UNL A   1      35.841  29.383  29.482  1.00  0.00    -0.206 F 
ATOM     82  C   UNL A   1      34.875  32.460  27.832  1.00  0.00     0.006 A 
ENDBRANCH  54  75
BRANCH  66  83
ATOM     83  C   UNL A   1      39.105  32.190  35.847  1.00  0.00     0.057 A 
ATOM     84  C   UNL A   1      38.218  31.658  36.791  1.00  0.00     0.134 A 
ATOM     85  C   UNL A   1      39.514  33.519  36.024  1.00  0.00     0.134 A 
ATOM     86  F   UNL A   1      37.776  30.397  36.676  1.00  0.00    -0.206 F 
ATOM     87  C   UNL A   1      37.741  32.425  37.857  1.00  0.00     0.040 A 
ATOM     88  C   UNL A   1      39.067  34.285  37.102  1.00  0.00     0.040 A 
ATOM     89  F   UNL A   1      40.372  34.088  35.163  1.00  0.00    -0.206 F 
ATOM     90  C   UNL A   1      38.171  33.739  38.019  1.00  0.00     0.006 A 
ENDBRANCH  66  83
ENDBRANCH  40  41
ENDBRANCH  33  35
ENDBRANCH  32  33
ENDBRANCH  31  32
ENDBRANCH  30  31
ENDBRANCH  29  30
ENDBRANCH  28  29
ENDBRANCH   1  28
TORSDOF 21
ENDMDL
