MODEL 1
REMARK VINA RESULT:      -9.7      0.000      0.000
REMARK SMILES CC[NH+](CC)[C@@H](C(=O)OCCOCCOCCOC(=O)c1ccc(-c2c3nc(c(-c4c(F)cccc4F)c4ccc([nH]4)c(-c4c(F)cccc4F)c4nc(c(-c5c(F)cccc5F)c5ccc2[nH]5)C=C4)C=C3)cc1)c1ccc(C2CC2)cc1
REMARK SMILES IDX 13 1 12 2 11 3 10 4 9 5 7 6 8 7 6 8 3 9 2 11 1 12 4 13 5 14
REMARK SMILES IDX 75 15 76 16 83 17 77 18 82 19 78 20 79 21 80 22 81 23 14 24
REMARK SMILES IDX 15 25 16 26 17 27 18 28 19 29 20 30 21 31 22 32 74 33 23 34
REMARK SMILES IDX 73 35 24 36 25 37 26 38 67 39 27 40 72 41 66 42 68 43 28 44
REMARK SMILES IDX 71 45 65 46 64 47 29 49 55 50 38 51 54 52 39 53 42 54 53 55
REMARK SMILES IDX 69 56 40 57 41 58 52 60 70 61 43 62 30 63 31 64 36 65 32 66
REMARK SMILES IDX 33 67 35 68 37 69 34 70 56 71 57 72 62 73 58 74 59 75 61 76
REMARK SMILES IDX 63 77 60 78 44 79 45 80 50 81 46 82 47 83 49 84 51 85 48 86
REMARK H PARENT 3 10 68 48 42 59
REMARK Flexibility Score: inf
ROOT
ATOM      1  C   UNL A   1      39.790  21.652  26.455  1.00  0.00     0.188 C 
ENDROOT
BRANCH   1   2
ATOM      2  O   UNL A   1      38.853  22.265  25.580  1.00  0.00    -0.376 OA
BRANCH   2   3
ATOM      3  C   UNL A   1      37.513  21.779  25.675  1.00  0.00     0.202 C 
BRANCH   3   4
ATOM      4  C   UNL A   1      36.409  22.713  25.152  1.00  0.00     0.261 C 
BRANCH   4   5
ATOM      5  O   UNL A   1      35.648  22.207  24.024  1.00  0.00    -0.459 OA
BRANCH   5   6
ATOM      6  C   UNL A   1      34.648  23.019  23.571  1.00  0.00     0.369 C 
ATOM      7  O   UNL A   1      34.848  23.929  22.765  1.00  0.00    -0.245 OA
BRANCH   6   8
ATOM      8  C   UNL A   1      33.232  22.753  24.133  1.00  0.00     0.326 C 
BRANCH   8   9
ATOM      9  N   UNL A   1      32.641  23.712  25.102  1.00  0.00    -0.320 N 
ATOM     10  H   UNL A   1      32.415  22.966  25.759  1.00  0.00     0.349 HD
BRANCH   9  11
ATOM     11  C   UNL A   1      33.465  24.493  26.016  1.00  0.00     0.259 C 
ATOM     12  C   UNL A   1      33.982  25.814  25.447  1.00  0.00     0.071 C 
ENDBRANCH   9  11
BRANCH   9  13
ATOM     13  C   UNL A   1      31.374  24.337  24.729  1.00  0.00     0.259 C 
ATOM     14  C   UNL A   1      30.640  25.119  25.816  1.00  0.00     0.071 C 
ENDBRANCH   9  13
ENDBRANCH   8   9
BRANCH   8  15
ATOM     15  C   UNL A   1      32.986  21.284  24.504  1.00  0.00     0.021 A 
ATOM     16  C   UNL A   1      33.098  20.888  25.845  1.00  0.00     0.011 A 
ATOM     17  C   UNL A   1      32.733  20.284  23.554  1.00  0.00     0.011 A 
ATOM     18  C   UNL A   1      33.033  19.537  26.204  1.00  0.00     0.004 A 
ATOM     19  C   UNL A   1      32.667  18.933  23.923  1.00  0.00     0.004 A 
ATOM     20  C   UNL A   1      32.855  18.525  25.249  1.00  0.00    -0.045 A 
BRANCH  20  21
ATOM     21  C   UNL A   1      32.886  17.073  25.671  1.00  0.00     0.019 C 
ATOM     22  C   UNL A   1      32.836  15.941  24.677  1.00  0.00     0.009 C 
ATOM     23  C   UNL A   1      34.130  16.267  25.350  1.00  0.00     0.009 C 
ENDBRANCH  20  21
ENDBRANCH   8  15
ENDBRANCH   6   8
ENDBRANCH   5   6
ENDBRANCH   4   5
ENDBRANCH   3   4
ENDBRANCH   2   3
ENDBRANCH   1   2
BRANCH   1  24
ATOM     24  C   UNL A   1      40.208  20.231  26.088  1.00  0.00     0.188 C 
BRANCH  24  25
ATOM     25  O   UNL A   1      41.594  20.103  25.810  1.00  0.00    -0.376 OA
BRANCH  25  26
ATOM     26  C   UNL A   1      42.478  21.062  26.389  1.00  0.00     0.202 C 
BRANCH  26  27
ATOM     27  C   UNL A   1      43.366  21.867  25.422  1.00  0.00     0.261 C 
BRANCH  27  28
ATOM     28  O   UNL A   1      42.843  23.163  25.065  1.00  0.00    -0.460 OA
BRANCH  28  29
ATOM     29  C   UNL A   1      43.644  24.231  25.284  1.00  0.00     0.338 C 
ATOM     30  O   UNL A   1      44.662  24.513  24.676  1.00  0.00    -0.246 OA
BRANCH  29  31
ATOM     31  C   UNL A   1      42.964  25.149  26.234  1.00  0.00     0.060 A 
ATOM     32  C   UNL A   1      43.329  26.500  26.200  1.00  0.00     0.016 A 
ATOM     33  C   UNL A   1      41.971  24.718  27.119  1.00  0.00     0.016 A 
ATOM     34  C   UNL A   1      42.761  27.407  27.093  1.00  0.00     0.010 A 
ATOM     35  C   UNL A   1      41.409  25.625  28.030  1.00  0.00     0.010 A 
ATOM     36  C   UNL A   1      41.843  26.961  28.054  1.00  0.00    -0.014 A 
BRANCH  36  37
ATOM     37  C   UNL A   1      41.595  27.826  29.236  1.00  0.00     0.031 A 
ATOM     38  C   UNL A   1      40.343  28.664  29.230  1.00  0.00     0.074 A 
ATOM     39  C   UNL A   1      42.381  27.795  30.327  1.00  0.00     0.049 A 
ATOM     40  N   UNL A   1      39.836  29.416  30.173  1.00  0.00    -0.248 NA
ATOM     41  C   UNL A   1      39.562  28.657  27.982  1.00  0.00     0.031 C 
ATOM     42  C   UNL A   1      43.602  27.008  30.469  1.00  0.00     0.029 A 
ATOM     43  N   UNL A   1      42.221  28.395  31.553  1.00  0.00    -0.354 N 
ATOM     44  C   UNL A   1      38.707  30.006  29.616  1.00  0.00     0.074 A 
ATOM     45  C   UNL A   1      38.596  29.518  28.260  1.00  0.00     0.031 C 
ATOM     46  C   UNL A   1      44.027  27.094  31.743  1.00  0.00     0.029 A 
ATOM     47  C   UNL A   1      43.125  27.967  32.497  1.00  0.00     0.049 A 
ATOM     48  H   UNL A   1      41.525  29.067  31.739  1.00  0.00     0.167 HD
ATOM     49  C   UNL A   1      37.850  30.891  30.174  1.00  0.00     0.037 A 
ATOM     50  C   UNL A   1      43.182  28.218  33.820  1.00  0.00     0.037 A 
ATOM     51  C   UNL A   1      37.948  31.369  31.526  1.00  0.00     0.049 A 
ATOM     52  C   UNL A   1      42.179  29.166  34.438  1.00  0.00     0.074 A 
ATOM     53  C   UNL A   1      37.158  32.302  32.173  1.00  0.00     0.029 A 
ATOM     54  N   UNL A   1      38.896  30.940  32.443  1.00  0.00    -0.354 N 
ATOM     55  N   UNL A   1      41.131  29.739  33.897  1.00  0.00    -0.248 NA
ATOM     56  C   UNL A   1      42.388  29.518  35.851  1.00  0.00     0.031 C 
ATOM     57  C   UNL A   1      37.655  32.471  33.470  1.00  0.00     0.029 A 
ATOM     58  C   UNL A   1      38.719  31.601  33.647  1.00  0.00     0.049 A 
ATOM     59  H   UNL A   1      39.590  30.266  32.265  1.00  0.00     0.167 HD
ATOM     60  C   UNL A   1      40.566  30.524  34.898  1.00  0.00     0.074 A 
ATOM     61  C   UNL A   1      41.349  30.304  36.095  1.00  0.00     0.031 C 
ATOM     62  C   UNL A   1      39.513  31.376  34.827  1.00  0.00     0.037 A 
BRANCH  49  63
ATOM     63  C   UNL A   1      36.781  31.457  29.286  1.00  0.00     0.057 A 
ATOM     64  C   UNL A   1      35.636  30.732  28.933  1.00  0.00     0.134 A 
ATOM     65  C   UNL A   1      36.916  32.749  28.763  1.00  0.00     0.134 A 
ATOM     66  F   UNL A   1      35.461  29.477  29.377  1.00  0.00    -0.206 F 
ATOM     67  C   UNL A   1      34.677  31.261  28.068  1.00  0.00     0.040 A 
ATOM     68  C   UNL A   1      35.950  33.300  27.921  1.00  0.00     0.040 A 
ATOM     69  F   UNL A   1      37.991  33.495  29.058  1.00  0.00    -0.206 F 
ATOM     70  C   UNL A   1      34.831  32.552  27.564  1.00  0.00     0.006 A 
ENDBRANCH  49  63
BRANCH  50  71
ATOM     71  C   UNL A   1      44.192  27.548  34.687  1.00  0.00     0.057 A 
ATOM     72  C   UNL A   1      45.440  28.143  34.923  1.00  0.00     0.134 A 
ATOM     73  C   UNL A   1      43.972  26.286  35.248  1.00  0.00     0.134 A 
ATOM     74  F   UNL A   1      45.726  29.344  34.395  1.00  0.00    -0.206 F 
ATOM     75  C   UNL A   1      46.437  27.499  35.657  1.00  0.00     0.040 A 
ATOM     76  C   UNL A   1      44.949  25.644  36.015  1.00  0.00     0.040 A 
ATOM     77  F   UNL A   1      42.805  25.654  35.060  1.00  0.00    -0.206 F 
ATOM     78  C   UNL A   1      46.190  26.245  36.211  1.00  0.00     0.006 A 
ENDBRANCH  50  71
BRANCH  62  79
ATOM     79  C   UNL A   1      39.162  32.147  36.070  1.00  0.00     0.057 A 
ATOM     80  C   UNL A   1      39.691  33.421  36.318  1.00  0.00     0.134 A 
ATOM     81  C   UNL A   1      38.255  31.634  37.005  1.00  0.00     0.134 A 
ATOM     82  F   UNL A   1      40.568  33.971  35.463  1.00  0.00    -0.206 F 
ATOM     83  C   UNL A   1      39.358  34.142  37.465  1.00  0.00     0.040 A 
ATOM     84  C   UNL A   1      37.891  32.358  38.143  1.00  0.00     0.040 A 
ATOM     85  F   UNL A   1      37.696  30.428  36.823  1.00  0.00    -0.206 F 
ATOM     86  C   UNL A   1      38.450  33.611  38.380  1.00  0.00     0.006 A 
ENDBRANCH  62  79
ENDBRANCH  36  37
ENDBRANCH  29  31
ENDBRANCH  28  29
ENDBRANCH  27  28
ENDBRANCH  26  27
ENDBRANCH  25  26
ENDBRANCH  24  25
ENDBRANCH   1  24
TORSDOF 22
ENDMDL
MODEL 2
REMARK VINA RESULT:      -9.5      3.693      7.102
REMARK SMILES CC[NH+](CC)[C@@H](C(=O)OCCOCCOCCOC(=O)c1ccc(-c2c3nc(c(-c4c(F)cccc4F)c4ccc([nH]4)c(-c4c(F)cccc4F)c4nc(c(-c5c(F)cccc5F)c5ccc2[nH]5)C=C4)C=C3)cc1)c1ccc(C2CC2)cc1
REMARK SMILES IDX 13 1 12 2 11 3 10 4 9 5 7 6 8 7 6 8 3 9 2 11 1 12 4 13 5 14
REMARK SMILES IDX 75 15 76 16 83 17 77 18 82 19 78 20 79 21 80 22 81 23 14 24
REMARK SMILES IDX 15 25 16 26 17 27 18 28 19 29 20 30 21 31 22 32 74 33 23 34
REMARK SMILES IDX 73 35 24 36 25 37 26 38 67 39 27 40 72 41 66 42 68 43 28 44
REMARK SMILES IDX 71 45 65 46 64 47 29 49 55 50 38 51 54 52 39 53 42 54 53 55
REMARK SMILES IDX 69 56 40 57 41 58 52 60 70 61 43 62 30 63 31 64 36 65 32 66
REMARK SMILES IDX 33 67 35 68 37 69 34 70 56 71 57 72 62 73 58 74 59 75 61 76
REMARK SMILES IDX 63 77 60 78 44 79 45 80 50 81 46 82 47 83 49 84 51 85 48 86
REMARK H PARENT 3 10 68 48 42 59
REMARK Flexibility Score: inf
ROOT
ATOM      1  C   UNL A   1      39.744  20.751  25.681  1.00  0.00     0.188 C 
ENDROOT
BRANCH   1   2
ATOM      2  O   UNL A   1      39.678  22.162  25.835  1.00  0.00    -0.376 OA
BRANCH   2   3
ATOM      3  C   UNL A   1      38.424  22.675  26.291  1.00  0.00     0.202 C 
BRANCH   3   4
ATOM      4  C   UNL A   1      37.370  22.959  25.209  1.00  0.00     0.261 C 
BRANCH   4   5
ATOM      5  O   UNL A   1      36.305  23.865  25.602  1.00  0.00    -0.459 OA
BRANCH   5   6
ATOM      6  C   UNL A   1      35.077  23.295  25.779  1.00  0.00     0.369 C 
ATOM      7  O   UNL A   1      34.568  23.150  26.891  1.00  0.00    -0.245 OA
BRANCH   6   8
ATOM      8  C   UNL A   1      34.345  22.816  24.503  1.00  0.00     0.326 C 
BRANCH   8   9
ATOM      9  N   UNL A   1      33.252  23.647  23.936  1.00  0.00    -0.320 N 
ATOM     10  H   UNL A   1      32.613  22.852  23.909  1.00  0.00     0.349 HD
BRANCH   9  11
ATOM     11  C   UNL A   1      32.419  24.501  24.771  1.00  0.00     0.259 C 
ATOM     12  C   UNL A   1      31.289  23.779  25.505  1.00  0.00     0.071 C 
ENDBRANCH   9  11
BRANCH   9  13
ATOM     13  C   UNL A   1      33.410  24.100  22.555  1.00  0.00     0.259 C 
ATOM     14  C   UNL A   1      32.502  25.236  22.090  1.00  0.00     0.071 C 
ENDBRANCH   9  13
ENDBRANCH   8   9
BRANCH   8  15
ATOM     15  C   UNL A   1      34.030  21.314  24.505  1.00  0.00     0.021 A 
ATOM     16  C   UNL A   1      35.023  20.407  24.905  1.00  0.00     0.011 A 
ATOM     17  C   UNL A   1      32.818  20.782  24.042  1.00  0.00     0.011 A 
ATOM     18  C   UNL A   1      34.831  19.026  24.777  1.00  0.00     0.004 A 
ATOM     19  C   UNL A   1      32.633  19.398  23.918  1.00  0.00     0.004 A 
ATOM     20  C   UNL A   1      33.649  18.491  24.244  1.00  0.00    -0.045 A 
BRANCH  20  21
ATOM     21  C   UNL A   1      33.523  16.998  24.035  1.00  0.00     0.019 C 
ATOM     22  C   UNL A   1      34.296  15.998  24.857  1.00  0.00     0.009 C 
ATOM     23  C   UNL A   1      32.836  16.185  25.117  1.00  0.00     0.009 C 
ENDBRANCH  20  21
ENDBRANCH   8  15
ENDBRANCH   6   8
ENDBRANCH   5   6
ENDBRANCH   4   5
ENDBRANCH   3   4
ENDBRANCH   2   3
ENDBRANCH   1   2
BRANCH   1  24
ATOM     24  C   UNL A   1      40.923  20.066  26.365  1.00  0.00     0.188 C 
BRANCH  24  25
ATOM     25  O   UNL A   1      41.366  18.897  25.691  1.00  0.00    -0.376 OA
BRANCH  25  26
ATOM     26  C   UNL A   1      42.658  18.389  26.023  1.00  0.00     0.202 C 
BRANCH  26  27
ATOM     27  C   UNL A   1      43.824  18.790  25.101  1.00  0.00     0.261 C 
BRANCH  27  28
ATOM     28  O   UNL A   1      44.526  19.984  25.507  1.00  0.00    -0.460 OA
BRANCH  28  29
ATOM     29  C   UNL A   1      44.400  21.071  24.713  1.00  0.00     0.338 C 
ATOM     30  O   UNL A   1      44.461  21.095  23.496  1.00  0.00    -0.246 OA
BRANCH  29  31
ATOM     31  C   UNL A   1      43.938  22.214  25.542  1.00  0.00     0.060 A 
ATOM     32  C   UNL A   1      43.637  23.412  24.883  1.00  0.00     0.016 A 
ATOM     33  C   UNL A   1      43.768  22.121  26.928  1.00  0.00     0.016 A 
ATOM     34  C   UNL A   1      43.240  24.535  25.606  1.00  0.00     0.010 A 
ATOM     35  C   UNL A   1      43.383  23.253  27.660  1.00  0.00     0.010 A 
ATOM     36  C   UNL A   1      43.170  24.478  27.005  1.00  0.00    -0.014 A 
BRANCH  36  37
ATOM     37  C   UNL A   1      43.175  25.760  27.756  1.00  0.00     0.031 A 
ATOM     38  C   UNL A   1      44.503  26.447  27.944  1.00  0.00     0.074 A 
ATOM     39  C   UNL A   1      42.042  26.360  28.161  1.00  0.00     0.049 A 
ATOM     40  N   UNL A   1      44.773  27.618  28.460  1.00  0.00    -0.248 NA
ATOM     41  C   UNL A   1      45.690  25.700  27.495  1.00  0.00     0.031 C 
ATOM     42  C   UNL A   1      40.696  25.816  28.014  1.00  0.00     0.029 A 
ATOM     43  N   UNL A   1      41.845  27.602  28.717  1.00  0.00    -0.354 N 
ATOM     44  C   UNL A   1      46.158  27.727  28.440  1.00  0.00     0.074 A 
ATOM     45  C   UNL A   1      46.673  26.510  27.852  1.00  0.00     0.031 C 
ATOM     46  C   UNL A   1      39.805  26.757  28.378  1.00  0.00     0.029 A 
ATOM     47  C   UNL A   1      40.520  27.959  28.810  1.00  0.00     0.049 A 
ATOM     48  H   UNL A   1      42.582  28.181  29.020  1.00  0.00     0.167 HD
ATOM     49  C   UNL A   1      46.936  28.738  28.889  1.00  0.00     0.037 A 
ATOM     50  C   UNL A   1      39.962  29.136  29.160  1.00  0.00     0.037 A 
ATOM     51  C   UNL A   1      46.429  29.955  29.461  1.00  0.00     0.049 A 
ATOM     52  C   UNL A   1      40.851  30.274  29.604  1.00  0.00     0.074 A 
ATOM     53  C   UNL A   1      47.134  31.022  29.990  1.00  0.00     0.029 A 
ATOM     54  N   UNL A   1      45.083  30.270  29.570  1.00  0.00    -0.354 N 
ATOM     55  N   UNL A   1      42.161  30.358  29.607  1.00  0.00    -0.248 NA
ATOM     56  C   UNL A   1      40.176  31.477  30.119  1.00  0.00     0.031 C 
ATOM     57  C   UNL A   1      46.213  31.964  30.459  1.00  0.00     0.029 A 
ATOM     58  C   UNL A   1      44.936  31.508  30.172  1.00  0.00     0.049 A 
ATOM     59  H   UNL A   1      44.342  29.697  29.266  1.00  0.00     0.167 HD
ATOM     60  C   UNL A   1      42.462  31.612  30.130  1.00  0.00     0.074 A 
ATOM     61  C   UNL A   1      41.200  32.278  30.374  1.00  0.00     0.031 C 
ATOM     62  C   UNL A   1      43.673  32.154  30.415  1.00  0.00     0.037 A 
BRANCH  49  63
ATOM     63  C   UNL A   1      48.421  28.525  28.849  1.00  0.00     0.057 A 
ATOM     64  C   UNL A   1      49.208  28.921  27.761  1.00  0.00     0.134 A 
ATOM     65  C   UNL A   1      49.067  27.892  29.919  1.00  0.00     0.134 A 
ATOM     66  F   UNL A   1      48.647  29.506  26.691  1.00  0.00    -0.206 F 
ATOM     67  C   UNL A   1      50.581  28.671  27.726  1.00  0.00     0.040 A 
ATOM     68  C   UNL A   1      50.442  27.663  29.909  1.00  0.00     0.040 A 
ATOM     69  F   UNL A   1      48.370  27.484  30.990  1.00  0.00    -0.206 F 
ATOM     70  C   UNL A   1      51.203  28.045  28.806  1.00  0.00     0.006 A 
ENDBRANCH  49  63
BRANCH  50  71
ATOM     71  C   UNL A   1      38.489  29.342  29.079  1.00  0.00     0.057 A 
ATOM     72  C   UNL A   1      37.880  29.682  27.861  1.00  0.00     0.134 A 
ATOM     73  C   UNL A   1      37.663  29.268  30.204  1.00  0.00     0.134 A 
ATOM     74  F   UNL A   1      38.619  29.793  26.746  1.00  0.00    -0.206 F 
ATOM     75  C   UNL A   1      36.517  29.967  27.773  1.00  0.00     0.040 A 
ATOM     76  C   UNL A   1      36.290  29.518  30.125  1.00  0.00     0.040 A 
ATOM     77  F   UNL A   1      38.176  28.955  31.403  1.00  0.00    -0.206 F 
ATOM     78  C   UNL A   1      35.715  29.880  28.908  1.00  0.00     0.006 A 
ENDBRANCH  50  71
BRANCH  62  79
ATOM     79  C   UNL A   1      43.689  33.522  31.040  1.00  0.00     0.057 A 
ATOM     80  C   UNL A   1      43.728  34.685  30.258  1.00  0.00     0.134 A 
ATOM     81  C   UNL A   1      43.622  33.682  32.429  1.00  0.00     0.134 A 
ATOM     82  F   UNL A   1      43.796  34.603  28.921  1.00  0.00    -0.206 F 
ATOM     83  C   UNL A   1      43.733  35.955  30.837  1.00  0.00     0.040 A 
ATOM     84  C   UNL A   1      43.596  34.948  33.018  1.00  0.00     0.040 A 
ATOM     85  F   UNL A   1      43.565  32.612  33.238  1.00  0.00    -0.206 F 
ATOM     86  C   UNL A   1      43.662  36.089  32.222  1.00  0.00     0.006 A 
ENDBRANCH  62  79
ENDBRANCH  36  37
ENDBRANCH  29  31
ENDBRANCH  28  29
ENDBRANCH  27  28
ENDBRANCH  26  27
ENDBRANCH  25  26
ENDBRANCH  24  25
ENDBRANCH   1  24
TORSDOF 22
ENDMDL
MODEL 3
REMARK VINA RESULT:      -9.5      5.246     10.405
REMARK SMILES CC[NH+](CC)[C@@H](C(=O)OCCOCCOCCOC(=O)c1ccc(-c2c3nc(c(-c4c(F)cccc4F)c4ccc([nH]4)c(-c4c(F)cccc4F)c4nc(c(-c5c(F)cccc5F)c5ccc2[nH]5)C=C4)C=C3)cc1)c1ccc(C2CC2)cc1
REMARK SMILES IDX 13 1 12 2 11 3 10 4 9 5 7 6 8 7 6 8 3 9 2 11 1 12 4 13 5 14
REMARK SMILES IDX 75 15 76 16 83 17 77 18 82 19 78 20 79 21 80 22 81 23 14 24
REMARK SMILES IDX 15 25 16 26 17 27 18 28 19 29 20 30 21 31 22 32 74 33 23 34
REMARK SMILES IDX 73 35 24 36 25 37 26 38 67 39 27 40 72 41 66 42 68 43 28 44
REMARK SMILES IDX 71 45 65 46 64 47 29 49 55 50 38 51 54 52 39 53 42 54 53 55
REMARK SMILES IDX 69 56 40 57 41 58 52 60 70 61 43 62 30 63 31 64 36 65 32 66
REMARK SMILES IDX 33 67 35 68 37 69 34 70 56 71 57 72 62 73 58 74 59 75 61 76
REMARK SMILES IDX 63 77 60 78 44 79 45 80 50 81 46 82 47 83 49 84 51 85 48 86
REMARK H PARENT 3 10 68 48 42 59
REMARK Flexibility Score: inf
ROOT
ATOM      1  C   UNL A   1      34.158  30.818  27.844  1.00  0.00     0.188 C 
ENDROOT
BRANCH   1   2
ATOM      2  O   UNL A   1      33.510  30.091  26.809  1.00  0.00    -0.376 OA
BRANCH   2   3
ATOM      3  C   UNL A   1      32.171  29.680  27.091  1.00  0.00     0.202 C 
BRANCH   3   4
ATOM      4  C   UNL A   1      31.968  28.189  27.408  1.00  0.00     0.261 C 
BRANCH   4   5
ATOM      5  O   UNL A   1      32.608  27.264  26.490  1.00  0.00    -0.459 OA
BRANCH   5   6
ATOM      6  C   UNL A   1      31.834  26.227  26.057  1.00  0.00     0.369 C 
ATOM      7  O   UNL A   1      31.409  25.355  26.817  1.00  0.00    -0.245 OA
BRANCH   6   8
ATOM      8  C   UNL A   1      31.518  26.182  24.544  1.00  0.00     0.326 C 
BRANCH   8   9
ATOM      9  N   UNL A   1      32.588  25.800  23.588  1.00  0.00    -0.320 N 
ATOM     10  H   UNL A   1      32.702  26.764  23.274  1.00  0.00     0.349 HD
BRANCH   9  11
ATOM     11  C   UNL A   1      33.967  25.600  24.012  1.00  0.00     0.259 C 
ATOM     12  C   UNL A   1      34.432  24.144  24.022  1.00  0.00     0.071 C 
ENDBRANCH   9  11
BRANCH   9  13
ATOM     13  C   UNL A   1      32.186  25.026  22.414  1.00  0.00     0.259 C 
ATOM     14  C   UNL A   1      32.602  25.569  21.049  1.00  0.00     0.071 C 
ENDBRANCH   9  13
ENDBRANCH   8   9
BRANCH   8  15
ATOM     15  C   UNL A   1      30.663  27.362  24.062  1.00  0.00     0.021 A 
ATOM     16  C   UNL A   1      29.293  27.166  23.831  1.00  0.00     0.011 A 
ATOM     17  C   UNL A   1      31.195  28.622  23.753  1.00  0.00     0.011 A 
ATOM     18  C   UNL A   1      28.510  28.168  23.247  1.00  0.00     0.004 A 
ATOM     19  C   UNL A   1      30.403  29.622  23.171  1.00  0.00     0.004 A 
ATOM     20  C   UNL A   1      29.054  29.404  22.867  1.00  0.00    -0.045 A 
BRANCH  20  21
ATOM     21  C   UNL A   1      28.192  30.422  22.153  1.00  0.00     0.019 C 
ATOM     22  C   UNL A   1      27.607  31.620  22.855  1.00  0.00     0.009 C 
ATOM     23  C   UNL A   1      28.767  31.808  21.933  1.00  0.00     0.009 C 
ENDBRANCH  20  21
ENDBRANCH   8  15
ENDBRANCH   6   8
ENDBRANCH   5   6
ENDBRANCH   4   5
ENDBRANCH   3   4
ENDBRANCH   2   3
ENDBRANCH   1   2
BRANCH   1  24
ATOM     24  C   UNL A   1      34.072  32.338  27.737  1.00  0.00     0.188 C 
BRANCH  24  25
ATOM     25  O   UNL A   1      34.094  32.995  28.996  1.00  0.00    -0.376 OA
BRANCH  25  26
ATOM     26  C   UNL A   1      35.192  33.863  29.273  1.00  0.00     0.202 C 
BRANCH  26  27
ATOM     27  C   UNL A   1      35.820  33.769  30.676  1.00  0.00     0.261 C 
BRANCH  27  28
ATOM     28  O   UNL A   1      36.907  32.827  30.784  1.00  0.00    -0.460 OA
BRANCH  28  29
ATOM     29  C   UNL A   1      36.579  31.524  30.940  1.00  0.00     0.338 C 
ATOM     30  O   UNL A   1      35.528  31.086  31.375  1.00  0.00    -0.246 OA
BRANCH  29  31
ATOM     31  C   UNL A   1      37.613  30.690  30.276  1.00  0.00     0.060 A 
ATOM     32  C   UNL A   1      38.463  29.938  31.096  1.00  0.00     0.016 A 
ATOM     33  C   UNL A   1      37.739  30.611  28.885  1.00  0.00     0.016 A 
ATOM     34  C   UNL A   1      39.482  29.168  30.539  1.00  0.00     0.010 A 
ATOM     35  C   UNL A   1      38.774  29.850  28.322  1.00  0.00     0.010 A 
ATOM     36  C   UNL A   1      39.680  29.169  29.151  1.00  0.00    -0.014 A 
BRANCH  36  37
ATOM     37  C   UNL A   1      40.997  28.712  28.635  1.00  0.00     0.031 A 
ATOM     38  C   UNL A   1      42.173  29.635  28.826  1.00  0.00     0.074 A 
ATOM     39  C   UNL A   1      41.180  27.484  28.119  1.00  0.00     0.049 A 
ATOM     40  N   UNL A   1      43.441  29.437  28.571  1.00  0.00    -0.248 NA
ATOM     41  C   UNL A   1      41.871  30.969  29.371  1.00  0.00     0.031 C 
ATOM     42  C   UNL A   1      40.133  26.489  27.908  1.00  0.00     0.029 A 
ATOM     43  N   UNL A   1      42.336  26.842  27.746  1.00  0.00    -0.354 N 
ATOM     44  C   UNL A   1      44.076  30.633  28.880  1.00  0.00     0.074 A 
ATOM     45  C   UNL A   1      43.060  31.548  29.350  1.00  0.00     0.031 C 
ATOM     46  C   UNL A   1      40.705  25.329  27.536  1.00  0.00     0.029 A 
ATOM     47  C   UNL A   1      42.155  25.509  27.454  1.00  0.00     0.049 A 
ATOM     48  H   UNL A   1      43.211  27.292  27.691  1.00  0.00     0.167 HD
ATOM     49  C   UNL A   1      45.386  30.953  28.763  1.00  0.00     0.037 A 
ATOM     50  C   UNL A   1      43.065  24.547  27.198  1.00  0.00     0.037 A 
ATOM     51  C   UNL A   1      46.402  30.044  28.309  1.00  0.00     0.049 A 
ATOM     52  C   UNL A   1      44.530  24.911  27.129  1.00  0.00     0.074 A 
ATOM     53  C   UNL A   1      47.750  30.282  28.110  1.00  0.00     0.029 A 
ATOM     54  N   UNL A   1      46.179  28.712  27.991  1.00  0.00    -0.354 N 
ATOM     55  N   UNL A   1      45.119  26.053  27.397  1.00  0.00    -0.248 NA
ATOM     56  C   UNL A   1      45.454  23.851  26.696  1.00  0.00     0.031 C 
ATOM     57  C   UNL A   1      48.336  29.106  27.629  1.00  0.00     0.029 A 
ATOM     58  C   UNL A   1      47.362  28.121  27.583  1.00  0.00     0.049 A 
ATOM     59  H   UNL A   1      45.309  28.256  28.047  1.00  0.00     0.167 HD
ATOM     60  C   UNL A   1      46.474  25.849  27.155  1.00  0.00     0.074 A 
ATOM     61  C   UNL A   1      46.628  24.459  26.780  1.00  0.00     0.031 C 
ATOM     62  C   UNL A   1      47.497  26.738  27.205  1.00  0.00     0.037 A 
BRANCH  49  63
ATOM     63  C   UNL A   1      45.769  32.373  29.058  1.00  0.00     0.057 A 
ATOM     64  C   UNL A   1      45.719  33.381  28.087  1.00  0.00     0.134 A 
ATOM     65  C   UNL A   1      46.213  32.728  30.337  1.00  0.00     0.134 A 
ATOM     66  F   UNL A   1      45.331  33.101  26.834  1.00  0.00    -0.206 F 
ATOM     67  C   UNL A   1      46.124  34.687  28.372  1.00  0.00     0.040 A 
ATOM     68  C   UNL A   1      46.593  34.035  30.643  1.00  0.00     0.040 A 
ATOM     69  F   UNL A   1      46.289  31.809  31.312  1.00  0.00    -0.206 F 
ATOM     70  C   UNL A   1      46.557  35.017  29.655  1.00  0.00     0.006 A 
ENDBRANCH  49  63
BRANCH  50  71
ATOM     71  C   UNL A   1      42.651  23.127  27.022  1.00  0.00     0.057 A 
ATOM     72  C   UNL A   1      42.294  22.342  28.129  1.00  0.00     0.134 A 
ATOM     73  C   UNL A   1      42.658  22.498  25.773  1.00  0.00     0.134 A 
ATOM     74  F   UNL A   1      42.290  22.876  29.361  1.00  0.00    -0.206 F 
ATOM     75  C   UNL A   1      41.988  20.986  28.004  1.00  0.00     0.040 A 
ATOM     76  C   UNL A   1      42.321  21.149  25.628  1.00  0.00     0.040 A 
ATOM     77  F   UNL A   1      42.995  23.183  24.671  1.00  0.00    -0.206 F 
ATOM     78  C   UNL A   1      41.996  20.386  26.748  1.00  0.00     0.006 A 
ENDBRANCH  50  71
BRANCH  62  79
ATOM     79  C   UNL A   1      48.865  26.241  26.828  1.00  0.00     0.057 A 
ATOM     80  C   UNL A   1      49.379  26.414  25.535  1.00  0.00     0.134 A 
ATOM     81  C   UNL A   1      49.696  25.624  27.772  1.00  0.00     0.134 A 
ATOM     82  F   UNL A   1      48.635  26.995  24.580  1.00  0.00    -0.206 F 
ATOM     83  C   UNL A   1      50.653  25.963  25.186  1.00  0.00     0.040 A 
ATOM     84  C   UNL A   1      50.983  25.195  27.443  1.00  0.00     0.040 A 
ATOM     85  F   UNL A   1      49.276  25.442  29.033  1.00  0.00    -0.206 F 
ATOM     86  C   UNL A   1      51.461  25.355  26.144  1.00  0.00     0.006 A 
ENDBRANCH  62  79
ENDBRANCH  36  37
ENDBRANCH  29  31
ENDBRANCH  28  29
ENDBRANCH  27  28
ENDBRANCH  26  27
ENDBRANCH  25  26
ENDBRANCH  24  25
ENDBRANCH   1  24
TORSDOF 22
ENDMDL
