MODEL 1
REMARK VINA RESULT:      -9.7      0.000      0.000
REMARK SMILES COc1ccccc1/C=C/C(=O)N(CC(=O)OCCOCCOCCOC(=O)c1ccc(-c2c3nc(c(-c4c(F)cccc4F)c4ccc([nH]4)c(-c4c(F)cccc4F)c4nc(c(-c5c(F)cccc5F)c5ccc2[nH]5)C=C4)C=C3)cc1)C(C)(C)C
REMARK SMILES IDX 20 1 19 2 18 3 17 4 15 5 16 6 14 7 13 8 11 9 12 10 10 11
REMARK SMILES IDX 9 12 8 13 3 14 4 15 5 16 7 17 6 18 2 19 1 20 83 21 84 22
REMARK SMILES IDX 85 23 86 24 21 25 22 26 23 27 24 28 25 29 26 30 27 31 28 32
REMARK SMILES IDX 29 33 30 34 82 35 31 36 81 37 32 38 33 39 34 40 75 41 35 42
REMARK SMILES IDX 80 43 74 44 76 45 36 46 79 47 73 48 72 49 37 51 63 52 46 53
REMARK SMILES IDX 62 54 47 55 50 56 61 57 77 58 48 59 49 60 60 62 78 63 51 64
REMARK SMILES IDX 38 65 39 66 44 67 40 68 41 69 43 70 45 71 42 72 64 73 65 74
REMARK SMILES IDX 70 75 66 76 67 77 69 78 71 79 68 80 52 81 53 82 58 83 54 84
REMARK SMILES IDX 55 85 57 86 59 87 56 88
REMARK H PARENT 76 50 50 61
REMARK Flexibility Score: inf
ROOT
ATOM      1  O   UNL A   1      39.579  20.039  25.982  1.00  0.00    -0.376 OA
ENDROOT
BRANCH   1   2
ATOM      2  C   UNL A   1      38.899  21.276  25.802  1.00  0.00     0.202 C 
BRANCH   2   3
ATOM      3  C   UNL A   1      37.735  21.249  24.807  1.00  0.00     0.261 C 
BRANCH   3   4
ATOM      4  O   UNL A   1      36.459  21.635  25.367  1.00  0.00    -0.462 OA
BRANCH   4   5
ATOM      5  C   UNL A   1      36.194  22.969  25.361  1.00  0.00     0.325 C 
ATOM      6  O   UNL A   1      36.690  23.771  24.574  1.00  0.00    -0.250 OA
BRANCH   5   7
ATOM      7  C   UNL A   1      35.254  23.439  26.480  1.00  0.00     0.243 C 
BRANCH   7   8
ATOM      8  N   UNL A   1      33.805  23.611  26.212  1.00  0.00    -0.323 N 
BRANCH   8   9
ATOM      9  C   UNL A   1      33.328  24.660  25.421  1.00  0.00     0.247 C 
ATOM     10  O   UNL A   1      33.137  24.601  24.210  1.00  0.00    -0.270 OA
BRANCH   9  11
ATOM     11  C   UNL A   1      33.249  25.994  26.052  1.00  0.00     0.072 C 
ATOM     12  C   UNL A   1      33.769  27.095  25.497  1.00  0.00     0.017 C 
BRANCH  12  13
ATOM     13  C   UNL A   1      33.576  28.403  26.129  1.00  0.00     0.017 A 
ATOM     14  C   UNL A   1      32.350  29.078  26.032  1.00  0.00     0.126 A 
ATOM     15  C   UNL A   1      32.191  30.340  26.613  1.00  0.00     0.047 A 
ATOM     16  C   UNL A   1      33.233  30.908  27.343  1.00  0.00     0.004 A 
ATOM     17  C   UNL A   1      34.618  28.988  26.863  1.00  0.00     0.012 A 
ATOM     18  C   UNL A   1      34.443  30.231  27.474  1.00  0.00     0.001 A 
BRANCH  14  19
ATOM     19  O   UNL A   1      31.322  28.519  25.315  1.00  0.00    -0.496 OA
ATOM     20  C   UNL A   1      31.125  29.198  24.073  1.00  0.00     0.278 C 
ENDBRANCH  14  19
ENDBRANCH  12  13
ENDBRANCH   9  11
ENDBRANCH   8   9
BRANCH   8  21
ATOM     21  C   UNL A   1      32.834  22.539  26.625  1.00  0.00     0.035 C 
ATOM     22  C   UNL A   1      32.958  21.271  25.751  1.00  0.00     0.034 C 
ATOM     23  C   UNL A   1      33.077  22.167  28.106  1.00  0.00     0.034 C 
ATOM     24  C   UNL A   1      31.367  22.991  26.544  1.00  0.00     0.034 C 
ENDBRANCH   8  21
ENDBRANCH   7   8
ENDBRANCH   5   7
ENDBRANCH   4   5
ENDBRANCH   3   4
ENDBRANCH   2   3
ENDBRANCH   1   2
BRANCH   1  25
ATOM     25  C   UNL A   1      40.926  20.091  26.447  1.00  0.00     0.188 C 
BRANCH  25  26
ATOM     26  C   UNL A   1      41.208  20.927  27.696  1.00  0.00     0.188 C 
BRANCH  26  27
ATOM     27  O   UNL A   1      42.236  21.885  27.446  1.00  0.00    -0.376 OA
BRANCH  27  28
ATOM     28  C   UNL A   1      42.718  21.820  26.101  1.00  0.00     0.202 C 
BRANCH  28  29
ATOM     29  C   UNL A   1      42.853  23.233  25.527  1.00  0.00     0.261 C 
BRANCH  29  30
ATOM     30  O   UNL A   1      41.923  24.169  26.116  1.00  0.00    -0.460 OA
BRANCH  30  31
ATOM     31  C   UNL A   1      42.082  25.455  25.756  1.00  0.00     0.338 C 
ATOM     32  O   UNL A   1      42.593  25.878  24.725  1.00  0.00    -0.246 OA
BRANCH  31  33
ATOM     33  C   UNL A   1      41.429  26.335  26.739  1.00  0.00     0.060 A 
ATOM     34  C   UNL A   1      41.717  27.695  26.678  1.00  0.00     0.016 A 
ATOM     35  C   UNL A   1      40.689  25.831  27.804  1.00  0.00     0.016 A 
ATOM     36  C   UNL A   1      41.359  28.551  27.720  1.00  0.00     0.010 A 
ATOM     37  C   UNL A   1      40.285  26.698  28.832  1.00  0.00     0.010 A 
ATOM     38  C   UNL A   1      40.666  28.056  28.830  1.00  0.00    -0.014 A 
BRANCH  38  39
ATOM     39  C   UNL A   1      40.489  28.910  30.041  1.00  0.00     0.031 A 
ATOM     40  C   UNL A   1      39.350  29.901  30.088  1.00  0.00     0.074 A 
ATOM     41  C   UNL A   1      41.270  28.772  31.132  1.00  0.00     0.049 A 
ATOM     42  N   UNL A   1      39.097  30.841  30.966  1.00  0.00    -0.248 NA
ATOM     43  C   UNL A   1      38.367  29.824  28.996  1.00  0.00     0.031 C 
ATOM     44  C   UNL A   1      42.359  27.808  31.283  1.00  0.00     0.029 A 
ATOM     45  N   UNL A   1      41.251  29.443  32.333  1.00  0.00    -0.354 N 
ATOM     46  C   UNL A   1      37.972  31.506  30.496  1.00  0.00     0.074 A 
ATOM     47  C   UNL A   1      37.584  30.859  29.261  1.00  0.00     0.031 C 
ATOM     48  C   UNL A   1      42.880  27.925  32.516  1.00  0.00     0.029 A 
ATOM     49  C   UNL A   1      42.210  29.017  33.220  1.00  0.00     0.049 A 
ATOM     50  H   UNL A   1      40.609  30.160  32.538  1.00  0.00     0.167 HD
ATOM     51  C   UNL A   1      37.319  32.564  31.037  1.00  0.00     0.037 A 
ATOM     52  C   UNL A   1      42.535  29.471  34.446  1.00  0.00     0.037 A 
ATOM     53  C   UNL A   1      37.650  33.172  32.298  1.00  0.00     0.049 A 
ATOM     54  C   UNL A   1      41.803  30.650  35.027  1.00  0.00     0.074 A 
ATOM     55  C   UNL A   1      37.055  34.258  32.917  1.00  0.00     0.029 A 
ATOM     56  N   UNL A   1      38.649  32.726  33.147  1.00  0.00    -0.354 N 
ATOM     57  N   UNL A   1      40.805  31.334  34.524  1.00  0.00    -0.248 NA
ATOM     58  C   UNL A   1      42.261  31.133  36.338  1.00  0.00     0.031 C 
ATOM     59  C   UNL A   1      37.706  34.479  34.137  1.00  0.00     0.029 A 
ATOM     60  C   UNL A   1      38.686  33.514  34.287  1.00  0.00     0.049 A 
ATOM     61  H   UNL A   1      39.245  31.964  32.968  1.00  0.00     0.167 HD
ATOM     62  C   UNL A   1      40.517  32.326  35.455  1.00  0.00     0.074 A 
ATOM     63  C   UNL A   1      41.425  32.136  36.566  1.00  0.00     0.031 C 
ATOM     64  C   UNL A   1      39.592  33.314  35.387  1.00  0.00     0.037 A 
BRANCH  51  65
ATOM     65  C   UNL A   1      36.196  33.156  30.240  1.00  0.00     0.057 A 
ATOM     66  C   UNL A   1      34.853  32.960  30.583  1.00  0.00     0.134 A 
ATOM     67  C   UNL A   1      36.470  33.946  29.115  1.00  0.00     0.134 A 
ATOM     68  F   UNL A   1      34.524  32.197  31.637  1.00  0.00    -0.206 F 
ATOM     69  C   UNL A   1      33.821  33.512  29.822  1.00  0.00     0.040 A 
ATOM     70  C   UNL A   1      35.448  34.521  28.361  1.00  0.00     0.040 A 
ATOM     71  F   UNL A   1      37.736  34.173  28.737  1.00  0.00    -0.206 F 
ATOM     72  C   UNL A   1      34.117  34.300  28.711  1.00  0.00     0.006 A 
ENDBRANCH  51  65
BRANCH  52  73
ATOM     73  C   UNL A   1      43.639  28.831  35.207  1.00  0.00     0.057 A 
ATOM     74  C   UNL A   1      43.380  27.843  36.163  1.00  0.00     0.134 A 
ATOM     75  C   UNL A   1      44.972  29.214  35.016  1.00  0.00     0.134 A 
ATOM     76  F   UNL A   1      42.119  27.458  36.413  1.00  0.00    -0.206 F 
ATOM     77  C   UNL A   1      44.408  27.261  36.908  1.00  0.00     0.040 A 
ATOM     78  C   UNL A   1      46.011  28.622  35.735  1.00  0.00     0.040 A 
ATOM     79  F   UNL A   1      45.283  30.161  34.120  1.00  0.00    -0.206 F 
ATOM     80  C   UNL A   1      45.729  27.646  36.689  1.00  0.00     0.006 A 
ENDBRANCH  52  73
BRANCH  64  81
ATOM     81  C   UNL A   1      39.510  34.252  36.553  1.00  0.00     0.057 A 
ATOM     82  C   UNL A   1      38.802  33.919  37.714  1.00  0.00     0.134 A 
ATOM     83  C   UNL A   1      40.156  35.494  36.519  1.00  0.00     0.134 A 
ATOM     84  F   UNL A   1      38.152  32.749  37.801  1.00  0.00    -0.206 F 
ATOM     85  C   UNL A   1      38.720  34.799  38.795  1.00  0.00     0.040 A 
ATOM     86  C   UNL A   1      40.096  36.375  37.601  1.00  0.00     0.040 A 
ATOM     87  F   UNL A   1      40.854  35.871  35.438  1.00  0.00    -0.206 F 
ATOM     88  C   UNL A   1      39.370  36.031  38.741  1.00  0.00     0.006 A 
ENDBRANCH  64  81
ENDBRANCH  38  39
ENDBRANCH  31  33
ENDBRANCH  30  31
ENDBRANCH  29  30
ENDBRANCH  28  29
ENDBRANCH  27  28
ENDBRANCH  26  27
ENDBRANCH  25  26
ENDBRANCH   1  25
TORSDOF 23
ENDMDL
MODEL 2
REMARK VINA RESULT:      -9.1      1.550      4.075
REMARK SMILES COc1ccccc1/C=C/C(=O)N(CC(=O)OCCOCCOCCOC(=O)c1ccc(-c2c3nc(c(-c4c(F)cccc4F)c4ccc([nH]4)c(-c4c(F)cccc4F)c4nc(c(-c5c(F)cccc5F)c5ccc2[nH]5)C=C4)C=C3)cc1)C(C)(C)C
REMARK SMILES IDX 20 1 19 2 18 3 17 4 15 5 16 6 14 7 13 8 11 9 12 10 10 11
REMARK SMILES IDX 9 12 8 13 3 14 4 15 5 16 7 17 6 18 2 19 1 20 83 21 84 22
REMARK SMILES IDX 85 23 86 24 21 25 22 26 23 27 24 28 25 29 26 30 27 31 28 32
REMARK SMILES IDX 29 33 30 34 82 35 31 36 81 37 32 38 33 39 34 40 75 41 35 42
REMARK SMILES IDX 80 43 74 44 76 45 36 46 79 47 73 48 72 49 37 51 63 52 46 53
REMARK SMILES IDX 62 54 47 55 50 56 61 57 77 58 48 59 49 60 60 62 78 63 51 64
REMARK SMILES IDX 38 65 39 66 44 67 40 68 41 69 43 70 45 71 42 72 64 73 65 74
REMARK SMILES IDX 70 75 66 76 67 77 69 78 71 79 68 80 52 81 53 82 58 83 54 84
REMARK SMILES IDX 55 85 57 86 59 87 56 88
REMARK H PARENT 76 50 50 61
REMARK Flexibility Score: inf
ROOT
ATOM      1  O   UNL A   1      38.835  21.665  25.994  1.00  0.00    -0.376 OA
ENDROOT
BRANCH   1   2
ATOM      2  C   UNL A   1      38.652  23.047  26.277  1.00  0.00     0.202 C 
BRANCH   2   3
ATOM      3  C   UNL A   1      37.272  23.614  25.930  1.00  0.00     0.261 C 
BRANCH   3   4
ATOM      4  O   UNL A   1      36.454  22.743  25.116  1.00  0.00    -0.462 OA
BRANCH   4   5
ATOM      5  C   UNL A   1      35.474  23.358  24.399  1.00  0.00     0.325 C 
ATOM      6  O   UNL A   1      35.399  23.344  23.173  1.00  0.00    -0.250 OA
BRANCH   5   7
ATOM      7  C   UNL A   1      34.469  24.154  25.243  1.00  0.00     0.243 C 
BRANCH   7   8
ATOM      8  N   UNL A   1      33.376  23.450  25.959  1.00  0.00    -0.323 N 
BRANCH   8   9
ATOM      9  C   UNL A   1      33.645  22.514  26.962  1.00  0.00     0.247 C 
ATOM     10  O   UNL A   1      34.017  22.785  28.099  1.00  0.00    -0.270 OA
BRANCH   9  11
ATOM     11  C   UNL A   1      33.686  21.093  26.560  1.00  0.00     0.072 C 
ATOM     12  C   UNL A   1      33.362  20.672  25.332  1.00  0.00     0.017 C 
BRANCH  12  13
ATOM     13  C   UNL A   1      33.512  19.260  24.970  1.00  0.00     0.017 A 
ATOM     14  C   UNL A   1      34.765  18.735  24.616  1.00  0.00     0.126 A 
ATOM     15  C   UNL A   1      34.888  17.393  24.242  1.00  0.00     0.047 A 
ATOM     16  C   UNL A   1      33.775  16.555  24.275  1.00  0.00     0.004 A 
ATOM     17  C   UNL A   1      32.400  18.407  24.995  1.00  0.00     0.012 A 
ATOM     18  C   UNL A   1      32.534  17.059  24.659  1.00  0.00     0.001 A 
BRANCH  14  19
ATOM     19  O   UNL A   1      35.862  19.560  24.584  1.00  0.00    -0.496 OA
ATOM     20  C   UNL A   1      37.044  18.867  24.991  1.00  0.00     0.278 C 
ENDBRANCH  14  19
ENDBRANCH  12  13
ENDBRANCH   9  11
ENDBRANCH   8   9
BRANCH   8  21
ATOM     21  C   UNL A   1      31.949  23.877  25.755  1.00  0.00     0.035 C 
ATOM     22  C   UNL A   1      31.483  23.674  24.296  1.00  0.00     0.034 C 
ATOM     23  C   UNL A   1      31.029  23.076  26.704  1.00  0.00     0.034 C 
ATOM     24  C   UNL A   1      31.710  25.358  26.094  1.00  0.00     0.034 C 
ENDBRANCH   8  21
ENDBRANCH   7   8
ENDBRANCH   5   7
ENDBRANCH   4   5
ENDBRANCH   3   4
ENDBRANCH   2   3
ENDBRANCH   1   2
BRANCH   1  25
ATOM     25  C   UNL A   1      40.110  21.097  26.285  1.00  0.00     0.188 C 
BRANCH  25  26
ATOM     26  C   UNL A   1      40.758  21.472  27.620  1.00  0.00     0.188 C 
BRANCH  26  27
ATOM     27  O   UNL A   1      42.086  21.955  27.421  1.00  0.00    -0.376 OA
BRANCH  27  28
ATOM     28  C   UNL A   1      42.527  21.783  26.072  1.00  0.00     0.202 C 
BRANCH  28  29
ATOM     29  C   UNL A   1      42.807  23.148  25.438  1.00  0.00     0.261 C 
BRANCH  29  30
ATOM     30  O   UNL A   1      41.906  24.178  25.901  1.00  0.00    -0.460 OA
BRANCH  30  31
ATOM     31  C   UNL A   1      42.331  25.444  25.736  1.00  0.00     0.338 C 
ATOM     32  O   UNL A   1      43.079  25.865  24.861  1.00  0.00    -0.246 OA
BRANCH  31  33
ATOM     33  C   UNL A   1      41.664  26.326  26.706  1.00  0.00     0.060 A 
ATOM     34  C   UNL A   1      42.001  27.677  26.687  1.00  0.00     0.016 A 
ATOM     35  C   UNL A   1      40.858  25.828  27.725  1.00  0.00     0.016 A 
ATOM     36  C   UNL A   1      41.625  28.524  27.729  1.00  0.00     0.010 A 
ATOM     37  C   UNL A   1      40.436  26.689  28.752  1.00  0.00     0.010 A 
ATOM     38  C   UNL A   1      40.863  28.033  28.796  1.00  0.00    -0.014 A 
BRANCH  38  39
ATOM     39  C   UNL A   1      40.660  28.869  30.016  1.00  0.00     0.031 A 
ATOM     40  C   UNL A   1      39.512  29.849  30.057  1.00  0.00     0.074 A 
ATOM     41  C   UNL A   1      41.424  28.723  31.117  1.00  0.00     0.049 A 
ATOM     42  N   UNL A   1      39.237  30.776  30.943  1.00  0.00    -0.248 NA
ATOM     43  C   UNL A   1      38.548  29.780  28.948  1.00  0.00     0.031 C 
ATOM     44  C   UNL A   1      42.519  27.766  31.272  1.00  0.00     0.029 A 
ATOM     45  N   UNL A   1      41.380  29.377  32.327  1.00  0.00    -0.354 N 
ATOM     46  C   UNL A   1      38.115  31.438  30.463  1.00  0.00     0.074 A 
ATOM     47  C   UNL A   1      37.751  30.804  29.214  1.00  0.00     0.031 C 
ATOM     48  C   UNL A   1      43.019  27.870  32.516  1.00  0.00     0.029 A 
ATOM     49  C   UNL A   1      42.328  28.947  33.223  1.00  0.00     0.049 A 
ATOM     50  H   UNL A   1      40.729  30.086  32.530  1.00  0.00     0.167 HD
ATOM     51  C   UNL A   1      37.443  32.483  31.009  1.00  0.00     0.037 A 
ATOM     52  C   UNL A   1      42.630  29.386  34.460  1.00  0.00     0.037 A 
ATOM     53  C   UNL A   1      37.749  33.077  32.283  1.00  0.00     0.049 A 
ATOM     54  C   UNL A   1      41.878  30.552  35.045  1.00  0.00     0.074 A 
ATOM     55  C   UNL A   1      37.135  34.150  32.906  1.00  0.00     0.029 A 
ATOM     56  N   UNL A   1      38.738  32.628  33.142  1.00  0.00    -0.354 N 
ATOM     57  N   UNL A   1      40.883  31.235  34.535  1.00  0.00    -0.248 NA
ATOM     58  C   UNL A   1      42.311  31.021  36.370  1.00  0.00     0.031 C 
ATOM     59  C   UNL A   1      37.764  34.359  34.139  1.00  0.00     0.029 A 
ATOM     60  C   UNL A   1      38.750  33.400  34.292  1.00  0.00     0.049 A 
ATOM     61  H   UNL A   1      39.343  31.873  32.962  1.00  0.00     0.167 HD
ATOM     62  C   UNL A   1      40.572  32.211  35.474  1.00  0.00     0.074 A 
ATOM     63  C   UNL A   1      41.463  32.014  36.597  1.00  0.00     0.031 C 
ATOM     64  C   UNL A   1      39.640  33.193  35.404  1.00  0.00     0.037 A 
BRANCH  51  65
ATOM     65  C   UNL A   1      36.328  33.076  30.201  1.00  0.00     0.057 A 
ATOM     66  C   UNL A   1      34.983  32.807  30.476  1.00  0.00     0.134 A 
ATOM     67  C   UNL A   1      36.613  33.943  29.137  1.00  0.00     0.134 A 
ATOM     68  F   UNL A   1      34.646  31.969  31.468  1.00  0.00    -0.206 F 
ATOM     69  C   UNL A   1      33.959  33.362  29.706  1.00  0.00     0.040 A 
ATOM     70  C   UNL A   1      35.598  34.521  28.375  1.00  0.00     0.040 A 
ATOM     71  F   UNL A   1      37.883  34.243  28.825  1.00  0.00    -0.206 F 
ATOM     72  C   UNL A   1      34.265  34.226  28.655  1.00  0.00     0.006 A 
ENDBRANCH  51  65
BRANCH  52  73
ATOM     73  C   UNL A   1      43.726  28.746  35.231  1.00  0.00     0.057 A 
ATOM     74  C   UNL A   1      45.063  29.098  35.014  1.00  0.00     0.134 A 
ATOM     75  C   UNL A   1      43.465  27.751  36.180  1.00  0.00     0.134 A 
ATOM     76  F   UNL A   1      45.378  30.022  34.094  1.00  0.00    -0.206 F 
ATOM     77  C   UNL A   1      46.103  28.478  35.709  1.00  0.00     0.040 A 
ATOM     78  C   UNL A   1      44.492  27.141  36.900  1.00  0.00     0.040 A 
ATOM     79  F   UNL A   1      42.205  27.365  36.427  1.00  0.00    -0.206 F 
ATOM     80  C   UNL A   1      45.818  27.500  36.661  1.00  0.00     0.006 A 
ENDBRANCH  52  73
BRANCH  64  81
ATOM     81  C   UNL A   1      39.531  34.114  36.581  1.00  0.00     0.057 A 
ATOM     82  C   UNL A   1      40.175  35.357  36.602  1.00  0.00     0.134 A 
ATOM     83  C   UNL A   1      38.764  33.761  37.699  1.00  0.00     0.134 A 
ATOM     84  F   UNL A   1      40.934  35.746  35.566  1.00  0.00    -0.206 F 
ATOM     85  C   UNL A   1      40.079  36.210  37.703  1.00  0.00     0.040 A 
ATOM     86  C   UNL A   1      38.646  34.613  38.799  1.00  0.00     0.040 A 
ATOM     87  F   UNL A   1      38.119  32.586  37.740  1.00  0.00    -0.206 F 
ATOM     88  C   UNL A   1      39.310  35.839  38.805  1.00  0.00     0.006 A 
ENDBRANCH  64  81
ENDBRANCH  38  39
ENDBRANCH  31  33
ENDBRANCH  30  31
ENDBRANCH  29  30
ENDBRANCH  28  29
ENDBRANCH  27  28
ENDBRANCH  26  27
ENDBRANCH  25  26
ENDBRANCH   1  25
TORSDOF 23
ENDMDL
MODEL 3
REMARK VINA RESULT:      -8.6      4.843      8.849
REMARK SMILES COc1ccccc1/C=C/C(=O)N(CC(=O)OCCOCCOCCOC(=O)c1ccc(-c2c3nc(c(-c4c(F)cccc4F)c4ccc([nH]4)c(-c4c(F)cccc4F)c4nc(c(-c5c(F)cccc5F)c5ccc2[nH]5)C=C4)C=C3)cc1)C(C)(C)C
REMARK SMILES IDX 20 1 19 2 18 3 17 4 15 5 16 6 14 7 13 8 11 9 12 10 10 11
REMARK SMILES IDX 9 12 8 13 3 14 4 15 5 16 7 17 6 18 2 19 1 20 83 21 84 22
REMARK SMILES IDX 85 23 86 24 21 25 22 26 23 27 24 28 25 29 26 30 27 31 28 32
REMARK SMILES IDX 29 33 30 34 82 35 31 36 81 37 32 38 33 39 34 40 75 41 35 42
REMARK SMILES IDX 80 43 74 44 76 45 36 46 79 47 73 48 72 49 37 51 63 52 46 53
REMARK SMILES IDX 62 54 47 55 50 56 61 57 77 58 48 59 49 60 60 62 78 63 51 64
REMARK SMILES IDX 38 65 39 66 44 67 40 68 41 69 43 70 45 71 42 72 64 73 65 74
REMARK SMILES IDX 70 75 66 76 67 77 69 78 71 79 68 80 52 81 53 82 58 83 54 84
REMARK SMILES IDX 55 85 57 86 59 87 56 88
REMARK H PARENT 76 50 50 61
REMARK Flexibility Score: inf
ROOT
ATOM      1  O   UNL A   1      46.515  26.267  25.129  1.00  0.00    -0.376 OA
ENDROOT
BRANCH   1   2
ATOM      2  C   UNL A   1      45.425  26.290  26.042  1.00  0.00     0.202 C 
BRANCH   2   3
ATOM      3  C   UNL A   1      44.073  26.695  25.445  1.00  0.00     0.261 C 
BRANCH   3   4
ATOM      4  O   UNL A   1      43.393  27.750  26.165  1.00  0.00    -0.462 OA
BRANCH   4   5
ATOM      5  C   UNL A   1      42.217  28.165  25.622  1.00  0.00     0.325 C 
ATOM      6  O   UNL A   1      42.103  29.128  24.867  1.00  0.00    -0.250 OA
BRANCH   5   7
ATOM      7  C   UNL A   1      40.986  27.369  26.078  1.00  0.00     0.243 C 
BRANCH   7   8
ATOM      8  N   UNL A   1      40.826  26.999  27.506  1.00  0.00    -0.323 N 
BRANCH   8   9
ATOM      9  C   UNL A   1      40.992  27.939  28.527  1.00  0.00     0.247 C 
ATOM     10  O   UNL A   1      41.648  27.762  29.549  1.00  0.00    -0.270 OA
BRANCH   9  11
ATOM     11  C   UNL A   1      40.148  29.150  28.469  1.00  0.00     0.072 C 
ATOM     12  C   UNL A   1      38.817  29.119  28.607  1.00  0.00     0.017 C 
BRANCH  12  13
ATOM     13  C   UNL A   1      38.047  30.366  28.632  1.00  0.00     0.017 A 
ATOM     14  C   UNL A   1      36.778  30.442  28.038  1.00  0.00     0.126 A 
ATOM     15  C   UNL A   1      36.068  31.646  28.042  1.00  0.00     0.047 A 
ATOM     16  C   UNL A   1      36.594  32.764  28.687  1.00  0.00     0.004 A 
ATOM     17  C   UNL A   1      38.566  31.498  29.274  1.00  0.00     0.012 A 
ATOM     18  C   UNL A   1      37.838  32.689  29.309  1.00  0.00     0.001 A 
BRANCH  14  19
ATOM     19  O   UNL A   1      36.258  29.341  27.403  1.00  0.00    -0.496 OA
ATOM     20  C   UNL A   1      34.829  29.342  27.448  1.00  0.00     0.278 C 
ENDBRANCH  14  19
ENDBRANCH  12  13
ENDBRANCH   9  11
ENDBRANCH   8   9
BRANCH   8  21
ATOM     21  C   UNL A   1      40.286  25.644  27.873  1.00  0.00     0.035 C 
ATOM     22  C   UNL A   1      39.553  24.970  26.692  1.00  0.00     0.034 C 
ATOM     23  C   UNL A   1      41.447  24.737  28.343  1.00  0.00     0.034 C 
ATOM     24  C   UNL A   1      39.292  25.690  29.045  1.00  0.00     0.034 C 
ENDBRANCH   8  21
ENDBRANCH   7   8
ENDBRANCH   5   7
ENDBRANCH   4   5
ENDBRANCH   3   4
ENDBRANCH   2   3
ENDBRANCH   1   2
BRANCH   1  25
ATOM     25  C   UNL A   1      46.847  27.487  24.469  1.00  0.00     0.188 C 
BRANCH  25  26
ATOM     26  C   UNL A   1      48.005  27.454  23.469  1.00  0.00     0.188 C 
BRANCH  26  27
ATOM     27  O   UNL A   1      49.134  26.779  24.023  1.00  0.00    -0.376 OA
BRANCH  27  28
ATOM     28  C   UNL A   1      50.236  27.662  24.242  1.00  0.00     0.202 C 
BRANCH  28  29
ATOM     29  C   UNL A   1      51.549  26.874  24.219  1.00  0.00     0.261 C 
BRANCH  29  30
ATOM     30  O   UNL A   1      52.148  26.747  25.527  1.00  0.00    -0.460 OA
BRANCH  30  31
ATOM     31  C   UNL A   1      51.803  25.649  26.224  1.00  0.00     0.338 C 
ATOM     32  O   UNL A   1      52.292  24.528  26.131  1.00  0.00    -0.246 OA
BRANCH  31  33
ATOM     33  C   UNL A   1      50.803  25.998  27.245  1.00  0.00     0.060 A 
ATOM     34  C   UNL A   1      49.577  25.341  27.198  1.00  0.00     0.016 A 
ATOM     35  C   UNL A   1      50.985  27.062  28.124  1.00  0.00     0.016 A 
ATOM     36  C   UNL A   1      48.491  25.793  27.949  1.00  0.00     0.010 A 
ATOM     37  C   UNL A   1      49.908  27.491  28.917  1.00  0.00     0.010 A 
ATOM     38  C   UNL A   1      48.633  26.898  28.796  1.00  0.00    -0.014 A 
BRANCH  38  39
ATOM     39  C   UNL A   1      47.428  27.523  29.416  1.00  0.00     0.031 A 
ATOM     40  C   UNL A   1      46.814  26.890  30.641  1.00  0.00     0.074 A 
ATOM     41  C   UNL A   1      46.913  28.684  28.961  1.00  0.00     0.049 A 
ATOM     42  N   UNL A   1      45.688  27.172  31.250  1.00  0.00    -0.248 NA
ATOM     43  C   UNL A   1      47.567  25.787  31.258  1.00  0.00     0.031 C 
ATOM     44  C   UNL A   1      47.435  29.467  27.843  1.00  0.00     0.029 A 
ATOM     45  N   UNL A   1      45.835  29.415  29.405  1.00  0.00    -0.354 N 
ATOM     46  C   UNL A   1      45.568  26.241  32.275  1.00  0.00     0.074 A 
ATOM     47  C   UNL A   1      46.738  25.391  32.213  1.00  0.00     0.031 C 
ATOM     48  C   UNL A   1      46.700  30.585  27.709  1.00  0.00     0.029 A 
ATOM     49  C   UNL A   1      45.614  30.565  28.687  1.00  0.00     0.049 A 
ATOM     50  H   UNL A   1      45.275  29.140  30.166  1.00  0.00     0.167 HD
ATOM     51  C   UNL A   1      44.574  26.101  33.186  1.00  0.00     0.037 A 
ATOM     52  C   UNL A   1      44.633  31.484  28.781  1.00  0.00     0.037 A 
ATOM     53  C   UNL A   1      43.442  26.980  33.305  1.00  0.00     0.049 A 
ATOM     54  C   UNL A   1      43.535  31.306  29.794  1.00  0.00     0.074 A 
ATOM     55  C   UNL A   1      42.376  26.904  34.186  1.00  0.00     0.029 A 
ATOM     56  N   UNL A   1      43.243  28.114  32.535  1.00  0.00    -0.354 N 
ATOM     57  N   UNL A   1      43.381  30.363  30.691  1.00  0.00    -0.248 NA
ATOM     58  C   UNL A   1      42.461  32.311  29.790  1.00  0.00     0.031 C 
ATOM     59  C   UNL A   1      41.524  27.987  33.939  1.00  0.00     0.029 A 
ATOM     60  C   UNL A   1      42.075  28.749  32.923  1.00  0.00     0.049 A 
ATOM     61  H   UNL A   1      43.843  28.423  31.819  1.00  0.00     0.167 HD
ATOM     62  C   UNL A   1      42.197  30.661  31.356  1.00  0.00     0.074 A 
ATOM     63  C   UNL A   1      41.689  31.887  30.780  1.00  0.00     0.031 C 
ATOM     64  C   UNL A   1      41.580  29.970  32.345  1.00  0.00     0.037 A 
BRANCH  51  65
ATOM     65  C   UNL A   1      44.653  24.920  34.107  1.00  0.00     0.057 A 
ATOM     66  C   UNL A   1      45.102  25.033  35.428  1.00  0.00     0.134 A 
ATOM     67  C   UNL A   1      44.257  23.651  33.662  1.00  0.00     0.134 A 
ATOM     68  F   UNL A   1      45.514  26.216  35.908  1.00  0.00    -0.206 F 
ATOM     69  C   UNL A   1      45.177  23.920  36.268  1.00  0.00     0.040 A 
ATOM     70  C   UNL A   1      44.306  22.536  34.499  1.00  0.00     0.040 A 
ATOM     71  F   UNL A   1      43.814  23.479  32.408  1.00  0.00    -0.206 F 
ATOM     72  C   UNL A   1      44.773  22.668  35.805  1.00  0.00     0.006 A 
ENDBRANCH  51  65
BRANCH  52  73
ATOM     73  C   UNL A   1      44.616  32.651  27.862  1.00  0.00     0.057 A 
ATOM     74  C   UNL A   1      45.083  33.903  28.275  1.00  0.00     0.134 A 
ATOM     75  C   UNL A   1      44.107  32.547  26.562  1.00  0.00     0.134 A 
ATOM     76  F   UNL A   1      45.551  34.073  29.521  1.00  0.00    -0.206 F 
ATOM     77  C   UNL A   1      45.039  35.014  27.430  1.00  0.00     0.040 A 
ATOM     78  C   UNL A   1      44.081  33.642  25.698  1.00  0.00     0.040 A 
ATOM     79  F   UNL A   1      43.638  31.374  26.110  1.00  0.00    -0.206 F 
ATOM     80  C   UNL A   1      44.543  34.883  26.134  1.00  0.00     0.006 A 
ENDBRANCH  52  73
BRANCH  64  81
ATOM     81  C   UNL A   1      40.296  30.536  32.873  1.00  0.00     0.057 A 
ATOM     82  C   UNL A   1      40.282  31.618  33.761  1.00  0.00     0.134 A 
ATOM     83  C   UNL A   1      39.063  30.002  32.480  1.00  0.00     0.134 A 
ATOM     84  F   UNL A   1      41.431  32.165  34.185  1.00  0.00    -0.206 F 
ATOM     85  C   UNL A   1      39.085  32.137  34.258  1.00  0.00     0.040 A 
ATOM     86  C   UNL A   1      37.859  30.524  32.956  1.00  0.00     0.040 A 
ATOM     87  F   UNL A   1      39.008  28.967  31.628  1.00  0.00    -0.206 F 
ATOM     88  C   UNL A   1      37.868  31.591  33.854  1.00  0.00     0.006 A 
ENDBRANCH  64  81
ENDBRANCH  38  39
ENDBRANCH  31  33
ENDBRANCH  30  31
ENDBRANCH  29  30
ENDBRANCH  28  29
ENDBRANCH  27  28
ENDBRANCH  26  27
ENDBRANCH  25  26
ENDBRANCH   1  25
TORSDOF 23
ENDMDL
