MODEL 1
REMARK VINA RESULT:      -9.8      0.000      0.000
REMARK SMILES CC(C)CC[C@@H](C(=O)OCCOCCOCCOC(=O)c1ccc(-c2c3nc(c(-c4c(F)cccc4F)c4ccc([nH]4)c(-c4c(F)cccc4F)c4nc(c(-c5c(F)cccc5F)c5ccc2[nH]5)C=C4)C=C3)cc1)c1ccc(Br)cc1
REMARK SMILES IDX 13 1 12 2 11 3 10 4 9 5 7 6 8 7 6 8 5 9 4 10 2 11 1 12 3 13
REMARK SMILES IDX 75 14 76 15 81 16 77 17 80 18 78 19 79 20 14 21 15 22 16 23
REMARK SMILES IDX 17 24 18 25 19 26 20 27 21 28 22 29 74 30 23 31 73 32 24 33
REMARK SMILES IDX 25 34 26 35 67 36 27 37 72 38 66 39 68 40 28 41 71 42 65 43
REMARK SMILES IDX 64 44 29 46 55 47 38 48 54 49 39 50 42 51 53 52 69 53 40 54
REMARK SMILES IDX 41 55 52 57 70 58 43 59 30 60 31 61 36 62 32 63 33 64 35 65
REMARK SMILES IDX 37 66 34 67 56 68 57 69 62 70 58 71 59 72 61 73 63 74 60 75
REMARK SMILES IDX 44 76 45 77 50 78 46 79 47 80 49 81 51 82 48 83
REMARK H PARENT 68 45 42 56
REMARK Flexibility Score: inf
ROOT
ATOM      1  C   UNL A   1      39.852  22.340  26.932  1.00  0.00     0.188 C 
ENDROOT
BRANCH   1   2
ATOM      2  O   UNL A   1      38.801  22.277  25.976  1.00  0.00    -0.376 OA
BRANCH   2   3
ATOM      3  C   UNL A   1      37.865  23.356  25.995  1.00  0.00     0.202 C 
BRANCH   3   4
ATOM      4  C   UNL A   1      36.506  23.098  25.320  1.00  0.00     0.261 C 
BRANCH   4   5
ATOM      5  O   UNL A   1      35.782  24.300  24.974  1.00  0.00    -0.463 OA
BRANCH   5   6
ATOM      6  C   UNL A   1      34.964  24.235  23.885  1.00  0.00     0.313 C 
ATOM      7  O   UNL A   1      35.158  23.485  22.933  1.00  0.00    -0.252 OA
BRANCH   6   8
ATOM      8  C   UNL A   1      33.724  25.149  23.974  1.00  0.00     0.129 C 
BRANCH   8   9
ATOM      9  C   UNL A   1      33.987  26.611  24.421  1.00  0.00     0.020 C 
BRANCH   9  10
ATOM     10  C   UNL A   1      33.915  26.929  25.921  1.00  0.00     0.004 C 
BRANCH  10  11
ATOM     11  C   UNL A   1      33.496  28.362  26.288  1.00  0.00    -0.017 C 
ATOM     12  C   UNL A   1      32.968  29.138  25.081  1.00  0.00     0.007 C 
ATOM     13  C   UNL A   1      32.431  28.317  27.386  1.00  0.00     0.007 C 
ENDBRANCH  10  11
ENDBRANCH   9  10
ENDBRANCH   8   9
BRANCH   8  14
ATOM     14  C   UNL A   1      32.529  24.540  24.748  1.00  0.00    -0.034 A 
ATOM     15  C   UNL A   1      31.462  25.300  25.257  1.00  0.00     0.006 A 
ATOM     16  C   UNL A   1      32.523  23.158  25.032  1.00  0.00     0.006 A 
ATOM     17  C   UNL A   1      30.440  24.710  26.016  1.00  0.00     0.016 A 
ATOM     18  C   UNL A   1      31.505  22.565  25.786  1.00  0.00     0.016 A 
ATOM     19  C   UNL A   1      30.476  23.348  26.292  1.00  0.00     0.017 A 
ATOM     20  Br  UNL A   1      29.179  22.563  27.418  1.00  0.00    -0.051 Br
ENDBRANCH   8  14
ENDBRANCH   6   8
ENDBRANCH   5   6
ENDBRANCH   4   5
ENDBRANCH   3   4
ENDBRANCH   2   3
ENDBRANCH   1   2
BRANCH   1  21
ATOM     21  C   UNL A   1      40.985  21.332  26.765  1.00  0.00     0.188 C 
BRANCH  21  22
ATOM     22  O   UNL A   1      41.797  21.499  25.613  1.00  0.00    -0.376 OA
BRANCH  22  23
ATOM     23  C   UNL A   1      43.204  21.306  25.787  1.00  0.00     0.202 C 
BRANCH  23  24
ATOM     24  C   UNL A   1      44.140  22.156  24.899  1.00  0.00     0.261 C 
BRANCH  24  25
ATOM     25  O   UNL A   1      43.681  23.493  24.591  1.00  0.00    -0.460 OA
BRANCH  25  26
ATOM     26  C   UNL A   1      44.394  24.530  25.086  1.00  0.00     0.338 C 
ATOM     27  O   UNL A   1      45.516  24.863  24.743  1.00  0.00    -0.246 OA
BRANCH  26  28
ATOM     28  C   UNL A   1      43.506  25.373  25.939  1.00  0.00     0.060 A 
ATOM     29  C   UNL A   1      43.868  26.715  26.132  1.00  0.00     0.016 A 
ATOM     30  C   UNL A   1      42.320  24.892  26.504  1.00  0.00     0.016 A 
ATOM     31  C   UNL A   1      43.106  27.545  26.958  1.00  0.00     0.010 A 
ATOM     32  C   UNL A   1      41.559  25.722  27.341  1.00  0.00     0.010 A 
ATOM     33  C   UNL A   1      41.984  27.035  27.623  1.00  0.00    -0.014 A 
BRANCH  33  34
ATOM     34  C   UNL A   1      41.449  27.771  28.801  1.00  0.00     0.031 A 
ATOM     35  C   UNL A   1      42.193  27.645  30.107  1.00  0.00     0.074 A 
ATOM     36  C   UNL A   1      40.377  28.582  28.727  1.00  0.00     0.049 A 
ATOM     37  N   UNL A   1      41.955  28.211  31.264  1.00  0.00    -0.248 NA
ATOM     38  C   UNL A   1      43.363  26.752  30.108  1.00  0.00     0.031 C 
ATOM     39  C   UNL A   1      39.569  28.816  27.534  1.00  0.00     0.029 A 
ATOM     40  N   UNL A   1      39.789  29.367  29.692  1.00  0.00    -0.354 N 
ATOM     41  C   UNL A   1      42.936  27.736  32.126  1.00  0.00     0.074 A 
ATOM     42  C   UNL A   1      43.749  26.808  31.372  1.00  0.00     0.031 C 
ATOM     43  C   UNL A   1      38.588  29.685  27.839  1.00  0.00     0.029 A 
ATOM     44  C   UNL A   1      38.697  30.071  29.245  1.00  0.00     0.049 A 
ATOM     45  H   UNL A   1      40.120  29.419  30.618  1.00  0.00     0.167 HD
ATOM     46  C   UNL A   1      43.156  28.047  33.424  1.00  0.00     0.037 A 
ATOM     47  C   UNL A   1      37.882  30.929  29.894  1.00  0.00     0.037 A 
ATOM     48  C   UNL A   1      42.360  28.972  34.186  1.00  0.00     0.049 A 
ATOM     49  C   UNL A   1      38.130  31.240  31.352  1.00  0.00     0.074 A 
ATOM     50  C   UNL A   1      42.514  29.355  35.507  1.00  0.00     0.029 A 
ATOM     51  N   UNL A   1      41.258  29.655  33.697  1.00  0.00    -0.354 N 
ATOM     52  N   UNL A   1      39.080  30.805  32.145  1.00  0.00    -0.248 NA
ATOM     53  C   UNL A   1      37.191  32.168  32.000  1.00  0.00     0.031 C 
ATOM     54  C   UNL A   1      41.475  30.233  35.831  1.00  0.00     0.029 A 
ATOM     55  C   UNL A   1      40.713  30.446  34.695  1.00  0.00     0.049 A 
ATOM     56  H   UNL A   1      40.915  29.587  32.777  1.00  0.00     0.167 HD
ATOM     57  C   UNL A   1      38.872  31.433  33.370  1.00  0.00     0.074 A 
ATOM     58  C   UNL A   1      37.718  32.291  33.210  1.00  0.00     0.031 C 
ATOM     59  C   UNL A   1      39.574  31.310  34.524  1.00  0.00     0.037 A 
BRANCH  46  60
ATOM     60  C   UNL A   1      44.297  27.357  34.114  1.00  0.00     0.057 A 
ATOM     61  C   UNL A   1      44.125  26.152  34.809  1.00  0.00     0.134 A 
ATOM     62  C   UNL A   1      45.589  27.892  34.060  1.00  0.00     0.134 A 
ATOM     63  F   UNL A   1      42.909  25.596  34.917  1.00  0.00    -0.206 F 
ATOM     64  C   UNL A   1      45.194  25.518  35.445  1.00  0.00     0.040 A 
ATOM     65  C   UNL A   1      46.671  27.253  34.666  1.00  0.00     0.040 A 
ATOM     66  F   UNL A   1      45.824  29.042  33.410  1.00  0.00    -0.206 F 
ATOM     67  C   UNL A   1      46.473  26.065  35.366  1.00  0.00     0.006 A 
ENDBRANCH  46  60
BRANCH  47  68
ATOM     68  C   UNL A   1      36.741  31.569  29.185  1.00  0.00     0.057 A 
ATOM     69  C   UNL A   1      35.600  30.837  28.829  1.00  0.00     0.134 A 
ATOM     70  C   UNL A   1      36.790  32.910  28.790  1.00  0.00     0.134 A 
ATOM     71  F   UNL A   1      35.503  29.538  29.146  1.00  0.00    -0.206 F 
ATOM     72  C   UNL A   1      34.566  31.408  28.083  1.00  0.00     0.040 A 
ATOM     73  C   UNL A   1      35.750  33.502  28.070  1.00  0.00     0.040 A 
ATOM     74  F   UNL A   1      37.855  33.667  29.094  1.00  0.00    -0.206 F 
ATOM     75  C   UNL A   1      34.639  32.747  27.704  1.00  0.00     0.006 A 
ENDBRANCH  47  68
BRANCH  59  76
ATOM     76  C   UNL A   1      39.156  32.166  35.688  1.00  0.00     0.057 A 
ATOM     77  C   UNL A   1      39.586  33.491  35.837  1.00  0.00     0.134 A 
ATOM     78  C   UNL A   1      38.289  31.659  36.665  1.00  0.00     0.134 A 
ATOM     79  F   UNL A   1      40.421  34.041  34.942  1.00  0.00    -0.206 F 
ATOM     80  C   UNL A   1      39.203  34.265  36.934  1.00  0.00     0.040 A 
ATOM     81  C   UNL A   1      37.873  32.433  37.750  1.00  0.00     0.040 A 
ATOM     82  F   UNL A   1      37.824  30.404  36.579  1.00  0.00    -0.206 F 
ATOM     83  C   UNL A   1      38.339  33.737  37.893  1.00  0.00     0.006 A 
ENDBRANCH  59  76
ENDBRANCH  33  34
ENDBRANCH  26  28
ENDBRANCH  25  26
ENDBRANCH  24  25
ENDBRANCH  23  24
ENDBRANCH  22  23
ENDBRANCH  21  22
ENDBRANCH   1  21
TORSDOF 21
ENDMDL
MODEL 2
REMARK VINA RESULT:      -9.7      1.341      2.297
REMARK SMILES CC(C)CC[C@@H](C(=O)OCCOCCOCCOC(=O)c1ccc(-c2c3nc(c(-c4c(F)cccc4F)c4ccc([nH]4)c(-c4c(F)cccc4F)c4nc(c(-c5c(F)cccc5F)c5ccc2[nH]5)C=C4)C=C3)cc1)c1ccc(Br)cc1
REMARK SMILES IDX 13 1 12 2 11 3 10 4 9 5 7 6 8 7 6 8 5 9 4 10 2 11 1 12 3 13
REMARK SMILES IDX 75 14 76 15 81 16 77 17 80 18 78 19 79 20 14 21 15 22 16 23
REMARK SMILES IDX 17 24 18 25 19 26 20 27 21 28 22 29 74 30 23 31 73 32 24 33
REMARK SMILES IDX 25 34 26 35 67 36 27 37 72 38 66 39 68 40 28 41 71 42 65 43
REMARK SMILES IDX 64 44 29 46 55 47 38 48 54 49 39 50 42 51 53 52 69 53 40 54
REMARK SMILES IDX 41 55 52 57 70 58 43 59 30 60 31 61 36 62 32 63 33 64 35 65
REMARK SMILES IDX 37 66 34 67 56 68 57 69 62 70 58 71 59 72 61 73 63 74 60 75
REMARK SMILES IDX 44 76 45 77 50 78 46 79 47 80 49 81 51 82 48 83
REMARK H PARENT 68 45 42 56
REMARK Flexibility Score: inf
ROOT
ATOM      1  C   UNL A   1      40.293  22.019  26.415  1.00  0.00     0.188 C 
ENDROOT
BRANCH   1   2
ATOM      2  O   UNL A   1      39.254  21.270  25.798  1.00  0.00    -0.376 OA
BRANCH   2   3
ATOM      3  C   UNL A   1      38.126  22.016  25.339  1.00  0.00     0.202 C 
BRANCH   3   4
ATOM      4  C   UNL A   1      36.762  21.305  25.404  1.00  0.00     0.261 C 
BRANCH   4   5
ATOM      5  O   UNL A   1      35.665  22.087  24.880  1.00  0.00    -0.463 OA
BRANCH   5   6
ATOM      6  C   UNL A   1      34.648  22.377  25.741  1.00  0.00     0.313 C 
ATOM      7  O   UNL A   1      34.218  21.586  26.576  1.00  0.00    -0.252 OA
BRANCH   6   8
ATOM      8  C   UNL A   1      34.114  23.819  25.621  1.00  0.00     0.129 C 
BRANCH   8   9
ATOM      9  C   UNL A   1      33.102  24.263  26.710  1.00  0.00     0.020 C 
BRANCH   9  10
ATOM     10  C   UNL A   1      31.605  24.133  26.397  1.00  0.00     0.004 C 
BRANCH  10  11
ATOM     11  C   UNL A   1      30.837  25.451  26.210  1.00  0.00    -0.017 C 
ATOM     12  C   UNL A   1      31.701  26.674  26.521  1.00  0.00     0.007 C 
ATOM     13  C   UNL A   1      30.310  25.536  24.776  1.00  0.00     0.007 C 
ENDBRANCH  10  11
ENDBRANCH   9  10
ENDBRANCH   8   9
BRANCH   8  14
ATOM     14  C   UNL A   1      33.613  24.205  24.208  1.00  0.00    -0.034 A 
ATOM     15  C   UNL A   1      33.018  23.294  23.317  1.00  0.00     0.006 A 
ATOM     16  C   UNL A   1      33.818  25.519  23.738  1.00  0.00     0.006 A 
ATOM     17  C   UNL A   1      32.648  23.677  22.019  1.00  0.00     0.016 A 
ATOM     18  C   UNL A   1      33.450  25.905  22.445  1.00  0.00     0.016 A 
ATOM     19  C   UNL A   1      32.882  24.977  21.583  1.00  0.00     0.017 A 
ATOM     20  Br  UNL A   1      32.509  25.472  19.799  1.00  0.00    -0.051 Br
ENDBRANCH   8  14
ENDBRANCH   6   8
ENDBRANCH   5   6
ENDBRANCH   4   5
ENDBRANCH   3   4
ENDBRANCH   2   3
ENDBRANCH   1   2
BRANCH   1  21
ATOM     21  C   UNL A   1      41.637  21.313  26.579  1.00  0.00     0.188 C 
BRANCH  21  22
ATOM     22  O   UNL A   1      42.457  21.268  25.422  1.00  0.00    -0.376 OA
BRANCH  22  23
ATOM     23  C   UNL A   1      43.867  21.389  25.632  1.00  0.00     0.202 C 
BRANCH  23  24
ATOM     24  C   UNL A   1      44.627  22.379  24.720  1.00  0.00     0.261 C 
BRANCH  24  25
ATOM     25  O   UNL A   1      44.022  23.684  24.560  1.00  0.00    -0.460 OA
BRANCH  25  26
ATOM     26  C   UNL A   1      44.670  24.745  25.093  1.00  0.00     0.338 C 
ATOM     27  O   UNL A   1      45.774  25.152  24.769  1.00  0.00    -0.246 OA
BRANCH  26  28
ATOM     28  C   UNL A   1      43.731  25.508  25.964  1.00  0.00     0.060 A 
ATOM     29  C   UNL A   1      43.912  26.896  26.063  1.00  0.00     0.016 A 
ATOM     30  C   UNL A   1      42.662  24.904  26.637  1.00  0.00     0.016 A 
ATOM     31  C   UNL A   1      43.096  27.662  26.899  1.00  0.00     0.010 A 
ATOM     32  C   UNL A   1      41.848  25.672  27.484  1.00  0.00     0.010 A 
ATOM     33  C   UNL A   1      42.102  27.044  27.668  1.00  0.00    -0.014 A 
BRANCH  33  34
ATOM     34  C   UNL A   1      41.545  27.770  28.843  1.00  0.00     0.031 A 
ATOM     35  C   UNL A   1      42.277  27.647  30.157  1.00  0.00     0.074 A 
ATOM     36  C   UNL A   1      40.465  28.569  28.760  1.00  0.00     0.049 A 
ATOM     37  N   UNL A   1      42.020  28.205  31.313  1.00  0.00    -0.248 NA
ATOM     38  C   UNL A   1      43.457  26.768  30.166  1.00  0.00     0.031 C 
ATOM     39  C   UNL A   1      39.668  28.798  27.560  1.00  0.00     0.029 A 
ATOM     40  N   UNL A   1      39.859  29.343  29.722  1.00  0.00    -0.354 N 
ATOM     41  C   UNL A   1      42.998  27.738  32.183  1.00  0.00     0.074 A 
ATOM     42  C   UNL A   1      43.829  26.822  31.435  1.00  0.00     0.031 C 
ATOM     43  C   UNL A   1      38.674  29.654  27.857  1.00  0.00     0.029 A 
ATOM     44  C   UNL A   1      38.763  30.036  29.266  1.00  0.00     0.049 A 
ATOM     45  H   UNL A   1      40.179  29.395  30.652  1.00  0.00     0.167 HD
ATOM     46  C   UNL A   1      43.200  28.047  33.485  1.00  0.00     0.037 A 
ATOM     47  C   UNL A   1      37.931  30.882  29.909  1.00  0.00     0.037 A 
ATOM     48  C   UNL A   1      42.386  28.959  34.242  1.00  0.00     0.049 A 
ATOM     49  C   UNL A   1      38.160  31.190  31.371  1.00  0.00     0.074 A 
ATOM     50  C   UNL A   1      42.520  29.339  35.566  1.00  0.00     0.029 A 
ATOM     51  N   UNL A   1      41.281  29.632  33.743  1.00  0.00    -0.354 N 
ATOM     52  N   UNL A   1      39.106  30.763  32.173  1.00  0.00    -0.248 NA
ATOM     53  C   UNL A   1      37.204  32.105  32.013  1.00  0.00     0.031 C 
ATOM     54  C   UNL A   1      41.468  30.204  35.882  1.00  0.00     0.029 A 
ATOM     55  C   UNL A   1      40.716  30.413  34.738  1.00  0.00     0.049 A 
ATOM     56  H   UNL A   1      40.948  29.564  32.819  1.00  0.00     0.167 HD
ATOM     57  C   UNL A   1      38.878  31.384  33.398  1.00  0.00     0.074 A 
ATOM     58  C   UNL A   1      37.716  32.229  33.229  1.00  0.00     0.031 C 
ATOM     59  C   UNL A   1      39.569  31.265  34.559  1.00  0.00     0.037 A 
BRANCH  46  60
ATOM     60  C   UNL A   1      44.341  27.367  34.184  1.00  0.00     0.057 A 
ATOM     61  C   UNL A   1      45.623  27.929  34.234  1.00  0.00     0.134 A 
ATOM     62  C   UNL A   1      44.146  26.144  34.838  1.00  0.00     0.134 A 
ATOM     63  F   UNL A   1      45.883  29.088  33.611  1.00  0.00    -0.206 F 
ATOM     64  C   UNL A   1      46.676  27.287  34.890  1.00  0.00     0.040 A 
ATOM     65  C   UNL A   1      45.182  25.508  35.522  1.00  0.00     0.040 A 
ATOM     66  F   UNL A   1      42.942  25.551  34.830  1.00  0.00    -0.206 F 
ATOM     67  C   UNL A   1      46.454  26.077  35.544  1.00  0.00     0.006 A 
ENDBRANCH  46  60
BRANCH  47  68
ATOM     68  C   UNL A   1      36.791  31.512  29.190  1.00  0.00     0.057 A 
ATOM     69  C   UNL A   1      35.638  30.782  28.869  1.00  0.00     0.134 A 
ATOM     70  C   UNL A   1      36.851  32.839  28.752  1.00  0.00     0.134 A 
ATOM     71  F   UNL A   1      35.530  29.495  29.229  1.00  0.00    -0.206 F 
ATOM     72  C   UNL A   1      34.603  31.341  28.115  1.00  0.00     0.040 A 
ATOM     73  C   UNL A   1      35.810  33.419  28.023  1.00  0.00     0.040 A 
ATOM     74  F   UNL A   1      37.927  33.593  29.021  1.00  0.00    -0.206 F 
ATOM     75  C   UNL A   1      34.687  32.665  27.692  1.00  0.00     0.006 A 
ENDBRANCH  47  68
BRANCH  59  76
ATOM     76  C   UNL A   1      39.129  32.111  35.721  1.00  0.00     0.057 A 
ATOM     77  C   UNL A   1      38.281  31.624  36.725  1.00  0.00     0.134 A 
ATOM     78  C   UNL A   1      39.580  33.433  35.846  1.00  0.00     0.134 A 
ATOM     79  F   UNL A   1      37.807  30.371  36.667  1.00  0.00    -0.206 F 
ATOM     80  C   UNL A   1      37.867  32.432  37.787  1.00  0.00     0.040 A 
ATOM     81  C   UNL A   1      39.198  34.239  36.920  1.00  0.00     0.040 A 
ATOM     82  F   UNL A   1      40.406  33.960  34.931  1.00  0.00    -0.206 F 
ATOM     83  C   UNL A   1      38.330  33.742  37.889  1.00  0.00     0.006 A 
ENDBRANCH  59  76
ENDBRANCH  33  34
ENDBRANCH  26  28
ENDBRANCH  25  26
ENDBRANCH  24  25
ENDBRANCH  23  24
ENDBRANCH  22  23
ENDBRANCH  21  22
ENDBRANCH   1  21
TORSDOF 21
ENDMDL
MODEL 3
REMARK VINA RESULT:      -9.4      4.606      9.756
REMARK SMILES CC(C)CC[C@@H](C(=O)OCCOCCOCCOC(=O)c1ccc(-c2c3nc(c(-c4c(F)cccc4F)c4ccc([nH]4)c(-c4c(F)cccc4F)c4nc(c(-c5c(F)cccc5F)c5ccc2[nH]5)C=C4)C=C3)cc1)c1ccc(Br)cc1
REMARK SMILES IDX 13 1 12 2 11 3 10 4 9 5 7 6 8 7 6 8 5 9 4 10 2 11 1 12 3 13
REMARK SMILES IDX 75 14 76 15 81 16 77 17 80 18 78 19 79 20 14 21 15 22 16 23
REMARK SMILES IDX 17 24 18 25 19 26 20 27 21 28 22 29 74 30 23 31 73 32 24 33
REMARK SMILES IDX 25 34 26 35 67 36 27 37 72 38 66 39 68 40 28 41 71 42 65 43
REMARK SMILES IDX 64 44 29 46 55 47 38 48 54 49 39 50 42 51 53 52 69 53 40 54
REMARK SMILES IDX 41 55 52 57 70 58 43 59 30 60 31 61 36 62 32 63 33 64 35 65
REMARK SMILES IDX 37 66 34 67 56 68 57 69 62 70 58 71 59 72 61 73 63 74 60 75
REMARK SMILES IDX 44 76 45 77 50 78 46 79 47 80 49 81 51 82 48 83
REMARK H PARENT 68 45 42 56
REMARK Flexibility Score: inf
ROOT
ATOM      1  C   UNL A   1      34.442  32.596  28.735  1.00  0.00     0.188 C 
ENDROOT
BRANCH   1   2
ATOM      2  O   UNL A   1      33.603  31.616  28.136  1.00  0.00    -0.376 OA
BRANCH   2   3
ATOM      3  C   UNL A   1      34.265  30.550  27.454  1.00  0.00     0.202 C 
BRANCH   3   4
ATOM      4  C   UNL A   1      33.511  29.920  26.270  1.00  0.00     0.261 C 
BRANCH   4   5
ATOM      5  O   UNL A   1      34.095  28.689  25.787  1.00  0.00    -0.463 OA
BRANCH   5   6
ATOM      6  C   UNL A   1      33.851  28.361  24.486  1.00  0.00     0.313 C 
ATOM      7  O   UNL A   1      34.299  28.990  23.530  1.00  0.00    -0.252 OA
BRANCH   6   8
ATOM      8  C   UNL A   1      33.006  27.084  24.307  1.00  0.00     0.129 C 
BRANCH   8   9
ATOM      9  C   UNL A   1      31.701  27.008  25.143  1.00  0.00     0.020 C 
BRANCH   9  10
ATOM     10  C   UNL A   1      30.417  27.577  24.525  1.00  0.00     0.004 C 
BRANCH  10  11
ATOM     11  C   UNL A   1      29.632  26.629  23.604  1.00  0.00    -0.017 C 
ATOM     12  C   UNL A   1      30.216  25.216  23.595  1.00  0.00     0.007 C 
ATOM     13  C   UNL A   1      28.167  26.584  24.045  1.00  0.00     0.007 C 
ENDBRANCH  10  11
ENDBRANCH   9  10
ENDBRANCH   8   9
BRANCH   8  14
ATOM     14  C   UNL A   1      33.806  25.762  24.408  1.00  0.00    -0.034 A 
ATOM     15  C   UNL A   1      34.439  25.323  25.585  1.00  0.00     0.006 A 
ATOM     16  C   UNL A   1      33.984  24.972  23.253  1.00  0.00     0.006 A 
ATOM     17  C   UNL A   1      35.216  24.155  25.606  1.00  0.00     0.016 A 
ATOM     18  C   UNL A   1      34.755  23.805  23.270  1.00  0.00     0.016 A 
ATOM     19  C   UNL A   1      35.384  23.411  24.442  1.00  0.00     0.017 A 
ATOM     20  Br  UNL A   1      36.528  21.908  24.423  1.00  0.00    -0.051 Br
ENDBRANCH   8  14
ENDBRANCH   6   8
ENDBRANCH   5   6
ENDBRANCH   4   5
ENDBRANCH   3   4
ENDBRANCH   2   3
ENDBRANCH   1   2
BRANCH   1  21
ATOM     21  C   UNL A   1      34.342  32.743  30.251  1.00  0.00     0.188 C 
BRANCH  21  22
ATOM     22  O   UNL A   1      34.042  34.044  30.729  1.00  0.00    -0.376 OA
BRANCH  22  23
ATOM     23  C   UNL A   1      34.792  34.500  31.859  1.00  0.00     0.202 C 
BRANCH  23  24
ATOM     24  C   UNL A   1      34.613  33.715  33.178  1.00  0.00     0.261 C 
BRANCH  24  25
ATOM     25  O   UNL A   1      35.301  32.445  33.258  1.00  0.00    -0.460 OA
BRANCH  25  26
ATOM     26  C   UNL A   1      36.603  32.458  33.624  1.00  0.00     0.338 C 
ATOM     27  O   UNL A   1      37.052  32.884  34.675  1.00  0.00    -0.246 OA
BRANCH  26  28
ATOM     28  C   UNL A   1      37.393  31.640  32.659  1.00  0.00     0.060 A 
ATOM     29  C   UNL A   1      38.322  30.729  33.182  1.00  0.00     0.016 A 
ATOM     30  C   UNL A   1      37.208  31.715  31.273  1.00  0.00     0.016 A 
ATOM     31  C   UNL A   1      39.127  29.967  32.331  1.00  0.00     0.010 A 
ATOM     32  C   UNL A   1      38.023  30.957  30.419  1.00  0.00     0.010 A 
ATOM     33  C   UNL A   1      39.031  30.126  30.944  1.00  0.00    -0.014 A 
BRANCH  33  34
ATOM     34  C   UNL A   1      40.152  29.655  30.085  1.00  0.00     0.031 A 
ATOM     35  C   UNL A   1      41.282  30.616  29.812  1.00  0.00     0.074 A 
ATOM     36  C   UNL A   1      40.221  28.400  29.603  1.00  0.00     0.049 A 
ATOM     37  N   UNL A   1      42.385  30.439  29.130  1.00  0.00    -0.248 NA
ATOM     38  C   UNL A   1      41.143  31.965  30.384  1.00  0.00     0.031 C 
ATOM     39  C   UNL A   1      39.217  27.359  29.796  1.00  0.00     0.029 A 
ATOM     40  N   UNL A   1      41.197  27.792  28.849  1.00  0.00    -0.354 N 
ATOM     41  C   UNL A   1      43.062  31.652  29.184  1.00  0.00     0.074 A 
ATOM     42  C   UNL A   1      42.230  32.568  29.932  1.00  0.00     0.031 C 
ATOM     43  C   UNL A   1      39.629  26.239  29.173  1.00  0.00     0.029 A 
ATOM     44  C   UNL A   1      40.924  26.481  28.539  1.00  0.00     0.049 A 
ATOM     45  H   UNL A   1      42.017  28.253  28.556  1.00  0.00     0.167 HD
ATOM     46  C   UNL A   1      44.271  31.979  28.672  1.00  0.00     0.037 A 
ATOM     47  C   UNL A   1      41.636  25.581  27.830  1.00  0.00     0.037 A 
ATOM     48  C   UNL A   1      45.112  31.078  27.931  1.00  0.00     0.049 A 
ATOM     49  C   UNL A   1      42.971  25.977  27.243  1.00  0.00     0.074 A 
ATOM     50  C   UNL A   1      46.358  31.320  27.379  1.00  0.00     0.029 A 
ATOM     51  N   UNL A   1      44.791  29.763  27.632  1.00  0.00    -0.354 N 
ATOM     52  N   UNL A   1      43.611  27.118  27.328  1.00  0.00    -0.248 NA
ATOM     53  C   UNL A   1      43.683  24.952  26.465  1.00  0.00     0.031 C 
ATOM     54  C   UNL A   1      46.770  30.166  26.705  1.00  0.00     0.029 A 
ATOM     55  C   UNL A   1      45.810  29.186  26.892  1.00  0.00     0.049 A 
ATOM     56  H   UNL A   1      43.963  29.307  27.907  1.00  0.00     0.167 HD
ATOM     57  C   UNL A   1      44.811  26.935  26.647  1.00  0.00     0.074 A 
ATOM     58  C   UNL A   1      44.818  25.569  26.170  1.00  0.00     0.031 C 
ATOM     59  C   UNL A   1      45.818  27.820  26.435  1.00  0.00     0.037 A 
BRANCH  46  60
ATOM     60  C   UNL A   1      44.746  33.388  28.876  1.00  0.00     0.057 A 
ATOM     61  C   UNL A   1      45.493  33.764  30.000  1.00  0.00     0.134 A 
ATOM     62  C   UNL A   1      44.474  34.375  27.921  1.00  0.00     0.134 A 
ATOM     63  F   UNL A   1      45.771  32.872  30.963  1.00  0.00    -0.206 F 
ATOM     64  C   UNL A   1      45.932  35.078  30.178  1.00  0.00     0.040 A 
ATOM     65  C   UNL A   1      44.933  35.684  28.072  1.00  0.00     0.040 A 
ATOM     66  F   UNL A   1      43.765  34.082  26.820  1.00  0.00    -0.206 F 
ATOM     67  C   UNL A   1      45.659  36.040  29.207  1.00  0.00     0.006 A 
ENDBRANCH  46  60
BRANCH  47  68
ATOM     68  C   UNL A   1      41.116  24.202  27.621  1.00  0.00     0.057 A 
ATOM     69  C   UNL A   1      41.657  23.106  28.306  1.00  0.00     0.134 A 
ATOM     70  C   UNL A   1      40.109  23.939  26.685  1.00  0.00     0.134 A 
ATOM     71  F   UNL A   1      42.648  23.285  29.191  1.00  0.00    -0.206 F 
ATOM     72  C   UNL A   1      41.237  21.799  28.047  1.00  0.00     0.040 A 
ATOM     73  C   UNL A   1      39.659  22.640  26.438  1.00  0.00     0.040 A 
ATOM     74  F   UNL A   1      39.551  24.941  25.990  1.00  0.00    -0.206 F 
ATOM     75  C   UNL A   1      40.232  21.564  27.112  1.00  0.00     0.006 A 
ENDBRANCH  47  68
BRANCH  59  76
ATOM     76  C   UNL A   1      47.038  27.324  25.710  1.00  0.00     0.057 A 
ATOM     77  C   UNL A   1      47.238  27.545  24.341  1.00  0.00     0.134 A 
ATOM     78  C   UNL A   1      48.041  26.631  26.402  1.00  0.00     0.134 A 
ATOM     79  F   UNL A   1      46.318  28.196  23.615  1.00  0.00    -0.206 F 
ATOM     80  C   UNL A   1      48.369  27.060  23.680  1.00  0.00     0.040 A 
ATOM     81  C   UNL A   1      49.192  26.170  25.758  1.00  0.00     0.040 A 
ATOM     82  F   UNL A   1      47.925  26.398  27.718  1.00  0.00    -0.206 F 
ATOM     83  C   UNL A   1      49.352  26.374  24.391  1.00  0.00     0.006 A 
ENDBRANCH  59  76
ENDBRANCH  33  34
ENDBRANCH  26  28
ENDBRANCH  25  26
ENDBRANCH  24  25
ENDBRANCH  23  24
ENDBRANCH  22  23
ENDBRANCH  21  22
ENDBRANCH   1  21
TORSDOF 21
ENDMDL
