MODEL 1
REMARK VINA RESULT:     -11.3      0.000      0.000
REMARK SMILES Cc1cc(Cl)cc2c1O[C@H](C(F)(F)F)C(C(=O)OCCOCCOCCOC(=O)c1ccc(-c3c4nc(c(-c5c(F)cccc5F)c5ccc([nH]5)c(-c5c(F)cccc5F)c5nc(c(-c6c(F)cccc6F)c6ccc3[nH]6)C=C5)C=C4)cc1)=C2
REMARK SMILES IDX 23 1 22 2 21 3 20 4 19 5 18 6 16 7 17 8 15 9 1 10 2 11 3 12
REMARK SMILES IDX 8 13 4 14 7 15 9 16 5 17 6 18 84 19 10 20 11 21 12 22 13 23
REMARK SMILES IDX 14 24 24 25 25 26 26 27 27 28 28 29 29 30 30 31 31 32 83 33
REMARK SMILES IDX 32 34 82 35 33 36 34 37 35 38 76 39 36 40 81 41 75 42 77 43
REMARK SMILES IDX 37 44 80 45 74 46 73 47 38 49 64 50 47 51 63 52 48 53 51 54
REMARK SMILES IDX 62 55 78 56 49 57 50 58 61 60 79 61 52 62 39 63 40 64 45 65
REMARK SMILES IDX 41 66 42 67 44 68 46 69 43 70 65 71 66 72 71 73 67 74 68 75
REMARK SMILES IDX 70 76 72 77 69 78 53 79 54 80 59 81 55 82 56 83 58 84 60 85
REMARK SMILES IDX 57 86
REMARK H PARENT 77 48 51 59
REMARK Flexibility Score: inf
ROOT
ATOM      1  C   UNL A   1      40.755  21.205  27.411  1.00  0.00     0.188 C 
ENDROOT
BRANCH   1   2
ATOM      2  C   UNL A   1      40.025  21.588  26.108  1.00  0.00     0.188 C 
BRANCH   2   3
ATOM      3  O   UNL A   1      38.631  21.812  26.111  1.00  0.00    -0.376 OA
BRANCH   3   4
ATOM      4  C   UNL A   1      37.810  21.318  25.067  1.00  0.00     0.202 C 
BRANCH   4   5
ATOM      5  C   UNL A   1      36.282  21.489  25.036  1.00  0.00     0.261 C 
BRANCH   5   6
ATOM      6  O   UNL A   1      35.800  22.838  25.030  1.00  0.00    -0.460 OA
BRANCH   6   7
ATOM      7  C   UNL A   1      35.556  23.360  23.804  1.00  0.00     0.338 C 
ATOM      8  O   UNL A   1      36.079  23.033  22.752  1.00  0.00    -0.246 OA
BRANCH   7   9
ATOM      9  C   UNL A   1      34.422  24.303  23.886  1.00  0.00     0.087 C 
ATOM     10  C   UNL A   1      29.830  26.499  23.558  1.00  0.00     0.048 C 
ATOM     11  C   UNL A   1      31.035  26.674  24.439  1.00  0.00    -0.007 A 
ATOM     12  C   UNL A   1      30.975  27.529  25.549  1.00  0.00     0.027 A 
ATOM     13  C   UNL A   1      32.214  25.953  24.193  1.00  0.00     0.131 A 
ATOM     14  C   UNL A   1      32.079  27.663  26.390  1.00  0.00     0.042 A 
ATOM     15  C   UNL A   1      33.298  26.049  25.073  1.00  0.00     0.019 A 
ATOM     16  O   UNL A   1      32.229  25.165  23.076  1.00  0.00    -0.475 OA
ATOM     17  Cl  UNL A   1      31.992  28.713  27.751  1.00  0.00    -0.084 Cl
ATOM     18  C   UNL A   1      33.238  26.928  26.160  1.00  0.00     0.032 A 
ATOM     19  C   UNL A   1      34.443  25.171  24.906  1.00  0.00     0.027 C 
ATOM     20  C   UNL A   1      33.333  24.248  22.852  1.00  0.00     0.316 C 
BRANCH  20  21
ATOM     21  C   UNL A   1      32.749  22.840  22.685  1.00  0.00     0.430 C 
ATOM     22  F   UNL A   1      31.416  22.830  22.929  1.00  0.00    -0.167 F 
ATOM     23  F   UNL A   1      32.916  22.369  21.428  1.00  0.00    -0.167 F 
ATOM     24  F   UNL A   1      33.323  21.954  23.530  1.00  0.00    -0.167 F 
ENDBRANCH  20  21
ENDBRANCH   7   9
ENDBRANCH   6   7
ENDBRANCH   5   6
ENDBRANCH   4   5
ENDBRANCH   3   4
ENDBRANCH   2   3
ENDBRANCH   1   2
BRANCH   1  25
ATOM     25  O   UNL A   1      42.045  20.649  27.328  1.00  0.00    -0.376 OA
BRANCH  25  26
ATOM     26  C   UNL A   1      42.751  20.671  26.098  1.00  0.00     0.202 C 
BRANCH  26  27
ATOM     27  C   UNL A   1      43.684  21.800  25.611  1.00  0.00     0.261 C 
BRANCH  27  28
ATOM     28  O   UNL A   1      43.089  22.976  25.054  1.00  0.00    -0.460 OA
BRANCH  28  29
ATOM     29  C   UNL A   1      43.831  24.111  25.149  1.00  0.00     0.338 C 
ATOM     30  O   UNL A   1      44.804  24.417  24.490  1.00  0.00    -0.246 OA
BRANCH  29  31
ATOM     31  C   UNL A   1      43.146  25.045  26.065  1.00  0.00     0.060 A 
ATOM     32  C   UNL A   1      43.624  26.359  26.171  1.00  0.00     0.016 A 
ATOM     33  C   UNL A   1      42.054  24.622  26.824  1.00  0.00     0.016 A 
ATOM     34  C   UNL A   1      43.011  27.257  27.044  1.00  0.00     0.010 A 
ATOM     35  C   UNL A   1      41.463  25.515  27.723  1.00  0.00     0.010 A 
ATOM     36  C   UNL A   1      41.954  26.827  27.854  1.00  0.00    -0.014 A 
BRANCH  36  37
ATOM     37  C   UNL A   1      41.493  27.684  28.972  1.00  0.00     0.031 A 
ATOM     38  C   UNL A   1      42.246  27.625  30.272  1.00  0.00     0.074 A 
ATOM     39  C   UNL A   1      40.448  28.520  28.836  1.00  0.00     0.049 A 
ATOM     40  N   UNL A   1      42.006  28.239  31.401  1.00  0.00    -0.248 NA
ATOM     41  C   UNL A   1      43.435  26.755  30.299  1.00  0.00     0.031 C 
ATOM     42  C   UNL A   1      39.672  28.712  27.613  1.00  0.00     0.029 A 
ATOM     43  N   UNL A   1      39.859  29.363  29.746  1.00  0.00    -0.354 N 
ATOM     44  C   UNL A   1      43.011  27.833  32.270  1.00  0.00     0.074 A 
ATOM     45  C   UNL A   1      43.842  26.892  31.552  1.00  0.00     0.031 C 
ATOM     46  C   UNL A   1      38.702  29.612  27.852  1.00  0.00     0.029 A 
ATOM     47  C   UNL A   1      38.768  30.034  29.251  1.00  0.00     0.049 A 
ATOM     48  H   UNL A   1      40.189  29.475  30.667  1.00  0.00     0.167 HD
ATOM     49  C   UNL A   1      43.229  28.220  33.548  1.00  0.00     0.037 A 
ATOM     50  C   UNL A   1      37.911  30.874  29.866  1.00  0.00     0.037 A 
ATOM     51  C   UNL A   1      42.398  29.149  34.264  1.00  0.00     0.049 A 
ATOM     52  C   UNL A   1      38.113  31.208  31.321  1.00  0.00     0.074 A 
ATOM     53  C   UNL A   1      42.539  29.602  35.564  1.00  0.00     0.029 A 
ATOM     54  N   UNL A   1      41.269  29.764  33.745  1.00  0.00    -0.354 N 
ATOM     55  N   UNL A   1      39.070  30.828  32.134  1.00  0.00    -0.248 NA
ATOM     56  C   UNL A   1      37.115  32.088  31.949  1.00  0.00     0.031 C 
ATOM     57  C   UNL A   1      41.464  30.446  35.851  1.00  0.00     0.029 A 
ATOM     58  C   UNL A   1      40.686  30.569  34.710  1.00  0.00     0.049 A 
ATOM     59  H   UNL A   1      40.931  29.645  32.828  1.00  0.00     0.167 HD
ATOM     60  C   UNL A   1      38.806  31.441  33.353  1.00  0.00     0.074 A 
ATOM     61  C   UNL A   1      37.606  32.230  33.172  1.00  0.00     0.031 C 
ATOM     62  C   UNL A   1      39.495  31.358  34.518  1.00  0.00     0.037 A 
BRANCH  49  63
ATOM     63  C   UNL A   1      44.408  27.628  34.263  1.00  0.00     0.057 A 
ATOM     64  C   UNL A   1      45.653  28.270  34.288  1.00  0.00     0.134 A 
ATOM     65  C   UNL A   1      44.281  26.435  34.983  1.00  0.00     0.134 A 
ATOM     66  F   UNL A   1      45.845  29.408  33.604  1.00  0.00    -0.206 F 
ATOM     67  C   UNL A   1      46.732  27.739  34.996  1.00  0.00     0.040 A 
ATOM     68  C   UNL A   1      45.345  25.909  35.719  1.00  0.00     0.040 A 
ATOM     69  F   UNL A   1      43.115  25.770  35.003  1.00  0.00    -0.206 F 
ATOM     70  C   UNL A   1      46.576  26.561  35.723  1.00  0.00     0.006 A 
ENDBRANCH  49  63
BRANCH  50  71
ATOM     71  C   UNL A   1      36.777  31.463  29.106  1.00  0.00     0.057 A 
ATOM     72  C   UNL A   1      35.644  30.703  28.792  1.00  0.00     0.134 A 
ATOM     73  C   UNL A   1      36.799  32.794  28.670  1.00  0.00     0.134 A 
ATOM     74  F   UNL A   1      35.575  29.414  29.156  1.00  0.00    -0.206 F 
ATOM     75  C   UNL A   1      34.580  31.240  28.066  1.00  0.00     0.040 A 
ATOM     76  C   UNL A   1      35.730  33.352  27.967  1.00  0.00     0.040 A 
ATOM     77  F   UNL A   1      37.857  33.575  28.932  1.00  0.00    -0.206 F 
ATOM     78  C   UNL A   1      34.617  32.572  27.659  1.00  0.00     0.006 A 
ENDBRANCH  50  71
BRANCH  62  79
ATOM     79  C   UNL A   1      38.997  32.153  35.691  1.00  0.00     0.057 A 
ATOM     80  C   UNL A   1      38.229  31.570  36.706  1.00  0.00     0.134 A 
ATOM     81  C   UNL A   1      39.365  33.496  35.851  1.00  0.00     0.134 A 
ATOM     82  F   UNL A   1      37.835  30.291  36.612  1.00  0.00    -0.206 F 
ATOM     83  C   UNL A   1      37.835  32.296  37.832  1.00  0.00     0.040 A 
ATOM     84  C   UNL A   1      39.004  34.224  36.986  1.00  0.00     0.040 A 
ATOM     85  F   UNL A   1      40.113  34.114  34.924  1.00  0.00    -0.206 F 
ATOM     86  C   UNL A   1      38.233  33.624  37.980  1.00  0.00     0.006 A 
ENDBRANCH  62  79
ENDBRANCH  36  37
ENDBRANCH  29  31
ENDBRANCH  28  29
ENDBRANCH  27  28
ENDBRANCH  26  27
ENDBRANCH  25  26
ENDBRANCH   1  25
TORSDOF 18
ENDMDL
MODEL 2
REMARK VINA RESULT:     -10.9      1.267      1.996
REMARK SMILES Cc1cc(Cl)cc2c1O[C@H](C(F)(F)F)C(C(=O)OCCOCCOCCOC(=O)c1ccc(-c3c4nc(c(-c5c(F)cccc5F)c5ccc([nH]5)c(-c5c(F)cccc5F)c5nc(c(-c6c(F)cccc6F)c6ccc3[nH]6)C=C5)C=C4)cc1)=C2
REMARK SMILES IDX 23 1 22 2 21 3 20 4 19 5 18 6 16 7 17 8 15 9 1 10 2 11 3 12
REMARK SMILES IDX 8 13 4 14 7 15 9 16 5 17 6 18 84 19 10 20 11 21 12 22 13 23
REMARK SMILES IDX 14 24 24 25 25 26 26 27 27 28 28 29 29 30 30 31 31 32 83 33
REMARK SMILES IDX 32 34 82 35 33 36 34 37 35 38 76 39 36 40 81 41 75 42 77 43
REMARK SMILES IDX 37 44 80 45 74 46 73 47 38 49 64 50 47 51 63 52 48 53 51 54
REMARK SMILES IDX 62 55 78 56 49 57 50 58 61 60 79 61 52 62 39 63 40 64 45 65
REMARK SMILES IDX 41 66 42 67 44 68 46 69 43 70 65 71 66 72 71 73 67 74 68 75
REMARK SMILES IDX 70 76 72 77 69 78 53 79 54 80 59 81 55 82 56 83 58 84 60 85
REMARK SMILES IDX 57 86
REMARK H PARENT 77 48 51 59
REMARK Flexibility Score: inf
ROOT
ATOM      1  C   UNL A   1      41.912  19.028  26.147  1.00  0.00     0.188 C 
ENDROOT
BRANCH   1   2
ATOM      2  C   UNL A   1      40.675  19.946  26.073  1.00  0.00     0.188 C 
BRANCH   2   3
ATOM      3  O   UNL A   1      40.632  21.146  26.814  1.00  0.00    -0.376 OA
BRANCH   3   4
ATOM      4  C   UNL A   1      39.572  22.072  26.644  1.00  0.00     0.202 C 
BRANCH   4   5
ATOM      5  C   UNL A   1      38.351  21.808  25.747  1.00  0.00     0.261 C 
BRANCH   5   6
ATOM      6  O   UNL A   1      37.476  22.921  25.532  1.00  0.00    -0.460 OA
BRANCH   6   7
ATOM      7  C   UNL A   1      36.693  22.838  24.430  1.00  0.00     0.338 C 
ATOM      8  O   UNL A   1      36.999  22.360  23.349  1.00  0.00    -0.246 OA
BRANCH   7   9
ATOM      9  C   UNL A   1      35.322  23.274  24.764  1.00  0.00     0.087 C 
ATOM     10  C   UNL A   1      30.507  23.485  26.435  1.00  0.00     0.048 C 
ATOM     11  C   UNL A   1      31.585  24.495  26.158  1.00  0.00    -0.007 A 
ATOM     12  C   UNL A   1      31.395  25.840  26.509  1.00  0.00     0.027 A 
ATOM     13  C   UNL A   1      32.808  24.102  25.591  1.00  0.00     0.131 A 
ATOM     14  C   UNL A   1      32.408  26.772  26.289  1.00  0.00     0.042 A 
ATOM     15  C   UNL A   1      33.841  25.032  25.425  1.00  0.00     0.019 A 
ATOM     16  O   UNL A   1      32.923  22.788  25.233  1.00  0.00    -0.475 OA
ATOM     17  Cl  UNL A   1      32.163  28.418  26.726  1.00  0.00    -0.084 Cl
ATOM     18  C   UNL A   1      33.630  26.376  25.751  1.00  0.00     0.032 A 
ATOM     19  C   UNL A   1      35.155  24.582  25.001  1.00  0.00     0.027 C 
ATOM     20  C   UNL A   1      34.212  22.263  24.816  1.00  0.00     0.316 C 
BRANCH  20  21
ATOM     21  C   UNL A   1      34.546  21.067  25.718  1.00  0.00     0.430 C 
ATOM     22  F   UNL A   1      35.401  20.214  25.104  1.00  0.00    -0.167 F 
ATOM     23  F   UNL A   1      35.142  21.453  26.869  1.00  0.00    -0.167 F 
ATOM     24  F   UNL A   1      33.439  20.365  26.050  1.00  0.00    -0.167 F 
ENDBRANCH  20  21
ENDBRANCH   7   9
ENDBRANCH   6   7
ENDBRANCH   5   6
ENDBRANCH   4   5
ENDBRANCH   3   4
ENDBRANCH   2   3
ENDBRANCH   1   2
BRANCH   1  25
ATOM     25  O   UNL A   1      43.181  19.576  25.883  1.00  0.00    -0.376 OA
BRANCH  25  26
ATOM     26  C   UNL A   1      43.406  20.966  26.060  1.00  0.00     0.202 C 
BRANCH  26  27
ATOM     27  C   UNL A   1      44.749  21.698  25.851  1.00  0.00     0.261 C 
BRANCH  27  28
ATOM     28  O   UNL A   1      44.803  23.102  26.120  1.00  0.00    -0.460 OA
BRANCH  28  29
ATOM     29  C   UNL A   1      43.967  23.874  25.377  1.00  0.00     0.338 C 
ATOM     30  O   UNL A   1      43.678  23.738  24.205  1.00  0.00    -0.246 OA
BRANCH  29  31
ATOM     31  C   UNL A   1      43.279  24.821  26.278  1.00  0.00     0.060 A 
ATOM     32  C   UNL A   1      43.720  26.152  26.322  1.00  0.00     0.016 A 
ATOM     33  C   UNL A   1      42.222  24.395  27.082  1.00  0.00     0.016 A 
ATOM     34  C   UNL A   1      43.104  27.063  27.179  1.00  0.00     0.010 A 
ATOM     35  C   UNL A   1      41.629  25.303  27.964  1.00  0.00     0.010 A 
ATOM     36  C   UNL A   1      42.082  26.633  28.034  1.00  0.00    -0.014 A 
BRANCH  36  37
ATOM     37  C   UNL A   1      41.626  27.517  29.132  1.00  0.00     0.031 A 
ATOM     38  C   UNL A   1      42.372  27.473  30.437  1.00  0.00     0.074 A 
ATOM     39  C   UNL A   1      40.592  28.362  28.974  1.00  0.00     0.049 A 
ATOM     40  N   UNL A   1      42.133  28.112  31.553  1.00  0.00    -0.248 NA
ATOM     41  C   UNL A   1      43.549  26.590  30.488  1.00  0.00     0.031 C 
ATOM     42  C   UNL A   1      39.825  28.540  27.743  1.00  0.00     0.029 A 
ATOM     43  N   UNL A   1      40.009  29.230  29.864  1.00  0.00    -0.354 N 
ATOM     44  C   UNL A   1      43.128  27.711  32.435  1.00  0.00     0.074 A 
ATOM     45  C   UNL A   1      43.951  26.747  31.740  1.00  0.00     0.031 C 
ATOM     46  C   UNL A   1      38.865  29.457  27.959  1.00  0.00     0.029 A 
ATOM     47  C   UNL A   1      38.929  29.904  29.351  1.00  0.00     0.049 A 
ATOM     48  H   UNL A   1      40.335  29.356  30.785  1.00  0.00     0.167 HD
ATOM     49  C   UNL A   1      43.344  28.119  33.706  1.00  0.00     0.037 A 
ATOM     50  C   UNL A   1      38.079  30.766  29.944  1.00  0.00     0.037 A 
ATOM     51  C   UNL A   1      42.520  29.073  34.400  1.00  0.00     0.049 A 
ATOM     52  C   UNL A   1      38.276  31.127  31.394  1.00  0.00     0.074 A 
ATOM     53  C   UNL A   1      42.660  29.549  35.692  1.00  0.00     0.029 A 
ATOM     54  N   UNL A   1      41.402  29.691  33.863  1.00  0.00    -0.354 N 
ATOM     55  N   UNL A   1      39.225  30.750  32.219  1.00  0.00    -0.248 NA
ATOM     56  C   UNL A   1      37.286  32.030  31.999  1.00  0.00     0.031 C 
ATOM     57  C   UNL A   1      41.594  30.411  35.957  1.00  0.00     0.029 A 
ATOM     58  C   UNL A   1      40.824  30.522  34.809  1.00  0.00     0.049 A 
ATOM     59  H   UNL A   1      41.067  29.559  32.946  1.00  0.00     0.167 HD
ATOM     60  C   UNL A   1      38.961  31.390  33.425  1.00  0.00     0.074 A 
ATOM     61  C   UNL A   1      37.772  32.190  33.222  1.00  0.00     0.031 C 
ATOM     62  C   UNL A   1      39.644  31.321  34.595  1.00  0.00     0.037 A 
BRANCH  49  63
ATOM     63  C   UNL A   1      44.512  27.527  34.439  1.00  0.00     0.057 A 
ATOM     64  C   UNL A   1      45.765  28.153  34.456  1.00  0.00     0.134 A 
ATOM     65  C   UNL A   1      44.366  26.352  35.184  1.00  0.00     0.134 A 
ATOM     66  F   UNL A   1      45.976  29.274  33.749  1.00  0.00    -0.206 F 
ATOM     67  C   UNL A   1      46.834  27.623  35.181  1.00  0.00     0.040 A 
ATOM     68  C   UNL A   1      45.419  25.828  35.936  1.00  0.00     0.040 A 
ATOM     69  F   UNL A   1      43.191  25.704  35.213  1.00  0.00    -0.206 F 
ATOM     70  C   UNL A   1      46.659  26.463  35.932  1.00  0.00     0.006 A 
ENDBRANCH  49  63
BRANCH  50  71
ATOM     71  C   UNL A   1      36.956  31.354  29.167  1.00  0.00     0.057 A 
ATOM     72  C   UNL A   1      36.992  32.687  28.740  1.00  0.00     0.134 A 
ATOM     73  C   UNL A   1      35.819  30.605  28.837  1.00  0.00     0.134 A 
ATOM     74  F   UNL A   1      38.039  33.466  29.049  1.00  0.00    -0.206 F 
ATOM     75  C   UNL A   1      35.938  33.256  28.023  1.00  0.00     0.040 A 
ATOM     76  C   UNL A   1      34.771  31.152  28.097  1.00  0.00     0.040 A 
ATOM     77  F   UNL A   1      35.719  29.323  29.221  1.00  0.00    -0.206 F 
ATOM     78  C   UNL A   1      34.826  32.483  27.692  1.00  0.00     0.006 A 
ENDBRANCH  50  71
BRANCH  62  79
ATOM     79  C   UNL A   1      39.149  32.145  35.749  1.00  0.00     0.057 A 
ATOM     80  C   UNL A   1      39.529  33.481  35.920  1.00  0.00     0.134 A 
ATOM     81  C   UNL A   1      38.211  31.621  36.650  1.00  0.00     0.134 A 
ATOM     82  F   UNL A   1      40.429  34.043  35.098  1.00  0.00    -0.206 F 
ATOM     83  C   UNL A   1      39.005  34.265  36.951  1.00  0.00     0.040 A 
ATOM     84  C   UNL A   1      37.657  32.401  37.666  1.00  0.00     0.040 A 
ATOM     85  F   UNL A   1      37.791  30.352  36.537  1.00  0.00    -0.206 F 
ATOM     86  C   UNL A   1      38.056  33.728  37.820  1.00  0.00     0.006 A 
ENDBRANCH  62  79
ENDBRANCH  36  37
ENDBRANCH  29  31
ENDBRANCH  28  29
ENDBRANCH  27  28
ENDBRANCH  26  27
ENDBRANCH  25  26
ENDBRANCH   1  25
TORSDOF 18
ENDMDL
MODEL 3
REMARK VINA RESULT:     -10.9      2.175      3.528
REMARK SMILES Cc1cc(Cl)cc2c1O[C@H](C(F)(F)F)C(C(=O)OCCOCCOCCOC(=O)c1ccc(-c3c4nc(c(-c5c(F)cccc5F)c5ccc([nH]5)c(-c5c(F)cccc5F)c5nc(c(-c6c(F)cccc6F)c6ccc3[nH]6)C=C5)C=C4)cc1)=C2
REMARK SMILES IDX 23 1 22 2 21 3 20 4 19 5 18 6 16 7 17 8 15 9 1 10 2 11 3 12
REMARK SMILES IDX 8 13 4 14 7 15 9 16 5 17 6 18 84 19 10 20 11 21 12 22 13 23
REMARK SMILES IDX 14 24 24 25 25 26 26 27 27 28 28 29 29 30 30 31 31 32 83 33
REMARK SMILES IDX 32 34 82 35 33 36 34 37 35 38 76 39 36 40 81 41 75 42 77 43
REMARK SMILES IDX 37 44 80 45 74 46 73 47 38 49 64 50 47 51 63 52 48 53 51 54
REMARK SMILES IDX 62 55 78 56 49 57 50 58 61 60 79 61 52 62 39 63 40 64 45 65
REMARK SMILES IDX 41 66 42 67 44 68 46 69 43 70 65 71 66 72 71 73 67 74 68 75
REMARK SMILES IDX 70 76 72 77 69 78 53 79 54 80 59 81 55 82 56 83 58 84 60 85
REMARK SMILES IDX 57 86
REMARK H PARENT 77 48 51 59
REMARK Flexibility Score: inf
ROOT
ATOM      1  C   UNL A   1      40.827  20.763  27.267  1.00  0.00     0.188 C 
ENDROOT
BRANCH   1   2
ATOM      2  C   UNL A   1      40.104  21.025  25.930  1.00  0.00     0.188 C 
BRANCH   2   3
ATOM      3  O   UNL A   1      38.796  21.556  25.919  1.00  0.00    -0.376 OA
BRANCH   3   4
ATOM      4  C   UNL A   1      38.535  22.866  26.394  1.00  0.00     0.202 C 
BRANCH   4   5
ATOM      5  C   UNL A   1      37.506  23.811  25.753  1.00  0.00     0.261 C 
BRANCH   5   6
ATOM      6  O   UNL A   1      36.552  23.202  24.875  1.00  0.00    -0.460 OA
BRANCH   6   7
ATOM      7  C   UNL A   1      35.278  23.176  25.333  1.00  0.00     0.338 C 
ATOM      8  O   UNL A   1      34.692  24.072  25.919  1.00  0.00    -0.246 OA
BRANCH   7   9
ATOM      9  C   UNL A   1      34.615  21.937  24.879  1.00  0.00     0.087 C 
ATOM     10  C   UNL A   1      32.012  18.457  22.207  1.00  0.00     0.048 C 
ATOM     11  C   UNL A   1      33.078  18.410  23.265  1.00  0.00    -0.007 A 
ATOM     12  C   UNL A   1      33.673  17.187  23.610  1.00  0.00     0.027 A 
ATOM     13  C   UNL A   1      33.526  19.588  23.886  1.00  0.00     0.131 A 
ATOM     14  C   UNL A   1      34.689  17.146  24.563  1.00  0.00     0.042 A 
ATOM     15  C   UNL A   1      34.584  19.546  24.800  1.00  0.00     0.019 A 
ATOM     16  O   UNL A   1      32.884  20.744  23.540  1.00  0.00    -0.475 OA
ATOM     17  Cl  UNL A   1      35.413  15.640  24.974  1.00  0.00    -0.084 Cl
ATOM     18  C   UNL A   1      35.150  18.318  25.158  1.00  0.00     0.032 A 
ATOM     19  C   UNL A   1      35.152  20.785  25.303  1.00  0.00     0.027 C 
ATOM     20  C   UNL A   1      33.405  22.023  23.992  1.00  0.00     0.316 C 
BRANCH  20  21
ATOM     21  C   UNL A   1      33.642  22.897  22.754  1.00  0.00     0.430 C 
ATOM     22  F   UNL A   1      32.902  22.470  21.702  1.00  0.00    -0.167 F 
ATOM     23  F   UNL A   1      33.297  24.186  22.973  1.00  0.00    -0.167 F 
ATOM     24  F   UNL A   1      34.939  22.884  22.370  1.00  0.00    -0.167 F 
ENDBRANCH  20  21
ENDBRANCH   7   9
ENDBRANCH   6   7
ENDBRANCH   5   6
ENDBRANCH   4   5
ENDBRANCH   3   4
ENDBRANCH   2   3
ENDBRANCH   1   2
BRANCH   1  25
ATOM     25  O   UNL A   1      42.220  20.565  27.257  1.00  0.00    -0.376 OA
BRANCH  25  26
ATOM     26  C   UNL A   1      42.913  20.448  26.024  1.00  0.00     0.202 C 
BRANCH  26  27
ATOM     27  C   UNL A   1      43.711  21.570  25.326  1.00  0.00     0.261 C 
BRANCH  27  28
ATOM     28  O   UNL A   1      43.014  22.759  24.944  1.00  0.00    -0.460 OA
BRANCH  28  29
ATOM     29  C   UNL A   1      43.737  23.908  25.001  1.00  0.00     0.338 C 
ATOM     30  O   UNL A   1      44.676  24.228  24.299  1.00  0.00    -0.246 OA
BRANCH  29  31
ATOM     31  C   UNL A   1      43.072  24.836  25.939  1.00  0.00     0.060 A 
ATOM     32  C   UNL A   1      43.486  26.175  25.969  1.00  0.00     0.016 A 
ATOM     33  C   UNL A   1      42.065  24.383  26.790  1.00  0.00     0.016 A 
ATOM     34  C   UNL A   1      42.893  27.069  26.860  1.00  0.00     0.010 A 
ATOM     35  C   UNL A   1      41.495  25.273  27.705  1.00  0.00     0.010 A 
ATOM     36  C   UNL A   1      41.923  26.613  27.760  1.00  0.00    -0.014 A 
BRANCH  36  37
ATOM     37  C   UNL A   1      41.501  27.482  28.884  1.00  0.00     0.031 A 
ATOM     38  C   UNL A   1      42.270  27.401  30.174  1.00  0.00     0.074 A 
ATOM     39  C   UNL A   1      40.478  28.346  28.763  1.00  0.00     0.049 A 
ATOM     40  N   UNL A   1      42.063  28.020  31.306  1.00  0.00    -0.248 NA
ATOM     41  C   UNL A   1      43.435  26.498  30.185  1.00  0.00     0.031 C 
ATOM     42  C   UNL A   1      39.691  28.560  27.550  1.00  0.00     0.029 A 
ATOM     43  N   UNL A   1      39.926  29.204  29.681  1.00  0.00    -0.354 N 
ATOM     44  C   UNL A   1      43.068  27.587  32.161  1.00  0.00     0.074 A 
ATOM     45  C   UNL A   1      43.862  26.624  31.431  1.00  0.00     0.031 C 
ATOM     46  C   UNL A   1      38.750  29.486  27.803  1.00  0.00     0.029 A 
ATOM     47  C   UNL A   1      38.846  29.905  29.201  1.00  0.00     0.049 A 
ATOM     48  H   UNL A   1      40.270  29.307  30.597  1.00  0.00     0.167 HD
ATOM     49  C   UNL A   1      43.314  27.967  33.436  1.00  0.00     0.037 A 
ATOM     50  C   UNL A   1      38.021  30.768  29.827  1.00  0.00     0.037 A 
ATOM     51  C   UNL A   1      42.519  28.918  34.164  1.00  0.00     0.049 A 
ATOM     52  C   UNL A   1      38.252  31.096  31.280  1.00  0.00     0.074 A 
ATOM     53  C   UNL A   1      42.691  29.366  35.462  1.00  0.00     0.029 A 
ATOM     54  N   UNL A   1      41.400  29.564  33.661  1.00  0.00    -0.354 N 
ATOM     55  N   UNL A   1      39.210  30.689  32.080  1.00  0.00    -0.248 NA
ATOM     56  C   UNL A   1      37.287  32.003  31.922  1.00  0.00     0.031 C 
ATOM     57  C   UNL A   1      41.642  30.239  35.764  1.00  0.00     0.029 A 
ATOM     58  C   UNL A   1      40.853  30.384  34.633  1.00  0.00     0.049 A 
ATOM     59  H   UNL A   1      41.046  29.455  32.748  1.00  0.00     0.167 HD
ATOM     60  C   UNL A   1      38.979  31.309  33.302  1.00  0.00     0.074 A 
ATOM     61  C   UNL A   1      37.799  32.131  33.138  1.00  0.00     0.031 C 
ATOM     62  C   UNL A   1      39.682  31.206  34.457  1.00  0.00     0.037 A 
BRANCH  49  63
ATOM     63  C   UNL A   1      44.486  27.342  34.135  1.00  0.00     0.057 A 
ATOM     64  C   UNL A   1      44.369  26.131  34.830  1.00  0.00     0.134 A 
ATOM     65  C   UNL A   1      45.756  27.926  34.060  1.00  0.00     0.134 A 
ATOM     66  F   UNL A   1      43.177  25.529  34.953  1.00  0.00    -0.206 F 
ATOM     67  C   UNL A   1      45.474  25.530  35.435  1.00  0.00     0.040 A 
ATOM     68  C   UNL A   1      46.873  27.320  34.637  1.00  0.00     0.040 A 
ATOM     69  F   UNL A   1      45.937  29.084  33.407  1.00  0.00    -0.206 F 
ATOM     70  C   UNL A   1      46.732  26.119  35.330  1.00  0.00     0.006 A 
ENDBRANCH  49  63
BRANCH  50  71
ATOM     71  C   UNL A   1      36.894  31.389  29.084  1.00  0.00     0.057 A 
ATOM     72  C   UNL A   1      36.941  32.730  28.685  1.00  0.00     0.134 A 
ATOM     73  C   UNL A   1      35.741  30.662  28.759  1.00  0.00     0.134 A 
ATOM     74  F   UNL A   1      38.005  33.487  28.991  1.00  0.00    -0.206 F 
ATOM     75  C   UNL A   1      35.883  33.329  27.999  1.00  0.00     0.040 A 
ATOM     76  C   UNL A   1      34.687  31.240  28.049  1.00  0.00     0.040 A 
ATOM     77  F   UNL A   1      35.629  29.374  29.117  1.00  0.00    -0.206 F 
ATOM     78  C   UNL A   1      34.754  32.579  27.672  1.00  0.00     0.006 A 
ENDBRANCH  50  71
BRANCH  62  79
ATOM     79  C   UNL A   1      39.222  32.014  35.637  1.00  0.00     0.057 A 
ATOM     80  C   UNL A   1      39.618  33.344  35.822  1.00  0.00     0.134 A 
ATOM     81  C   UNL A   1      38.300  31.483  36.551  1.00  0.00     0.134 A 
ATOM     82  F   UNL A   1      40.504  33.911  34.989  1.00  0.00    -0.206 F 
ATOM     83  C   UNL A   1      39.126  34.114  36.878  1.00  0.00     0.040 A 
ATOM     84  C   UNL A   1      37.777  32.251  37.592  1.00  0.00     0.040 A 
ATOM     85  F   UNL A   1      37.866  30.220  36.426  1.00  0.00    -0.206 F 
ATOM     86  C   UNL A   1      38.193  33.571  37.760  1.00  0.00     0.006 A 
ENDBRANCH  62  79
ENDBRANCH  36  37
ENDBRANCH  29  31
ENDBRANCH  28  29
ENDBRANCH  27  28
ENDBRANCH  26  27
ENDBRANCH  25  26
ENDBRANCH   1  25
TORSDOF 18
ENDMDL
