MODEL 1
REMARK VINA RESULT:     -11.0      0.000      0.000
REMARK SMILES O=C(CNC(=O)N1CC(OCCOCCOCCOC(=O)c2ccc(-c3c4nc(c(-c5c(F)cccc5F)c5ccc([nH]5)c(-c5c(F)cccc5F)c5nc(c(-c6c(F)cccc6F)c6ccc3[nH]6)C=C5)C=C4)cc2)=Nc2ccccc21)N[C@H](C(=O)[O-])c1ccccc1
REMARK SMILES IDX 14 1 13 2 12 3 11 4 10 5 9 6 7 7 8 8 82 9 77 10 81 11 76 12
REMARK SMILES IDX 78 13 80 14 79 15 5 16 4 17 6 19 3 20 2 21 1 22 83 23 84 25
REMARK SMILES IDX 88 26 89 27 93 28 90 29 92 30 91 31 85 32 86 33 87 34 15 35
REMARK SMILES IDX 16 36 17 37 18 38 19 39 20 40 21 41 22 42 23 43 75 44 24 45
REMARK SMILES IDX 74 46 25 47 26 48 27 49 68 50 28 51 73 52 67 53 69 54 29 55
REMARK SMILES IDX 72 56 66 57 65 58 30 60 56 61 39 62 55 63 40 64 43 65 54 66
REMARK SMILES IDX 70 67 41 68 42 69 53 71 71 72 44 73 31 74 32 75 37 76 33 77
REMARK SMILES IDX 34 78 36 79 38 80 35 81 57 82 58 83 63 84 59 85 60 86 62 87
REMARK SMILES IDX 64 88 61 89 45 90 46 91 51 92 47 93 48 94 50 95 52 96 49 97
REMARK H PARENT 4 18 83 24 69 59 43 70
REMARK Flexibility Score: inf
ROOT
ATOM      1  C   UNL A   1      40.782  21.041  26.186  1.00  0.00     0.188 C 
ENDROOT
BRANCH   1   2
ATOM      2  O   UNL A   1      39.732  21.517  27.018  1.00  0.00    -0.376 OA
BRANCH   2   3
ATOM      3  C   UNL A   1      39.249  22.839  26.814  1.00  0.00     0.201 C 
BRANCH   3   4
ATOM      4  C   UNL A   1      38.219  23.015  25.689  1.00  0.00     0.259 C 
BRANCH   4   5
ATOM      5  O   UNL A   1      36.898  23.344  26.186  1.00  0.00    -0.477 OA
BRANCH   5   6
ATOM      6  C   UNL A   1      35.848  22.595  25.769  1.00  0.00     0.209 C 
ATOM      7  N   UNL A   1      33.434  22.349  26.270  1.00  0.00    -0.283 N 
ATOM      8  C   UNL A   1      34.512  23.286  25.894  1.00  0.00     0.224 C 
ATOM      9  C   UNL A   1      33.550  21.054  25.652  1.00  0.00     0.072 A 
ATOM     10  C   UNL A   1      34.823  20.637  25.174  1.00  0.00     0.091 A 
ATOM     11  C   UNL A   1      32.466  20.198  25.440  1.00  0.00     0.029 A 
ATOM     12  N   UNL A   1      35.996  21.388  25.344  1.00  0.00    -0.214 NA
ATOM     13  C   UNL A   1      35.000  19.368  24.612  1.00  0.00     0.030 A 
ATOM     14  C   UNL A   1      32.656  18.930  24.867  1.00  0.00     0.002 A 
ATOM     15  C   UNL A   1      33.922  18.507  24.471  1.00  0.00     0.002 A 
BRANCH   7  16
ATOM     16  C   UNL A   1      32.353  22.939  26.888  1.00  0.00     0.322 C 
ATOM     17  N   UNL A   1      31.334  23.534  26.224  1.00  0.00    -0.329 N 
ATOM     18  H   UNL A   1      30.655  23.920  26.825  1.00  0.00     0.165 HD
ATOM     19  O   UNL A   1      32.193  22.838  28.111  1.00  0.00    -0.248 OA
BRANCH  17  20
ATOM     20  C   UNL A   1      31.027  23.725  24.817  1.00  0.00     0.218 C 
BRANCH  20  21
ATOM     21  C   UNL A   1      31.380  25.072  24.121  1.00  0.00     0.240 C 
ATOM     22  O   UNL A   1      30.805  25.399  23.083  1.00  0.00    -0.273 OA
ATOM     23  N   UNL A   1      32.225  25.915  24.802  1.00  0.00    -0.342 N 
ATOM     24  H   UNL A   1      32.667  25.554  25.603  1.00  0.00     0.164 HD
BRANCH  23  25
ATOM     25  C   UNL A   1      32.530  27.320  24.436  1.00  0.00     0.158 C 
BRANCH  25  26
ATOM     26  C   UNL A   1      32.902  28.299  25.550  1.00  0.00    -0.020 A 
ATOM     27  C   UNL A   1      34.007  28.135  26.389  1.00  0.00     0.006 A 
ATOM     28  C   UNL A   1      32.103  29.453  25.732  1.00  0.00     0.006 A 
ATOM     29  C   UNL A   1      34.353  29.131  27.308  1.00  0.00     0.000 A 
ATOM     30  C   UNL A   1      32.454  30.449  26.640  1.00  0.00     0.000 A 
ATOM     31  C   UNL A   1      33.591  30.292  27.419  1.00  0.00     0.000 A 
ENDBRANCH  25  26
BRANCH  25  32
ATOM     32  C   UNL A   1      33.561  27.490  23.278  1.00  0.00     0.068 C 
ATOM     33  O   UNL A   1      34.034  28.505  22.816  1.00  0.00    -0.548 OA
ATOM     34  O   UNL A   1      33.854  26.301  22.679  1.00  0.00    -0.548 OA
ENDBRANCH  25  32
ENDBRANCH  23  25
ENDBRANCH  20  21
ENDBRANCH  17  20
ENDBRANCH   7  16
ENDBRANCH   5   6
ENDBRANCH   4   5
ENDBRANCH   3   4
ENDBRANCH   2   3
ENDBRANCH   1   2
BRANCH   1  35
ATOM     35  C   UNL A   1      42.159  21.714  26.306  1.00  0.00     0.188 C 
BRANCH  35  36
ATOM     36  O   UNL A   1      42.772  22.272  25.143  1.00  0.00    -0.376 OA
BRANCH  36  37
ATOM     37  C   UNL A   1      44.129  22.680  25.214  1.00  0.00     0.202 C 
BRANCH  37  38
ATOM     38  C   UNL A   1      44.349  24.200  25.358  1.00  0.00     0.261 C 
BRANCH  38  39
ATOM     39  O   UNL A   1      43.585  24.910  26.361  1.00  0.00    -0.460 OA
BRANCH  39  40
ATOM     40  C   UNL A   1      42.671  25.765  25.857  1.00  0.00     0.338 C 
ATOM     41  O   UNL A   1      42.361  25.854  24.675  1.00  0.00    -0.246 OA
BRANCH  40  42
ATOM     42  C   UNL A   1      41.904  26.535  26.846  1.00  0.00     0.060 A 
ATOM     43  C   UNL A   1      42.309  27.859  26.991  1.00  0.00     0.016 A 
ATOM     44  C   UNL A   1      41.075  25.955  27.805  1.00  0.00     0.016 A 
ATOM     45  C   UNL A   1      42.023  28.555  28.155  1.00  0.00     0.010 A 
ATOM     46  C   UNL A   1      40.684  26.709  28.930  1.00  0.00     0.010 A 
ATOM     47  C   UNL A   1      41.179  28.010  29.128  1.00  0.00    -0.014 A 
BRANCH  47  48
ATOM     48  C   UNL A   1      40.821  28.852  30.304  1.00  0.00     0.031 A 
ATOM     49  C   UNL A   1      39.653  29.796  30.272  1.00  0.00     0.074 A 
ATOM     50  C   UNL A   1      41.508  28.695  31.455  1.00  0.00     0.049 A 
ATOM     51  N   UNL A   1      39.321  30.717  31.143  1.00  0.00    -0.248 NA
ATOM     52  C   UNL A   1      38.735  29.690  29.129  1.00  0.00     0.031 C 
ATOM     53  C   UNL A   1      42.593  27.734  31.664  1.00  0.00     0.029 A 
ATOM     54  N   UNL A   1      41.380  29.311  32.676  1.00  0.00    -0.354 N 
ATOM     55  C   UNL A   1      38.200  31.350  30.622  1.00  0.00     0.074 A 
ATOM     56  C   UNL A   1      37.882  30.678  29.377  1.00  0.00     0.031 C 
ATOM     57  C   UNL A   1      42.982  27.776  32.945  1.00  0.00     0.029 A 
ATOM     58  C   UNL A   1      42.272  28.854  33.617  1.00  0.00     0.049 A 
ATOM     59  H   UNL A   1      40.715  30.013  32.859  1.00  0.00     0.167 HD
ATOM     60  C   UNL A   1      37.523  32.410  31.129  1.00  0.00     0.037 A 
ATOM     61  C   UNL A   1      42.542  29.288  34.862  1.00  0.00     0.037 A 
ATOM     62  C   UNL A   1      37.830  33.044  32.389  1.00  0.00     0.049 A 
ATOM     63  C   UNL A   1      41.832  30.509  35.369  1.00  0.00     0.074 A 
ATOM     64  C   UNL A   1      37.244  34.161  32.962  1.00  0.00     0.029 A 
ATOM     65  N   UNL A   1      38.798  32.604  33.280  1.00  0.00    -0.354 N 
ATOM     66  N   UNL A   1      40.868  31.194  34.807  1.00  0.00    -0.248 NA
ATOM     67  C   UNL A   1      42.284  31.047  36.658  1.00  0.00     0.031 C 
ATOM     68  C   UNL A   1      37.885  34.419  34.180  1.00  0.00     0.029 A 
ATOM     69  C   UNL A   1      38.838  33.435  34.389  1.00  0.00     0.049 A 
ATOM     70  H   UNL A   1      39.373  31.816  33.145  1.00  0.00     0.167 HD
ATOM     71  C   UNL A   1      40.603  32.250  35.666  1.00  0.00     0.074 A 
ATOM     72  C   UNL A   1      41.483  32.095  36.806  1.00  0.00     0.031 C 
ATOM     73  C   UNL A   1      39.722  33.268  35.515  1.00  0.00     0.037 A 
BRANCH  60  74
ATOM     74  C   UNL A   1      36.441  33.014  30.282  1.00  0.00     0.057 A 
ATOM     75  C   UNL A   1      36.709  33.852  29.195  1.00  0.00     0.134 A 
ATOM     76  C   UNL A   1      35.096  32.709  30.544  1.00  0.00     0.134 A 
ATOM     77  F   UNL A   1      37.972  34.187  28.890  1.00  0.00    -0.206 F 
ATOM     78  C   UNL A   1      35.679  34.383  28.412  1.00  0.00     0.040 A 
ATOM     79  C   UNL A   1      34.061  33.215  29.756  1.00  0.00     0.040 A 
ATOM     80  F   UNL A   1      34.768  31.900  31.564  1.00  0.00    -0.206 F 
ATOM     81  C   UNL A   1      34.351  34.060  28.689  1.00  0.00     0.006 A 
ENDBRANCH  60  74
BRANCH  61  82
ATOM     82  C   UNL A   1      43.592  28.620  35.674  1.00  0.00     0.057 A 
ATOM     83  C   UNL A   1      43.267  27.594  36.569  1.00  0.00     0.134 A 
ATOM     84  C   UNL A   1      44.942  28.981  35.572  1.00  0.00     0.134 A 
ATOM     85  F   UNL A   1      41.991  27.221  36.734  1.00  0.00    -0.206 F 
ATOM     86  C   UNL A   1      44.248  26.952  37.330  1.00  0.00     0.040 A 
ATOM     87  C   UNL A   1      45.935  28.325  36.299  1.00  0.00     0.040 A 
ATOM     88  F   UNL A   1      45.321  29.959  34.736  1.00  0.00    -0.206 F 
ATOM     89  C   UNL A   1      45.587  27.310  37.186  1.00  0.00     0.006 A 
ENDBRANCH  61  82
BRANCH  73  90
ATOM     90  C   UNL A   1      39.659  34.280  36.618  1.00  0.00     0.057 A 
ATOM     91  C   UNL A   1      40.326  35.508  36.528  1.00  0.00     0.134 A 
ATOM     92  C   UNL A   1      38.902  34.035  37.771  1.00  0.00     0.134 A 
ATOM     93  F   UNL A   1      41.083  35.794  35.458  1.00  0.00    -0.206 F 
ATOM     94  C   UNL A   1      40.256  36.452  37.555  1.00  0.00     0.040 A 
ATOM     95  C   UNL A   1      38.807  34.980  38.793  1.00  0.00     0.040 A 
ATOM     96  F   UNL A   1      38.238  32.879  37.916  1.00  0.00    -0.206 F 
ATOM     97  C   UNL A   1      39.489  36.191  38.689  1.00  0.00     0.006 A 
ENDBRANCH  73  90
ENDBRANCH  47  48
ENDBRANCH  40  42
ENDBRANCH  39  40
ENDBRANCH  38  39
ENDBRANCH  37  38
ENDBRANCH  36  37
ENDBRANCH  35  36
ENDBRANCH   1  35
TORSDOF 22
ENDMDL
MODEL 2
REMARK VINA RESULT:     -10.9      5.066      7.994
REMARK SMILES O=C(CNC(=O)N1CC(OCCOCCOCCOC(=O)c2ccc(-c3c4nc(c(-c5c(F)cccc5F)c5ccc([nH]5)c(-c5c(F)cccc5F)c5nc(c(-c6c(F)cccc6F)c6ccc3[nH]6)C=C5)C=C4)cc2)=Nc2ccccc21)N[C@H](C(=O)[O-])c1ccccc1
REMARK SMILES IDX 14 1 13 2 12 3 11 4 10 5 9 6 7 7 8 8 82 9 77 10 81 11 76 12
REMARK SMILES IDX 78 13 80 14 79 15 5 16 4 17 6 19 3 20 2 21 1 22 83 23 84 25
REMARK SMILES IDX 88 26 89 27 93 28 90 29 92 30 91 31 85 32 86 33 87 34 15 35
REMARK SMILES IDX 16 36 17 37 18 38 19 39 20 40 21 41 22 42 23 43 75 44 24 45
REMARK SMILES IDX 74 46 25 47 26 48 27 49 68 50 28 51 73 52 67 53 69 54 29 55
REMARK SMILES IDX 72 56 66 57 65 58 30 60 56 61 39 62 55 63 40 64 43 65 54 66
REMARK SMILES IDX 70 67 41 68 42 69 53 71 71 72 44 73 31 74 32 75 37 76 33 77
REMARK SMILES IDX 34 78 36 79 38 80 35 81 57 82 58 83 63 84 59 85 60 86 62 87
REMARK SMILES IDX 64 88 61 89 45 90 46 91 51 92 47 93 48 94 50 95 52 96 49 97
REMARK H PARENT 4 18 83 24 69 59 43 70
REMARK Flexibility Score: inf
ROOT
ATOM      1  C   UNL A   1      37.995  20.944  25.167  1.00  0.00     0.188 C 
ENDROOT
BRANCH   1   2
ATOM      2  O   UNL A   1      37.038  21.512  24.283  1.00  0.00    -0.376 OA
BRANCH   2   3
ATOM      3  C   UNL A   1      35.663  21.464  24.647  1.00  0.00     0.201 C 
BRANCH   3   4
ATOM      4  C   UNL A   1      34.815  22.678  24.242  1.00  0.00     0.259 C 
BRANCH   4   5
ATOM      5  O   UNL A   1      35.346  23.927  24.751  1.00  0.00    -0.477 OA
BRANCH   5   6
ATOM      6  C   UNL A   1      34.525  24.733  25.467  1.00  0.00     0.209 C 
ATOM      7  N   UNL A   1      32.117  24.895  26.028  1.00  0.00    -0.283 N 
ATOM      8  C   UNL A   1      33.314  24.031  26.032  1.00  0.00     0.224 C 
ATOM      9  C   UNL A   1      32.395  26.273  26.340  1.00  0.00     0.072 A 
ATOM     10  C   UNL A   1      33.719  26.761  26.156  1.00  0.00     0.091 A 
ATOM     11  C   UNL A   1      31.449  27.152  26.873  1.00  0.00     0.029 A 
ATOM     12  N   UNL A   1      34.756  25.993  25.607  1.00  0.00    -0.214 NA
ATOM     13  C   UNL A   1      34.030  28.104  26.395  1.00  0.00     0.030 A 
ATOM     14  C   UNL A   1      31.777  28.496  27.118  1.00  0.00     0.002 A 
ATOM     15  C   UNL A   1      33.058  28.976  26.862  1.00  0.00     0.002 A 
BRANCH   7  16
ATOM     16  C   UNL A   1      30.919  24.214  26.030  1.00  0.00     0.322 C 
ATOM     17  N   UNL A   1      30.310  23.752  24.912  1.00  0.00    -0.329 N 
ATOM     18  H   UNL A   1      29.451  23.307  25.097  1.00  0.00     0.165 HD
ATOM     19  O   UNL A   1      30.390  23.872  27.094  1.00  0.00    -0.248 OA
BRANCH  17  20
ATOM     20  C   UNL A   1      30.653  23.773  23.501  1.00  0.00     0.218 C 
BRANCH  20  21
ATOM     21  C   UNL A   1      31.285  25.050  22.872  1.00  0.00     0.240 C 
ATOM     22  O   UNL A   1      32.206  24.948  22.063  1.00  0.00    -0.273 OA
ATOM     23  N   UNL A   1      30.662  26.244  23.147  1.00  0.00    -0.342 N 
ATOM     24  H   UNL A   1      29.959  26.234  23.835  1.00  0.00     0.164 HD
BRANCH  23  25
ATOM     25  C   UNL A   1      30.957  27.545  22.499  1.00  0.00     0.158 C 
BRANCH  25  26
ATOM     26  C   UNL A   1      29.852  28.601  22.448  1.00  0.00    -0.020 A 
ATOM     27  C   UNL A   1      29.942  29.782  21.708  1.00  0.00     0.006 A 
ATOM     28  C   UNL A   1      28.657  28.366  23.168  1.00  0.00     0.006 A 
ATOM     29  C   UNL A   1      28.846  30.646  21.614  1.00  0.00     0.000 A 
ATOM     30  C   UNL A   1      27.561  29.220  23.067  1.00  0.00     0.000 A 
ATOM     31  C   UNL A   1      27.654  30.356  22.274  1.00  0.00     0.000 A 
ENDBRANCH  25  26
BRANCH  25  32
ATOM     32  C   UNL A   1      32.268  28.240  22.981  1.00  0.00     0.068 C 
ATOM     33  O   UNL A   1      33.419  27.909  22.804  1.00  0.00    -0.548 OA
ATOM     34  O   UNL A   1      32.010  29.306  23.791  1.00  0.00    -0.548 OA
ENDBRANCH  25  32
ENDBRANCH  23  25
ENDBRANCH  20  21
ENDBRANCH  17  20
ENDBRANCH   7  16
ENDBRANCH   5   6
ENDBRANCH   4   5
ENDBRANCH   3   4
ENDBRANCH   2   3
ENDBRANCH   1   2
BRANCH   1  35
ATOM     35  C   UNL A   1      38.922  21.900  25.937  1.00  0.00     0.188 C 
BRANCH  35  36
ATOM     36  O   UNL A   1      40.186  21.428  26.403  1.00  0.00    -0.376 OA
BRANCH  36  37
ATOM     37  C   UNL A   1      40.551  20.081  26.147  1.00  0.00     0.202 C 
BRANCH  37  38
ATOM     38  C   UNL A   1      42.066  19.796  26.177  1.00  0.00     0.261 C 
BRANCH  38  39
ATOM     39  O   UNL A   1      42.711  19.393  24.945  1.00  0.00    -0.460 OA
BRANCH  39  40
ATOM     40  C   UNL A   1      44.048  19.577  24.936  1.00  0.00     0.338 C 
ATOM     41  O   UNL A   1      44.882  18.700  24.747  1.00  0.00    -0.246 OA
BRANCH  40  42
ATOM     42  C   UNL A   1      44.500  20.974  25.020  1.00  0.00     0.060 A 
ATOM     43  C   UNL A   1      45.296  21.259  26.126  1.00  0.00     0.016 A 
ATOM     44  C   UNL A   1      43.938  22.014  24.282  1.00  0.00     0.016 A 
ATOM     45  C   UNL A   1      45.409  22.561  26.588  1.00  0.00     0.010 A 
ATOM     46  C   UNL A   1      44.158  23.346  24.686  1.00  0.00     0.010 A 
ATOM     47  C   UNL A   1      44.876  23.630  25.862  1.00  0.00    -0.014 A 
BRANCH  47  48
ATOM     48  C   UNL A   1      45.126  25.013  26.355  1.00  0.00     0.031 A 
ATOM     49  C   UNL A   1      44.052  25.814  27.034  1.00  0.00     0.074 A 
ATOM     50  C   UNL A   1      46.372  25.525  26.269  1.00  0.00     0.049 A 
ATOM     51  N   UNL A   1      44.059  27.084  27.359  1.00  0.00    -0.248 NA
ATOM     52  C   UNL A   1      42.820  25.104  27.408  1.00  0.00     0.031 C 
ATOM     53  C   UNL A   1      47.538  24.817  25.736  1.00  0.00     0.029 A 
ATOM     54  N   UNL A   1      46.880  26.741  26.657  1.00  0.00    -0.354 N 
ATOM     55  C   UNL A   1      42.810  27.345  27.909  1.00  0.00     0.074 A 
ATOM     56  C   UNL A   1      42.086  26.089  27.913  1.00  0.00     0.031 C 
ATOM     57  C   UNL A   1      48.629  25.578  25.892  1.00  0.00     0.029 A 
ATOM     58  C   UNL A   1      48.225  26.877  26.412  1.00  0.00     0.049 A 
ATOM     59  H   UNL A   1      46.332  27.448  27.069  1.00  0.00     0.167 HD
ATOM     60  C   UNL A   1      42.315  28.531  28.341  1.00  0.00     0.037 A 
ATOM     61  C   UNL A   1      49.040  27.941  26.526  1.00  0.00     0.037 A 
ATOM     62  C   UNL A   1      43.064  29.765  28.364  1.00  0.00     0.049 A 
ATOM     63  C   UNL A   1      48.451  29.260  26.934  1.00  0.00     0.074 A 
ATOM     64  C   UNL A   1      42.635  31.032  28.725  1.00  0.00     0.029 A 
ATOM     65  N   UNL A   1      44.405  29.882  28.028  1.00  0.00    -0.354 N 
ATOM     66  N   UNL A   1      47.229  29.532  27.316  1.00  0.00    -0.248 NA
ATOM     67  C   UNL A   1      49.341  30.426  26.875  1.00  0.00     0.031 C 
ATOM     68  C   UNL A   1      43.705  31.921  28.569  1.00  0.00     0.029 A 
ATOM     69  C   UNL A   1      44.815  31.200  28.157  1.00  0.00     0.049 A 
ATOM     70  H   UNL A   1      44.982  29.138  27.741  1.00  0.00     0.167 HD
ATOM     71  C   UNL A   1      47.196  30.902  27.533  1.00  0.00     0.074 A 
ATOM     72  C   UNL A   1      48.532  31.399  27.277  1.00  0.00     0.031 C 
ATOM     73  C   UNL A   1      46.148  31.680  27.896  1.00  0.00     0.037 A 
BRANCH  60  74
ATOM     74  C   UNL A   1      40.869  28.578  28.739  1.00  0.00     0.057 A 
ATOM     75  C   UNL A   1      39.848  28.918  27.844  1.00  0.00     0.134 A 
ATOM     76  C   UNL A   1      40.491  28.231  30.045  1.00  0.00     0.134 A 
ATOM     77  F   UNL A   1      40.138  29.263  26.581  1.00  0.00    -0.206 F 
ATOM     78  C   UNL A   1      38.507  28.933  28.240  1.00  0.00     0.040 A 
ATOM     79  C   UNL A   1      39.154  28.219  30.446  1.00  0.00     0.040 A 
ATOM     80  F   UNL A   1      41.418  27.881  30.951  1.00  0.00    -0.206 F 
ATOM     81  C   UNL A   1      38.157  28.578  29.542  1.00  0.00     0.006 A 
ENDBRANCH  60  74
BRANCH  61  82
ATOM     82  C   UNL A   1      50.477  27.824  26.164  1.00  0.00     0.057 A 
ATOM     83  C   UNL A   1      50.893  27.893  24.830  1.00  0.00     0.134 A 
ATOM     84  C   UNL A   1      51.469  27.650  27.139  1.00  0.00     0.134 A 
ATOM     85  F   UNL A   1      49.992  28.031  23.848  1.00  0.00    -0.206 F 
ATOM     86  C   UNL A   1      52.242  27.794  24.480  1.00  0.00     0.040 A 
ATOM     87  C   UNL A   1      52.822  27.585  26.807  1.00  0.00     0.040 A 
ATOM     88  F   UNL A   1      51.138  27.571  28.436  1.00  0.00    -0.206 F 
ATOM     89  C   UNL A   1      53.211  27.652  25.472  1.00  0.00     0.006 A 
ENDBRANCH  61  82
BRANCH  73  90
ATOM     90  C   UNL A   1      46.414  33.147  28.051  1.00  0.00     0.057 A 
ATOM     91  C   UNL A   1      46.886  33.685  29.254  1.00  0.00     0.134 A 
ATOM     92  C   UNL A   1      46.219  34.026  26.978  1.00  0.00     0.134 A 
ATOM     93  F   UNL A   1      47.074  32.898  30.324  1.00  0.00    -0.206 F 
ATOM     94  C   UNL A   1      47.140  35.051  29.390  1.00  0.00     0.040 A 
ATOM     95  C   UNL A   1      46.491  35.389  27.095  1.00  0.00     0.040 A 
ATOM     96  F   UNL A   1      45.770  33.572  25.798  1.00  0.00    -0.206 F 
ATOM     97  C   UNL A   1      46.949  35.906  28.306  1.00  0.00     0.006 A 
ENDBRANCH  73  90
ENDBRANCH  47  48
ENDBRANCH  40  42
ENDBRANCH  39  40
ENDBRANCH  38  39
ENDBRANCH  37  38
ENDBRANCH  36  37
ENDBRANCH  35  36
ENDBRANCH   1  35
TORSDOF 22
ENDMDL
MODEL 3
REMARK VINA RESULT:     -10.6      1.733      3.159
REMARK SMILES O=C(CNC(=O)N1CC(OCCOCCOCCOC(=O)c2ccc(-c3c4nc(c(-c5c(F)cccc5F)c5ccc([nH]5)c(-c5c(F)cccc5F)c5nc(c(-c6c(F)cccc6F)c6ccc3[nH]6)C=C5)C=C4)cc2)=Nc2ccccc21)N[C@H](C(=O)[O-])c1ccccc1
REMARK SMILES IDX 14 1 13 2 12 3 11 4 10 5 9 6 7 7 8 8 82 9 77 10 81 11 76 12
REMARK SMILES IDX 78 13 80 14 79 15 5 16 4 17 6 19 3 20 2 21 1 22 83 23 84 25
REMARK SMILES IDX 88 26 89 27 93 28 90 29 92 30 91 31 85 32 86 33 87 34 15 35
REMARK SMILES IDX 16 36 17 37 18 38 19 39 20 40 21 41 22 42 23 43 75 44 24 45
REMARK SMILES IDX 74 46 25 47 26 48 27 49 68 50 28 51 73 52 67 53 69 54 29 55
REMARK SMILES IDX 72 56 66 57 65 58 30 60 56 61 39 62 55 63 40 64 43 65 54 66
REMARK SMILES IDX 70 67 41 68 42 69 53 71 71 72 44 73 31 74 32 75 37 76 33 77
REMARK SMILES IDX 34 78 36 79 38 80 35 81 57 82 58 83 63 84 59 85 60 86 62 87
REMARK SMILES IDX 64 88 61 89 45 90 46 91 51 92 47 93 48 94 50 95 52 96 49 97
REMARK H PARENT 4 18 83 24 69 59 43 70
REMARK Flexibility Score: inf
ROOT
ATOM      1  C   UNL A   1      38.044  20.491  24.967  1.00  0.00     0.188 C 
ENDROOT
BRANCH   1   2
ATOM      2  O   UNL A   1      36.872  21.079  24.418  1.00  0.00    -0.376 OA
BRANCH   2   3
ATOM      3  C   UNL A   1      35.899  21.615  25.307  1.00  0.00     0.201 C 
BRANCH   3   4
ATOM      4  C   UNL A   1      34.879  22.583  24.689  1.00  0.00     0.259 C 
BRANCH   4   5
ATOM      5  O   UNL A   1      35.265  23.972  24.838  1.00  0.00    -0.477 OA
BRANCH   5   6
ATOM      6  C   UNL A   1      34.458  24.792  25.554  1.00  0.00     0.209 C 
ATOM      7  N   UNL A   1      32.044  25.042  26.053  1.00  0.00    -0.283 N 
ATOM      8  C   UNL A   1      33.203  24.127  26.065  1.00  0.00     0.224 C 
ATOM      9  C   UNL A   1      32.371  26.397  26.413  1.00  0.00     0.072 A 
ATOM     10  C   UNL A   1      33.719  26.833  26.279  1.00  0.00     0.091 A 
ATOM     11  C   UNL A   1      31.448  27.300  26.945  1.00  0.00     0.029 A 
ATOM     12  N   UNL A   1      34.738  26.036  25.737  1.00  0.00    -0.214 NA
ATOM     13  C   UNL A   1      34.079  28.154  26.567  1.00  0.00     0.030 A 
ATOM     14  C   UNL A   1      31.825  28.621  27.238  1.00  0.00     0.002 A 
ATOM     15  C   UNL A   1      33.132  29.053  27.032  1.00  0.00     0.002 A 
BRANCH   7  16
ATOM     16  C   UNL A   1      30.819  24.413  26.001  1.00  0.00     0.322 C 
ATOM     17  N   UNL A   1      30.232  23.993  24.856  1.00  0.00    -0.329 N 
ATOM     18  H   UNL A   1      29.349  23.583  25.003  1.00  0.00     0.165 HD
ATOM     19  O   UNL A   1      30.237  24.079  27.041  1.00  0.00    -0.248 OA
BRANCH  17  20
ATOM     20  C   UNL A   1      30.626  24.019  23.457  1.00  0.00     0.218 C 
BRANCH  20  21
ATOM     21  C   UNL A   1      31.189  25.329  22.832  1.00  0.00     0.240 C 
ATOM     22  O   UNL A   1      32.118  25.278  22.026  1.00  0.00    -0.273 OA
ATOM     23  N   UNL A   1      30.502  26.487  23.105  1.00  0.00    -0.342 N 
ATOM     24  H   UNL A   1      29.797  26.438  23.791  1.00  0.00     0.164 HD
BRANCH  23  25
ATOM     25  C   UNL A   1      30.727  27.803  22.459  1.00  0.00     0.158 C 
BRANCH  25  26
ATOM     26  C   UNL A   1      29.572  28.805  22.422  1.00  0.00    -0.020 A 
ATOM     27  C   UNL A   1      28.384  28.645  23.140  1.00  0.00     0.006 A 
ATOM     28  C   UNL A   1      29.714  29.974  21.639  1.00  0.00     0.006 A 
ATOM     29  C   UNL A   1      27.420  29.658  23.151  1.00  0.00     0.000 A 
ATOM     30  C   UNL A   1      28.759  30.988  21.657  1.00  0.00     0.000 A 
ATOM     31  C   UNL A   1      27.616  30.833  22.428  1.00  0.00     0.000 A 
ENDBRANCH  25  26
BRANCH  25  32
ATOM     32  C   UNL A   1      32.007  28.559  22.931  1.00  0.00     0.068 C 
ATOM     33  O   UNL A   1      33.131  28.513  22.485  1.00  0.00    -0.548 OA
ATOM     34  O   UNL A   1      31.783  29.278  24.068  1.00  0.00    -0.548 OA
ENDBRANCH  25  32
ENDBRANCH  23  25
ENDBRANCH  20  21
ENDBRANCH  17  20
ENDBRANCH   7  16
ENDBRANCH   5   6
ENDBRANCH   4   5
ENDBRANCH   3   4
ENDBRANCH   2   3
ENDBRANCH   1   2
BRANCH   1  35
ATOM     35  C   UNL A   1      38.912  21.350  25.902  1.00  0.00     0.188 C 
BRANCH  35  36
ATOM     36  O   UNL A   1      40.330  21.193  25.884  1.00  0.00    -0.376 OA
BRANCH  36  37
ATOM     37  C   UNL A   1      41.147  22.313  26.191  1.00  0.00     0.202 C 
BRANCH  37  38
ATOM     38  C   UNL A   1      40.411  23.500  26.845  1.00  0.00     0.261 C 
BRANCH  38  39
ATOM     39  O   UNL A   1      40.070  24.635  26.015  1.00  0.00    -0.460 OA
BRANCH  39  40
ATOM     40  C   UNL A   1      41.015  25.598  25.982  1.00  0.00     0.338 C 
ATOM     41  O   UNL A   1      41.639  25.943  24.986  1.00  0.00    -0.246 OA
BRANCH  40  42
ATOM     42  C   UNL A   1      41.181  26.371  27.221  1.00  0.00     0.060 A 
ATOM     43  C   UNL A   1      40.321  26.006  28.252  1.00  0.00     0.016 A 
ATOM     44  C   UNL A   1      41.878  27.576  27.294  1.00  0.00     0.016 A 
ATOM     45  C   UNL A   1      40.034  26.897  29.273  1.00  0.00     0.010 A 
ATOM     46  C   UNL A   1      41.676  28.427  28.399  1.00  0.00     0.010 A 
ATOM     47  C   UNL A   1      40.729  28.105  29.388  1.00  0.00    -0.014 A 
BRANCH  47  48
ATOM     48  C   UNL A   1      40.453  28.970  30.569  1.00  0.00     0.031 A 
ATOM     49  C   UNL A   1      39.339  29.977  30.565  1.00  0.00     0.074 A 
ATOM     50  C   UNL A   1      41.164  28.780  31.701  1.00  0.00     0.049 A 
ATOM     51  N   UNL A   1      39.084  30.919  31.440  1.00  0.00    -0.248 NA
ATOM     52  C   UNL A   1      38.383  29.917  29.450  1.00  0.00     0.031 C 
ATOM     53  C   UNL A   1      42.199  27.762  31.884  1.00  0.00     0.029 A 
ATOM     54  N   UNL A   1      41.106  29.407  32.922  1.00  0.00    -0.354 N 
ATOM     55  C   UNL A   1      37.984  31.611  30.948  1.00  0.00     0.074 A 
ATOM     56  C   UNL A   1      37.594  30.952  29.717  1.00  0.00     0.031 C 
ATOM     57  C   UNL A   1      42.628  27.787  33.153  1.00  0.00     0.029 A 
ATOM     58  C   UNL A   1      41.997  28.906  33.839  1.00  0.00     0.049 A 
ATOM     59  H   UNL A   1      40.485  30.147  33.120  1.00  0.00     0.167 HD
ATOM     60  C   UNL A   1      37.382  32.709  31.468  1.00  0.00     0.037 A 
ATOM     61  C   UNL A   1      42.328  29.330  35.073  1.00  0.00     0.037 A 
ATOM     62  C   UNL A   1      37.760  33.331  32.715  1.00  0.00     0.049 A 
ATOM     63  C   UNL A   1      41.701  30.591  35.593  1.00  0.00     0.074 A 
ATOM     64  C   UNL A   1      37.254  34.480  33.298  1.00  0.00     0.029 A 
ATOM     65  N   UNL A   1      38.728  32.841  33.580  1.00  0.00    -0.354 N 
ATOM     66  N   UNL A   1      40.760  31.325  35.055  1.00  0.00    -0.248 NA
ATOM     67  C   UNL A   1      42.220  31.108  36.866  1.00  0.00     0.031 C 
ATOM     68  C   UNL A   1      37.943  34.707  34.495  1.00  0.00     0.029 A 
ATOM     69  C   UNL A   1      38.846  33.673  34.683  1.00  0.00     0.049 A 
ATOM     70  H   UNL A   1      39.254  32.022  33.433  1.00  0.00     0.167 HD
ATOM     71  C   UNL A   1      40.579  32.398  35.915  1.00  0.00     0.074 A 
ATOM     72  C   UNL A   1      41.482  32.199  37.030  1.00  0.00     0.031 C 
ATOM     73  C   UNL A   1      39.751  33.462  35.783  1.00  0.00     0.037 A 
BRANCH  60  74
ATOM     74  C   UNL A   1      36.310  33.368  30.649  1.00  0.00     0.057 A 
ATOM     75  C   UNL A   1      36.577  34.035  29.449  1.00  0.00     0.134 A 
ATOM     76  C   UNL A   1      34.970  33.292  31.060  1.00  0.00     0.134 A 
ATOM     77  F   UNL A   1      37.836  34.148  28.999  1.00  0.00    -0.206 F 
ATOM     78  C   UNL A   1      35.555  34.623  28.698  1.00  0.00     0.040 A 
ATOM     79  C   UNL A   1      33.938  33.854  30.307  1.00  0.00     0.040 A 
ATOM     80  F   UNL A   1      34.642  32.655  32.194  1.00  0.00    -0.206 F 
ATOM     81  C   UNL A   1      34.230  34.528  29.124  1.00  0.00     0.006 A 
ENDBRANCH  60  74
BRANCH  61  82
ATOM     82  C   UNL A   1      43.362  28.608  35.859  1.00  0.00     0.057 A 
ATOM     83  C   UNL A   1      43.020  27.527  36.679  1.00  0.00     0.134 A 
ATOM     84  C   UNL A   1      44.714  28.971  35.803  1.00  0.00     0.134 A 
ATOM     85  F   UNL A   1      41.741  27.147  36.798  1.00  0.00    -0.206 F 
ATOM     86  C   UNL A   1      43.986  26.835  37.414  1.00  0.00     0.040 A 
ATOM     87  C   UNL A   1      45.693  28.267  36.504  1.00  0.00     0.040 A 
ATOM     88  F   UNL A   1      45.109  30.001  35.039  1.00  0.00    -0.206 F 
ATOM     89  C   UNL A   1      45.329  27.198  37.317  1.00  0.00     0.006 A 
ENDBRANCH  61  82
BRANCH  73  90
ATOM     90  C   UNL A   1      39.776  34.482  36.882  1.00  0.00     0.057 A 
ATOM     91  C   UNL A   1      40.464  35.694  36.745  1.00  0.00     0.134 A 
ATOM     92  C   UNL A   1      39.085  34.259  38.080  1.00  0.00     0.134 A 
ATOM     93  F   UNL A   1      41.162  35.957  35.630  1.00  0.00    -0.206 F 
ATOM     94  C   UNL A   1      40.477  36.644  37.768  1.00  0.00     0.040 A 
ATOM     95  C   UNL A   1      39.071  35.211  39.099  1.00  0.00     0.040 A 
ATOM     96  F   UNL A   1      38.405  33.119  38.271  1.00  0.00    -0.206 F 
ATOM     97  C   UNL A   1      39.773  36.406  38.947  1.00  0.00     0.006 A 
ENDBRANCH  73  90
ENDBRANCH  47  48
ENDBRANCH  40  42
ENDBRANCH  39  40
ENDBRANCH  38  39
ENDBRANCH  37  38
ENDBRANCH  36  37
ENDBRANCH  35  36
ENDBRANCH   1  35
TORSDOF 22
ENDMDL
