MODEL 1
REMARK VINA RESULT:      -8.0      0.000      0.000
REMARK SMILES CC[C@H](C)[C@@H](C)NC(=O)c1ccncc1/C=C/C(=O)OCCOCCOCCOC(=O)c1ccc(-c2c3nc(c(-c4c(F)cccc4F)c4ccc([nH]4)c(-c4c(F)cccc4F)c4nc(c(-c5c(F)cccc5F)c5ccc2[nH]5)C=C4)C=C3)cc1
REMARK SMILES IDX 23 1 22 2 21 3 20 4 18 5 19 6 17 7 16 8 15 9 10 10 11 11
REMARK SMILES IDX 12 12 14 13 13 14 8 15 7 16 9 18 5 19 6 20 3 21 4 22 2 23
REMARK SMILES IDX 1 24 24 25 25 26 26 27 27 28 28 29 29 30 30 31 31 32 32 33
REMARK SMILES IDX 33 34 85 35 34 36 84 37 35 38 36 39 37 40 78 41 38 42 83 43
REMARK SMILES IDX 77 44 79 45 39 46 82 47 76 48 75 49 40 51 66 52 49 53 65 54
REMARK SMILES IDX 50 55 53 56 64 57 80 58 51 59 52 60 63 62 81 63 54 64 41 65
REMARK SMILES IDX 42 66 47 67 43 68 44 69 46 70 48 71 45 72 67 73 68 74 73 75
REMARK SMILES IDX 69 76 70 77 72 78 74 79 71 80 55 81 56 82 61 83 57 84 58 85
REMARK SMILES IDX 60 86 62 87 59 88
REMARK H PARENT 7 17 79 50 53 61
REMARK Flexibility Score: inf
ROOT
ATOM      1  O   UNL A   1      44.108  20.342  24.372  1.00  0.00    -0.376 OA
ENDROOT
BRANCH   1   2
ATOM      2  C   UNL A   1      44.610  21.509  25.010  1.00  0.00     0.202 C 
BRANCH   2   3
ATOM      3  C   UNL A   1      44.060  22.889  24.628  1.00  0.00     0.261 C 
BRANCH   3   4
ATOM      4  O   UNL A   1      44.771  23.993  25.210  1.00  0.00    -0.460 OA
BRANCH   4   5
ATOM      5  C   UNL A   1      44.215  24.504  26.333  1.00  0.00     0.330 C 
ATOM      6  O   UNL A   1      43.540  23.895  27.150  1.00  0.00    -0.247 OA
BRANCH   5   7
ATOM      7  C   UNL A   1      44.599  25.909  26.582  1.00  0.00     0.094 C 
ATOM      8  C   UNL A   1      44.463  26.959  25.755  1.00  0.00     0.018 C 
BRANCH   8   9
ATOM      9  C   UNL A   1      44.884  28.314  26.172  1.00  0.00     0.006 A 
ATOM     10  C   UNL A   1      46.073  28.938  25.761  1.00  0.00     0.050 A 
ATOM     11  C   UNL A   1      46.275  30.296  26.037  1.00  0.00     0.034 A 
ATOM     12  C   UNL A   1      45.373  30.948  26.854  1.00  0.00     0.112 A 
ATOM     13  C   UNL A   1      44.070  29.065  27.023  1.00  0.00     0.119 A 
ATOM     14  N   UNL A   1      44.294  30.350  27.386  1.00  0.00    -0.264 NA
BRANCH  10  15
ATOM     15  C   UNL A   1      47.109  28.199  24.999  1.00  0.00     0.252 C 
ATOM     16  N   UNL A   1      47.970  27.334  25.638  1.00  0.00    -0.349 N 
ATOM     17  H   UNL A   1      48.557  26.827  25.033  1.00  0.00     0.164 HD
ATOM     18  O   UNL A   1      47.183  28.326  23.781  1.00  0.00    -0.269 OA
BRANCH  16  19
ATOM     19  C   UNL A   1      48.168  27.036  27.063  1.00  0.00     0.082 C 
ATOM     20  C   UNL A   1      49.230  28.016  27.579  1.00  0.00     0.031 C 
BRANCH  19  21
ATOM     21  C   UNL A   1      48.564  25.552  27.317  1.00  0.00     0.008 C 
ATOM     22  C   UNL A   1      50.049  25.324  26.980  1.00  0.00     0.010 C 
BRANCH  21  23
ATOM     23  C   UNL A   1      48.283  25.138  28.781  1.00  0.00     0.002 C 
ATOM     24  C   UNL A   1      46.811  25.213  29.170  1.00  0.00     0.004 C 
ENDBRANCH  21  23
ENDBRANCH  19  21
ENDBRANCH  16  19
ENDBRANCH  10  15
ENDBRANCH   8   9
ENDBRANCH   5   7
ENDBRANCH   4   5
ENDBRANCH   3   4
ENDBRANCH   2   3
ENDBRANCH   1   2
BRANCH   1  25
ATOM     25  C   UNL A   1      44.131  19.102  25.062  1.00  0.00     0.188 C 
BRANCH  25  26
ATOM     26  C   UNL A   1      43.088  18.804  26.160  1.00  0.00     0.188 C 
BRANCH  26  27
ATOM     27  O   UNL A   1      41.739  18.782  25.765  1.00  0.00    -0.376 OA
BRANCH  27  28
ATOM     28  C   UNL A   1      40.839  19.803  26.158  1.00  0.00     0.202 C 
BRANCH  28  29
ATOM     29  C   UNL A   1      41.206  21.142  26.828  1.00  0.00     0.261 C 
BRANCH  29  30
ATOM     30  O   UNL A   1      40.965  22.351  26.111  1.00  0.00    -0.460 OA
BRANCH  30  31
ATOM     31  C   UNL A   1      39.706  22.844  26.205  1.00  0.00     0.338 C 
ATOM     32  O   UNL A   1      38.663  22.281  25.928  1.00  0.00    -0.246 OA
BRANCH  31  33
ATOM     33  C   UNL A   1      39.772  24.157  26.869  1.00  0.00     0.060 A 
ATOM     34  C   UNL A   1      40.465  25.194  26.232  1.00  0.00     0.016 A 
ATOM     35  C   UNL A   1      39.191  24.349  28.123  1.00  0.00     0.016 A 
ATOM     36  C   UNL A   1      40.598  26.429  26.864  1.00  0.00     0.010 A 
ATOM     37  C   UNL A   1      39.342  25.581  28.763  1.00  0.00     0.010 A 
ATOM     38  C   UNL A   1      40.067  26.617  28.148  1.00  0.00    -0.014 A 
BRANCH  38  39
ATOM     39  C   UNL A   1      40.412  27.836  28.915  1.00  0.00     0.031 A 
ATOM     40  C   UNL A   1      41.753  27.908  29.588  1.00  0.00     0.074 A 
ATOM     41  C   UNL A   1      39.553  28.868  29.002  1.00  0.00     0.049 A 
ATOM     42  N   UNL A   1      42.246  28.842  30.361  1.00  0.00    -0.248 NA
ATOM     43  C   UNL A   1      42.661  26.772  29.359  1.00  0.00     0.031 C 
ATOM     44  C   UNL A   1      38.240  28.932  28.365  1.00  0.00     0.029 A 
ATOM     45  N   UNL A   1      39.660  30.056  29.681  1.00  0.00    -0.354 N 
ATOM     46  C   UNL A   1      43.520  28.411  30.703  1.00  0.00     0.074 A 
ATOM     47  C   UNL A   1      43.714  27.117  30.085  1.00  0.00     0.031 C 
ATOM     48  C   UNL A   1      37.650  30.092  28.705  1.00  0.00     0.029 A 
ATOM     49  C   UNL A   1      38.532  30.835  29.603  1.00  0.00     0.049 A 
ATOM     50  H   UNL A   1      40.468  30.323  30.176  1.00  0.00     0.167 HD
ATOM     51  C   UNL A   1      44.452  29.041  31.457  1.00  0.00     0.037 A 
ATOM     52  C   UNL A   1      38.240  32.001  30.211  1.00  0.00     0.037 A 
ATOM     53  C   UNL A   1      44.255  30.318  32.089  1.00  0.00     0.049 A 
ATOM     54  C   UNL A   1      39.262  32.644  31.112  1.00  0.00     0.074 A 
ATOM     55  C   UNL A   1      45.133  31.032  32.885  1.00  0.00     0.029 A 
ATOM     56  N   UNL A   1      43.094  31.070  31.999  1.00  0.00    -0.354 N 
ATOM     57  N   UNL A   1      40.470  32.237  31.419  1.00  0.00    -0.248 NA
ATOM     58  C   UNL A   1      38.881  33.915  31.748  1.00  0.00     0.031 C 
ATOM     59  C   UNL A   1      44.489  32.199  33.309  1.00  0.00     0.029 A 
ATOM     60  C   UNL A   1      43.228  32.234  32.737  1.00  0.00     0.049 A 
ATOM     61  H   UNL A   1      42.293  30.814  31.485  1.00  0.00     0.167 HD
ATOM     62  C   UNL A   1      41.000  33.209  32.259  1.00  0.00     0.074 A 
ATOM     63  C   UNL A   1      39.988  34.235  32.401  1.00  0.00     0.031 C 
ATOM     64  C   UNL A   1      42.215  33.251  32.859  1.00  0.00     0.037 A 
BRANCH  51  65
ATOM     65  C   UNL A   1      45.765  28.344  31.651  1.00  0.00     0.057 A 
ATOM     66  C   UNL A   1      46.875  28.633  30.846  1.00  0.00     0.134 A 
ATOM     67  C   UNL A   1      45.933  27.400  32.670  1.00  0.00     0.134 A 
ATOM     68  F   UNL A   1      46.775  29.517  29.842  1.00  0.00    -0.206 F 
ATOM     69  C   UNL A   1      48.101  27.993  31.038  1.00  0.00     0.040 A 
ATOM     70  C   UNL A   1      47.160  26.770  32.887  1.00  0.00     0.040 A 
ATOM     71  F   UNL A   1      44.909  27.078  33.477  1.00  0.00    -0.206 F 
ATOM     72  C   UNL A   1      48.247  27.064  32.065  1.00  0.00     0.006 A 
ENDBRANCH  51  65
BRANCH  52  73
ATOM     73  C   UNL A   1      36.907  32.629  30.020  1.00  0.00     0.057 A 
ATOM     74  C   UNL A   1      35.822  32.303  30.842  1.00  0.00     0.134 A 
ATOM     75  C   UNL A   1      36.679  33.540  28.981  1.00  0.00     0.134 A 
ATOM     76  F   UNL A   1      35.972  31.416  31.837  1.00  0.00    -0.206 F 
ATOM     77  C   UNL A   1      34.553  32.841  30.624  1.00  0.00     0.040 A 
ATOM     78  C   UNL A   1      35.421  34.106  28.769  1.00  0.00     0.040 A 
ATOM     79  F   UNL A   1      37.676  33.892  28.157  1.00  0.00    -0.206 F 
ATOM     80  C   UNL A   1      34.351  33.750  29.587  1.00  0.00     0.006 A 
ENDBRANCH  52  73
BRANCH  64  81
ATOM     81  C   UNL A   1      42.535  34.460  33.689  1.00  0.00     0.057 A 
ATOM     82  C   UNL A   1      43.030  35.639  33.120  1.00  0.00     0.134 A 
ATOM     83  C   UNL A   1      42.299  34.457  35.070  1.00  0.00     0.134 A 
ATOM     84  F   UNL A   1      43.287  35.704  31.804  1.00  0.00    -0.206 F 
ATOM     85  C   UNL A   1      43.301  36.766  33.898  1.00  0.00     0.040 A 
ATOM     86  C   UNL A   1      42.541  35.585  35.855  1.00  0.00     0.040 A 
ATOM     87  F   UNL A   1      41.815  33.362  35.676  1.00  0.00    -0.206 F 
ATOM     88  C   UNL A   1      43.050  36.743  35.269  1.00  0.00     0.006 A 
ENDBRANCH  64  81
ENDBRANCH  38  39
ENDBRANCH  31  33
ENDBRANCH  30  31
ENDBRANCH  29  30
ENDBRANCH  28  29
ENDBRANCH  27  28
ENDBRANCH  26  27
ENDBRANCH  25  26
ENDBRANCH   1  25
TORSDOF 22
ENDMDL
MODEL 2
REMARK VINA RESULT:      -7.8      4.316      7.905
REMARK SMILES CC[C@H](C)[C@@H](C)NC(=O)c1ccncc1/C=C/C(=O)OCCOCCOCCOC(=O)c1ccc(-c2c3nc(c(-c4c(F)cccc4F)c4ccc([nH]4)c(-c4c(F)cccc4F)c4nc(c(-c5c(F)cccc5F)c5ccc2[nH]5)C=C4)C=C3)cc1
REMARK SMILES IDX 23 1 22 2 21 3 20 4 18 5 19 6 17 7 16 8 15 9 10 10 11 11
REMARK SMILES IDX 12 12 14 13 13 14 8 15 7 16 9 18 5 19 6 20 3 21 4 22 2 23
REMARK SMILES IDX 1 24 24 25 25 26 26 27 27 28 28 29 29 30 30 31 31 32 32 33
REMARK SMILES IDX 33 34 85 35 34 36 84 37 35 38 36 39 37 40 78 41 38 42 83 43
REMARK SMILES IDX 77 44 79 45 39 46 82 47 76 48 75 49 40 51 66 52 49 53 65 54
REMARK SMILES IDX 50 55 53 56 64 57 80 58 51 59 52 60 63 62 81 63 54 64 41 65
REMARK SMILES IDX 42 66 47 67 43 68 44 69 46 70 48 71 45 72 67 73 68 74 73 75
REMARK SMILES IDX 69 76 70 77 72 78 74 79 71 80 55 81 56 82 61 83 57 84 58 85
REMARK SMILES IDX 60 86 62 87 59 88
REMARK H PARENT 7 17 79 50 53 61
REMARK Flexibility Score: inf
ROOT
ATOM      1  O   UNL A   1      40.685  21.143  26.612  1.00  0.00    -0.376 OA
ENDROOT
BRANCH   1   2
ATOM      2  C   UNL A   1      39.745  21.440  25.587  1.00  0.00     0.202 C 
BRANCH   2   3
ATOM      3  C   UNL A   1      38.245  21.466  25.906  1.00  0.00     0.261 C 
BRANCH   3   4
ATOM      4  O   UNL A   1      37.506  22.476  25.201  1.00  0.00    -0.460 OA
BRANCH   4   5
ATOM      5  C   UNL A   1      37.071  23.505  25.964  1.00  0.00     0.330 C 
ATOM      6  O   UNL A   1      37.750  24.426  26.397  1.00  0.00    -0.247 OA
BRANCH   5   7
ATOM      7  C   UNL A   1      35.606  23.505  26.157  1.00  0.00     0.094 C 
ATOM      8  C   UNL A   1      34.663  23.064  25.307  1.00  0.00     0.018 C 
BRANCH   8   9
ATOM      9  C   UNL A   1      33.231  23.119  25.668  1.00  0.00     0.006 A 
ATOM     10  C   UNL A   1      32.199  22.531  24.917  1.00  0.00     0.050 A 
ATOM     11  C   UNL A   1      30.908  22.455  25.453  1.00  0.00     0.034 A 
ATOM     12  C   UNL A   1      30.641  23.111  26.638  1.00  0.00     0.112 A 
ATOM     13  C   UNL A   1      32.829  23.781  26.830  1.00  0.00     0.119 A 
ATOM     14  N   UNL A   1      31.567  23.806  27.319  1.00  0.00    -0.264 NA
BRANCH  10  15
ATOM     15  C   UNL A   1      32.457  21.945  23.579  1.00  0.00     0.252 C 
ATOM     16  N   UNL A   1      32.686  20.594  23.434  1.00  0.00    -0.349 N 
ATOM     17  H   UNL A   1      32.756  20.294  22.500  1.00  0.00     0.164 HD
ATOM     18  O   UNL A   1      32.434  22.659  22.581  1.00  0.00    -0.269 OA
BRANCH  16  19
ATOM     19  C   UNL A   1      32.845  19.523  24.427  1.00  0.00     0.082 C 
ATOM     20  C   UNL A   1      34.306  19.563  24.895  1.00  0.00     0.031 C 
BRANCH  19  21
ATOM     21  C   UNL A   1      32.443  18.126  23.873  1.00  0.00     0.008 C 
ATOM     22  C   UNL A   1      32.311  18.170  22.339  1.00  0.00     0.010 C 
BRANCH  21  23
ATOM     23  C   UNL A   1      33.466  17.041  24.285  1.00  0.00     0.002 C 
ATOM     24  C   UNL A   1      32.858  15.894  25.084  1.00  0.00     0.004 C 
ENDBRANCH  21  23
ENDBRANCH  19  21
ENDBRANCH  16  19
ENDBRANCH  10  15
ENDBRANCH   8   9
ENDBRANCH   5   7
ENDBRANCH   4   5
ENDBRANCH   3   4
ENDBRANCH   2   3
ENDBRANCH   1   2
BRANCH   1  25
ATOM     25  C   UNL A   1      41.875  20.441  26.287  1.00  0.00     0.188 C 
BRANCH  25  26
ATOM     26  C   UNL A   1      43.204  21.204  26.108  1.00  0.00     0.188 C 
BRANCH  26  27
ATOM     27  O   UNL A   1      44.213  20.558  25.373  1.00  0.00    -0.376 OA
BRANCH  27  28
ATOM     28  C   UNL A   1      45.384  21.245  24.966  1.00  0.00     0.202 C 
BRANCH  28  29
ATOM     29  C   UNL A   1      45.512  22.757  24.695  1.00  0.00     0.261 C 
BRANCH  29  30
ATOM     30  O   UNL A   1      45.166  23.667  25.738  1.00  0.00    -0.460 OA
BRANCH  30  31
ATOM     31  C   UNL A   1      45.361  24.978  25.456  1.00  0.00     0.338 C 
ATOM     32  O   UNL A   1      45.997  25.455  24.535  1.00  0.00    -0.246 OA
BRANCH  31  33
ATOM     33  C   UNL A   1      44.525  25.776  26.370  1.00  0.00     0.060 A 
ATOM     34  C   UNL A   1      44.694  27.166  26.387  1.00  0.00     0.016 A 
ATOM     35  C   UNL A   1      43.615  25.155  27.225  1.00  0.00     0.016 A 
ATOM     36  C   UNL A   1      43.962  27.942  27.284  1.00  0.00     0.010 A 
ATOM     37  C   UNL A   1      42.897  25.932  28.138  1.00  0.00     0.010 A 
ATOM     38  C   UNL A   1      43.086  27.324  28.188  1.00  0.00    -0.014 A 
BRANCH  38  39
ATOM     39  C   UNL A   1      42.494  28.112  29.294  1.00  0.00     0.031 A 
ATOM     40  C   UNL A   1      43.193  28.123  30.624  1.00  0.00     0.074 A 
ATOM     41  C   UNL A   1      41.362  28.816  29.118  1.00  0.00     0.049 A 
ATOM     42  N   UNL A   1      42.831  28.685  31.748  1.00  0.00    -0.248 NA
ATOM     43  C   UNL A   1      44.474  27.400  30.696  1.00  0.00     0.031 C 
ATOM     44  C   UNL A   1      40.612  28.913  27.867  1.00  0.00     0.029 A 
ATOM     45  N   UNL A   1      40.639  29.572  30.006  1.00  0.00    -0.354 N 
ATOM     46  C   UNL A   1      43.839  28.392  32.656  1.00  0.00     0.074 A 
ATOM     47  C   UNL A   1      44.811  27.572  31.965  1.00  0.00     0.031 C 
ATOM     48  C   UNL A   1      39.518  29.667  28.076  1.00  0.00     0.029 A 
ATOM     49  C   UNL A   1      39.479  30.079  29.477  1.00  0.00     0.049 A 
ATOM     50  H   UNL A   1      40.926  29.734  30.934  1.00  0.00     0.167 HD
ATOM     51  C   UNL A   1      43.952  28.779  33.949  1.00  0.00     0.037 A 
ATOM     52  C   UNL A   1      38.487  30.773  30.068  1.00  0.00     0.037 A 
ATOM     53  C   UNL A   1      42.979  29.577  34.644  1.00  0.00     0.049 A 
ATOM     54  C   UNL A   1      38.595  31.122  31.530  1.00  0.00     0.074 A 
ATOM     55  C   UNL A   1      42.996  30.009  35.959  1.00  0.00     0.029 A 
ATOM     56  N   UNL A   1      41.808  30.060  34.079  1.00  0.00    -0.354 N 
ATOM     57  N   UNL A   1      39.558  30.853  32.378  1.00  0.00    -0.248 NA
ATOM     58  C   UNL A   1      37.478  31.879  32.117  1.00  0.00     0.031 C 
ATOM     59  C   UNL A   1      41.816  30.721  36.201  1.00  0.00     0.029 A 
ATOM     60  C   UNL A   1      41.088  30.773  35.023  1.00  0.00     0.049 A 
ATOM     61  H   UNL A   1      41.531  29.917  33.145  1.00  0.00     0.167 HD
ATOM     62  C   UNL A   1      39.178  31.427  33.585  1.00  0.00     0.074 A 
ATOM     63  C   UNL A   1      37.902  32.072  33.357  1.00  0.00     0.031 C 
ATOM     64  C   UNL A   1      39.825  31.420  34.776  1.00  0.00     0.037 A 
BRANCH  51  65
ATOM     65  C   UNL A   1      45.170  28.327  34.698  1.00  0.00     0.057 A 
ATOM     66  C   UNL A   1      46.331  29.109  34.753  1.00  0.00     0.134 A 
ATOM     67  C   UNL A   1      45.173  27.114  35.397  1.00  0.00     0.134 A 
ATOM     68  F   UNL A   1      46.398  30.274  34.090  1.00  0.00    -0.206 F 
ATOM     69  C   UNL A   1      47.458  28.692  35.462  1.00  0.00     0.040 A 
ATOM     70  C   UNL A   1      46.285  26.697  36.130  1.00  0.00     0.040 A 
ATOM     71  F   UNL A   1      44.092  26.318  35.386  1.00  0.00    -0.206 F 
ATOM     72  C   UNL A   1      47.434  27.486  36.159  1.00  0.00     0.006 A 
ENDBRANCH  51  65
BRANCH  52  73
ATOM     73  C   UNL A   1      37.281  31.160  29.292  1.00  0.00     0.057 A 
ATOM     74  C   UNL A   1      36.265  30.238  29.013  1.00  0.00     0.134 A 
ATOM     75  C   UNL A   1      37.138  32.453  28.774  1.00  0.00     0.134 A 
ATOM     76  F   UNL A   1      36.359  28.976  29.459  1.00  0.00    -0.206 F 
ATOM     77  C   UNL A   1      35.163  30.581  28.229  1.00  0.00     0.040 A 
ATOM     78  C   UNL A   1      36.028  32.817  28.012  1.00  0.00     0.040 A 
ATOM     79  F   UNL A   1      38.077  33.383  29.004  1.00  0.00    -0.206 F 
ATOM     80  C   UNL A   1      35.040  31.876  27.729  1.00  0.00     0.006 A 
ENDBRANCH  52  73
BRANCH  64  81
ATOM     81  C   UNL A   1      39.189  32.166  35.913  1.00  0.00     0.057 A 
ATOM     82  C   UNL A   1      39.448  33.522  36.147  1.00  0.00     0.134 A 
ATOM     83  C   UNL A   1      38.268  31.529  36.755  1.00  0.00     0.134 A 
ATOM     84  F   UNL A   1      40.328  34.188  35.383  1.00  0.00    -0.206 F 
ATOM     85  C   UNL A   1      38.832  34.212  37.192  1.00  0.00     0.040 A 
ATOM     86  C   UNL A   1      37.625  32.215  37.786  1.00  0.00     0.040 A 
ATOM     87  F   UNL A   1      37.966  30.234  36.578  1.00  0.00    -0.206 F 
ATOM     88  C   UNL A   1      37.912  33.559  38.011  1.00  0.00     0.006 A 
ENDBRANCH  64  81
ENDBRANCH  38  39
ENDBRANCH  31  33
ENDBRANCH  30  31
ENDBRANCH  29  30
ENDBRANCH  28  29
ENDBRANCH  27  28
ENDBRANCH  26  27
ENDBRANCH  25  26
ENDBRANCH   1  25
TORSDOF 22
ENDMDL
MODEL 3
REMARK VINA RESULT:      -7.7      3.765      7.317
REMARK SMILES CC[C@H](C)[C@@H](C)NC(=O)c1ccncc1/C=C/C(=O)OCCOCCOCCOC(=O)c1ccc(-c2c3nc(c(-c4c(F)cccc4F)c4ccc([nH]4)c(-c4c(F)cccc4F)c4nc(c(-c5c(F)cccc5F)c5ccc2[nH]5)C=C4)C=C3)cc1
REMARK SMILES IDX 23 1 22 2 21 3 20 4 18 5 19 6 17 7 16 8 15 9 10 10 11 11
REMARK SMILES IDX 12 12 14 13 13 14 8 15 7 16 9 18 5 19 6 20 3 21 4 22 2 23
REMARK SMILES IDX 1 24 24 25 25 26 26 27 27 28 28 29 29 30 30 31 31 32 32 33
REMARK SMILES IDX 33 34 85 35 34 36 84 37 35 38 36 39 37 40 78 41 38 42 83 43
REMARK SMILES IDX 77 44 79 45 39 46 82 47 76 48 75 49 40 51 66 52 49 53 65 54
REMARK SMILES IDX 50 55 53 56 64 57 80 58 51 59 52 60 63 62 81 63 54 64 41 65
REMARK SMILES IDX 42 66 47 67 43 68 44 69 46 70 48 71 45 72 67 73 68 74 73 75
REMARK SMILES IDX 69 76 70 77 72 78 74 79 71 80 55 81 56 82 61 83 57 84 58 85
REMARK SMILES IDX 60 86 62 87 59 88
REMARK H PARENT 7 17 79 50 53 61
REMARK Flexibility Score: inf
ROOT
ATOM      1  O   UNL A   1      43.172  18.939  24.890  1.00  0.00    -0.376 OA
ENDROOT
BRANCH   1   2
ATOM      2  C   UNL A   1      42.455  18.912  26.117  1.00  0.00     0.202 C 
BRANCH   2   3
ATOM      3  C   UNL A   1      40.971  19.298  26.148  1.00  0.00     0.261 C 
BRANCH   3   4
ATOM      4  O   UNL A   1      40.685  20.599  25.610  1.00  0.00    -0.460 OA
BRANCH   4   5
ATOM      5  C   UNL A   1      39.839  21.352  26.352  1.00  0.00     0.330 C 
ATOM      6  O   UNL A   1      39.992  21.676  27.521  1.00  0.00    -0.247 OA
BRANCH   5   7
ATOM      7  C   UNL A   1      38.703  21.885  25.572  1.00  0.00     0.094 C 
ATOM      8  C   UNL A   1      37.420  21.490  25.611  1.00  0.00     0.018 C 
BRANCH   8   9
ATOM      9  C   UNL A   1      36.396  22.149  24.773  1.00  0.00     0.006 A 
ATOM     10  C   UNL A   1      35.033  22.234  25.102  1.00  0.00     0.050 A 
ATOM     11  C   UNL A   1      34.189  23.062  24.352  1.00  0.00     0.034 A 
ATOM     12  C   UNL A   1      34.681  23.644  23.201  1.00  0.00     0.112 A 
ATOM     13  C   UNL A   1      36.765  22.751  23.568  1.00  0.00     0.119 A 
ATOM     14  N   UNL A   1      35.943  23.474  22.771  1.00  0.00    -0.264 NA
BRANCH  10  15
ATOM     15  C   UNL A   1      34.473  21.498  26.261  1.00  0.00     0.252 C 
ATOM     16  N   UNL A   1      34.000  20.212  26.116  1.00  0.00    -0.349 N 
ATOM     17  H   UNL A   1      33.734  19.781  26.960  1.00  0.00     0.164 HD
ATOM     18  O   UNL A   1      34.458  22.019  27.372  1.00  0.00    -0.269 OA
BRANCH  16  19
ATOM     19  C   UNL A   1      33.821  19.370  24.925  1.00  0.00     0.082 C 
ATOM     20  C   UNL A   1      32.576  19.891  24.195  1.00  0.00     0.031 C 
BRANCH  19  21
ATOM     21  C   UNL A   1      33.711  17.857  25.269  1.00  0.00     0.008 C 
ATOM     22  C   UNL A   1      32.277  17.350  25.027  1.00  0.00     0.010 C 
BRANCH  21  23
ATOM     23  C   UNL A   1      34.716  17.018  24.445  1.00  0.00     0.002 C 
ATOM     24  C   UNL A   1      34.151  16.504  23.125  1.00  0.00     0.004 C 
ENDBRANCH  21  23
ENDBRANCH  19  21
ENDBRANCH  16  19
ENDBRANCH  10  15
ENDBRANCH   8   9
ENDBRANCH   5   7
ENDBRANCH   4   5
ENDBRANCH   3   4
ENDBRANCH   2   3
ENDBRANCH   1   2
BRANCH   1  25
ATOM     25  C   UNL A   1      44.573  19.170  24.903  1.00  0.00     0.188 C 
BRANCH  25  26
ATOM     26  C   UNL A   1      45.158  20.438  24.248  1.00  0.00     0.188 C 
BRANCH  26  27
ATOM     27  O   UNL A   1      44.241  21.404  23.801  1.00  0.00    -0.376 OA
BRANCH  27  28
ATOM     28  C   UNL A   1      43.472  22.169  24.714  1.00  0.00     0.202 C 
BRANCH  28  29
ATOM     29  C   UNL A   1      43.756  23.615  25.165  1.00  0.00     0.261 C 
BRANCH  29  30
ATOM     30  O   UNL A   1      45.062  23.936  25.640  1.00  0.00    -0.460 OA
BRANCH  30  31
ATOM     31  C   UNL A   1      45.423  25.237  25.522  1.00  0.00     0.338 C 
ATOM     32  O   UNL A   1      46.202  25.723  24.724  1.00  0.00    -0.246 OA
BRANCH  31  33
ATOM     33  C   UNL A   1      44.582  26.035  26.431  1.00  0.00     0.060 A 
ATOM     34  C   UNL A   1      44.809  27.414  26.512  1.00  0.00     0.016 A 
ATOM     35  C   UNL A   1      43.609  25.421  27.220  1.00  0.00     0.016 A 
ATOM     36  C   UNL A   1      44.072  28.186  27.409  1.00  0.00     0.010 A 
ATOM     37  C   UNL A   1      42.885  26.193  28.132  1.00  0.00     0.010 A 
ATOM     38  C   UNL A   1      43.131  27.572  28.248  1.00  0.00    -0.014 A 
BRANCH  38  39
ATOM     39  C   UNL A   1      42.525  28.342  29.359  1.00  0.00     0.031 A 
ATOM     40  C   UNL A   1      43.221  28.353  30.691  1.00  0.00     0.074 A 
ATOM     41  C   UNL A   1      41.382  29.029  29.186  1.00  0.00     0.049 A 
ATOM     42  N   UNL A   1      42.847  28.900  31.819  1.00  0.00    -0.248 NA
ATOM     43  C   UNL A   1      44.513  27.650  30.759  1.00  0.00     0.031 C 
ATOM     44  C   UNL A   1      40.633  29.125  27.935  1.00  0.00     0.029 A 
ATOM     45  N   UNL A   1      40.646  29.766  30.079  1.00  0.00    -0.354 N 
ATOM     46  C   UNL A   1      43.859  28.615  32.726  1.00  0.00     0.074 A 
ATOM     47  C   UNL A   1      44.845  27.817  32.031  1.00  0.00     0.031 C 
ATOM     48  C   UNL A   1      39.527  29.859  28.147  1.00  0.00     0.029 A 
ATOM     49  C   UNL A   1      39.478  30.259  29.552  1.00  0.00     0.049 A 
ATOM     50  H   UNL A   1      40.928  29.926  31.008  1.00  0.00     0.167 HD
ATOM     51  C   UNL A   1      43.963  28.994  34.022  1.00  0.00     0.037 A 
ATOM     52  C   UNL A   1      38.474  30.932  30.147  1.00  0.00     0.037 A 
ATOM     53  C   UNL A   1      42.976  29.771  34.722  1.00  0.00     0.049 A 
ATOM     54  C   UNL A   1      38.574  31.272  31.611  1.00  0.00     0.074 A 
ATOM     55  C   UNL A   1      42.983  30.192  36.040  1.00  0.00     0.029 A 
ATOM     56  N   UNL A   1      41.798  30.239  34.158  1.00  0.00    -0.354 N 
ATOM     57  N   UNL A   1      39.540  31.011  32.459  1.00  0.00    -0.248 NA
ATOM     58  C   UNL A   1      37.444  32.005  32.202  1.00  0.00     0.031 C 
ATOM     59  C   UNL A   1      41.792  30.883  36.285  1.00  0.00     0.029 A 
ATOM     60  C   UNL A   1      41.065  30.933  35.106  1.00  0.00     0.049 A 
ATOM     61  H   UNL A   1      41.525  30.100  33.222  1.00  0.00     0.167 HD
ATOM     62  C   UNL A   1      39.148  31.568  33.670  1.00  0.00     0.074 A 
ATOM     63  C   UNL A   1      37.863  32.196  33.445  1.00  0.00     0.031 C 
ATOM     64  C   UNL A   1      39.793  31.563  34.862  1.00  0.00     0.037 A 
BRANCH  51  65
ATOM     65  C   UNL A   1      45.186  28.555  34.770  1.00  0.00     0.057 A 
ATOM     66  C   UNL A   1      46.337  29.351  34.826  1.00  0.00     0.134 A 
ATOM     67  C   UNL A   1      45.204  27.341  35.467  1.00  0.00     0.134 A 
ATOM     68  F   UNL A   1      46.390  30.519  34.166  1.00  0.00    -0.206 F 
ATOM     69  C   UNL A   1      47.469  28.946  35.535  1.00  0.00     0.040 A 
ATOM     70  C   UNL A   1      46.321  26.936  36.198  1.00  0.00     0.040 A 
ATOM     71  F   UNL A   1      44.133  26.532  35.454  1.00  0.00    -0.206 F 
ATOM     72  C   UNL A   1      47.461  27.739  36.229  1.00  0.00     0.006 A 
ENDBRANCH  51  65
BRANCH  52  73
ATOM     73  C   UNL A   1      37.264  31.307  29.371  1.00  0.00     0.057 A 
ATOM     74  C   UNL A   1      36.216  30.401  29.171  1.00  0.00     0.134 A 
ATOM     75  C   UNL A   1      37.148  32.569  28.775  1.00  0.00     0.134 A 
ATOM     76  F   UNL A   1      36.282  29.167  29.694  1.00  0.00    -0.206 F 
ATOM     77  C   UNL A   1      35.107  30.727  28.388  1.00  0.00     0.040 A 
ATOM     78  C   UNL A   1      36.033  32.917  28.013  1.00  0.00     0.040 A 
ATOM     79  F   UNL A   1      38.119  33.481  28.927  1.00  0.00    -0.206 F 
ATOM     80  C   UNL A   1      35.012  31.991  27.809  1.00  0.00     0.006 A 
ENDBRANCH  52  73
BRANCH  64  81
ATOM     81  C   UNL A   1      39.142  32.289  36.003  1.00  0.00     0.057 A 
ATOM     82  C   UNL A   1      38.201  31.671  36.834  1.00  0.00     0.134 A 
ATOM     83  C   UNL A   1      39.499  33.611  36.301  1.00  0.00     0.134 A 
ATOM     84  F   UNL A   1      37.808  30.410  36.598  1.00  0.00    -0.206 F 
ATOM     85  C   UNL A   1      37.620  32.348  37.908  1.00  0.00     0.040 A 
ATOM     86  C   UNL A   1      38.945  34.291  37.387  1.00  0.00     0.040 A 
ATOM     87  F   UNL A   1      40.403  34.258  35.550  1.00  0.00    -0.206 F 
ATOM     88  C   UNL A   1      37.997  33.661  38.190  1.00  0.00     0.006 A 
ENDBRANCH  64  81
ENDBRANCH  38  39
ENDBRANCH  31  33
ENDBRANCH  30  31
ENDBRANCH  29  30
ENDBRANCH  28  29
ENDBRANCH  27  28
ENDBRANCH  26  27
ENDBRANCH  25  26
ENDBRANCH   1  25
TORSDOF 22
ENDMDL
