MODEL 1
REMARK VINA RESULT:     -11.1      0.000      0.000
REMARK SMILES COc1ccc(NC(=O)N[C@@H]2C=C[C@H](C(=O)OCCOCCOCCOC(=O)c3ccc(-c4c5nc(c(-c6c(F)cccc6F)c6ccc([nH]6)c(-c6c(F)cccc6F)c6nc(c(-c7c(F)cccc7F)c7ccc4[nH]7)C=C6)C=C5)cc3)C2)c(C)c1
REMARK SMILES IDX 21 1 20 2 19 3 18 4 17 5 15 6 16 7 14 8 11 9 12 10 83 11
REMARK SMILES IDX 13 12 10 13 7 14 8 15 9 17 6 19 3 20 4 21 86 22 5 23 84 24
REMARK SMILES IDX 85 25 2 26 1 27 22 28 23 29 24 30 25 31 26 32 27 33 28 34
REMARK SMILES IDX 29 35 30 36 82 37 31 38 81 39 32 40 33 41 34 42 75 43 35 44
REMARK SMILES IDX 80 45 74 46 76 47 36 48 79 49 73 50 72 51 37 53 63 54 46 55
REMARK SMILES IDX 62 56 47 57 50 58 61 59 77 60 48 61 49 62 60 64 78 65 51 66
REMARK SMILES IDX 38 67 39 68 44 69 40 70 41 71 43 72 45 73 42 74 64 75 65 76
REMARK SMILES IDX 70 77 66 78 67 79 69 80 71 81 68 82 52 83 53 84 58 85 54 86
REMARK SMILES IDX 55 87 57 88 59 89 56 90
REMARK H PARENT 7 16 10 18 76 52 50 63
REMARK Flexibility Score: inf
ROOT
ATOM      1  C   UNL A   1      34.489  21.539  25.769  1.00  0.00     0.188 C 
ENDROOT
BRANCH   1   2
ATOM      2  O   UNL A   1      34.206  21.829  24.407  1.00  0.00    -0.376 OA
BRANCH   2   3
ATOM      3  C   UNL A   1      33.580  23.094  24.226  1.00  0.00     0.202 C 
BRANCH   3   4
ATOM      4  C   UNL A   1      34.143  24.267  25.034  1.00  0.00     0.261 C 
BRANCH   4   5
ATOM      5  O   UNL A   1      33.069  25.369  25.527  1.00  0.00    -0.463 OA
BRANCH   5   6
ATOM      6  C   UNL A   1      32.158  26.086  26.263  1.00  0.00     0.312 C 
ATOM      7  O   UNL A   1      31.135  25.452  26.544  1.00  0.00    -0.252 OA
BRANCH   6   8
ATOM      8  C   UNL A   1      32.233  27.653  26.702  1.00  0.00     0.124 C 
ATOM      9  C   UNL A   1      33.137  28.588  24.686  1.00  0.00     0.107 C 
ATOM     10  C   UNL A   1      34.151  28.733  25.760  1.00  0.00    -0.006 C 
ATOM     11  C   UNL A   1      31.962  28.649  25.624  1.00  0.00     0.048 C 
ATOM     12  C   UNL A   1      33.620  28.248  26.893  1.00  0.00    -0.014 C 
BRANCH   9  13
ATOM     13  N   UNL A   1      33.505  27.484  23.851  1.00  0.00    -0.332 N 
ATOM     14  N   UNL A   1      31.936  27.440  22.002  1.00  0.00    -0.308 N 
ATOM     15  C   UNL A   1      33.103  27.111  22.618  1.00  0.00     0.319 C 
ATOM     16  H   UNL A   1      31.945  27.222  21.041  1.00  0.00     0.171 HD
ATOM     17  O   UNL A   1      33.888  26.406  21.968  1.00  0.00    -0.248 OA
ATOM     18  H   UNL A   1      34.178  26.886  24.251  1.00  0.00     0.165 HD
BRANCH  14  19
ATOM     19  C   UNL A   1      30.718  28.018  22.409  1.00  0.00     0.046 A 
ATOM     20  C   UNL A   1      28.416  29.547  23.043  1.00  0.00     0.119 A 
ATOM     21  C   UNL A   1      29.533  30.152  22.561  1.00  0.00     0.048 A 
ATOM     22  C   UNL A   1      28.504  28.182  23.377  1.00  0.00     0.052 A 
ATOM     23  C   UNL A   1      30.416  29.277  21.996  1.00  0.00     0.030 A 
ATOM     24  C   UNL A   1      29.698  27.417  23.131  1.00  0.00    -0.024 A 
ATOM     25  C   UNL A   1      29.720  25.962  23.485  1.00  0.00     0.047 C 
BRANCH  20  26
ATOM     26  O   UNL A   1      27.218  30.214  23.056  1.00  0.00    -0.497 OA
ATOM     27  C   UNL A   1      27.337  31.576  23.529  1.00  0.00     0.278 C 
ENDBRANCH  20  26
ENDBRANCH  14  19
ENDBRANCH   9  13
ENDBRANCH   6   8
ENDBRANCH   5   6
ENDBRANCH   4   5
ENDBRANCH   3   4
ENDBRANCH   2   3
ENDBRANCH   1   2
BRANCH   1  28
ATOM     28  C   UNL A   1      35.955  21.822  26.128  1.00  0.00     0.188 C 
BRANCH  28  29
ATOM     29  O   UNL A   1      36.851  20.788  25.753  1.00  0.00    -0.376 OA
BRANCH  29  30
ATOM     30  C   UNL A   1      38.006  21.164  25.005  1.00  0.00     0.202 C 
BRANCH  30  31
ATOM     31  C   UNL A   1      39.009  21.788  25.967  1.00  0.00     0.261 C 
BRANCH  31  32
ATOM     32  O   UNL A   1      39.677  20.756  26.729  1.00  0.00    -0.460 OA
BRANCH  32  33
ATOM     33  C   UNL A   1      40.913  20.437  26.273  1.00  0.00     0.338 C 
ATOM     34  O   UNL A   1      41.213  19.377  25.731  1.00  0.00    -0.246 OA
BRANCH  33  35
ATOM     35  C   UNL A   1      41.886  21.480  26.702  1.00  0.00     0.060 A 
ATOM     36  C   UNL A   1      41.915  21.859  28.021  1.00  0.00     0.016 A 
ATOM     37  C   UNL A   1      42.673  22.219  25.804  1.00  0.00     0.016 A 
ATOM     38  C   UNL A   1      42.619  23.022  28.323  1.00  0.00     0.010 A 
ATOM     39  C   UNL A   1      43.133  23.514  26.148  1.00  0.00     0.010 A 
ATOM     40  C   UNL A   1      42.891  24.042  27.415  1.00  0.00    -0.014 A 
BRANCH  40  41
ATOM     41  C   UNL A   1      43.162  25.524  27.721  1.00  0.00     0.031 A 
ATOM     42  C   UNL A   1      42.028  26.418  27.372  1.00  0.00     0.074 A 
ATOM     43  C   UNL A   1      44.283  26.241  28.180  1.00  0.00     0.049 A 
ATOM     44  N   UNL A   1      42.087  27.710  27.362  1.00  0.00    -0.248 NA
ATOM     45  C   UNL A   1      40.725  25.920  26.899  1.00  0.00     0.031 C 
ATOM     46  C   UNL A   1      44.234  27.280  29.222  1.00  0.00     0.029 A 
ATOM     47  N   UNL A   1      45.697  26.129  28.118  1.00  0.00    -0.354 N 
ATOM     48  C   UNL A   1      40.781  28.087  27.531  1.00  0.00     0.074 A 
ATOM     49  C   UNL A   1      40.027  27.059  26.875  1.00  0.00     0.031 C 
ATOM     50  C   UNL A   1      45.471  27.763  29.489  1.00  0.00     0.029 A 
ATOM     51  C   UNL A   1      46.438  27.188  28.568  1.00  0.00     0.049 A 
ATOM     52  H   UNL A   1      46.130  25.319  27.765  1.00  0.00     0.167 HD
ATOM     53  C   UNL A   1      40.500  28.951  28.548  1.00  0.00     0.037 A 
ATOM     54  C   UNL A   1      47.514  27.740  27.906  1.00  0.00     0.037 A 
ATOM     55  C   UNL A   1      41.703  29.653  29.029  1.00  0.00     0.049 A 
ATOM     56  C   UNL A   1      47.121  29.158  27.566  1.00  0.00     0.074 A 
ATOM     57  C   UNL A   1      42.335  29.801  30.254  1.00  0.00     0.029 A 
ATOM     58  N   UNL A   1      42.579  30.199  28.099  1.00  0.00    -0.354 N 
ATOM     59  N   UNL A   1      45.918  29.573  27.834  1.00  0.00    -0.248 NA
ATOM     60  C   UNL A   1      47.893  30.185  26.872  1.00  0.00     0.031 C 
ATOM     61  C   UNL A   1      43.566  30.493  30.044  1.00  0.00     0.029 A 
ATOM     62  C   UNL A   1      43.673  30.783  28.695  1.00  0.00     0.049 A 
ATOM     63  H   UNL A   1      42.435  30.169  27.126  1.00  0.00     0.167 HD
ATOM     64  C   UNL A   1      45.763  30.866  27.496  1.00  0.00     0.074 A 
ATOM     65  C   UNL A   1      46.993  31.189  26.797  1.00  0.00     0.031 C 
ATOM     66  C   UNL A   1      44.624  31.511  27.862  1.00  0.00     0.037 A 
BRANCH  53  67
ATOM     67  C   UNL A   1      39.174  28.993  29.293  1.00  0.00     0.057 A 
ATOM     68  C   UNL A   1      38.067  29.629  28.696  1.00  0.00     0.134 A 
ATOM     69  C   UNL A   1      38.926  28.540  30.609  1.00  0.00     0.134 A 
ATOM     70  F   UNL A   1      38.122  30.107  27.446  1.00  0.00    -0.206 F 
ATOM     71  C   UNL A   1      36.843  29.818  29.352  1.00  0.00     0.040 A 
ATOM     72  C   UNL A   1      37.688  28.669  31.251  1.00  0.00     0.040 A 
ATOM     73  F   UNL A   1      39.863  27.990  31.385  1.00  0.00    -0.206 F 
ATOM     74  C   UNL A   1      36.643  29.324  30.630  1.00  0.00     0.006 A 
ENDBRANCH  53  67
BRANCH  54  75
ATOM     75  C   UNL A   1      48.484  26.884  27.116  1.00  0.00     0.057 A 
ATOM     76  C   UNL A   1      48.311  26.740  25.729  1.00  0.00     0.134 A 
ATOM     77  C   UNL A   1      49.653  26.287  27.604  1.00  0.00     0.134 A 
ATOM     78  F   UNL A   1      47.142  27.077  25.166  1.00  0.00    -0.206 F 
ATOM     79  C   UNL A   1      49.327  26.282  24.869  1.00  0.00     0.040 A 
ATOM     80  C   UNL A   1      50.717  25.903  26.756  1.00  0.00     0.040 A 
ATOM     81  F   UNL A   1      49.861  26.161  28.923  1.00  0.00    -0.206 F 
ATOM     82  C   UNL A   1      50.574  25.957  25.380  1.00  0.00     0.006 A 
ENDBRANCH  54  75
BRANCH  66  83
ATOM     83  C   UNL A   1      44.309  32.906  27.471  1.00  0.00     0.057 A 
ATOM     84  C   UNL A   1      43.921  33.267  26.181  1.00  0.00     0.134 A 
ATOM     85  C   UNL A   1      44.467  33.958  28.396  1.00  0.00     0.134 A 
ATOM     86  F   UNL A   1      43.854  32.361  25.195  1.00  0.00    -0.206 F 
ATOM     87  C   UNL A   1      43.612  34.588  25.854  1.00  0.00     0.040 A 
ATOM     88  C   UNL A   1      44.221  35.284  28.066  1.00  0.00     0.040 A 
ATOM     89  F   UNL A   1      44.841  33.743  29.666  1.00  0.00    -0.206 F 
ATOM     90  C   UNL A   1      43.763  35.599  26.797  1.00  0.00     0.006 A 
ENDBRANCH  66  83
ENDBRANCH  40  41
ENDBRANCH  33  35
ENDBRANCH  32  33
ENDBRANCH  31  32
ENDBRANCH  30  31
ENDBRANCH  29  30
ENDBRANCH  28  29
ENDBRANCH   1  28
TORSDOF 20
ENDMDL
MODEL 2
REMARK VINA RESULT:     -10.9      4.427      9.760
REMARK SMILES COc1ccc(NC(=O)N[C@@H]2C=C[C@H](C(=O)OCCOCCOCCOC(=O)c3ccc(-c4c5nc(c(-c6c(F)cccc6F)c6ccc([nH]6)c(-c6c(F)cccc6F)c6nc(c(-c7c(F)cccc7F)c7ccc4[nH]7)C=C6)C=C5)cc3)C2)c(C)c1
REMARK SMILES IDX 21 1 20 2 19 3 18 4 17 5 15 6 16 7 14 8 11 9 12 10 83 11
REMARK SMILES IDX 13 12 10 13 7 14 8 15 9 17 6 19 3 20 4 21 86 22 5 23 84 24
REMARK SMILES IDX 85 25 2 26 1 27 22 28 23 29 24 30 25 31 26 32 27 33 28 34
REMARK SMILES IDX 29 35 30 36 82 37 31 38 81 39 32 40 33 41 34 42 75 43 35 44
REMARK SMILES IDX 80 45 74 46 76 47 36 48 79 49 73 50 72 51 37 53 63 54 46 55
REMARK SMILES IDX 62 56 47 57 50 58 61 59 77 60 48 61 49 62 60 64 78 65 51 66
REMARK SMILES IDX 38 67 39 68 44 69 40 70 41 71 43 72 45 73 42 74 64 75 65 76
REMARK SMILES IDX 70 77 66 78 67 79 69 80 71 81 68 82 52 83 53 84 58 85 54 86
REMARK SMILES IDX 55 87 57 88 59 89 56 90
REMARK H PARENT 7 16 10 18 76 52 50 63
REMARK Flexibility Score: inf
ROOT
ATOM      1  C   UNL A   1      31.901  28.861  25.296  1.00  0.00     0.188 C 
ENDROOT
BRANCH   1   2
ATOM      2  O   UNL A   1      32.501  28.766  24.013  1.00  0.00    -0.376 OA
BRANCH   2   3
ATOM      3  C   UNL A   1      33.553  27.808  23.959  1.00  0.00     0.202 C 
BRANCH   3   4
ATOM      4  C   UNL A   1      33.338  26.502  24.731  1.00  0.00     0.261 C 
BRANCH   4   5
ATOM      5  O   UNL A   1      34.185  25.226  24.215  1.00  0.00    -0.463 OA
BRANCH   5   6
ATOM      6  C   UNL A   1      34.736  24.234  23.443  1.00  0.00     0.312 C 
ATOM      7  O   UNL A   1      34.152  24.057  22.368  1.00  0.00    -0.252 OA
BRANCH   6   8
ATOM      8  C   UNL A   1      35.968  23.237  23.819  1.00  0.00     0.124 C 
ATOM      9  C   UNL A   1      35.198  22.438  25.946  1.00  0.00     0.107 C 
ATOM     10  C   UNL A   1      36.418  23.252  26.170  1.00  0.00    -0.006 C 
ATOM     11  C   UNL A   1      35.602  21.997  24.565  1.00  0.00     0.048 C 
ATOM     12  C   UNL A   1      36.867  23.657  24.972  1.00  0.00    -0.014 C 
BRANCH   9  13
ATOM     13  N   UNL A   1      34.050  23.225  26.288  1.00  0.00    -0.332 N 
ATOM     14  N   UNL A   1      32.114  21.778  26.088  1.00  0.00    -0.308 N 
ATOM     15  C   UNL A   1      32.764  22.891  26.522  1.00  0.00     0.319 C 
ATOM     16  H   UNL A   1      31.249  21.648  26.541  1.00  0.00     0.171 HD
ATOM     17  O   UNL A   1      32.105  23.673  27.221  1.00  0.00    -0.248 OA
ATOM     18  H   UNL A   1      34.235  24.189  26.369  1.00  0.00     0.165 HD
BRANCH  14  19
ATOM     19  C   UNL A   1      32.383  20.765  25.146  1.00  0.00     0.046 A 
ATOM     20  C   UNL A   1      33.066  18.494  23.592  1.00  0.00     0.119 A 
ATOM     21  C   UNL A   1      33.446  18.577  24.893  1.00  0.00     0.048 A 
ATOM     22  C   UNL A   1      32.485  19.635  23.006  1.00  0.00     0.052 A 
ATOM     23  C   UNL A   1      32.775  19.541  25.589  1.00  0.00     0.030 A 
ATOM     24  C   UNL A   1      32.208  20.822  23.772  1.00  0.00    -0.024 A 
ATOM     25  C   UNL A   1      31.564  21.994  23.097  1.00  0.00     0.047 C 
BRANCH  20  26
ATOM     26  O   UNL A   1      33.113  17.294  22.932  1.00  0.00    -0.497 OA
ATOM     27  C   UNL A   1      33.560  16.205  23.774  1.00  0.00     0.278 C 
ENDBRANCH  20  26
ENDBRANCH  14  19
ENDBRANCH   9  13
ENDBRANCH   6   8
ENDBRANCH   5   6
ENDBRANCH   4   5
ENDBRANCH   3   4
ENDBRANCH   2   3
ENDBRANCH   1   2
BRANCH   1  28
ATOM     28  C   UNL A   1      31.776  30.315  25.772  1.00  0.00     0.188 C 
BRANCH  28  29
ATOM     29  O   UNL A   1      32.401  30.570  27.019  1.00  0.00    -0.376 OA
BRANCH  29  30
ATOM     30  C   UNL A   1      33.779  30.222  27.143  1.00  0.00     0.202 C 
BRANCH  30  31
ATOM     31  C   UNL A   1      34.536  31.454  27.620  1.00  0.00     0.261 C 
BRANCH  31  32
ATOM     32  O   UNL A   1      33.628  32.381  28.260  1.00  0.00    -0.460 OA
BRANCH  32  33
ATOM     33  C   UNL A   1      34.150  33.612  28.480  1.00  0.00     0.338 C 
ATOM     34  O   UNL A   1      33.792  34.642  27.915  1.00  0.00    -0.246 OA
BRANCH  33  35
ATOM     35  C   UNL A   1      35.344  33.495  29.362  1.00  0.00     0.060 A 
ATOM     36  C   UNL A   1      36.585  33.761  28.839  1.00  0.00     0.016 A 
ATOM     37  C   UNL A   1      35.295  32.974  30.665  1.00  0.00     0.016 A 
ATOM     38  C   UNL A   1      37.683  33.363  29.598  1.00  0.00     0.010 A 
ATOM     39  C   UNL A   1      36.438  32.369  31.242  1.00  0.00     0.010 A 
ATOM     40  C   UNL A   1      37.657  32.361  30.565  1.00  0.00    -0.014 A 
BRANCH  40  41
ATOM     41  C   UNL A   1      38.833  31.503  31.059  1.00  0.00     0.031 A 
ATOM     42  C   UNL A   1      38.731  30.074  30.665  1.00  0.00     0.074 A 
ATOM     43  C   UNL A   1      39.949  31.749  31.881  1.00  0.00     0.049 A 
ATOM     44  N   UNL A   1      39.492  29.131  31.116  1.00  0.00    -0.248 NA
ATOM     45  C   UNL A   1      37.674  29.556  29.779  1.00  0.00     0.031 C 
ATOM     46  C   UNL A   1      41.318  31.300  31.578  1.00  0.00     0.029 A 
ATOM     47  N   UNL A   1      40.285  32.604  32.964  1.00  0.00    -0.354 N 
ATOM     48  C   UNL A   1      39.423  28.175  30.137  1.00  0.00     0.074 A 
ATOM     49  C   UNL A   1      38.095  28.300  29.611  1.00  0.00     0.031 C 
ATOM     50  C   UNL A   1      42.190  31.722  32.525  1.00  0.00     0.029 A 
ATOM     51  C   UNL A   1      41.472  32.376  33.606  1.00  0.00     0.049 A 
ATOM     52  H   UNL A   1      39.687  33.333  33.244  1.00  0.00     0.167 HD
ATOM     53  C   UNL A   1      40.599  27.719  29.616  1.00  0.00     0.037 A 
ATOM     54  C   UNL A   1      41.638  32.334  34.974  1.00  0.00     0.037 A 
ATOM     55  C   UNL A   1      41.748  28.031  30.484  1.00  0.00     0.049 A 
ATOM     56  C   UNL A   1      42.082  30.929  35.304  1.00  0.00     0.074 A 
ATOM     57  C   UNL A   1      42.953  28.698  30.324  1.00  0.00     0.029 A 
ATOM     58  N   UNL A   1      41.646  27.788  31.848  1.00  0.00    -0.354 N 
ATOM     59  N   UNL A   1      42.142  30.036  34.361  1.00  0.00    -0.248 NA
ATOM     60  C   UNL A   1      42.402  30.347  36.604  1.00  0.00     0.031 C 
ATOM     61  C   UNL A   1      43.588  28.792  31.600  1.00  0.00     0.029 A 
ATOM     62  C   UNL A   1      42.778  28.166  32.531  1.00  0.00     0.049 A 
ATOM     63  H   UNL A   1      40.853  27.393  32.277  1.00  0.00     0.167 HD
ATOM     64  C   UNL A   1      42.590  28.859  34.833  1.00  0.00     0.074 A 
ATOM     65  C   UNL A   1      42.643  29.061  36.269  1.00  0.00     0.031 C 
ATOM     66  C   UNL A   1      42.878  27.862  33.955  1.00  0.00     0.037 A 
BRANCH  53  67
ATOM     67  C   UNL A   1      40.762  27.204  28.194  1.00  0.00     0.057 A 
ATOM     68  C   UNL A   1      40.341  25.895  27.882  1.00  0.00     0.134 A 
ATOM     69  C   UNL A   1      41.399  27.866  27.121  1.00  0.00     0.134 A 
ATOM     70  F   UNL A   1      39.706  25.129  28.780  1.00  0.00    -0.206 F 
ATOM     71  C   UNL A   1      40.555  25.296  26.634  1.00  0.00     0.040 A 
ATOM     72  C   UNL A   1      41.564  27.298  25.851  1.00  0.00     0.040 A 
ATOM     73  F   UNL A   1      41.951  29.077  27.227  1.00  0.00    -0.206 F 
ATOM     74  C   UNL A   1      41.156  26.002  25.605  1.00  0.00     0.006 A 
ENDBRANCH  53  67
BRANCH  54  75
ATOM     75  C   UNL A   1      40.855  33.248  35.897  1.00  0.00     0.057 A 
ATOM     76  C   UNL A   1      41.471  34.398  36.419  1.00  0.00     0.134 A 
ATOM     77  C   UNL A   1      39.495  33.142  36.213  1.00  0.00     0.134 A 
ATOM     78  F   UNL A   1      42.805  34.519  36.372  1.00  0.00    -0.206 F 
ATOM     79  C   UNL A   1      40.750  35.472  36.974  1.00  0.00     0.040 A 
ATOM     80  C   UNL A   1      38.742  34.239  36.688  1.00  0.00     0.040 A 
ATOM     81  F   UNL A   1      38.819  32.011  35.963  1.00  0.00    -0.206 F 
ATOM     82  C   UNL A   1      39.365  35.432  37.015  1.00  0.00     0.006 A 
ENDBRANCH  54  75
BRANCH  66  83
ATOM     83  C   UNL A   1      43.295  26.500  34.365  1.00  0.00     0.057 A 
ATOM     84  C   UNL A   1      44.587  26.008  34.174  1.00  0.00     0.134 A 
ATOM     85  C   UNL A   1      42.356  25.601  34.910  1.00  0.00     0.134 A 
ATOM     86  F   UNL A   1      45.525  26.740  33.556  1.00  0.00    -0.206 F 
ATOM     87  C   UNL A   1      44.949  24.728  34.591  1.00  0.00     0.040 A 
ATOM     88  C   UNL A   1      42.691  24.303  35.274  1.00  0.00     0.040 A 
ATOM     89  F   UNL A   1      41.082  25.950  35.138  1.00  0.00    -0.206 F 
ATOM     90  C   UNL A   1      44.000  23.872  35.142  1.00  0.00     0.006 A 
ENDBRANCH  66  83
ENDBRANCH  40  41
ENDBRANCH  33  35
ENDBRANCH  32  33
ENDBRANCH  31  32
ENDBRANCH  30  31
ENDBRANCH  29  30
ENDBRANCH  28  29
ENDBRANCH   1  28
TORSDOF 20
ENDMDL
MODEL 3
REMARK VINA RESULT:     -10.8      1.657      2.870
REMARK SMILES COc1ccc(NC(=O)N[C@@H]2C=C[C@H](C(=O)OCCOCCOCCOC(=O)c3ccc(-c4c5nc(c(-c6c(F)cccc6F)c6ccc([nH]6)c(-c6c(F)cccc6F)c6nc(c(-c7c(F)cccc7F)c7ccc4[nH]7)C=C6)C=C5)cc3)C2)c(C)c1
REMARK SMILES IDX 21 1 20 2 19 3 18 4 17 5 15 6 16 7 14 8 11 9 12 10 83 11
REMARK SMILES IDX 13 12 10 13 7 14 8 15 9 17 6 19 3 20 4 21 86 22 5 23 84 24
REMARK SMILES IDX 85 25 2 26 1 27 22 28 23 29 24 30 25 31 26 32 27 33 28 34
REMARK SMILES IDX 29 35 30 36 82 37 31 38 81 39 32 40 33 41 34 42 75 43 35 44
REMARK SMILES IDX 80 45 74 46 76 47 36 48 79 49 73 50 72 51 37 53 63 54 46 55
REMARK SMILES IDX 62 56 47 57 50 58 61 59 77 60 48 61 49 62 60 64 78 65 51 66
REMARK SMILES IDX 38 67 39 68 44 69 40 70 41 71 43 72 45 73 42 74 64 75 65 76
REMARK SMILES IDX 70 77 66 78 67 79 69 80 71 81 68 82 52 83 53 84 58 85 54 86
REMARK SMILES IDX 55 87 57 88 59 89 56 90
REMARK H PARENT 7 16 10 18 76 52 50 63
REMARK Flexibility Score: inf
ROOT
ATOM      1  C   UNL A   1      34.282  19.919  24.871  1.00  0.00     0.188 C 
ENDROOT
BRANCH   1   2
ATOM      2  O   UNL A   1      32.973  20.001  24.327  1.00  0.00    -0.376 OA
BRANCH   2   3
ATOM      3  C   UNL A   1      32.380  21.285  24.496  1.00  0.00     0.202 C 
BRANCH   3   4
ATOM      4  C   UNL A   1      31.965  22.027  23.222  1.00  0.00     0.261 C 
BRANCH   4   5
ATOM      5  O   UNL A   1      32.664  23.464  22.979  1.00  0.00    -0.463 OA
BRANCH   5   6
ATOM      6  C   UNL A   1      33.543  24.462  22.639  1.00  0.00     0.312 C 
ATOM      7  O   UNL A   1      34.717  24.213  22.933  1.00  0.00    -0.252 OA
BRANCH   6   8
ATOM      8  C   UNL A   1      33.205  25.925  22.006  1.00  0.00     0.124 C 
ATOM      9  C   UNL A   1      31.496  26.634  23.534  1.00  0.00     0.107 C 
ATOM     10  C   UNL A   1      30.876  26.443  22.200  1.00  0.00    -0.006 C 
ATOM     11  C   UNL A   1      32.850  26.995  22.984  1.00  0.00     0.048 C 
ATOM     12  C   UNL A   1      31.846  26.090  21.343  1.00  0.00    -0.014 C 
BRANCH   9  13
ATOM     13  N   UNL A   1      31.184  25.501  24.354  1.00  0.00    -0.332 N 
ATOM     14  N   UNL A   1      31.287  26.246  26.660  1.00  0.00    -0.308 N 
ATOM     15  C   UNL A   1      30.919  25.387  25.672  1.00  0.00     0.319 C 
ATOM     16  H   UNL A   1      30.818  26.065  27.508  1.00  0.00     0.171 HD
ATOM     17  O   UNL A   1      30.254  24.401  26.021  1.00  0.00    -0.248 OA
ATOM     18  H   UNL A   1      31.156  24.648  23.863  1.00  0.00     0.165 HD
BRANCH  14  19
ATOM     19  C   UNL A   1      32.177  27.333  26.760  1.00  0.00     0.046 A 
ATOM     20  C   UNL A   1      33.623  29.749  27.100  1.00  0.00     0.119 A 
ATOM     21  C   UNL A   1      32.266  29.743  27.169  1.00  0.00     0.048 A 
ATOM     22  C   UNL A   1      34.261  28.564  26.686  1.00  0.00     0.052 A 
ATOM     23  C   UNL A   1      31.741  28.491  27.322  1.00  0.00     0.030 A 
ATOM     24  C   UNL A   1      33.525  27.353  26.434  1.00  0.00    -0.024 A 
ATOM     25  C   UNL A   1      34.265  26.119  26.021  1.00  0.00     0.047 C 
BRANCH  20  26
ATOM     26  O   UNL A   1      34.335  30.823  27.564  1.00  0.00    -0.497 OA
ATOM     27  C   UNL A   1      33.531  32.020  27.689  1.00  0.00     0.278 C 
ENDBRANCH  20  26
ENDBRANCH  14  19
ENDBRANCH   9  13
ENDBRANCH   6   8
ENDBRANCH   5   6
ENDBRANCH   4   5
ENDBRANCH   3   4
ENDBRANCH   2   3
ENDBRANCH   1   2
BRANCH   1  28
ATOM     28  C   UNL A   1      34.924  21.302  25.048  1.00  0.00     0.188 C 
BRANCH  28  29
ATOM     29  O   UNL A   1      36.112  21.293  25.823  1.00  0.00    -0.376 OA
BRANCH  29  30
ATOM     30  C   UNL A   1      37.282  20.748  25.216  1.00  0.00     0.202 C 
BRANCH  30  31
ATOM     31  C   UNL A   1      38.421  21.741  25.413  1.00  0.00     0.261 C 
BRANCH  31  32
ATOM     32  O   UNL A   1      39.145  21.435  26.628  1.00  0.00    -0.460 OA
BRANCH  32  33
ATOM     33  C   UNL A   1      40.387  20.933  26.426  1.00  0.00     0.338 C 
ATOM     34  O   UNL A   1      40.634  19.788  26.057  1.00  0.00    -0.246 OA
BRANCH  33  35
ATOM     35  C   UNL A   1      41.403  21.911  26.905  1.00  0.00     0.060 A 
ATOM     36  C   UNL A   1      41.372  22.313  28.216  1.00  0.00     0.016 A 
ATOM     37  C   UNL A   1      42.300  22.573  26.051  1.00  0.00     0.016 A 
ATOM     38  C   UNL A   1      42.138  23.428  28.548  1.00  0.00     0.010 A 
ATOM     39  C   UNL A   1      42.829  23.838  26.406  1.00  0.00     0.010 A 
ATOM     40  C   UNL A   1      42.543  24.407  27.645  1.00  0.00    -0.014 A 
BRANCH  40  41
ATOM     41  C   UNL A   1      42.901  25.872  27.947  1.00  0.00     0.031 A 
ATOM     42  C   UNL A   1      41.806  26.826  27.635  1.00  0.00     0.074 A 
ATOM     43  C   UNL A   1      44.071  26.527  28.373  1.00  0.00     0.049 A 
ATOM     44  N   UNL A   1      41.932  28.113  27.626  1.00  0.00    -0.248 NA
ATOM     45  C   UNL A   1      40.464  26.399  27.201  1.00  0.00     0.031 C 
ATOM     46  C   UNL A   1      44.109  27.563  29.419  1.00  0.00     0.029 A 
ATOM     47  N   UNL A   1      45.475  26.341  28.267  1.00  0.00    -0.354 N 
ATOM     48  C   UNL A   1      40.653  28.557  27.836  1.00  0.00     0.074 A 
ATOM     49  C   UNL A   1      39.827  27.573  27.201  1.00  0.00     0.031 C 
ATOM     50  C   UNL A   1      45.377  27.979  29.649  1.00  0.00     0.029 A 
ATOM     51  C   UNL A   1      46.284  27.358  28.697  1.00  0.00     0.049 A 
ATOM     52  H   UNL A   1      45.854  25.511  27.899  1.00  0.00     0.167 HD
ATOM     53  C   UNL A   1      40.449  29.431  28.864  1.00  0.00     0.037 A 
ATOM     54  C   UNL A   1      47.368  27.856  28.005  1.00  0.00     0.037 A 
ATOM     55  C   UNL A   1      41.702  30.066  29.310  1.00  0.00     0.049 A 
ATOM     56  C   UNL A   1      47.039  29.294  27.681  1.00  0.00     0.074 A 
ATOM     57  C   UNL A   1      42.378  30.175  30.515  1.00  0.00     0.029 A 
ATOM     58  N   UNL A   1      42.577  30.569  28.355  1.00  0.00    -0.354 N 
ATOM     59  N   UNL A   1      45.869  29.770  27.986  1.00  0.00    -0.248 NA
ATOM     60  C   UNL A   1      47.842  30.282  26.966  1.00  0.00     0.031 C 
ATOM     61  C   UNL A   1      43.637  30.804  30.269  1.00  0.00     0.029 A 
ATOM     62  C   UNL A   1      43.717  31.093  28.918  1.00  0.00     0.049 A 
ATOM     63  H   UNL A   1      42.401  30.551  27.386  1.00  0.00     0.167 HD
ATOM     64  C   UNL A   1      45.772  31.071  27.657  1.00  0.00     0.074 A 
ATOM     65  C   UNL A   1      46.995  31.332  26.920  1.00  0.00     0.031 C 
ATOM     66  C   UNL A   1      44.679  31.774  28.058  1.00  0.00     0.037 A 
BRANCH  53  67
ATOM     67  C   UNL A   1      39.151  29.539  29.649  1.00  0.00     0.057 A 
ATOM     68  C   UNL A   1      38.851  28.567  30.625  1.00  0.00     0.134 A 
ATOM     69  C   UNL A   1      38.114  30.478  29.448  1.00  0.00     0.134 A 
ATOM     70  F   UNL A   1      39.728  27.608  30.953  1.00  0.00    -0.206 F 
ATOM     71  C   UNL A   1      37.632  28.519  31.314  1.00  0.00     0.040 A 
ATOM     72  C   UNL A   1      36.916  30.476  30.174  1.00  0.00     0.040 A 
ATOM     73  F   UNL A   1      38.156  31.429  28.511  1.00  0.00    -0.206 F 
ATOM     74  C   UNL A   1      36.663  29.485  31.102  1.00  0.00     0.006 A 
ENDBRANCH  53  67
BRANCH  54  75
ATOM     75  C   UNL A   1      48.267  26.953  27.183  1.00  0.00     0.057 A 
ATOM     76  C   UNL A   1      48.000  26.769  25.815  1.00  0.00     0.134 A 
ATOM     77  C   UNL A   1      49.452  26.346  27.614  1.00  0.00     0.134 A 
ATOM     78  F   UNL A   1      46.804  27.113  25.318  1.00  0.00    -0.206 F 
ATOM     79  C   UNL A   1      48.949  26.261  24.908  1.00  0.00     0.040 A 
ATOM     80  C   UNL A   1      50.451  25.912  26.713  1.00  0.00     0.040 A 
ATOM     81  F   UNL A   1      49.743  26.259  28.921  1.00  0.00    -0.206 F 
ATOM     82  C   UNL A   1      50.220  25.925  25.348  1.00  0.00     0.006 A 
ENDBRANCH  54  75
BRANCH  66  83
ATOM     83  C   UNL A   1      44.426  33.185  27.682  1.00  0.00     0.057 A 
ATOM     84  C   UNL A   1      44.062  33.576  26.393  1.00  0.00     0.134 A 
ATOM     85  C   UNL A   1      44.623  34.219  28.619  1.00  0.00     0.134 A 
ATOM     86  F   UNL A   1      43.963  32.684  25.397  1.00  0.00    -0.206 F 
ATOM     87  C   UNL A   1      43.811  34.912  26.079  1.00  0.00     0.040 A 
ATOM     88  C   UNL A   1      44.436  35.558  28.302  1.00  0.00     0.040 A 
ATOM     89  F   UNL A   1      44.980  33.975  29.888  1.00  0.00    -0.206 F 
ATOM     90  C   UNL A   1      43.999  35.906  27.034  1.00  0.00     0.006 A 
ENDBRANCH  66  83
ENDBRANCH  40  41
ENDBRANCH  33  35
ENDBRANCH  32  33
ENDBRANCH  31  32
ENDBRANCH  30  31
ENDBRANCH  29  30
ENDBRANCH  28  29
ENDBRANCH   1  28
TORSDOF 20
ENDMDL
