MODEL 1
REMARK VINA RESULT:     -11.3      0.000      0.000
REMARK SMILES CCc1ccnc(C(=O)c2[nH]c3ccc(OC(F)(F)F)cc3c2CC(=O)OCCOCCOCCOC(=O)c2ccc(-c3c4nc(c(-c5c(F)cccc5F)c5ccc([nH]5)c(-c5c(F)cccc5F)c5nc(c(-c6c(F)cccc6F)c6ccc3[nH]6)C=C5)C=C4)cc2)c1
REMARK SMILES IDX 31 1 30 2 29 3 28 4 27 5 25 6 26 7 24 8 23 9 10 10 11 11
REMARK SMILES IDX 12 12 22 14 13 15 21 16 14 17 15 18 8 19 9 20 7 21 3 22 4 23
REMARK SMILES IDX 93 24 5 25 6 26 2 27 1 28 16 29 17 30 18 31 19 32 20 33
REMARK SMILES IDX 32 34 33 35 34 36 35 37 36 38 37 39 38 40 39 41 40 42 92 43
REMARK SMILES IDX 41 44 91 45 42 46 43 47 44 48 85 49 45 50 90 51 84 52 86 53
REMARK SMILES IDX 46 54 89 55 83 56 82 57 47 59 73 60 56 61 72 62 57 63 60 64
REMARK SMILES IDX 71 65 87 66 58 67 59 68 70 70 88 71 61 72 48 73 49 74 54 75
REMARK SMILES IDX 50 76 51 77 53 78 55 79 52 80 74 81 75 82 80 83 76 84 77 85
REMARK SMILES IDX 79 86 81 87 78 88 62 89 63 90 68 91 64 92 65 93 67 94 69 95
REMARK SMILES IDX 66 96
REMARK H PARENT 11 13 86 58 60 69
REMARK Flexibility Score: inf
ROOT
ATOM      1  C   UNL A   1      34.404  32.928  27.840  1.00  0.00     0.188 C 
ENDROOT
BRANCH   1   2
ATOM      2  O   UNL A   1      34.031  31.557  27.901  1.00  0.00    -0.376 OA
BRANCH   2   3
ATOM      3  C   UNL A   1      32.884  31.147  27.170  1.00  0.00     0.202 C 
BRANCH   3   4
ATOM      4  C   UNL A   1      32.554  29.655  27.231  1.00  0.00     0.261 C 
BRANCH   4   5
ATOM      5  O   UNL A   1      33.601  28.822  26.679  1.00  0.00    -0.463 OA
BRANCH   5   6
ATOM      6  C   UNL A   1      33.210  27.599  26.241  1.00  0.00     0.310 C 
ATOM      7  O   UNL A   1      32.141  27.079  26.561  1.00  0.00    -0.252 OA
BRANCH   6   8
ATOM      8  C   UNL A   1      34.157  26.871  25.308  1.00  0.00     0.161 C 
BRANCH   8   9
ATOM      9  C   UNL A   1      33.649  26.128  24.092  1.00  0.00     0.000 A 
ATOM     10  C   UNL A   1      32.743  26.585  23.126  1.00  0.00     0.093 A 
ATOM     11  N   UNL A   1      32.593  25.575  22.202  1.00  0.00    -0.352 N 
ATOM     12  C   UNL A   1      33.050  24.394  22.726  1.00  0.00     0.046 A 
ATOM     13  H   UNL A   1      32.214  25.686  21.300  1.00  0.00     0.167 HD
ATOM     14  C   UNL A   1      33.746  24.709  23.888  1.00  0.00     0.008 A 
ATOM     15  C   UNL A   1      32.872  23.085  22.273  1.00  0.00     0.030 A 
ATOM     16  C   UNL A   1      34.285  23.652  24.646  1.00  0.00     0.057 A 
ATOM     17  C   UNL A   1      33.359  22.051  23.081  1.00  0.00     0.049 A 
ATOM     18  C   UNL A   1      34.040  22.323  24.266  1.00  0.00     0.130 A 
BRANCH  10  19
ATOM     19  C   UNL A   1      32.062  27.865  23.055  1.00  0.00     0.227 C 
ATOM     20  O   UNL A   1      32.658  28.911  22.809  1.00  0.00    -0.285 OA
BRANCH  19  21
ATOM     21  C   UNL A   1      30.601  27.945  23.355  1.00  0.00     0.113 A 
ATOM     22  C   UNL A   1      28.489  29.047  23.079  1.00  0.00    -0.044 A 
ATOM     23  C   UNL A   1      27.875  27.835  23.417  1.00  0.00     0.024 A 
ATOM     24  C   UNL A   1      29.891  29.103  23.070  1.00  0.00     0.036 A 
ATOM     25  C   UNL A   1      28.670  26.754  23.754  1.00  0.00     0.112 A 
ATOM     26  N   UNL A   1      30.017  26.790  23.745  1.00  0.00    -0.253 NA
BRANCH  22  27
ATOM     27  C   UNL A   1      27.636  30.245  22.743  1.00  0.00     0.032 C 
ATOM     28  C   UNL A   1      28.006  31.506  23.513  1.00  0.00     0.009 C 
ENDBRANCH  22  27
ENDBRANCH  19  21
ENDBRANCH  10  19
BRANCH  18  29
ATOM     29  O   UNL A   1      34.506  21.395  25.157  1.00  0.00    -0.406 OA
BRANCH  29  30
ATOM     30  C   UNL A   1      35.869  21.023  25.055  1.00  0.00     0.573 C 
ATOM     31  F   UNL A   1      36.018  19.682  24.996  1.00  0.00    -0.132 F 
ATOM     32  F   UNL A   1      36.440  21.587  23.970  1.00  0.00    -0.132 F 
ATOM     33  F   UNL A   1      36.522  21.467  26.152  1.00  0.00    -0.132 F 
ENDBRANCH  29  30
ENDBRANCH  18  29
ENDBRANCH   8   9
ENDBRANCH   6   8
ENDBRANCH   5   6
ENDBRANCH   4   5
ENDBRANCH   3   4
ENDBRANCH   2   3
ENDBRANCH   1   2
BRANCH   1  34
ATOM     34  C   UNL A   1      33.337  34.006  28.122  1.00  0.00     0.188 C 
BRANCH  34  35
ATOM     35  O   UNL A   1      33.646  35.081  28.999  1.00  0.00    -0.376 OA
BRANCH  35  36
ATOM     36  C   UNL A   1      33.352  34.898  30.377  1.00  0.00     0.202 C 
BRANCH  36  37
ATOM     37  C   UNL A   1      34.515  34.344  31.195  1.00  0.00     0.261 C 
BRANCH  37  38
ATOM     38  O   UNL A   1      34.562  32.909  31.099  1.00  0.00    -0.460 OA
BRANCH  38  39
ATOM     39  C   UNL A   1      35.371  32.322  32.009  1.00  0.00     0.338 C 
ATOM     40  O   UNL A   1      35.372  32.511  33.215  1.00  0.00    -0.246 OA
BRANCH  39  41
ATOM     41  C   UNL A   1      36.307  31.380  31.366  1.00  0.00     0.060 A 
ATOM     42  C   UNL A   1      36.888  30.349  32.097  1.00  0.00     0.016 A 
ATOM     43  C   UNL A   1      36.807  31.694  30.105  1.00  0.00     0.016 A 
ATOM     44  C   UNL A   1      38.068  29.748  31.654  1.00  0.00     0.010 A 
ATOM     45  C   UNL A   1      37.928  31.015  29.613  1.00  0.00     0.010 A 
ATOM     46  C   UNL A   1      38.618  30.088  30.414  1.00  0.00    -0.014 A 
BRANCH  46  47
ATOM     47  C   UNL A   1      39.944  29.559  29.983  1.00  0.00     0.031 A 
ATOM     48  C   UNL A   1      41.147  30.469  29.950  1.00  0.00     0.074 A 
ATOM     49  C   UNL A   1      40.092  28.270  29.619  1.00  0.00     0.049 A 
ATOM     50  N   UNL A   1      42.324  30.279  29.406  1.00  0.00    -0.248 NA
ATOM     51  C   UNL A   1      41.007  31.770  30.623  1.00  0.00     0.031 C 
ATOM     52  C   UNL A   1      39.054  27.243  29.688  1.00  0.00     0.029 A 
ATOM     53  N   UNL A   1      41.180  27.611  29.095  1.00  0.00    -0.354 N 
ATOM     54  C   UNL A   1      43.043  31.448  29.629  1.00  0.00     0.074 A 
ATOM     55  C   UNL A   1      42.173  32.344  30.361  1.00  0.00     0.031 C 
ATOM     56  C   UNL A   1      39.547  26.089  29.220  1.00  0.00     0.029 A 
ATOM     57  C   UNL A   1      40.898  26.320  28.721  1.00  0.00     0.049 A 
ATOM     58  H   UNL A   1      42.069  28.023  28.998  1.00  0.00     0.167 HD
ATOM     59  C   UNL A   1      44.305  31.754  29.243  1.00  0.00     0.037 A 
ATOM     60  C   UNL A   1      41.606  25.441  27.985  1.00  0.00     0.037 A 
ATOM     61  C   UNL A   1      45.168  30.861  28.512  1.00  0.00     0.049 A 
ATOM     62  C   UNL A   1      42.953  25.835  27.458  1.00  0.00     0.074 A 
ATOM     63  C   UNL A   1      46.460  31.078  28.066  1.00  0.00     0.029 A 
ATOM     64  N   UNL A   1      44.816  29.582  28.105  1.00  0.00    -0.354 N 
ATOM     65  N   UNL A   1      43.610  26.957  27.630  1.00  0.00    -0.248 NA
ATOM     66  C   UNL A   1      43.650  24.852  26.618  1.00  0.00     0.031 C 
ATOM     67  C   UNL A   1      46.864  29.957  27.331  1.00  0.00     0.029 A 
ATOM     68  C   UNL A   1      45.848  29.016  27.373  1.00  0.00     0.049 A 
ATOM     69  H   UNL A   1      43.959  29.142  28.305  1.00  0.00     0.167 HD
ATOM     70  C   UNL A   1      44.799  26.814  26.928  1.00  0.00     0.074 A 
ATOM     71  C   UNL A   1      44.780  25.489  26.342  1.00  0.00     0.031 C 
ATOM     72  C   UNL A   1      45.813  27.701  26.782  1.00  0.00     0.037 A 
BRANCH  59  73
ATOM     73  C   UNL A   1      44.799  33.141  29.537  1.00  0.00     0.057 A 
ATOM     74  C   UNL A   1      44.602  34.215  28.660  1.00  0.00     0.134 A 
ATOM     75  C   UNL A   1      45.486  33.404  30.731  1.00  0.00     0.134 A 
ATOM     76  F   UNL A   1      43.970  34.031  27.490  1.00  0.00    -0.206 F 
ATOM     77  C   UNL A   1      45.093  35.492  28.946  1.00  0.00     0.040 A 
ATOM     78  C   UNL A   1      45.959  34.680  31.040  1.00  0.00     0.040 A 
ATOM     79  F   UNL A   1      45.708  32.423  31.618  1.00  0.00    -0.206 F 
ATOM     80  C   UNL A   1      45.770  35.728  30.141  1.00  0.00     0.006 A 
ENDBRANCH  59  73
BRANCH  60  81
ATOM     81  C   UNL A   1      40.992  24.135  27.638  1.00  0.00     0.057 A 
ATOM     82  C   UNL A   1      40.000  24.030  26.659  1.00  0.00     0.134 A 
ATOM     83  C   UNL A   1      41.426  22.948  28.247  1.00  0.00     0.134 A 
ATOM     84  F   UNL A   1      39.523  25.131  26.060  1.00  0.00    -0.206 F 
ATOM     85  C   UNL A   1      39.470  22.792  26.288  1.00  0.00     0.040 A 
ATOM     86  C   UNL A   1      40.928  21.703  27.866  1.00  0.00     0.040 A 
ATOM     87  F   UNL A   1      42.373  22.983  29.196  1.00  0.00    -0.206 F 
ATOM     88  C   UNL A   1      39.945  21.624  26.883  1.00  0.00     0.006 A 
ENDBRANCH  60  81
BRANCH  72  89
ATOM     89  C   UNL A   1      46.997  27.260  25.973  1.00  0.00     0.057 A 
ATOM     90  C   UNL A   1      48.060  26.551  26.544  1.00  0.00     0.134 A 
ATOM     91  C   UNL A   1      47.059  27.525  24.598  1.00  0.00     0.134 A 
ATOM     92  F   UNL A   1      48.068  26.278  27.857  1.00  0.00    -0.206 F 
ATOM     93  C   UNL A   1      49.155  26.140  25.782  1.00  0.00     0.040 A 
ATOM     94  C   UNL A   1      48.136  27.097  23.821  1.00  0.00     0.040 A 
ATOM     95  F   UNL A   1      46.069  28.193  23.987  1.00  0.00    -0.206 F 
ATOM     96  C   UNL A   1      49.192  26.408  24.414  1.00  0.00     0.006 A 
ENDBRANCH  72  89
ENDBRANCH  46  47
ENDBRANCH  39  41
ENDBRANCH  38  39
ENDBRANCH  37  38
ENDBRANCH  36  37
ENDBRANCH  35  36
ENDBRANCH  34  35
ENDBRANCH   1  34
TORSDOF 23
ENDMDL
MODEL 2
REMARK VINA RESULT:     -11.3      4.668      9.418
REMARK SMILES CCc1ccnc(C(=O)c2[nH]c3ccc(OC(F)(F)F)cc3c2CC(=O)OCCOCCOCCOC(=O)c2ccc(-c3c4nc(c(-c5c(F)cccc5F)c5ccc([nH]5)c(-c5c(F)cccc5F)c5nc(c(-c6c(F)cccc6F)c6ccc3[nH]6)C=C5)C=C4)cc2)c1
REMARK SMILES IDX 31 1 30 2 29 3 28 4 27 5 25 6 26 7 24 8 23 9 10 10 11 11
REMARK SMILES IDX 12 12 22 14 13 15 21 16 14 17 15 18 8 19 9 20 7 21 3 22 4 23
REMARK SMILES IDX 93 24 5 25 6 26 2 27 1 28 16 29 17 30 18 31 19 32 20 33
REMARK SMILES IDX 32 34 33 35 34 36 35 37 36 38 37 39 38 40 39 41 40 42 92 43
REMARK SMILES IDX 41 44 91 45 42 46 43 47 44 48 85 49 45 50 90 51 84 52 86 53
REMARK SMILES IDX 46 54 89 55 83 56 82 57 47 59 73 60 56 61 72 62 57 63 60 64
REMARK SMILES IDX 71 65 87 66 58 67 59 68 70 70 88 71 61 72 48 73 49 74 54 75
REMARK SMILES IDX 50 76 51 77 53 78 55 79 52 80 74 81 75 82 80 83 76 84 77 85
REMARK SMILES IDX 79 86 81 87 78 88 62 89 63 90 68 91 64 92 65 93 67 94 69 95
REMARK SMILES IDX 66 96
REMARK H PARENT 11 13 86 58 60 69
REMARK Flexibility Score: inf
ROOT
ATOM      1  C   UNL A   1      40.583  20.412  27.018  1.00  0.00     0.188 C 
ENDROOT
BRANCH   1   2
ATOM      2  O   UNL A   1      40.196  21.532  26.232  1.00  0.00    -0.376 OA
BRANCH   2   3
ATOM      3  C   UNL A   1      38.810  21.821  26.125  1.00  0.00     0.202 C 
BRANCH   3   4
ATOM      4  C   UNL A   1      38.441  23.305  26.083  1.00  0.00     0.261 C 
BRANCH   4   5
ATOM      5  O   UNL A   1      37.064  23.555  26.454  1.00  0.00    -0.463 OA
BRANCH   5   6
ATOM      6  C   UNL A   1      36.128  23.081  25.594  1.00  0.00     0.310 C 
ATOM      7  O   UNL A   1      36.055  23.433  24.416  1.00  0.00    -0.252 OA
BRANCH   6   8
ATOM      8  C   UNL A   1      35.147  22.064  26.143  1.00  0.00     0.161 C 
BRANCH   8   9
ATOM      9  C   UNL A   1      33.977  21.574  25.319  1.00  0.00     0.000 A 
ATOM     10  C   UNL A   1      32.684  22.110  25.264  1.00  0.00     0.093 A 
ATOM     11  N   UNL A   1      31.967  21.347  24.370  1.00  0.00    -0.352 N 
ATOM     12  C   UNL A   1      32.610  20.157  24.154  1.00  0.00     0.046 A 
ATOM     13  H   UNL A   1      31.118  21.618  23.950  1.00  0.00     0.167 HD
ATOM     14  C   UNL A   1      33.883  20.280  24.702  1.00  0.00     0.008 A 
ATOM     15  C   UNL A   1      32.150  18.988  23.544  1.00  0.00     0.030 A 
ATOM     16  C   UNL A   1      34.739  19.163  24.648  1.00  0.00     0.057 A 
ATOM     17  C   UNL A   1      32.996  17.874  23.564  1.00  0.00     0.049 A 
ATOM     18  C   UNL A   1      34.269  17.947  24.127  1.00  0.00     0.130 A 
BRANCH  10  19
ATOM     19  C   UNL A   1      32.145  23.251  25.983  1.00  0.00     0.227 C 
ATOM     20  O   UNL A   1      31.468  23.123  27.001  1.00  0.00    -0.285 OA
BRANCH  19  21
ATOM     21  C   UNL A   1      32.351  24.630  25.447  1.00  0.00     0.113 A 
ATOM     22  C   UNL A   1      32.879  26.938  25.823  1.00  0.00    -0.044 A 
ATOM     23  C   UNL A   1      33.262  27.012  24.479  1.00  0.00     0.024 A 
ATOM     24  C   UNL A   1      32.391  25.717  26.310  1.00  0.00     0.036 A 
ATOM     25  C   UNL A   1      33.119  25.892  23.680  1.00  0.00     0.112 A 
ATOM     26  N   UNL A   1      32.656  24.710  24.132  1.00  0.00    -0.253 NA
BRANCH  22  27
ATOM     27  C   UNL A   1      32.996  28.161  26.698  1.00  0.00     0.032 C 
ATOM     28  C   UNL A   1      31.811  28.373  27.631  1.00  0.00     0.009 C 
ENDBRANCH  22  27
ENDBRANCH  19  21
ENDBRANCH  10  19
BRANCH  18  29
ATOM     29  O   UNL A   1      35.154  16.910  24.254  1.00  0.00    -0.406 OA
BRANCH  29  30
ATOM     30  C   UNL A   1      34.973  16.033  25.352  1.00  0.00     0.573 C 
ATOM     31  F   UNL A   1      33.960  16.434  26.150  1.00  0.00    -0.132 F 
ATOM     32  F   UNL A   1      34.737  14.774  24.926  1.00  0.00    -0.132 F 
ATOM     33  F   UNL A   1      36.106  16.023  26.089  1.00  0.00    -0.132 F 
ENDBRANCH  29  30
ENDBRANCH  18  29
ENDBRANCH   8   9
ENDBRANCH   6   8
ENDBRANCH   5   6
ENDBRANCH   4   5
ENDBRANCH   3   4
ENDBRANCH   2   3
ENDBRANCH   1   2
BRANCH   1  34
ATOM     34  C   UNL A   1      41.596  19.403  26.435  1.00  0.00     0.188 C 
BRANCH  34  35
ATOM     35  O   UNL A   1      42.356  19.761  25.289  1.00  0.00    -0.376 OA
BRANCH  35  36
ATOM     36  C   UNL A   1      43.740  20.022  25.484  1.00  0.00     0.202 C 
BRANCH  36  37
ATOM     37  C   UNL A   1      44.159  21.450  25.149  1.00  0.00     0.261 C 
BRANCH  37  38
ATOM     38  O   UNL A   1      43.271  22.397  25.771  1.00  0.00    -0.460 OA
BRANCH  38  39
ATOM     39  C   UNL A   1      43.385  23.656  25.292  1.00  0.00     0.338 C 
ATOM     40  O   UNL A   1      44.046  24.015  24.331  1.00  0.00    -0.246 OA
BRANCH  39  41
ATOM     41  C   UNL A   1      42.592  24.608  26.094  1.00  0.00     0.060 A 
ATOM     42  C   UNL A   1      42.542  25.955  25.748  1.00  0.00     0.016 A 
ATOM     43  C   UNL A   1      42.121  24.202  27.339  1.00  0.00     0.016 A 
ATOM     44  C   UNL A   1      42.189  26.915  26.698  1.00  0.00     0.010 A 
ATOM     45  C   UNL A   1      41.664  25.156  28.255  1.00  0.00     0.010 A 
ATOM     46  C   UNL A   1      41.765  26.531  27.974  1.00  0.00    -0.014 A 
BRANCH  46  47
ATOM     47  C   UNL A   1      41.512  27.538  29.044  1.00  0.00     0.031 A 
ATOM     48  C   UNL A   1      42.340  27.527  30.305  1.00  0.00     0.074 A 
ATOM     49  C   UNL A   1      40.550  28.471  28.905  1.00  0.00     0.049 A 
ATOM     50  N   UNL A   1      42.147  28.157  31.437  1.00  0.00    -0.248 NA
ATOM     51  C   UNL A   1      43.552  26.692  30.289  1.00  0.00     0.031 C 
ATOM     52  C   UNL A   1      39.732  28.676  27.711  1.00  0.00     0.029 A 
ATOM     53  N   UNL A   1      40.084  29.411  29.795  1.00  0.00    -0.354 N 
ATOM     54  C   UNL A   1      43.180  27.762  32.278  1.00  0.00     0.074 A 
ATOM     55  C   UNL A   1      44.003  26.837  31.527  1.00  0.00     0.031 C 
ATOM     56  C   UNL A   1      38.861  29.669  27.941  1.00  0.00     0.029 A 
ATOM     57  C   UNL A   1      38.989  30.097  29.329  1.00  0.00     0.049 A 
ATOM     58  H   UNL A   1      40.493  29.574  30.675  1.00  0.00     0.167 HD
ATOM     59  C   UNL A   1      43.413  28.121  33.563  1.00  0.00     0.037 A 
ATOM     60  C   UNL A   1      38.127  30.916  29.962  1.00  0.00     0.037 A 
ATOM     61  C   UNL A   1      42.590  29.039  34.310  1.00  0.00     0.049 A 
ATOM     62  C   UNL A   1      38.323  31.210  31.420  1.00  0.00     0.074 A 
ATOM     63  C   UNL A   1      42.734  29.462  35.620  1.00  0.00     0.029 A 
ATOM     64  N   UNL A   1      41.457  29.666  33.812  1.00  0.00    -0.354 N 
ATOM     65  N   UNL A   1      39.272  30.796  32.224  1.00  0.00    -0.248 NA
ATOM     66  C   UNL A   1      37.318  32.066  32.064  1.00  0.00     0.031 C 
ATOM     67  C   UNL A   1      41.651  30.290  35.935  1.00  0.00     0.029 A 
ATOM     68  C   UNL A   1      40.865  30.435  34.802  1.00  0.00     0.049 A 
ATOM     69  H   UNL A   1      41.121  29.576  32.891  1.00  0.00     0.167 HD
ATOM     70  C   UNL A   1      38.986  31.347  33.466  1.00  0.00     0.074 A 
ATOM     71  C   UNL A   1      37.783  32.138  33.304  1.00  0.00     0.031 C 
ATOM     72  C   UNL A   1      39.660  31.207  34.634  1.00  0.00     0.037 A 
BRANCH  59  73
ATOM     73  C   UNL A   1      44.559  27.455  34.270  1.00  0.00     0.057 A 
ATOM     74  C   UNL A   1      45.840  28.019  34.329  1.00  0.00     0.134 A 
ATOM     75  C   UNL A   1      44.369  26.222  34.910  1.00  0.00     0.134 A 
ATOM     76  F   UNL A   1      46.097  29.188  33.722  1.00  0.00    -0.206 F 
ATOM     77  C   UNL A   1      46.895  27.368  34.973  1.00  0.00     0.040 A 
ATOM     78  C   UNL A   1      45.409  25.574  35.577  1.00  0.00     0.040 A 
ATOM     79  F   UNL A   1      43.167  25.627  34.895  1.00  0.00    -0.206 F 
ATOM     80  C   UNL A   1      46.680  26.143  35.603  1.00  0.00     0.006 A 
ENDBRANCH  59  73
BRANCH  60  81
ATOM     81  C   UNL A   1      36.950  31.434  29.221  1.00  0.00     0.057 A 
ATOM     82  C   UNL A   1      36.900  32.749  28.753  1.00  0.00     0.134 A 
ATOM     83  C   UNL A   1      35.863  30.599  28.919  1.00  0.00     0.134 A 
ATOM     84  F   UNL A   1      37.894  33.604  29.033  1.00  0.00    -0.206 F 
ATOM     85  C   UNL A   1      35.819  33.215  28.001  1.00  0.00     0.040 A 
ATOM     86  C   UNL A   1      34.792  31.041  28.143  1.00  0.00     0.040 A 
ATOM     87  F   UNL A   1      35.850  29.326  29.342  1.00  0.00    -0.206 F 
ATOM     88  C   UNL A   1      34.769  32.355  27.683  1.00  0.00     0.006 A 
ENDBRANCH  60  81
BRANCH  72  89
ATOM     89  C   UNL A   1      39.122  31.942  35.826  1.00  0.00     0.057 A 
ATOM     90  C   UNL A   1      38.222  31.346  36.718  1.00  0.00     0.134 A 
ATOM     91  C   UNL A   1      39.531  33.254  36.099  1.00  0.00     0.134 A 
ATOM     92  F   UNL A   1      37.780  30.098  36.505  1.00  0.00    -0.206 F 
ATOM     93  C   UNL A   1      37.731  32.036  37.828  1.00  0.00     0.040 A 
ATOM     94  C   UNL A   1      39.067  33.945  37.219  1.00  0.00     0.040 A 
ATOM     95  F   UNL A   1      40.398  33.881  35.288  1.00  0.00    -0.206 F 
ATOM     96  C   UNL A   1      38.159  33.338  38.084  1.00  0.00     0.006 A 
ENDBRANCH  72  89
ENDBRANCH  46  47
ENDBRANCH  39  41
ENDBRANCH  38  39
ENDBRANCH  37  38
ENDBRANCH  36  37
ENDBRANCH  35  36
ENDBRANCH  34  35
ENDBRANCH   1  34
TORSDOF 23
ENDMDL
MODEL 3
REMARK VINA RESULT:     -11.1      2.591      4.545
REMARK SMILES CCc1ccnc(C(=O)c2[nH]c3ccc(OC(F)(F)F)cc3c2CC(=O)OCCOCCOCCOC(=O)c2ccc(-c3c4nc(c(-c5c(F)cccc5F)c5ccc([nH]5)c(-c5c(F)cccc5F)c5nc(c(-c6c(F)cccc6F)c6ccc3[nH]6)C=C5)C=C4)cc2)c1
REMARK SMILES IDX 31 1 30 2 29 3 28 4 27 5 25 6 26 7 24 8 23 9 10 10 11 11
REMARK SMILES IDX 12 12 22 14 13 15 21 16 14 17 15 18 8 19 9 20 7 21 3 22 4 23
REMARK SMILES IDX 93 24 5 25 6 26 2 27 1 28 16 29 17 30 18 31 19 32 20 33
REMARK SMILES IDX 32 34 33 35 34 36 35 37 36 38 37 39 38 40 39 41 40 42 92 43
REMARK SMILES IDX 41 44 91 45 42 46 43 47 44 48 85 49 45 50 90 51 84 52 86 53
REMARK SMILES IDX 46 54 89 55 83 56 82 57 47 59 73 60 56 61 72 62 57 63 60 64
REMARK SMILES IDX 71 65 87 66 58 67 59 68 70 70 88 71 61 72 48 73 49 74 54 75
REMARK SMILES IDX 50 76 51 77 53 78 55 79 52 80 74 81 75 82 80 83 76 84 77 85
REMARK SMILES IDX 79 86 81 87 78 88 62 89 63 90 68 91 64 92 65 93 67 94 69 95
REMARK SMILES IDX 66 96
REMARK H PARENT 11 13 86 58 60 69
REMARK Flexibility Score: inf
ROOT
ATOM      1  C   UNL A   1      34.693  34.907  28.264  1.00  0.00     0.188 C 
ENDROOT
BRANCH   1   2
ATOM      2  O   UNL A   1      34.683  33.673  27.557  1.00  0.00    -0.376 OA
BRANCH   2   3
ATOM      3  C   UNL A   1      34.103  32.546  28.197  1.00  0.00     0.202 C 
BRANCH   3   4
ATOM      4  C   UNL A   1      34.418  31.188  27.567  1.00  0.00     0.261 C 
BRANCH   4   5
ATOM      5  O   UNL A   1      33.298  30.629  26.840  1.00  0.00    -0.463 OA
BRANCH   5   6
ATOM      6  C   UNL A   1      33.356  29.293  26.607  1.00  0.00     0.310 C 
ATOM      7  O   UNL A   1      33.708  28.476  27.458  1.00  0.00    -0.252 OA
BRANCH   6   8
ATOM      8  C   UNL A   1      32.950  28.822  25.225  1.00  0.00     0.161 C 
BRANCH   8   9
ATOM      9  C   UNL A   1      31.736  27.943  25.017  1.00  0.00     0.000 A 
ATOM     10  C   UNL A   1      31.656  26.550  25.135  1.00  0.00     0.093 A 
ATOM     11  N   UNL A   1      30.353  26.195  24.871  1.00  0.00    -0.352 N 
ATOM     12  C   UNL A   1      29.711  27.224  24.234  1.00  0.00     0.046 A 
ATOM     13  H   UNL A   1      29.944  25.330  25.105  1.00  0.00     0.167 HD
ATOM     14  C   UNL A   1      30.532  28.341  24.340  1.00  0.00     0.008 A 
ATOM     15  C   UNL A   1      28.489  27.235  23.556  1.00  0.00     0.030 A 
ATOM     16  C   UNL A   1      30.113  29.535  23.721  1.00  0.00     0.057 A 
ATOM     17  C   UNL A   1      28.130  28.415  22.894  1.00  0.00     0.049 A 
ATOM     18  C   UNL A   1      28.937  29.549  22.954  1.00  0.00     0.130 A 
BRANCH  10  19
ATOM     19  C   UNL A   1      32.708  25.608  25.471  1.00  0.00     0.227 C 
ATOM     20  O   UNL A   1      33.093  25.440  26.626  1.00  0.00    -0.285 OA
BRANCH  19  21
ATOM     21  C   UNL A   1      33.406  24.856  24.384  1.00  0.00     0.113 A 
ATOM     22  C   UNL A   1      35.288  23.574  23.634  1.00  0.00    -0.044 A 
ATOM     23  C   UNL A   1      34.458  23.040  22.641  1.00  0.00     0.024 A 
ATOM     24  C   UNL A   1      34.747  24.523  24.514  1.00  0.00     0.036 A 
ATOM     25  C   UNL A   1      33.152  23.488  22.549  1.00  0.00     0.112 A 
ATOM     26  N   UNL A   1      32.616  24.395  23.389  1.00  0.00    -0.253 NA
BRANCH  22  27
ATOM     27  C   UNL A   1      36.724  23.122  23.726  1.00  0.00     0.032 C 
ATOM     28  C   UNL A   1      36.893  21.685  24.204  1.00  0.00     0.009 C 
ENDBRANCH  22  27
ENDBRANCH  19  21
ENDBRANCH  10  19
BRANCH  18  29
ATOM     29  O   UNL A   1      28.715  30.731  22.301  1.00  0.00    -0.406 OA
BRANCH  29  30
ATOM     30  C   UNL A   1      28.544  31.890  23.098  1.00  0.00     0.573 C 
ATOM     31  F   UNL A   1      29.351  31.875  24.181  1.00  0.00    -0.132 F 
ATOM     32  F   UNL A   1      28.781  33.006  22.377  1.00  0.00    -0.132 F 
ATOM     33  F   UNL A   1      27.265  31.933  23.531  1.00  0.00    -0.132 F 
ENDBRANCH  29  30
ENDBRANCH  18  29
ENDBRANCH   8   9
ENDBRANCH   6   8
ENDBRANCH   5   6
ENDBRANCH   4   5
ENDBRANCH   3   4
ENDBRANCH   2   3
ENDBRANCH   1   2
BRANCH   1  34
ATOM     34  C   UNL A   1      33.434  35.328  29.050  1.00  0.00     0.188 C 
BRANCH  34  35
ATOM     35  O   UNL A   1      33.580  36.031  30.278  1.00  0.00    -0.376 OA
BRANCH  35  36
ATOM     36  C   UNL A   1      33.491  35.269  31.474  1.00  0.00     0.202 C 
BRANCH  36  37
ATOM     37  C   UNL A   1      34.830  34.737  31.976  1.00  0.00     0.261 C 
BRANCH  37  38
ATOM     38  O   UNL A   1      35.080  33.421  31.450  1.00  0.00    -0.460 OA
BRANCH  38  39
ATOM     39  C   UNL A   1      35.721  32.596  32.308  1.00  0.00     0.338 C 
ATOM     40  O   UNL A   1      35.613  32.581  33.523  1.00  0.00    -0.246 OA
BRANCH  39  41
ATOM     41  C   UNL A   1      36.617  31.668  31.592  1.00  0.00     0.060 A 
ATOM     42  C   UNL A   1      37.139  30.550  32.235  1.00  0.00     0.016 A 
ATOM     43  C   UNL A   1      37.144  32.062  30.366  1.00  0.00     0.016 A 
ATOM     44  C   UNL A   1      38.293  29.932  31.750  1.00  0.00     0.010 A 
ATOM     45  C   UNL A   1      38.235  31.374  29.824  1.00  0.00     0.010 A 
ATOM     46  C   UNL A   1      38.871  30.348  30.547  1.00  0.00    -0.014 A 
BRANCH  46  47
ATOM     47  C   UNL A   1      40.174  29.793  30.079  1.00  0.00     0.031 A 
ATOM     48  C   UNL A   1      41.396  30.678  30.021  1.00  0.00     0.074 A 
ATOM     49  C   UNL A   1      40.285  28.504  29.706  1.00  0.00     0.049 A 
ATOM     50  N   UNL A   1      42.554  30.465  29.447  1.00  0.00    -0.248 NA
ATOM     51  C   UNL A   1      41.301  31.977  30.704  1.00  0.00     0.031 C 
ATOM     52  C   UNL A   1      39.227  27.499  29.796  1.00  0.00     0.029 A 
ATOM     53  N   UNL A   1      41.344  27.824  29.151  1.00  0.00    -0.354 N 
ATOM     54  C   UNL A   1      43.303  31.616  29.658  1.00  0.00     0.074 A 
ATOM     55  C   UNL A   1      42.472  32.527  30.416  1.00  0.00     0.031 C 
ATOM     56  C   UNL A   1      39.683  26.337  29.309  1.00  0.00     0.029 A 
ATOM     57  C   UNL A   1      41.025  26.541  28.778  1.00  0.00     0.049 A 
ATOM     58  H   UNL A   1      42.240  28.217  29.034  1.00  0.00     0.167 HD
ATOM     59  C   UNL A   1      44.562  31.897  29.242  1.00  0.00     0.037 A 
ATOM     60  C   UNL A   1      41.695  25.651  28.020  1.00  0.00     0.037 A 
ATOM     61  C   UNL A   1      45.387  30.989  28.485  1.00  0.00     0.049 A 
ATOM     62  C   UNL A   1      43.037  26.020  27.461  1.00  0.00     0.074 A 
ATOM     63  C   UNL A   1      46.672  31.181  28.008  1.00  0.00     0.029 A 
ATOM     64  N   UNL A   1      44.997  29.721  28.080  1.00  0.00    -0.354 N 
ATOM     65  N   UNL A   1      43.722  27.126  27.622  1.00  0.00    -0.248 NA
ATOM     66  C   UNL A   1      43.691  25.026  26.600  1.00  0.00     0.031 C 
ATOM     67  C   UNL A   1      47.033  30.056  27.258  1.00  0.00     0.029 A 
ATOM     68  C   UNL A   1      45.998  29.137  27.320  1.00  0.00     0.049 A 
ATOM     69  H   UNL A   1      44.135  29.298  28.300  1.00  0.00     0.167 HD
ATOM     70  C   UNL A   1      44.890  26.961  26.890  1.00  0.00     0.074 A 
ATOM     71  C   UNL A   1      44.827  25.639  26.298  1.00  0.00     0.031 C 
ATOM     72  C   UNL A   1      45.919  27.826  26.723  1.00  0.00     0.037 A 
BRANCH  59  73
ATOM     73  C   UNL A   1      45.094  33.272  29.530  1.00  0.00     0.057 A 
ATOM     74  C   UNL A   1      44.862  34.364  28.685  1.00  0.00     0.134 A 
ATOM     75  C   UNL A   1      45.853  33.503  30.687  1.00  0.00     0.134 A 
ATOM     76  F   UNL A   1      44.160  34.211  27.552  1.00  0.00    -0.206 F 
ATOM     77  C   UNL A   1      45.388  35.628  28.965  1.00  0.00     0.040 A 
ATOM     78  C   UNL A   1      46.363  34.766  30.989  1.00  0.00     0.040 A 
ATOM     79  F   UNL A   1      46.111  32.503  31.542  1.00  0.00    -0.206 F 
ATOM     80  C   UNL A   1      46.137  35.833  30.122  1.00  0.00     0.006 A 
ENDBRANCH  59  73
BRANCH  60  81
ATOM     81  C   UNL A   1      41.044  24.361  27.681  1.00  0.00     0.057 A 
ATOM     82  C   UNL A   1      40.042  24.279  26.711  1.00  0.00     0.134 A 
ATOM     83  C   UNL A   1      41.452  23.165  28.291  1.00  0.00     0.134 A 
ATOM     84  F   UNL A   1      39.589  25.391  26.113  1.00  0.00    -0.206 F 
ATOM     85  C   UNL A   1      39.476  23.055  26.348  1.00  0.00     0.040 A 
ATOM     86  C   UNL A   1      40.918  21.932  27.917  1.00  0.00     0.040 A 
ATOM     87  F   UNL A   1      42.408  23.177  29.231  1.00  0.00    -0.206 F 
ATOM     88  C   UNL A   1      39.925  21.876  26.943  1.00  0.00     0.006 A 
ENDBRANCH  60  81
BRANCH  72  89
ATOM     89  C   UNL A   1      47.073  27.364  25.883  1.00  0.00     0.057 A 
ATOM     90  C   UNL A   1      47.121  27.597  24.502  1.00  0.00     0.134 A 
ATOM     91  C   UNL A   1      48.162  26.703  26.467  1.00  0.00     0.134 A 
ATOM     92  F   UNL A   1      46.104  28.212  23.880  1.00  0.00    -0.206 F 
ATOM     93  C   UNL A   1      48.201  27.168  23.729  1.00  0.00     0.040 A 
ATOM     94  C   UNL A   1      49.258  26.293  25.708  1.00  0.00     0.040 A 
ATOM     95  F   UNL A   1      48.181  26.456  27.785  1.00  0.00    -0.206 F 
ATOM     96  C   UNL A   1      49.277  26.519  24.333  1.00  0.00     0.006 A 
ENDBRANCH  72  89
ENDBRANCH  46  47
ENDBRANCH  39  41
ENDBRANCH  38  39
ENDBRANCH  37  38
ENDBRANCH  36  37
ENDBRANCH  35  36
ENDBRANCH  34  35
ENDBRANCH   1  34
TORSDOF 23
ENDMDL
