MODEL 1
REMARK VINA RESULT:     -11.7      0.000      0.000
REMARK SMILES CC(C)C[C@H](C(=O)OCCOCCOCCOC(=O)c1ccc(-c2c3nc(c(-c4c(F)cccc4F)c4ccc([nH]4)c(-c4c(F)cccc4F)c4nc(c(-c5c(F)cccc5F)c5ccc2[nH]5)C=C4)C=C3)cc1)N1C(=O)/C(=C2\C(=O)Nc3ccc(Br)cc32)SC1=S
REMARK SMILES IDX 12 1 11 2 10 3 9 4 8 5 6 6 7 7 5 8 4 9 2 10 1 11 3 12 74 13
REMARK SMILES IDX 75 14 90 15 76 16 77 17 89 18 91 19 78 20 79 21 88 22 80 23
REMARK SMILES IDX 81 24 82 25 87 26 83 28 85 29 84 30 86 31 13 32 14 33 15 34
REMARK SMILES IDX 16 35 17 36 18 37 19 38 20 39 21 40 73 41 22 42 72 43 23 44
REMARK SMILES IDX 24 45 25 46 66 47 26 48 71 49 65 50 67 51 27 52 70 53 64 54
REMARK SMILES IDX 63 55 28 57 54 58 37 59 53 60 38 61 41 62 52 63 68 64 39 65
REMARK SMILES IDX 40 66 51 68 69 69 42 70 29 71 30 72 35 73 31 74 32 75 34 76
REMARK SMILES IDX 36 77 33 78 55 79 56 80 61 81 57 82 58 83 60 84 62 85 59 86
REMARK SMILES IDX 43 87 44 88 49 89 45 90 46 91 48 92 50 93 47 94
REMARK H PARENT 81 27 67 56 41 67
REMARK Flexibility Score: inf
ROOT
ATOM      1  C   UNL A   1      34.249  32.780  28.023  1.00  0.00     0.188 C 
ENDROOT
BRANCH   1   2
ATOM      2  O   UNL A   1      33.552  31.574  27.747  1.00  0.00    -0.376 OA
BRANCH   2   3
ATOM      3  C   UNL A   1      34.273  30.432  27.291  1.00  0.00     0.202 C 
BRANCH   3   4
ATOM      4  C   UNL A   1      33.518  29.099  27.208  1.00  0.00     0.261 C 
BRANCH   4   5
ATOM      5  O   UNL A   1      32.327  29.137  26.392  1.00  0.00    -0.462 OA
BRANCH   5   6
ATOM      6  C   UNL A   1      31.679  27.956  26.191  1.00  0.00     0.329 C 
ATOM      7  O   UNL A   1      31.561  27.070  27.032  1.00  0.00    -0.250 OA
BRANCH   6   8
ATOM      8  C   UNL A   1      31.105  27.811  24.755  1.00  0.00     0.202 C 
BRANCH   8   9
ATOM      9  C   UNL A   1      31.005  29.100  23.877  1.00  0.00     0.040 C 
BRANCH   9  10
ATOM     10  C   UNL A   1      29.586  29.414  23.326  1.00  0.00    -0.015 C 
ATOM     11  C   UNL A   1      29.575  30.125  21.973  1.00  0.00     0.007 C 
ATOM     12  C   UNL A   1      28.763  28.129  23.171  1.00  0.00     0.007 C 
ENDBRANCH   9  10
ENDBRANCH   8   9
BRANCH   8  13
ATOM     13  N   UNL A   1      31.813  26.767  23.999  1.00  0.00    -0.278 N 
ATOM     14  C   UNL A   1      31.389  25.471  24.161  1.00  0.00     0.267 C 
ATOM     15  C   UNL A   1      33.019  26.893  23.356  1.00  0.00     0.149 C 
ATOM     16  O   UNL A   1      30.232  25.099  24.061  1.00  0.00    -0.268 OA
ATOM     17  C   UNL A   1      32.553  24.569  24.230  1.00  0.00     0.093 C 
ATOM     18  S   UNL A   1      33.862  25.335  23.414  1.00  0.00    -0.053 SA
ATOM     19  S   UNL A   1      33.671  28.251  22.646  1.00  0.00    -0.052 S 
ATOM     20  C   UNL A   1      32.489  23.373  24.823  1.00  0.00     0.069 C 
ATOM     21  C   UNL A   1      31.232  22.858  25.485  1.00  0.00     0.257 C 
ATOM     22  C   UNL A   1      33.445  22.264  24.852  1.00  0.00     0.013 A 
ATOM     23  O   UNL A   1      30.350  23.484  26.039  1.00  0.00    -0.269 OA
ATOM     24  N   UNL A   1      31.379  21.486  25.493  1.00  0.00    -0.321 N 
ATOM     25  C   UNL A   1      32.682  21.129  25.167  1.00  0.00     0.049 A 
ATOM     26  C   UNL A   1      34.817  22.163  24.727  1.00  0.00     0.026 A 
ATOM     27  H   UNL A   1      30.659  20.848  25.701  1.00  0.00     0.170 HD
ATOM     28  C   UNL A   1      33.216  19.864  25.255  1.00  0.00     0.028 A 
ATOM     29  C   UNL A   1      35.385  20.891  24.866  1.00  0.00     0.018 A 
ATOM     30  C   UNL A   1      34.595  19.748  25.096  1.00  0.00     0.018 A 
ATOM     31  Br  UNL A   1      37.267  20.704  24.791  1.00  0.00    -0.051 Br
ENDBRANCH   8  13
ENDBRANCH   6   8
ENDBRANCH   5   6
ENDBRANCH   4   5
ENDBRANCH   3   4
ENDBRANCH   2   3
ENDBRANCH   1   2
BRANCH   1  32
ATOM     32  C   UNL A   1      33.445  34.029  28.388  1.00  0.00     0.188 C 
BRANCH  32  33
ATOM     33  O   UNL A   1      34.156  34.964  29.170  1.00  0.00    -0.376 OA
BRANCH  33  34
ATOM     34  C   UNL A   1      33.634  35.230  30.462  1.00  0.00     0.202 C 
BRANCH  34  35
ATOM     35  C   UNL A   1      34.191  34.286  31.539  1.00  0.00     0.261 C 
BRANCH  35  36
ATOM     36  O   UNL A   1      35.468  33.689  31.229  1.00  0.00    -0.460 OA
BRANCH  36  37
ATOM     37  C   UNL A   1      35.976  32.835  32.154  1.00  0.00     0.338 C 
ATOM     38  O   UNL A   1      35.532  32.603  33.256  1.00  0.00    -0.246 OA
BRANCH  37  39
ATOM     39  C   UNL A   1      37.024  32.022  31.490  1.00  0.00     0.060 A 
ATOM     40  C   UNL A   1      37.925  31.320  32.299  1.00  0.00     0.016 A 
ATOM     41  C   UNL A   1      37.127  31.948  30.104  1.00  0.00     0.016 A 
ATOM     42  C   UNL A   1      38.942  30.553  31.743  1.00  0.00     0.010 A 
ATOM     43  C   UNL A   1      38.168  31.201  29.539  1.00  0.00     0.010 A 
ATOM     44  C   UNL A   1      39.093  30.520  30.355  1.00  0.00    -0.014 A 
BRANCH  44  45
ATOM     45  C   UNL A   1      40.332  29.951  29.774  1.00  0.00     0.031 A 
ATOM     46  C   UNL A   1      41.523  30.855  29.624  1.00  0.00     0.074 A 
ATOM     47  C   UNL A   1      40.423  28.652  29.436  1.00  0.00     0.049 A 
ATOM     48  N   UNL A   1      42.658  30.642  29.014  1.00  0.00    -0.248 NA
ATOM     49  C   UNL A   1      41.412  32.183  30.251  1.00  0.00     0.031 C 
ATOM     50  C   UNL A   1      39.381  27.647  29.635  1.00  0.00     0.029 A 
ATOM     51  N   UNL A   1      41.451  27.962  28.845  1.00  0.00    -0.354 N 
ATOM     52  C   UNL A   1      43.382  31.820  29.150  1.00  0.00     0.074 A 
ATOM     53  C   UNL A   1      42.557  32.745  29.896  1.00  0.00     0.031 C 
ATOM     54  C   UNL A   1      39.819  26.468  29.159  1.00  0.00     0.029 A 
ATOM     55  C   UNL A   1      41.145  26.650  28.573  1.00  0.00     0.049 A 
ATOM     56  H   UNL A   1      42.324  28.367  28.636  1.00  0.00     0.167 HD
ATOM     57  C   UNL A   1      44.623  32.104  28.691  1.00  0.00     0.037 A 
ATOM     58  C   UNL A   1      41.841  25.720  27.891  1.00  0.00     0.037 A 
ATOM     59  C   UNL A   1      45.446  31.171  27.971  1.00  0.00     0.049 A 
ATOM     60  C   UNL A   1      43.181  26.088  27.306  1.00  0.00     0.074 A 
ATOM     61  C   UNL A   1      46.716  31.361  27.455  1.00  0.00     0.029 A 
ATOM     62  N   UNL A   1      45.081  29.868  27.670  1.00  0.00    -0.354 N 
ATOM     63  N   UNL A   1      43.842  27.216  27.393  1.00  0.00    -0.248 NA
ATOM     64  C   UNL A   1      43.865  25.053  26.515  1.00  0.00     0.031 C 
ATOM     65  C   UNL A   1      47.100  30.185  26.802  1.00  0.00     0.029 A 
ATOM     66  C   UNL A   1      46.091  29.247  26.957  1.00  0.00     0.049 A 
ATOM     67  H   UNL A   1      44.228  29.447  27.926  1.00  0.00     0.167 HD
ATOM     68  C   UNL A   1      45.029  27.020  26.696  1.00  0.00     0.074 A 
ATOM     69  C   UNL A   1      45.001  25.660  26.199  1.00  0.00     0.031 C 
ATOM     70  C   UNL A   1      46.049  27.887  26.484  1.00  0.00     0.037 A 
BRANCH  57  71
ATOM     71  C   UNL A   1      45.136  33.496  28.911  1.00  0.00     0.057 A 
ATOM     72  C   UNL A   1      44.847  34.547  28.030  1.00  0.00     0.134 A 
ATOM     73  C   UNL A   1      45.925  33.788  30.030  1.00  0.00     0.134 A 
ATOM     74  F   UNL A   1      44.116  34.328  26.927  1.00  0.00    -0.206 F 
ATOM     75  C   UNL A   1      45.344  35.833  28.245  1.00  0.00     0.040 A 
ATOM     76  C   UNL A   1      46.406  35.076  30.269  1.00  0.00     0.040 A 
ATOM     77  F   UNL A   1      46.240  32.827  30.911  1.00  0.00    -0.206 F 
ATOM     78  C   UNL A   1      46.121  36.102  29.372  1.00  0.00     0.006 A 
ENDBRANCH  57  71
BRANCH  58  79
ATOM     79  C   UNL A   1      41.272  24.365  27.676  1.00  0.00     0.057 A 
ATOM     80  C   UNL A   1      41.745  23.256  28.388  1.00  0.00     0.134 A 
ATOM     81  C   UNL A   1      40.264  24.140  26.731  1.00  0.00     0.134 A 
ATOM     82  F   UNL A   1      42.731  23.401  29.285  1.00  0.00    -0.206 F 
ATOM     83  C   UNL A   1      41.248  21.972  28.156  1.00  0.00     0.040 A 
ATOM     84  C   UNL A   1      39.739  22.866  26.508  1.00  0.00     0.040 A 
ATOM     85  F   UNL A   1      39.772  25.157  26.009  1.00  0.00    -0.206 F 
ATOM     86  C   UNL A   1      40.237  21.775  27.218  1.00  0.00     0.006 A 
ENDBRANCH  58  79
BRANCH  70  87
ATOM     87  C   UNL A   1      47.239  27.378  25.723  1.00  0.00     0.057 A 
ATOM     88  C   UNL A   1      47.360  27.545  24.338  1.00  0.00     0.134 A 
ATOM     89  C   UNL A   1      48.298  26.755  26.396  1.00  0.00     0.134 A 
ATOM     90  F   UNL A   1      46.376  28.124  23.634  1.00  0.00    -0.206 F 
ATOM     91  C   UNL A   1      48.485  27.090  23.646  1.00  0.00     0.040 A 
ATOM     92  C   UNL A   1      49.438  26.321  25.719  1.00  0.00     0.040 A 
ATOM     93  F   UNL A   1      48.250  26.575  27.725  1.00  0.00    -0.206 F 
ATOM     94  C   UNL A   1      49.531  26.482  24.338  1.00  0.00     0.006 A 
ENDBRANCH  70  87
ENDBRANCH  44  45
ENDBRANCH  37  39
ENDBRANCH  36  37
ENDBRANCH  35  36
ENDBRANCH  34  35
ENDBRANCH  33  34
ENDBRANCH  32  33
ENDBRANCH   1  32
TORSDOF 20
ENDMDL
MODEL 2
REMARK VINA RESULT:     -11.6      4.432      6.729
REMARK SMILES CC(C)C[C@H](C(=O)OCCOCCOCCOC(=O)c1ccc(-c2c3nc(c(-c4c(F)cccc4F)c4ccc([nH]4)c(-c4c(F)cccc4F)c4nc(c(-c5c(F)cccc5F)c5ccc2[nH]5)C=C4)C=C3)cc1)N1C(=O)/C(=C2\C(=O)Nc3ccc(Br)cc32)SC1=S
REMARK SMILES IDX 12 1 11 2 10 3 9 4 8 5 6 6 7 7 5 8 4 9 2 10 1 11 3 12 74 13
REMARK SMILES IDX 75 14 90 15 76 16 77 17 89 18 91 19 78 20 79 21 88 22 80 23
REMARK SMILES IDX 81 24 82 25 87 26 83 28 85 29 84 30 86 31 13 32 14 33 15 34
REMARK SMILES IDX 16 35 17 36 18 37 19 38 20 39 21 40 73 41 22 42 72 43 23 44
REMARK SMILES IDX 24 45 25 46 66 47 26 48 71 49 65 50 67 51 27 52 70 53 64 54
REMARK SMILES IDX 63 55 28 57 54 58 37 59 53 60 38 61 41 62 52 63 68 64 39 65
REMARK SMILES IDX 40 66 51 68 69 69 42 70 29 71 30 72 35 73 31 74 32 75 34 76
REMARK SMILES IDX 36 77 33 78 55 79 56 80 61 81 57 82 58 83 60 84 62 85 59 86
REMARK SMILES IDX 43 87 44 88 49 89 45 90 46 91 48 92 50 93 47 94
REMARK H PARENT 81 27 67 56 41 67
REMARK Flexibility Score: inf
ROOT
ATOM      1  C   UNL A   1      35.451  32.211  28.001  1.00  0.00     0.188 C 
ENDROOT
BRANCH   1   2
ATOM      2  O   UNL A   1      34.325  31.357  28.129  1.00  0.00    -0.376 OA
BRANCH   2   3
ATOM      3  C   UNL A   1      33.278  31.422  27.164  1.00  0.00     0.202 C 
BRANCH   3   4
ATOM      4  C   UNL A   1      32.266  30.270  27.131  1.00  0.00     0.261 C 
BRANCH   4   5
ATOM      5  O   UNL A   1      32.667  29.145  26.320  1.00  0.00    -0.462 OA
BRANCH   5   6
ATOM      6  C   UNL A   1      31.867  28.043  26.352  1.00  0.00     0.329 C 
ATOM      7  O   UNL A   1      31.712  27.319  27.330  1.00  0.00    -0.250 OA
BRANCH   6   8
ATOM      8  C   UNL A   1      31.163  27.758  24.997  1.00  0.00     0.202 C 
BRANCH   8   9
ATOM      9  C   UNL A   1      30.817  28.980  24.086  1.00  0.00     0.040 C 
BRANCH   9  10
ATOM     10  C   UNL A   1      29.885  28.661  22.883  1.00  0.00    -0.015 C 
ATOM     11  C   UNL A   1      28.585  27.950  23.259  1.00  0.00     0.007 C 
ATOM     12  C   UNL A   1      29.502  29.943  22.134  1.00  0.00     0.007 C 
ENDBRANCH   9  10
ENDBRANCH   8   9
BRANCH   8  13
ATOM     13  N   UNL A   1      31.907  26.764  24.207  1.00  0.00    -0.278 N 
ATOM     14  C   UNL A   1      31.500  25.456  24.294  1.00  0.00     0.267 C 
ATOM     15  C   UNL A   1      33.125  26.941  23.602  1.00  0.00     0.149 C 
ATOM     16  O   UNL A   1      30.352  25.072  24.146  1.00  0.00    -0.268 OA
ATOM     17  C   UNL A   1      32.677  24.569  24.347  1.00  0.00     0.093 C 
ATOM     18  S   UNL A   1      33.992  25.395  23.603  1.00  0.00    -0.053 SA
ATOM     19  S   UNL A   1      33.772  28.342  22.977  1.00  0.00    -0.052 S 
ATOM     20  C   UNL A   1      32.617  23.344  24.876  1.00  0.00     0.069 C 
ATOM     21  C   UNL A   1      31.354  22.778  25.481  1.00  0.00     0.257 C 
ATOM     22  C   UNL A   1      33.591  22.249  24.874  1.00  0.00     0.013 A 
ATOM     23  O   UNL A   1      30.448  23.362  26.043  1.00  0.00    -0.269 OA
ATOM     24  N   UNL A   1      31.523  21.410  25.424  1.00  0.00    -0.321 N 
ATOM     25  C   UNL A   1      32.839  21.089  25.113  1.00  0.00     0.049 A 
ATOM     26  C   UNL A   1      34.967  22.176  24.778  1.00  0.00     0.026 A 
ATOM     27  H   UNL A   1      30.809  20.750  25.582  1.00  0.00     0.170 HD
ATOM     28  C   UNL A   1      33.391  19.829  25.151  1.00  0.00     0.028 A 
ATOM     29  C   UNL A   1      35.552  20.907  24.867  1.00  0.00     0.018 A 
ATOM     30  C   UNL A   1      34.776  19.742  25.021  1.00  0.00     0.018 A 
ATOM     31  Br  UNL A   1      37.438  20.752  24.830  1.00  0.00    -0.051 Br
ENDBRANCH   8  13
ENDBRANCH   6   8
ENDBRANCH   5   6
ENDBRANCH   4   5
ENDBRANCH   3   4
ENDBRANCH   2   3
ENDBRANCH   1   2
BRANCH   1  32
ATOM     32  C   UNL A   1      35.541  33.451  28.892  1.00  0.00     0.188 C 
BRANCH  32  33
ATOM     33  O   UNL A   1      34.289  33.989  29.260  1.00  0.00    -0.376 OA
BRANCH  33  34
ATOM     34  C   UNL A   1      33.964  35.259  28.716  1.00  0.00     0.202 C 
BRANCH  34  35
ATOM     35  C   UNL A   1      32.900  36.006  29.533  1.00  0.00     0.261 C 
BRANCH  35  36
ATOM     36  O   UNL A   1      32.396  35.292  30.682  1.00  0.00    -0.460 OA
BRANCH  36  37
ATOM     37  C   UNL A   1      32.672  35.830  31.897  1.00  0.00     0.338 C 
ATOM     38  O   UNL A   1      32.005  36.632  32.511  1.00  0.00    -0.246 OA
BRANCH  37  39
ATOM     39  C   UNL A   1      33.804  35.069  32.482  1.00  0.00     0.060 A 
ATOM     40  C   UNL A   1      35.086  35.624  32.398  1.00  0.00     0.016 A 
ATOM     41  C   UNL A   1      33.617  33.835  33.097  1.00  0.00     0.016 A 
ATOM     42  C   UNL A   1      36.192  34.955  32.909  1.00  0.00     0.010 A 
ATOM     43  C   UNL A   1      34.732  33.143  33.586  1.00  0.00     0.010 A 
ATOM     44  C   UNL A   1      36.026  33.690  33.473  1.00  0.00    -0.014 A 
BRANCH  44  45
ATOM     45  C   UNL A   1      37.220  32.857  33.751  1.00  0.00     0.031 A 
ATOM     46  C   UNL A   1      37.948  33.076  35.047  1.00  0.00     0.074 A 
ATOM     47  C   UNL A   1      37.624  31.893  32.904  1.00  0.00     0.049 A 
ATOM     48  N   UNL A   1      39.091  32.590  35.453  1.00  0.00    -0.248 NA
ATOM     49  C   UNL A   1      37.292  33.968  36.017  1.00  0.00     0.031 C 
ATOM     50  C   UNL A   1      36.943  31.506  31.671  1.00  0.00     0.029 A 
ATOM     51  N   UNL A   1      38.717  31.066  32.961  1.00  0.00    -0.354 N 
ATOM     52  C   UNL A   1      39.308  33.145  36.707  1.00  0.00     0.074 A 
ATOM     53  C   UNL A   1      38.184  34.008  36.995  1.00  0.00     0.031 C 
ATOM     54  C   UNL A   1      37.643  30.523  31.078  1.00  0.00     0.029 A 
ATOM     55  C   UNL A   1      38.849  30.255  31.860  1.00  0.00     0.049 A 
ATOM     56  H   UNL A   1      39.347  31.055  33.718  1.00  0.00     0.167 HD
ATOM     57  C   UNL A   1      40.355  32.954  37.544  1.00  0.00     0.037 A 
ATOM     58  C   UNL A   1      39.850  29.426  31.508  1.00  0.00     0.037 A 
ATOM     59  C   UNL A   1      41.459  32.075  37.261  1.00  0.00     0.049 A 
ATOM     60  C   UNL A   1      41.052  29.301  32.408  1.00  0.00     0.074 A 
ATOM     61  C   UNL A   1      42.574  31.815  38.038  1.00  0.00     0.029 A 
ATOM     62  N   UNL A   1      41.581  31.309  36.112  1.00  0.00    -0.354 N 
ATOM     63  N   UNL A   1      41.280  29.864  33.570  1.00  0.00    -0.248 NA
ATOM     64  C   UNL A   1      42.144  28.432  31.941  1.00  0.00     0.031 C 
ATOM     65  C   UNL A   1      43.393  30.925  37.336  1.00  0.00     0.029 A 
ATOM     66  C   UNL A   1      42.763  30.592  36.147  1.00  0.00     0.049 A 
ATOM     67  H   UNL A   1      40.923  31.281  35.380  1.00  0.00     0.167 HD
ATOM     68  C   UNL A   1      42.522  29.398  33.985  1.00  0.00     0.074 A 
ATOM     69  C   UNL A   1      42.995  28.498  32.955  1.00  0.00     0.031 C 
ATOM     70  C   UNL A   1      43.210  29.689  35.117  1.00  0.00     0.037 A 
BRANCH  57  71
ATOM     71  C   UNL A   1      40.377  33.750  38.814  1.00  0.00     0.057 A 
ATOM     72  C   UNL A   1      39.699  33.335  39.968  1.00  0.00     0.134 A 
ATOM     73  C   UNL A   1      41.097  34.948  38.883  1.00  0.00     0.134 A 
ATOM     74  F   UNL A   1      38.971  32.208  39.961  1.00  0.00    -0.206 F 
ATOM     75  C   UNL A   1      39.720  34.095  41.138  1.00  0.00     0.040 A 
ATOM     76  C   UNL A   1      41.148  35.704  40.055  1.00  0.00     0.040 A 
ATOM     77  F   UNL A   1      41.766  35.403  37.813  1.00  0.00    -0.206 F 
ATOM     78  C   UNL A   1      40.453  35.281  41.185  1.00  0.00     0.006 A 
ENDBRANCH  57  71
BRANCH  58  79
ATOM     79  C   UNL A   1      39.792  28.684  30.222  1.00  0.00     0.057 A 
ATOM     80  C   UNL A   1      39.176  27.430  30.133  1.00  0.00     0.134 A 
ATOM     81  C   UNL A   1      40.380  29.195  29.058  1.00  0.00     0.134 A 
ATOM     82  F   UNL A   1      38.622  26.873  31.220  1.00  0.00    -0.206 F 
ATOM     83  C   UNL A   1      39.160  26.706  28.940  1.00  0.00     0.040 A 
ATOM     84  C   UNL A   1      40.348  28.493  27.851  1.00  0.00     0.040 A 
ATOM     85  F   UNL A   1      40.994  30.387  29.076  1.00  0.00    -0.206 F 
ATOM     86  C   UNL A   1      39.742  27.240  27.792  1.00  0.00     0.006 A 
ENDBRANCH  58  79
BRANCH  70  87
ATOM     87  C   UNL A   1      44.525  28.994  35.322  1.00  0.00     0.057 A 
ATOM     88  C   UNL A   1      45.735  29.554  34.895  1.00  0.00     0.134 A 
ATOM     89  C   UNL A   1      44.580  27.768  35.999  1.00  0.00     0.134 A 
ATOM     90  F   UNL A   1      45.748  30.720  34.232  1.00  0.00    -0.206 F 
ATOM     91  C   UNL A   1      46.953  28.909  35.117  1.00  0.00     0.040 A 
ATOM     92  C   UNL A   1      45.794  27.128  36.250  1.00  0.00     0.040 A 
ATOM     93  F   UNL A   1      43.458  27.183  36.445  1.00  0.00    -0.206 F 
ATOM     94  C   UNL A   1      46.985  27.695  35.802  1.00  0.00     0.006 A 
ENDBRANCH  70  87
ENDBRANCH  44  45
ENDBRANCH  37  39
ENDBRANCH  36  37
ENDBRANCH  35  36
ENDBRANCH  34  35
ENDBRANCH  33  34
ENDBRANCH  32  33
ENDBRANCH   1  32
TORSDOF 20
ENDMDL
MODEL 3
REMARK VINA RESULT:     -11.3      3.859      9.009
REMARK SMILES CC(C)C[C@H](C(=O)OCCOCCOCCOC(=O)c1ccc(-c2c3nc(c(-c4c(F)cccc4F)c4ccc([nH]4)c(-c4c(F)cccc4F)c4nc(c(-c5c(F)cccc5F)c5ccc2[nH]5)C=C4)C=C3)cc1)N1C(=O)/C(=C2\C(=O)Nc3ccc(Br)cc32)SC1=S
REMARK SMILES IDX 12 1 11 2 10 3 9 4 8 5 6 6 7 7 5 8 4 9 2 10 1 11 3 12 74 13
REMARK SMILES IDX 75 14 90 15 76 16 77 17 89 18 91 19 78 20 79 21 88 22 80 23
REMARK SMILES IDX 81 24 82 25 87 26 83 28 85 29 84 30 86 31 13 32 14 33 15 34
REMARK SMILES IDX 16 35 17 36 18 37 19 38 20 39 21 40 73 41 22 42 72 43 23 44
REMARK SMILES IDX 24 45 25 46 66 47 26 48 71 49 65 50 67 51 27 52 70 53 64 54
REMARK SMILES IDX 63 55 28 57 54 58 37 59 53 60 38 61 41 62 52 63 68 64 39 65
REMARK SMILES IDX 40 66 51 68 69 69 42 70 29 71 30 72 35 73 31 74 32 75 34 76
REMARK SMILES IDX 36 77 33 78 55 79 56 80 61 81 57 82 58 83 60 84 62 85 59 86
REMARK SMILES IDX 43 87 44 88 49 89 45 90 46 91 48 92 50 93 47 94
REMARK H PARENT 81 27 67 56 41 67
REMARK Flexibility Score: inf
ROOT
ATOM      1  C   UNL A   1      40.074  22.561  26.587  1.00  0.00     0.188 C 
ENDROOT
BRANCH   1   2
ATOM      2  O   UNL A   1      39.070  23.500  26.943  1.00  0.00    -0.376 OA
BRANCH   2   3
ATOM      3  C   UNL A   1      38.223  24.043  25.933  1.00  0.00     0.202 C 
BRANCH   3   4
ATOM      4  C   UNL A   1      36.740  23.655  25.963  1.00  0.00     0.261 C 
BRANCH   4   5
ATOM      5  O   UNL A   1      36.315  22.832  24.855  1.00  0.00    -0.462 OA
BRANCH   5   6
ATOM      6  C   UNL A   1      36.092  21.514  25.114  1.00  0.00     0.329 C 
ATOM      7  O   UNL A   1      36.896  20.762  25.657  1.00  0.00    -0.250 OA
BRANCH   6   8
ATOM      8  C   UNL A   1      34.702  21.021  24.626  1.00  0.00     0.202 C 
BRANCH   8   9
ATOM      9  C   UNL A   1      34.266  19.572  25.015  1.00  0.00     0.040 C 
BRANCH   9  10
ATOM     10  C   UNL A   1      33.963  18.631  23.815  1.00  0.00    -0.015 C 
ATOM     11  C   UNL A   1      34.439  17.191  24.003  1.00  0.00     0.007 C 
ATOM     12  C   UNL A   1      32.457  18.579  23.528  1.00  0.00     0.007 C 
ENDBRANCH   9  10
ENDBRANCH   8   9
BRANCH   8  13
ATOM     13  N   UNL A   1      33.638  21.962  25.007  1.00  0.00    -0.278 N 
ATOM     14  C   UNL A   1      32.994  22.631  23.995  1.00  0.00     0.267 C 
ATOM     15  C   UNL A   1      33.389  22.456  26.262  1.00  0.00     0.149 C 
ATOM     16  O   UNL A   1      32.508  22.102  23.010  1.00  0.00    -0.268 OA
ATOM     17  C   UNL A   1      32.764  24.033  24.389  1.00  0.00     0.093 C 
ATOM     18  S   UNL A   1      32.738  24.098  26.110  1.00  0.00    -0.053 SA
ATOM     19  S   UNL A   1      33.655  21.720  27.731  1.00  0.00    -0.052 S 
ATOM     20  C   UNL A   1      32.590  25.003  23.487  1.00  0.00     0.069 C 
ATOM     21  C   UNL A   1      32.637  24.750  21.998  1.00  0.00     0.257 C 
ATOM     22  C   UNL A   1      32.179  26.400  23.647  1.00  0.00     0.013 A 
ATOM     23  O   UNL A   1      33.277  23.919  21.385  1.00  0.00    -0.269 OA
ATOM     24  N   UNL A   1      31.924  25.794  21.445  1.00  0.00    -0.321 N 
ATOM     25  C   UNL A   1      31.689  26.785  22.390  1.00  0.00     0.049 A 
ATOM     26  C   UNL A   1      32.261  27.323  24.672  1.00  0.00     0.026 A 
ATOM     27  H   UNL A   1      31.623  25.831  20.508  1.00  0.00     0.170 HD
ATOM     28  C   UNL A   1      31.168  28.033  22.136  1.00  0.00     0.028 A 
ATOM     29  C   UNL A   1      31.784  28.614  24.415  1.00  0.00     0.018 A 
ATOM     30  C   UNL A   1      31.215  28.961  23.174  1.00  0.00     0.018 A 
ATOM     31  Br  UNL A   1      31.949  29.945  25.750  1.00  0.00    -0.051 Br
ENDBRANCH   8  13
ENDBRANCH   6   8
ENDBRANCH   5   6
ENDBRANCH   4   5
ENDBRANCH   3   4
ENDBRANCH   2   3
ENDBRANCH   1   2
BRANCH   1  32
ATOM     32  C   UNL A   1      40.827  21.829  27.699  1.00  0.00     0.188 C 
BRANCH  32  33
ATOM     33  O   UNL A   1      40.775  20.422  27.601  1.00  0.00    -0.376 OA
BRANCH  33  34
ATOM     34  C   UNL A   1      40.953  19.874  26.304  1.00  0.00     0.202 C 
BRANCH  34  35
ATOM     35  C   UNL A   1      42.299  19.152  26.140  1.00  0.00     0.261 C 
BRANCH  35  36
ATOM     36  O   UNL A   1      42.864  19.203  24.812  1.00  0.00    -0.460 OA
BRANCH  36  37
ATOM     37  C   UNL A   1      44.213  19.324  24.734  1.00  0.00     0.338 C 
ATOM     38  O   UNL A   1      45.002  18.486  24.360  1.00  0.00    -0.246 OA
BRANCH  37  39
ATOM     39  C   UNL A   1      44.551  20.755  24.930  1.00  0.00     0.060 A 
ATOM     40  C   UNL A   1      45.224  21.121  26.101  1.00  0.00     0.016 A 
ATOM     41  C   UNL A   1      44.213  21.723  23.989  1.00  0.00     0.016 A 
ATOM     42  C   UNL A   1      45.554  22.446  26.356  1.00  0.00     0.010 A 
ATOM     43  C   UNL A   1      44.516  23.064  24.255  1.00  0.00     0.010 A 
ATOM     44  C   UNL A   1      45.166  23.434  25.449  1.00  0.00    -0.014 A 
BRANCH  44  45
ATOM     45  C   UNL A   1      45.255  24.859  25.847  1.00  0.00     0.031 A 
ATOM     46  C   UNL A   1      46.581  25.551  25.708  1.00  0.00     0.074 A 
ATOM     47  C   UNL A   1      44.177  25.543  26.271  1.00  0.00     0.049 A 
ATOM     48  N   UNL A   1      46.952  26.733  26.123  1.00  0.00    -0.248 NA
ATOM     49  C   UNL A   1      47.633  24.800  25.002  1.00  0.00     0.031 C 
ATOM     50  C   UNL A   1      42.814  25.022  26.345  1.00  0.00     0.029 A 
ATOM     51  N   UNL A   1      44.071  26.834  26.725  1.00  0.00    -0.354 N 
ATOM     52  C   UNL A   1      48.288  26.853  25.763  1.00  0.00     0.074 A 
ATOM     53  C   UNL A   1      48.665  25.624  25.100  1.00  0.00     0.031 C 
ATOM     54  C   UNL A   1      42.008  25.981  26.832  1.00  0.00     0.029 A 
ATOM     55  C   UNL A   1      42.808  27.161  27.156  1.00  0.00     0.049 A 
ATOM     56  H   UNL A   1      44.827  27.464  26.742  1.00  0.00     0.167 HD
ATOM     57  C   UNL A   1      49.125  27.896  25.969  1.00  0.00     0.037 A 
ATOM     58  C   UNL A   1      42.364  28.270  27.779  1.00  0.00     0.037 A 
ATOM     59  C   UNL A   1      48.736  29.125  26.608  1.00  0.00     0.049 A 
ATOM     60  C   UNL A   1      43.336  29.380  28.086  1.00  0.00     0.074 A 
ATOM     61  C   UNL A   1      49.509  30.241  26.873  1.00  0.00     0.029 A 
ATOM     62  N   UNL A   1      47.460  29.398  27.076  1.00  0.00    -0.354 N 
ATOM     63  N   UNL A   1      44.610  29.473  27.789  1.00  0.00    -0.248 NA
ATOM     64  C   UNL A   1      42.809  30.537  28.826  1.00  0.00     0.031 C 
ATOM     65  C   UNL A   1      48.711  31.173  27.543  1.00  0.00     0.029 A 
ATOM     66  C   UNL A   1      47.429  30.658  27.648  1.00  0.00     0.049 A 
ATOM     67  H   UNL A   1      46.691  28.787  27.011  1.00  0.00     0.167 HD
ATOM     68  C   UNL A   1      45.029  30.704  28.279  1.00  0.00     0.074 A 
ATOM     69  C   UNL A   1      43.871  31.328  28.883  1.00  0.00     0.031 C 
ATOM     70  C   UNL A   1      46.261  31.267  28.233  1.00  0.00     0.037 A 
BRANCH  57  71
ATOM     71  C   UNL A   1      50.554  27.726  25.547  1.00  0.00     0.057 A 
ATOM     72  C   UNL A   1      50.967  27.902  24.220  1.00  0.00     0.134 A 
ATOM     73  C   UNL A   1      51.533  27.389  26.489  1.00  0.00     0.134 A 
ATOM     74  F   UNL A   1      50.075  28.203  23.264  1.00  0.00    -0.206 F 
ATOM     75  C   UNL A   1      52.299  27.728  23.842  1.00  0.00     0.040 A 
ATOM     76  C   UNL A   1      52.872  27.238  26.129  1.00  0.00     0.040 A 
ATOM     77  F   UNL A   1      51.204  27.205  27.776  1.00  0.00    -0.206 F 
ATOM     78  C   UNL A   1      53.258  27.402  24.801  1.00  0.00     0.006 A 
ENDBRANCH  57  71
BRANCH  58  79
ATOM     79  C   UNL A   1      40.944  28.373  28.204  1.00  0.00     0.057 A 
ATOM     80  C   UNL A   1      39.967  28.902  27.353  1.00  0.00     0.134 A 
ATOM     81  C   UNL A   1      40.535  27.976  29.484  1.00  0.00     0.134 A 
ATOM     82  F   UNL A   1      40.301  29.328  26.126  1.00  0.00    -0.206 F 
ATOM     83  C   UNL A   1      38.640  29.046  27.763  1.00  0.00     0.040 A 
ATOM     84  C   UNL A   1      39.207  28.091  29.897  1.00  0.00     0.040 A 
ATOM     85  F   UNL A   1      41.423  27.469  30.351  1.00  0.00    -0.206 F 
ATOM     86  C   UNL A   1      38.255  28.634  29.037  1.00  0.00     0.006 A 
ENDBRANCH  58  79
BRANCH  70  87
ATOM     87  C   UNL A   1      46.411  32.645  28.811  1.00  0.00     0.057 A 
ATOM     88  C   UNL A   1      46.790  32.853  30.143  1.00  0.00     0.134 A 
ATOM     89  C   UNL A   1      46.218  33.776  28.007  1.00  0.00     0.134 A 
ATOM     90  F   UNL A   1      46.979  31.812  30.967  1.00  0.00    -0.206 F 
ATOM     91  C   UNL A   1      46.951  34.140  30.660  1.00  0.00     0.040 A 
ATOM     92  C   UNL A   1      46.402  35.066  28.506  1.00  0.00     0.040 A 
ATOM     93  F   UNL A   1      45.865  33.646  26.719  1.00  0.00    -0.206 F 
ATOM     94  C   UNL A   1      46.764  35.251  29.839  1.00  0.00     0.006 A 
ENDBRANCH  70  87
ENDBRANCH  44  45
ENDBRANCH  37  39
ENDBRANCH  36  37
ENDBRANCH  35  36
ENDBRANCH  34  35
ENDBRANCH  33  34
ENDBRANCH  32  33
ENDBRANCH   1  32
TORSDOF 20
ENDMDL
