MODEL 1
REMARK VINA RESULT:     -10.8      0.000      0.000
REMARK SMILES Cc1ccccc1Sc1cncc(C(=O)OCCOCCOCCOC(=O)c2ccc(-c3c4nc(c(-c5c(F)cccc5F)c5ccc([nH]5)c(-c5c(F)cccc5F)c5nc(c(-c6c(F)cccc6F)c6ccc3[nH]6)C=C5)C=C4)cc2)n1
REMARK SMILES IDX 20 1 19 2 18 3 17 4 16 5 14 6 15 7 13 8 9 9 10 10 82 11
REMARK SMILES IDX 11 12 12 13 8 14 7 15 1 16 2 17 3 18 4 19 6 20 5 21 21 22
REMARK SMILES IDX 22 23 23 24 24 25 25 26 26 27 27 28 28 29 29 30 81 31 30 32
REMARK SMILES IDX 80 33 31 34 32 35 33 36 74 37 34 38 79 39 73 40 75 41 35 42
REMARK SMILES IDX 78 43 72 44 71 45 36 47 62 48 45 49 61 50 46 51 49 52 60 53
REMARK SMILES IDX 76 54 47 55 48 56 59 58 77 59 50 60 37 61 38 62 43 63 39 64
REMARK SMILES IDX 40 65 42 66 44 67 41 68 63 69 64 70 69 71 65 72 66 73 68 74
REMARK SMILES IDX 70 75 67 76 51 77 52 78 57 79 53 80 54 81 56 82 58 83 55 84
REMARK H PARENT 75 46 49 57
REMARK Flexibility Score: inf
ROOT
ATOM      1  C   UNL A   1      33.587  28.959  23.743  1.00  0.00     0.188 C 
ENDROOT
BRANCH   1   2
ATOM      2  O   UNL A   1      33.386  27.575  23.430  1.00  0.00    -0.376 OA
BRANCH   2   3
ATOM      3  C   UNL A   1      32.395  27.326  22.431  1.00  0.00     0.202 C 
BRANCH   3   4
ATOM      4  C   UNL A   1      32.250  25.844  21.908  1.00  0.00     0.261 C 
BRANCH   4   5
ATOM      5  O   UNL A   1      32.521  24.694  22.826  1.00  0.00    -0.458 OA
BRANCH   5   6
ATOM      6  C   UNL A   1      33.282  23.530  22.577  1.00  0.00     0.358 C 
ATOM      7  O   UNL A   1      33.564  23.223  21.429  1.00  0.00    -0.244 OA
BRANCH   6   8
ATOM      8  C   UNL A   1      33.904  22.640  23.953  1.00  0.00     0.167 A 
ATOM      9  C   UNL A   1      35.793  21.718  24.894  1.00  0.00     0.120 A 
ATOM     10  C   UNL A   1      35.202  21.450  26.123  1.00  0.00     0.146 A 
ATOM     11  N   UNL A   1      35.196  22.312  23.808  1.00  0.00    -0.231 NA
ATOM     12  N   UNL A   1      33.929  21.714  26.315  1.00  0.00    -0.259 NA
ATOM     13  C   UNL A   1      33.336  22.299  25.233  1.00  0.00     0.147 A 
BRANCH   9  14
ATOM     14  S   UNL A   1      37.393  21.092  24.678  1.00  0.00    -0.068 SA
BRANCH  14  15
ATOM     15  C   UNL A   1      38.386  22.146  25.726  1.00  0.00     0.017 A 
ATOM     16  C   UNL A   1      40.400  20.689  26.616  1.00  0.00     0.045 C 
ATOM     17  C   UNL A   1      39.571  21.944  26.483  1.00  0.00    -0.037 A 
ATOM     18  C   UNL A   1      40.041  23.024  27.261  1.00  0.00     0.004 A 
ATOM     19  C   UNL A   1      39.391  24.255  27.281  1.00  0.00     0.000 A 
ATOM     20  C   UNL A   1      37.756  23.402  25.765  1.00  0.00     0.016 A 
ATOM     21  C   UNL A   1      38.248  24.445  26.528  1.00  0.00     0.001 A 
ENDBRANCH  14  15
ENDBRANCH   9  14
ENDBRANCH   6   8
ENDBRANCH   5   6
ENDBRANCH   4   5
ENDBRANCH   3   4
ENDBRANCH   2   3
ENDBRANCH   1   2
BRANCH   1  22
ATOM     22  C   UNL A   1      33.015  29.253  25.116  1.00  0.00     0.188 C 
BRANCH  22  23
ATOM     23  O   UNL A   1      33.998  29.163  26.134  1.00  0.00    -0.376 OA
BRANCH  23  24
ATOM     24  C   UNL A   1      33.703  29.830  27.351  1.00  0.00     0.202 C 
BRANCH  24  25
ATOM     25  C   UNL A   1      34.648  30.999  27.694  1.00  0.00     0.261 C 
BRANCH  25  26
ATOM     26  O   UNL A   1      34.092  31.812  28.749  1.00  0.00    -0.460 OA
BRANCH  26  27
ATOM     27  C   UNL A   1      34.408  33.141  28.781  1.00  0.00     0.338 C 
ATOM     28  O   UNL A   1      33.985  33.999  28.000  1.00  0.00    -0.246 OA
BRANCH  27  29
ATOM     29  C   UNL A   1      35.605  33.328  29.658  1.00  0.00     0.060 A 
ATOM     30  C   UNL A   1      36.829  33.799  29.178  1.00  0.00     0.016 A 
ATOM     31  C   UNL A   1      35.660  32.575  30.784  1.00  0.00     0.016 A 
ATOM     32  C   UNL A   1      38.076  33.215  29.611  1.00  0.00     0.010 A 
ATOM     33  C   UNL A   1      36.877  31.939  31.061  1.00  0.00     0.010 A 
ATOM     34  C   UNL A   1      38.153  32.084  30.437  1.00  0.00    -0.014 A 
BRANCH  34  35
ATOM     35  C   UNL A   1      39.552  31.089  30.496  1.00  0.00     0.031 A 
ATOM     36  C   UNL A   1      40.030  29.574  29.858  1.00  0.00     0.074 A 
ATOM     37  C   UNL A   1      40.552  31.572  31.256  1.00  0.00     0.049 A 
ATOM     38  N   UNL A   1      40.577  28.573  30.532  1.00  0.00    -0.248 NA
ATOM     39  C   UNL A   1      39.833  29.000  28.483  1.00  0.00     0.031 C 
ATOM     40  C   UNL A   1      41.948  31.159  31.260  1.00  0.00     0.029 A 
ATOM     41  N   UNL A   1      40.497  32.591  32.204  1.00  0.00    -0.354 N 
ATOM     42  C   UNL A   1      40.799  27.558  29.562  1.00  0.00     0.074 A 
ATOM     43  C   UNL A   1      39.716  27.688  28.678  1.00  0.00     0.031 C 
ATOM     44  C   UNL A   1      42.557  31.726  32.314  1.00  0.00     0.029 A 
ATOM     45  C   UNL A   1      41.520  32.339  33.121  1.00  0.00     0.049 A 
ATOM     46  H   UNL A   1      39.861  33.342  32.225  1.00  0.00     0.167 HD
ATOM     47  C   UNL A   1      42.039  27.102  29.158  1.00  0.00     0.037 A 
ATOM     48  C   UNL A   1      41.207  32.009  34.408  1.00  0.00     0.037 A 
ATOM     49  C   UNL A   1      42.988  27.468  30.170  1.00  0.00     0.049 A 
ATOM     50  C   UNL A   1      41.732  30.636  34.765  1.00  0.00     0.074 A 
ATOM     51  C   UNL A   1      44.061  28.331  30.246  1.00  0.00     0.029 A 
ATOM     52  N   UNL A   1      42.662  27.104  31.456  1.00  0.00    -0.354 N 
ATOM     53  N   UNL A   1      42.061  29.738  33.871  1.00  0.00    -0.248 NA
ATOM     54  C   UNL A   1      42.018  30.180  36.120  1.00  0.00     0.031 C 
ATOM     55  C   UNL A   1      44.279  28.589  31.635  1.00  0.00     0.029 A 
ATOM     56  C   UNL A   1      43.377  27.830  32.367  1.00  0.00     0.049 A 
ATOM     57  H   UNL A   1      42.002  26.411  31.689  1.00  0.00     0.167 HD
ATOM     58  C   UNL A   1      42.622  28.651  34.479  1.00  0.00     0.074 A 
ATOM     59  C   UNL A   1      42.556  28.967  35.889  1.00  0.00     0.031 C 
ATOM     60  C   UNL A   1      43.094  27.585  33.769  1.00  0.00     0.037 A 
BRANCH  47  61
ATOM     61  C   UNL A   1      42.460  26.514  27.764  1.00  0.00     0.057 A 
ATOM     62  C   UNL A   1      42.839  25.155  27.670  1.00  0.00     0.134 A 
ATOM     63  C   UNL A   1      42.602  27.186  26.518  1.00  0.00     0.134 A 
ATOM     64  F   UNL A   1      42.796  24.350  28.741  1.00  0.00    -0.206 F 
ATOM     65  C   UNL A   1      43.298  24.541  26.481  1.00  0.00     0.040 A 
ATOM     66  C   UNL A   1      43.003  26.571  25.313  1.00  0.00     0.040 A 
ATOM     67  F   UNL A   1      42.441  28.502  26.361  1.00  0.00    -0.206 F 
ATOM     68  C   UNL A   1      43.368  25.243  25.290  1.00  0.00     0.006 A 
ENDBRANCH  47  61
BRANCH  48  69
ATOM     69  C   UNL A   1      40.002  32.739  34.919  1.00  0.00     0.057 A 
ATOM     70  C   UNL A   1      38.783  32.019  34.954  1.00  0.00     0.134 A 
ATOM     71  C   UNL A   1      40.051  33.897  35.703  1.00  0.00     0.134 A 
ATOM     72  F   UNL A   1      38.650  30.892  34.235  1.00  0.00    -0.206 F 
ATOM     73  C   UNL A   1      37.731  32.347  35.816  1.00  0.00     0.040 A 
ATOM     74  C   UNL A   1      38.982  34.257  36.551  1.00  0.00     0.040 A 
ATOM     75  F   UNL A   1      41.171  34.629  35.773  1.00  0.00    -0.206 F 
ATOM     76  C   UNL A   1      37.837  33.463  36.634  1.00  0.00     0.006 A 
ENDBRANCH  48  69
BRANCH  60  77
ATOM     77  C   UNL A   1      43.239  26.159  34.275  1.00  0.00     0.057 A 
ATOM     78  C   UNL A   1      42.206  25.442  34.890  1.00  0.00     0.134 A 
ATOM     79  C   UNL A   1      44.368  25.377  33.912  1.00  0.00     0.134 A 
ATOM     80  F   UNL A   1      41.040  26.014  35.209  1.00  0.00    -0.206 F 
ATOM     81  C   UNL A   1      42.293  24.067  35.144  1.00  0.00     0.040 A 
ATOM     82  C   UNL A   1      44.427  23.992  34.081  1.00  0.00     0.040 A 
ATOM     83  F   UNL A   1      45.446  25.913  33.318  1.00  0.00    -0.206 F 
ATOM     84  C   UNL A   1      43.391  23.332  34.716  1.00  0.00     0.006 A 
ENDBRANCH  60  77
ENDBRANCH  34  35
ENDBRANCH  27  29
ENDBRANCH  26  27
ENDBRANCH  25  26
ENDBRANCH  24  25
ENDBRANCH  23  24
ENDBRANCH  22  23
ENDBRANCH   1  22
TORSDOF 19
ENDMDL
MODEL 2
REMARK VINA RESULT:     -10.6      2.026      2.980
REMARK SMILES Cc1ccccc1Sc1cncc(C(=O)OCCOCCOCCOC(=O)c2ccc(-c3c4nc(c(-c5c(F)cccc5F)c5ccc([nH]5)c(-c5c(F)cccc5F)c5nc(c(-c6c(F)cccc6F)c6ccc3[nH]6)C=C5)C=C4)cc2)n1
REMARK SMILES IDX 20 1 19 2 18 3 17 4 16 5 14 6 15 7 13 8 9 9 10 10 82 11
REMARK SMILES IDX 11 12 12 13 8 14 7 15 1 16 2 17 3 18 4 19 6 20 5 21 21 22
REMARK SMILES IDX 22 23 23 24 24 25 25 26 26 27 27 28 28 29 29 30 81 31 30 32
REMARK SMILES IDX 80 33 31 34 32 35 33 36 74 37 34 38 79 39 73 40 75 41 35 42
REMARK SMILES IDX 78 43 72 44 71 45 36 47 62 48 45 49 61 50 46 51 49 52 60 53
REMARK SMILES IDX 76 54 47 55 48 56 59 58 77 59 50 60 37 61 38 62 43 63 39 64
REMARK SMILES IDX 40 65 42 66 44 67 41 68 63 69 64 70 69 71 65 72 66 73 68 74
REMARK SMILES IDX 70 75 67 76 51 77 52 78 57 79 53 80 54 81 56 82 58 83 55 84
REMARK H PARENT 75 46 49 57
REMARK Flexibility Score: inf
ROOT
ATOM      1  C   UNL A   1      34.201  29.033  26.572  1.00  0.00     0.188 C 
ENDROOT
BRANCH   1   2
ATOM      2  O   UNL A   1      33.126  28.348  27.228  1.00  0.00    -0.376 OA
BRANCH   2   3
ATOM      3  C   UNL A   1      31.856  28.473  26.584  1.00  0.00     0.202 C 
BRANCH   3   4
ATOM      4  C   UNL A   1      31.836  29.108  25.140  1.00  0.00     0.261 C 
BRANCH   4   5
ATOM      5  O   UNL A   1      30.694  28.830  24.213  1.00  0.00    -0.458 OA
BRANCH   5   6
ATOM      6  C   UNL A   1      30.732  28.291  22.907  1.00  0.00     0.358 C 
ATOM      7  O   UNL A   1      30.128  28.848  22.003  1.00  0.00    -0.244 OA
BRANCH   6   8
ATOM      8  C   UNL A   1      31.762  26.903  22.616  1.00  0.00     0.167 A 
ATOM      9  C   UNL A   1      31.944  24.619  22.846  1.00  0.00     0.120 A 
ATOM     10  C   UNL A   1      33.084  24.505  22.059  1.00  0.00     0.146 A 
ATOM     11  N   UNL A   1      31.257  25.775  23.134  1.00  0.00    -0.231 NA
ATOM     12  N   UNL A   1      33.648  25.580  21.554  1.00  0.00    -0.259 NA
ATOM     13  C   UNL A   1      32.967  26.726  21.846  1.00  0.00     0.147 A 
BRANCH   9  14
ATOM     14  S   UNL A   1      31.448  23.175  23.664  1.00  0.00    -0.068 SA
BRANCH  14  15
ATOM     15  C   UNL A   1      32.844  22.808  24.718  1.00  0.00     0.017 A 
ATOM     16  C   UNL A   1      33.360  24.984  26.120  1.00  0.00     0.045 C 
ATOM     17  C   UNL A   1      33.577  23.557  25.676  1.00  0.00    -0.037 A 
ATOM     18  C   UNL A   1      34.691  22.935  26.281  1.00  0.00     0.004 A 
ATOM     19  C   UNL A   1      35.058  21.627  25.976  1.00  0.00     0.000 A 
ATOM     20  C   UNL A   1      33.239  21.488  24.437  1.00  0.00     0.016 A 
ATOM     21  C   UNL A   1      34.327  20.901  25.055  1.00  0.00     0.001 A 
ENDBRANCH  14  15
ENDBRANCH   9  14
ENDBRANCH   6   8
ENDBRANCH   5   6
ENDBRANCH   4   5
ENDBRANCH   3   4
ENDBRANCH   2   3
ENDBRANCH   1   2
BRANCH   1  22
ATOM     22  C   UNL A   1      35.295  29.331  27.578  1.00  0.00     0.188 C 
BRANCH  22  23
ATOM     23  O   UNL A   1      35.593  30.716  27.649  1.00  0.00    -0.376 OA
BRANCH  23  24
ATOM     24  C   UNL A   1      34.482  31.598  27.615  1.00  0.00     0.202 C 
BRANCH  24  25
ATOM     25  C   UNL A   1      34.673  32.910  28.402  1.00  0.00     0.261 C 
BRANCH  25  26
ATOM     26  O   UNL A   1      33.994  32.847  29.674  1.00  0.00    -0.460 OA
BRANCH  26  27
ATOM     27  C   UNL A   1      34.014  33.951  30.478  1.00  0.00     0.338 C 
ATOM     28  O   UNL A   1      33.334  34.969  30.319  1.00  0.00    -0.246 OA
BRANCH  27  29
ATOM     29  C   UNL A   1      35.228  33.887  31.349  1.00  0.00     0.060 A 
ATOM     30  C   UNL A   1      36.456  34.438  30.978  1.00  0.00     0.016 A 
ATOM     31  C   UNL A   1      35.282  32.873  32.249  1.00  0.00     0.016 A 
ATOM     32  C   UNL A   1      37.695  33.738  31.224  1.00  0.00     0.010 A 
ATOM     33  C   UNL A   1      36.486  32.163  32.331  1.00  0.00     0.010 A 
ATOM     34  C   UNL A   1      37.756  32.434  31.738  1.00  0.00    -0.014 A 
BRANCH  34  35
ATOM     35  C   UNL A   1      39.130  31.428  31.517  1.00  0.00     0.031 A 
ATOM     36  C   UNL A   1      39.484  29.965  30.700  1.00  0.00     0.074 A 
ATOM     37  C   UNL A   1      40.238  31.842  32.159  1.00  0.00     0.049 A 
ATOM     38  N   UNL A   1      40.103  28.910  31.209  1.00  0.00    -0.248 NA
ATOM     39  C   UNL A   1      39.080  29.503  29.328  1.00  0.00     0.031 C 
ATOM     40  C   UNL A   1      41.612  31.420  31.928  1.00  0.00     0.029 A 
ATOM     41  N   UNL A   1      40.338  32.783  33.180  1.00  0.00    -0.354 N 
ATOM     42  C   UNL A   1      40.164  27.973  30.141  1.00  0.00     0.074 A 
ATOM     43  C   UNL A   1      38.968  28.181  29.435  1.00  0.00     0.031 C 
ATOM     44  C   UNL A   1      42.377  31.898  32.923  1.00  0.00     0.029 A 
ATOM     45  C   UNL A   1      41.478  32.453  33.917  1.00  0.00     0.049 A 
ATOM     46  H   UNL A   1      39.726  33.535  33.351  1.00  0.00     0.167 HD
ATOM     47  C   UNL A   1      41.325  27.543  29.527  1.00  0.00     0.037 A 
ATOM     48  C   UNL A   1      41.348  32.024  35.206  1.00  0.00     0.037 A 
ATOM     49  C   UNL A   1      42.416  27.821  30.416  1.00  0.00     0.049 A 
ATOM     50  C   UNL A   1      41.893  30.622  35.376  1.00  0.00     0.074 A 
ATOM     51  C   UNL A   1      43.505  28.667  30.402  1.00  0.00     0.029 A 
ATOM     52  N   UNL A   1      42.272  27.358  31.704  1.00  0.00    -0.354 N 
ATOM     53  N   UNL A   1      42.073  29.796  34.377  1.00  0.00    -0.248 NA
ATOM     54  C   UNL A   1      42.363  30.059  36.636  1.00  0.00     0.031 C 
ATOM     55  C   UNL A   1      43.925  28.813  31.761  1.00  0.00     0.029 A 
ATOM     56  C   UNL A   1      43.124  28.005  32.555  1.00  0.00     0.049 A 
ATOM     57  H   UNL A   1      41.640  26.653  31.976  1.00  0.00     0.167 HD
ATOM     58  C   UNL A   1      42.696  28.660  34.811  1.00  0.00     0.074 A 
ATOM     59  C   UNL A   1      42.840  28.864  36.236  1.00  0.00     0.031 C 
ATOM     60  C   UNL A   1      43.041  27.651  33.960  1.00  0.00     0.037 A 
BRANCH  47  61
ATOM     61  C   UNL A   1      41.530  27.064  28.046  1.00  0.00     0.057 A 
ATOM     62  C   UNL A   1      41.642  25.681  27.772  1.00  0.00     0.134 A 
ATOM     63  C   UNL A   1      41.706  27.847  26.871  1.00  0.00     0.134 A 
ATOM     64  F   UNL A   1      41.525  24.772  28.750  1.00  0.00    -0.206 F 
ATOM     65  C   UNL A   1      41.894  25.145  26.487  1.00  0.00     0.040 A 
ATOM     66  C   UNL A   1      41.901  27.323  25.575  1.00  0.00     0.040 A 
ATOM     67  F   UNL A   1      41.783  29.180  26.871  1.00  0.00    -0.206 F 
ATOM     68  C   UNL A   1      42.009  25.964  25.377  1.00  0.00     0.006 A 
ENDBRANCH  47  61
BRANCH  48  69
ATOM     69  C   UNL A   1      40.243  32.719  35.942  1.00  0.00     0.057 A 
ATOM     70  C   UNL A   1      39.031  32.003  36.106  1.00  0.00     0.134 A 
ATOM     71  C   UNL A   1      40.424  33.817  36.790  1.00  0.00     0.134 A 
ATOM     72  F   UNL A   1      38.777  30.932  35.336  1.00  0.00    -0.206 F 
ATOM     73  C   UNL A   1      38.124  32.272  37.136  1.00  0.00     0.040 A 
ATOM     74  C   UNL A   1      39.498  34.119  37.811  1.00  0.00     0.040 A 
ATOM     75  F   UNL A   1      41.553  34.537  36.745  1.00  0.00    -0.206 F 
ATOM     76  C   UNL A   1      38.366  33.324  38.007  1.00  0.00     0.006 A 
ENDBRANCH  48  69
BRANCH  60  77
ATOM     77  C   UNL A   1      43.232  26.189  34.327  1.00  0.00     0.057 A 
ATOM     78  C   UNL A   1      42.276  25.427  35.011  1.00  0.00     0.134 A 
ATOM     79  C   UNL A   1      44.295  25.435  33.761  1.00  0.00     0.134 A 
ATOM     80  F   UNL A   1      41.167  25.974  35.521  1.00  0.00    -0.206 F 
ATOM     81  C   UNL A   1      42.378  24.035  35.140  1.00  0.00     0.040 A 
ATOM     82  C   UNL A   1      44.358  24.041  33.811  1.00  0.00     0.040 A 
ATOM     83  F   UNL A   1      45.296  26.015  33.080  1.00  0.00    -0.206 F 
ATOM     84  C   UNL A   1      43.402  23.334  34.518  1.00  0.00     0.006 A 
ENDBRANCH  60  77
ENDBRANCH  34  35
ENDBRANCH  27  29
ENDBRANCH  26  27
ENDBRANCH  25  26
ENDBRANCH  24  25
ENDBRANCH  23  24
ENDBRANCH  22  23
ENDBRANCH   1  22
TORSDOF 19
ENDMDL
MODEL 3
REMARK VINA RESULT:     -10.5      1.671      2.763
REMARK SMILES Cc1ccccc1Sc1cncc(C(=O)OCCOCCOCCOC(=O)c2ccc(-c3c4nc(c(-c5c(F)cccc5F)c5ccc([nH]5)c(-c5c(F)cccc5F)c5nc(c(-c6c(F)cccc6F)c6ccc3[nH]6)C=C5)C=C4)cc2)n1
REMARK SMILES IDX 20 1 19 2 18 3 17 4 16 5 14 6 15 7 13 8 9 9 10 10 82 11
REMARK SMILES IDX 11 12 12 13 8 14 7 15 1 16 2 17 3 18 4 19 6 20 5 21 21 22
REMARK SMILES IDX 22 23 23 24 24 25 25 26 26 27 27 28 28 29 29 30 81 31 30 32
REMARK SMILES IDX 80 33 31 34 32 35 33 36 74 37 34 38 79 39 73 40 75 41 35 42
REMARK SMILES IDX 78 43 72 44 71 45 36 47 62 48 45 49 61 50 46 51 49 52 60 53
REMARK SMILES IDX 76 54 47 55 48 56 59 58 77 59 50 60 37 61 38 62 43 63 39 64
REMARK SMILES IDX 40 65 42 66 44 67 41 68 63 69 64 70 69 71 65 72 66 73 68 74
REMARK SMILES IDX 70 75 67 76 51 77 52 78 57 79 53 80 54 81 56 82 58 83 55 84
REMARK H PARENT 75 46 49 57
REMARK Flexibility Score: inf
ROOT
ATOM      1  C   UNL A   1      33.554  28.999  24.864  1.00  0.00     0.188 C 
ENDROOT
BRANCH   1   2
ATOM      2  O   UNL A   1      32.196  29.060  24.411  1.00  0.00    -0.376 OA
BRANCH   2   3
ATOM      3  C   UNL A   1      32.013  28.757  23.027  1.00  0.00     0.202 C 
BRANCH   3   4
ATOM      4  C   UNL A   1      32.484  27.336  22.528  1.00  0.00     0.261 C 
BRANCH   4   5
ATOM      5  O   UNL A   1      31.590  26.147  22.694  1.00  0.00    -0.458 OA
BRANCH   5   6
ATOM      6  C   UNL A   1      30.597  25.922  23.674  1.00  0.00     0.358 C 
ATOM      7  O   UNL A   1      29.504  26.457  23.564  1.00  0.00    -0.244 OA
BRANCH   6   8
ATOM      8  C   UNL A   1      30.941  24.770  24.949  1.00  0.00     0.167 A 
ATOM      9  C   UNL A   1      32.521  23.323  25.796  1.00  0.00     0.120 A 
ATOM     10  C   UNL A   1      31.843  23.082  26.985  1.00  0.00     0.146 A 
ATOM     11  N   UNL A   1      32.120  24.154  24.776  1.00  0.00    -0.231 NA
ATOM     12  N   UNL A   1      30.666  23.627  27.197  1.00  0.00    -0.259 NA
ATOM     13  C   UNL A   1      30.267  24.447  26.181  1.00  0.00     0.147 A 
BRANCH   9  14
ATOM     14  S   UNL A   1      33.927  22.351  25.522  1.00  0.00    -0.068 SA
BRANCH  14  15
ATOM     15  C   UNL A   1      33.268  20.910  24.695  1.00  0.00     0.017 A 
ATOM     16  C   UNL A   1      32.258  21.722  22.395  1.00  0.00     0.045 C 
ATOM     17  C   UNL A   1      32.607  20.704  23.455  1.00  0.00    -0.037 A 
ATOM     18  C   UNL A   1      32.163  19.398  23.159  1.00  0.00     0.004 A 
ATOM     19  C   UNL A   1      32.375  18.333  24.031  1.00  0.00     0.000 A 
ATOM     20  C   UNL A   1      33.471  19.813  25.550  1.00  0.00     0.016 A 
ATOM     21  C   UNL A   1      33.035  18.541  25.228  1.00  0.00     0.001 A 
ENDBRANCH  14  15
ENDBRANCH   9  14
ENDBRANCH   6   8
ENDBRANCH   5   6
ENDBRANCH   4   5
ENDBRANCH   3   4
ENDBRANCH   2   3
ENDBRANCH   1   2
BRANCH   1  22
ATOM     22  C   UNL A   1      33.586  28.492  26.292  1.00  0.00     0.188 C 
BRANCH  22  23
ATOM     23  O   UNL A   1      32.819  29.305  27.165  1.00  0.00    -0.376 OA
BRANCH  23  24
ATOM     24  C   UNL A   1      33.137  30.687  27.176  1.00  0.00     0.202 C 
BRANCH  24  25
ATOM     25  C   UNL A   1      34.490  31.035  27.827  1.00  0.00     0.261 C 
BRANCH  25  26
ATOM     26  O   UNL A   1      34.717  32.460  27.803  1.00  0.00    -0.460 OA
BRANCH  26  27
ATOM     27  C   UNL A   1      34.392  33.190  28.911  1.00  0.00     0.338 C 
ATOM     28  O   UNL A   1      33.344  33.822  29.074  1.00  0.00    -0.246 OA
BRANCH  27  29
ATOM     29  C   UNL A   1      35.629  33.402  29.724  1.00  0.00     0.060 A 
ATOM     30  C   UNL A   1      36.839  33.824  29.166  1.00  0.00     0.016 A 
ATOM     31  C   UNL A   1      35.723  32.710  30.887  1.00  0.00     0.016 A 
ATOM     32  C   UNL A   1      38.094  33.240  29.576  1.00  0.00     0.010 A 
ATOM     33  C   UNL A   1      36.940  32.068  31.145  1.00  0.00     0.010 A 
ATOM     34  C   UNL A   1      38.189  32.154  30.460  1.00  0.00    -0.014 A 
BRANCH  34  35
ATOM     35  C   UNL A   1      39.573  31.138  30.514  1.00  0.00     0.031 A 
ATOM     36  C   UNL A   1      40.021  29.610  29.884  1.00  0.00     0.074 A 
ATOM     37  C   UNL A   1      40.588  31.612  31.259  1.00  0.00     0.049 A 
ATOM     38  N   UNL A   1      40.558  28.607  30.562  1.00  0.00    -0.248 NA
ATOM     39  C   UNL A   1      39.800  29.027  28.516  1.00  0.00     0.031 C 
ATOM     40  C   UNL A   1      41.977  31.177  31.252  1.00  0.00     0.029 A 
ATOM     41  N   UNL A   1      40.559  32.640  32.198  1.00  0.00    -0.354 N 
ATOM     42  C   UNL A   1      40.754  27.580  29.598  1.00  0.00     0.074 A 
ATOM     43  C   UNL A   1      39.664  27.719  28.724  1.00  0.00     0.031 C 
ATOM     44  C   UNL A   1      42.607  31.744  32.294  1.00  0.00     0.029 A 
ATOM     45  C   UNL A   1      41.587  32.381  33.106  1.00  0.00     0.049 A 
ATOM     46  H   UNL A   1      39.935  33.401  32.219  1.00  0.00     0.167 HD
ATOM     47  C   UNL A   1      41.983  27.101  29.186  1.00  0.00     0.037 A 
ATOM     48  C   UNL A   1      41.283  32.067  34.399  1.00  0.00     0.037 A 
ATOM     49  C   UNL A   1      42.948  27.461  30.184  1.00  0.00     0.049 A 
ATOM     50  C   UNL A   1      41.790  30.688  34.764  1.00  0.00     0.074 A 
ATOM     51  C   UNL A   1      44.035  28.307  30.242  1.00  0.00     0.029 A 
ATOM     52  N   UNL A   1      42.630  27.113  31.477  1.00  0.00    -0.354 N 
ATOM     53  N   UNL A   1      42.095  29.778  33.874  1.00  0.00    -0.248 NA
ATOM     54  C   UNL A   1      42.083  30.240  36.120  1.00  0.00     0.031 C 
ATOM     55  C   UNL A   1      44.271  28.574  31.626  1.00  0.00     0.029 A 
ATOM     56  C   UNL A   1      43.365  27.836  32.374  1.00  0.00     0.049 A 
ATOM     57  H   UNL A   1      41.961  26.433  31.723  1.00  0.00     0.167 HD
ATOM     58  C   UNL A   1      42.646  28.687  34.486  1.00  0.00     0.074 A 
ATOM     59  C   UNL A   1      42.599  29.017  35.894  1.00  0.00     0.031 C 
ATOM     60  C   UNL A   1      43.093  27.608  33.781  1.00  0.00     0.037 A 
BRANCH  47  61
ATOM     61  C   UNL A   1      42.380  26.494  27.793  1.00  0.00     0.057 A 
ATOM     62  C   UNL A   1      42.546  25.096  27.667  1.00  0.00     0.134 A 
ATOM     63  C   UNL A   1      42.691  27.171  26.580  1.00  0.00     0.134 A 
ATOM     64  F   UNL A   1      42.320  24.277  28.704  1.00  0.00    -0.206 F 
ATOM     65  C   UNL A   1      42.966  24.451  26.480  1.00  0.00     0.040 A 
ATOM     66  C   UNL A   1      43.054  26.535  25.374  1.00  0.00     0.040 A 
ATOM     67  F   UNL A   1      42.746  28.500  26.464  1.00  0.00    -0.206 F 
ATOM     68  C   UNL A   1      43.207  25.167  25.319  1.00  0.00     0.006 A 
ENDBRANCH  47  61
BRANCH  48  69
ATOM     69  C   UNL A   1      40.095  32.820  34.917  1.00  0.00     0.057 A 
ATOM     70  C   UNL A   1      38.859  32.129  34.944  1.00  0.00     0.134 A 
ATOM     71  C   UNL A   1      40.171  33.970  35.711  1.00  0.00     0.134 A 
ATOM     72  F   UNL A   1      38.701  31.011  34.215  1.00  0.00    -0.206 F 
ATOM     73  C   UNL A   1      37.815  32.473  35.809  1.00  0.00     0.040 A 
ATOM     74  C   UNL A   1      39.110  34.347  36.561  1.00  0.00     0.040 A 
ATOM     75  F   UNL A   1      41.308  34.674  35.788  1.00  0.00    -0.206 F 
ATOM     76  C   UNL A   1      37.946  33.579  36.637  1.00  0.00     0.006 A 
ENDBRANCH  48  69
BRANCH  60  77
ATOM     77  C   UNL A   1      43.221  26.184  34.298  1.00  0.00     0.057 A 
ATOM     78  C   UNL A   1      42.167  25.469  34.878  1.00  0.00     0.134 A 
ATOM     79  C   UNL A   1      44.364  25.402  33.980  1.00  0.00     0.134 A 
ATOM     80  F   UNL A   1      40.989  26.041  35.152  1.00  0.00    -0.206 F 
ATOM     81  C   UNL A   1      42.247  24.095  35.141  1.00  0.00     0.040 A 
ATOM     82  C   UNL A   1      44.418  24.017  34.158  1.00  0.00     0.040 A 
ATOM     83  F   UNL A   1      45.462  25.937  33.424  1.00  0.00    -0.206 F 
ATOM     84  C   UNL A   1      43.360  23.359  34.757  1.00  0.00     0.006 A 
ENDBRANCH  60  77
ENDBRANCH  34  35
ENDBRANCH  27  29
ENDBRANCH  26  27
ENDBRANCH  25  26
ENDBRANCH  24  25
ENDBRANCH  23  24
ENDBRANCH  22  23
ENDBRANCH   1  22
TORSDOF 19
ENDMDL
