MODEL 1
REMARK VINA RESULT:     -11.3      0.000      0.000
REMARK SMILES CCc1cc(OC(F)(F)F)cc2c1O[C@H](C(F)(F)F)C(C(=O)OCCOCCOCCOC(=O)c1ccc(-c3c4nc(c(-c5c(F)cccc5F)c5ccc([nH]5)c(-c5c(F)cccc5F)c5nc(c(-c6c(F)cccc6F)c6ccc3[nH]6)C=C5)C=C4)cc1)=C2
REMARK SMILES IDX 27 1 26 2 25 3 24 4 23 5 21 6 22 7 20 8 3 9 4 10 13 11 5 12
REMARK SMILES IDX 12 13 14 14 11 15 89 16 15 17 2 18 1 19 6 20 7 21 8 22 9 23
REMARK SMILES IDX 10 24 16 25 17 26 18 27 19 28 28 29 29 30 30 31 31 32 32 33
REMARK SMILES IDX 33 34 34 35 35 36 36 37 88 38 37 39 87 40 38 41 39 42 40 43
REMARK SMILES IDX 81 44 41 45 86 46 80 47 82 48 42 49 85 50 79 51 78 52 43 54
REMARK SMILES IDX 69 55 52 56 68 57 53 58 56 59 67 60 83 61 54 62 55 63 66 65
REMARK SMILES IDX 84 66 57 67 44 68 45 69 50 70 46 71 47 72 49 73 51 74 48 75
REMARK SMILES IDX 70 76 71 77 76 78 72 79 73 80 75 81 77 82 74 83 58 84 59 85
REMARK SMILES IDX 64 86 60 87 61 88 63 89 65 90 62 91
REMARK H PARENT 82 53 56 64
REMARK Flexibility Score: inf
ROOT
ATOM      1  C   UNL A   1      41.981  20.124  27.299  1.00  0.00     0.188 C 
ENDROOT
BRANCH   1   2
ATOM      2  O   UNL A   1      40.688  20.629  27.607  1.00  0.00    -0.376 OA
BRANCH   2   3
ATOM      3  C   UNL A   1      40.165  21.735  26.890  1.00  0.00     0.202 C 
BRANCH   3   4
ATOM      4  C   UNL A   1      39.166  21.472  25.754  1.00  0.00     0.261 C 
BRANCH   4   5
ATOM      5  O   UNL A   1      37.980  22.286  25.762  1.00  0.00    -0.460 OA
BRANCH   5   6
ATOM      6  C   UNL A   1      36.885  21.713  25.203  1.00  0.00     0.338 C 
ATOM      7  O   UNL A   1      36.717  20.519  25.019  1.00  0.00    -0.246 OA
BRANCH   6   8
ATOM      8  C   UNL A   1      35.815  22.695  24.927  1.00  0.00     0.087 C 
ATOM      9  C   UNL A   1      33.201  25.435  23.204  1.00  0.00    -0.002 A 
ATOM     10  C   UNL A   1      32.823  26.575  23.924  1.00  0.00     0.054 A 
ATOM     11  C   UNL A   1      34.149  24.580  23.771  1.00  0.00     0.131 A 
ATOM     12  C   UNL A   1      33.382  26.852  25.176  1.00  0.00     0.130 A 
ATOM     13  C   UNL A   1      34.691  24.808  25.047  1.00  0.00     0.021 A 
ATOM     14  O   UNL A   1      34.572  23.524  23.004  1.00  0.00    -0.475 OA
ATOM     15  C   UNL A   1      34.296  25.950  25.746  1.00  0.00     0.058 A 
ATOM     16  C   UNL A   1      35.699  23.872  25.567  1.00  0.00     0.027 C 
ATOM     17  C   UNL A   1      34.895  22.347  23.776  1.00  0.00     0.316 C 
BRANCH   9  18
ATOM     18  C   UNL A   1      32.557  25.127  21.872  1.00  0.00     0.036 C 
ATOM     19  C   UNL A   1      31.872  26.333  21.249  1.00  0.00     0.009 C 
ENDBRANCH   9  18
BRANCH  12  20
ATOM     20  O   UNL A   1      33.109  27.954  25.940  1.00  0.00    -0.406 OA
BRANCH  20  21
ATOM     21  C   UNL A   1      31.777  28.095  26.414  1.00  0.00     0.573 C 
ATOM     22  F   UNL A   1      31.307  26.932  26.918  1.00  0.00    -0.132 F 
ATOM     23  F   UNL A   1      31.698  29.058  27.357  1.00  0.00    -0.132 F 
ATOM     24  F   UNL A   1      30.983  28.453  25.382  1.00  0.00    -0.132 F 
ENDBRANCH  20  21
ENDBRANCH  12  20
BRANCH  17  25
ATOM     25  C   UNL A   1      33.607  21.604  24.196  1.00  0.00     0.430 C 
ATOM     26  F   UNL A   1      32.597  21.754  23.304  1.00  0.00    -0.167 F 
ATOM     27  F   UNL A   1      33.804  20.272  24.342  1.00  0.00    -0.167 F 
ATOM     28  F   UNL A   1      33.143  22.053  25.386  1.00  0.00    -0.167 F 
ENDBRANCH  17  25
ENDBRANCH   6   8
ENDBRANCH   5   6
ENDBRANCH   4   5
ENDBRANCH   3   4
ENDBRANCH   2   3
ENDBRANCH   1   2
BRANCH   1  29
ATOM     29  C   UNL A   1      42.265  19.424  25.954  1.00  0.00     0.188 C 
BRANCH  29  30
ATOM     30  O   UNL A   1      43.387  19.951  25.274  1.00  0.00    -0.376 OA
BRANCH  30  31
ATOM     31  C   UNL A   1      43.776  21.270  25.609  1.00  0.00     0.202 C 
BRANCH  31  32
ATOM     32  C   UNL A   1      44.106  22.233  24.456  1.00  0.00     0.261 C 
BRANCH  32  33
ATOM     33  O   UNL A   1      43.529  23.549  24.537  1.00  0.00    -0.460 OA
BRANCH  33  34
ATOM     34  C   UNL A   1      44.308  24.542  25.008  1.00  0.00     0.338 C 
ATOM     35  O   UNL A   1      45.434  24.836  24.624  1.00  0.00    -0.246 OA
BRANCH  34  36
ATOM     36  C   UNL A   1      43.532  25.340  25.980  1.00  0.00     0.060 A 
ATOM     37  C   UNL A   1      43.881  26.681  26.181  1.00  0.00     0.016 A 
ATOM     38  C   UNL A   1      42.490  24.771  26.720  1.00  0.00     0.016 A 
ATOM     39  C   UNL A   1      43.215  27.443  27.145  1.00  0.00     0.010 A 
ATOM     40  C   UNL A   1      41.832  25.534  27.697  1.00  0.00     0.010 A 
ATOM     41  C   UNL A   1      42.212  26.866  27.939  1.00  0.00    -0.014 A 
BRANCH  41  42
ATOM     42  C   UNL A   1      41.679  27.626  29.102  1.00  0.00     0.031 A 
ATOM     43  C   UNL A   1      42.391  27.539  30.428  1.00  0.00     0.074 A 
ATOM     44  C   UNL A   1      40.616  28.443  28.976  1.00  0.00     0.049 A 
ATOM     45  N   UNL A   1      42.130  28.148  31.557  1.00  0.00    -0.248 NA
ATOM     46  C   UNL A   1      43.560  26.647  30.483  1.00  0.00     0.031 C 
ATOM     47  C   UNL A   1      39.856  28.655  27.747  1.00  0.00     0.029 A 
ATOM     48  N   UNL A   1      40.001  29.255  29.898  1.00  0.00    -0.354 N 
ATOM     49  C   UNL A   1      43.103  27.720  32.454  1.00  0.00     0.074 A 
ATOM     50  C   UNL A   1      43.936  26.771  31.747  1.00  0.00     0.031 C 
ATOM     51  C   UNL A   1      38.875  29.543  27.990  1.00  0.00     0.029 A 
ATOM     52  C   UNL A   1      38.923  29.943  29.396  1.00  0.00     0.049 A 
ATOM     53  H   UNL A   1      40.303  29.336  30.832  1.00  0.00     0.167 HD
ATOM     54  C   UNL A   1      43.295  28.092  33.742  1.00  0.00     0.037 A 
ATOM     55  C   UNL A   1      38.068  30.790  30.001  1.00  0.00     0.037 A 
ATOM     56  C   UNL A   1      42.467  29.030  34.455  1.00  0.00     0.049 A 
ATOM     57  C   UNL A   1      38.259  31.131  31.457  1.00  0.00     0.074 A 
ATOM     58  C   UNL A   1      42.591  29.472  35.762  1.00  0.00     0.029 A 
ATOM     59  N   UNL A   1      41.355  29.666  33.925  1.00  0.00    -0.354 N 
ATOM     60  N   UNL A   1      39.197  30.740  32.286  1.00  0.00    -0.248 NA
ATOM     61  C   UNL A   1      37.274  32.042  32.059  1.00  0.00     0.031 C 
ATOM     62  C   UNL A   1      41.523  30.333  36.039  1.00  0.00     0.029 A 
ATOM     63  C   UNL A   1      40.768  30.475  34.887  1.00  0.00     0.049 A 
ATOM     64  H   UNL A   1      41.030  29.559  33.003  1.00  0.00     0.167 HD
ATOM     65  C   UNL A   1      38.930  31.376  33.494  1.00  0.00     0.074 A 
ATOM     66  C   UNL A   1      37.757  32.197  33.282  1.00  0.00     0.031 C 
ATOM     67  C   UNL A   1      39.597  31.289  34.672  1.00  0.00     0.037 A 
BRANCH  54  68
ATOM     68  C   UNL A   1      44.440  27.454  34.478  1.00  0.00     0.057 A 
ATOM     69  C   UNL A   1      45.716  28.031  34.510  1.00  0.00     0.134 A 
ATOM     70  C   UNL A   1      44.254  26.259  35.186  1.00  0.00     0.134 A 
ATOM     71  F   UNL A   1      45.965  29.167  33.841  1.00  0.00    -0.206 F 
ATOM     72  C   UNL A   1      46.773  27.429  35.196  1.00  0.00     0.040 A 
ATOM     73  C   UNL A   1      45.295  25.663  35.900  1.00  0.00     0.040 A 
ATOM     74  F   UNL A   1      43.056  25.657  35.204  1.00  0.00    -0.206 F 
ATOM     75  C   UNL A   1      46.562  26.245  35.899  1.00  0.00     0.006 A 
ENDBRANCH  54  68
BRANCH  55  76
ATOM     76  C   UNL A   1      36.934  31.379  29.241  1.00  0.00     0.057 A 
ATOM     77  C   UNL A   1      35.784  30.634  28.951  1.00  0.00     0.134 A 
ATOM     78  C   UNL A   1      36.993  32.687  28.747  1.00  0.00     0.134 A 
ATOM     79  F   UNL A   1      35.678  29.364  29.369  1.00  0.00    -0.206 F 
ATOM     80  C   UNL A   1      34.745  31.160  28.180  1.00  0.00     0.040 A 
ATOM     81  C   UNL A   1      35.950  33.237  28.000  1.00  0.00     0.040 A 
ATOM     82  F   UNL A   1      38.069  33.452  28.984  1.00  0.00    -0.206 F 
ATOM     83  C   UNL A   1      34.825  32.469  27.707  1.00  0.00     0.006 A 
ENDBRANCH  55  76
BRANCH  67  84
ATOM     84  C   UNL A   1      39.092  32.128  35.812  1.00  0.00     0.057 A 
ATOM     85  C   UNL A   1      39.472  33.467  35.977  1.00  0.00     0.134 A 
ATOM     86  C   UNL A   1      38.208  31.591  36.758  1.00  0.00     0.134 A 
ATOM     87  F   UNL A   1      40.323  34.043  35.115  1.00  0.00    -0.206 F 
ATOM     88  C   UNL A   1      39.023  34.226  37.060  1.00  0.00     0.040 A 
ATOM     89  C   UNL A   1      37.728  32.349  37.827  1.00  0.00     0.040 A 
ATOM     90  F   UNL A   1      37.790  30.319  36.656  1.00  0.00    -0.206 F 
ATOM     91  C   UNL A   1      38.146  33.668  37.988  1.00  0.00     0.006 A 
ENDBRANCH  67  84
ENDBRANCH  41  42
ENDBRANCH  34  36
ENDBRANCH  33  34
ENDBRANCH  32  33
ENDBRANCH  31  32
ENDBRANCH  30  31
ENDBRANCH  29  30
ENDBRANCH   1  29
TORSDOF 21
ENDMDL
MODEL 2
REMARK VINA RESULT:     -11.0      3.799      7.906
REMARK SMILES CCc1cc(OC(F)(F)F)cc2c1O[C@H](C(F)(F)F)C(C(=O)OCCOCCOCCOC(=O)c1ccc(-c3c4nc(c(-c5c(F)cccc5F)c5ccc([nH]5)c(-c5c(F)cccc5F)c5nc(c(-c6c(F)cccc6F)c6ccc3[nH]6)C=C5)C=C4)cc1)=C2
REMARK SMILES IDX 27 1 26 2 25 3 24 4 23 5 21 6 22 7 20 8 3 9 4 10 13 11 5 12
REMARK SMILES IDX 12 13 14 14 11 15 89 16 15 17 2 18 1 19 6 20 7 21 8 22 9 23
REMARK SMILES IDX 10 24 16 25 17 26 18 27 19 28 28 29 29 30 30 31 31 32 32 33
REMARK SMILES IDX 33 34 34 35 35 36 36 37 88 38 37 39 87 40 38 41 39 42 40 43
REMARK SMILES IDX 81 44 41 45 86 46 80 47 82 48 42 49 85 50 79 51 78 52 43 54
REMARK SMILES IDX 69 55 52 56 68 57 53 58 56 59 67 60 83 61 54 62 55 63 66 65
REMARK SMILES IDX 84 66 57 67 44 68 45 69 50 70 46 71 47 72 49 73 51 74 48 75
REMARK SMILES IDX 70 76 71 77 76 78 72 79 73 80 75 81 77 82 74 83 58 84 59 85
REMARK SMILES IDX 64 86 60 87 61 88 63 89 65 90 62 91
REMARK H PARENT 82 53 56 64
REMARK Flexibility Score: inf
ROOT
ATOM      1  C   UNL A   1      34.830  21.028  25.415  1.00  0.00     0.188 C 
ENDROOT
BRANCH   1   2
ATOM      2  O   UNL A   1      33.916  20.708  24.374  1.00  0.00    -0.376 OA
BRANCH   2   3
ATOM      3  C   UNL A   1      32.519  20.746  24.614  1.00  0.00     0.202 C 
BRANCH   3   4
ATOM      4  C   UNL A   1      31.988  21.638  25.744  1.00  0.00     0.261 C 
BRANCH   4   5
ATOM      5  O   UNL A   1      30.798  22.390  25.444  1.00  0.00    -0.460 OA
BRANCH   5   6
ATOM      6  C   UNL A   1      30.503  23.376  26.326  1.00  0.00     0.338 C 
ATOM      7  O   UNL A   1      30.151  23.220  27.484  1.00  0.00    -0.246 OA
BRANCH   6   8
ATOM      8  C   UNL A   1      30.767  24.722  25.775  1.00  0.00     0.087 C 
ATOM      9  C   UNL A   1      31.301  28.806  25.184  1.00  0.00    -0.002 A 
ATOM     10  C   UNL A   1      30.834  29.400  24.005  1.00  0.00     0.054 A 
ATOM     11  C   UNL A   1      31.028  27.452  25.396  1.00  0.00     0.131 A 
ATOM     12  C   UNL A   1      30.109  28.658  23.066  1.00  0.00     0.130 A 
ATOM     13  C   UNL A   1      30.345  26.672  24.447  1.00  0.00     0.021 A 
ATOM     14  O   UNL A   1      31.413  26.920  26.601  1.00  0.00    -0.475 OA
ATOM     15  C   UNL A   1      29.891  27.286  23.279  1.00  0.00     0.058 A 
ATOM     16  C   UNL A   1      30.079  25.258  24.752  1.00  0.00     0.027 C 
ATOM     17  C   UNL A   1      31.809  25.534  26.516  1.00  0.00     0.316 C 
BRANCH   9  18
ATOM     18  C   UNL A   1      32.119  29.609  26.170  1.00  0.00     0.036 C 
ATOM     19  C   UNL A   1      31.671  31.058  26.272  1.00  0.00     0.009 C 
ENDBRANCH   9  18
BRANCH  12  20
ATOM     20  O   UNL A   1      29.579  29.152  21.906  1.00  0.00    -0.406 OA
BRANCH  20  21
ATOM     21  C   UNL A   1      28.404  29.943  22.021  1.00  0.00     0.573 C 
ATOM     22  F   UNL A   1      27.900  30.258  20.807  1.00  0.00    -0.132 F 
ATOM     23  F   UNL A   1      27.461  29.307  22.747  1.00  0.00    -0.132 F 
ATOM     24  F   UNL A   1      28.715  31.095  22.654  1.00  0.00    -0.132 F 
ENDBRANCH  20  21
ENDBRANCH  12  20
BRANCH  17  25
ATOM     25  C   UNL A   1      33.237  25.412  25.936  1.00  0.00     0.430 C 
ATOM     26  F   UNL A   1      33.953  24.412  26.505  1.00  0.00    -0.167 F 
ATOM     27  F   UNL A   1      33.234  25.180  24.602  1.00  0.00    -0.167 F 
ATOM     28  F   UNL A   1      33.945  26.551  26.123  1.00  0.00    -0.167 F 
ENDBRANCH  17  25
ENDBRANCH   6   8
ENDBRANCH   5   6
ENDBRANCH   4   5
ENDBRANCH   3   4
ENDBRANCH   2   3
ENDBRANCH   1   2
BRANCH   1  29
ATOM     29  C   UNL A   1      36.350  21.081  25.154  1.00  0.00     0.188 C 
BRANCH  29  30
ATOM     30  O   UNL A   1      36.944  19.803  25.043  1.00  0.00    -0.376 OA
BRANCH  30  31
ATOM     31  C   UNL A   1      38.302  19.761  24.645  1.00  0.00     0.202 C 
BRANCH  31  32
ATOM     32  C   UNL A   1      39.349  19.399  25.712  1.00  0.00     0.261 C 
BRANCH  32  33
ATOM     33  O   UNL A   1      40.714  19.317  25.265  1.00  0.00    -0.460 OA
BRANCH  33  34
ATOM     34  C   UNL A   1      41.680  19.374  26.203  1.00  0.00     0.338 C 
ATOM     35  O   UNL A   1      42.432  18.466  26.537  1.00  0.00    -0.246 OA
BRANCH  34  36
ATOM     36  C   UNL A   1      41.803  20.768  26.680  1.00  0.00     0.060 A 
ATOM     37  C   UNL A   1      42.183  21.760  25.768  1.00  0.00     0.016 A 
ATOM     38  C   UNL A   1      41.585  21.098  28.021  1.00  0.00     0.016 A 
ATOM     39  C   UNL A   1      42.380  23.074  26.202  1.00  0.00     0.010 A 
ATOM     40  C   UNL A   1      41.797  22.415  28.458  1.00  0.00     0.010 A 
ATOM     41  C   UNL A   1      42.227  23.406  27.556  1.00  0.00    -0.014 A 
BRANCH  41  42
ATOM     42  C   UNL A   1      42.659  24.749  28.029  1.00  0.00     0.031 A 
ATOM     43  C   UNL A   1      41.624  25.826  28.238  1.00  0.00     0.074 A 
ATOM     44  C   UNL A   1      43.944  25.000  28.342  1.00  0.00     0.049 A 
ATOM     45  N   UNL A   1      41.769  27.047  28.685  1.00  0.00    -0.248 NA
ATOM     46  C   UNL A   1      40.237  25.470  27.901  1.00  0.00     0.031 C 
ATOM     47  C   UNL A   1      45.043  24.043  28.228  1.00  0.00     0.029 A 
ATOM     48  N   UNL A   1      44.537  26.139  28.830  1.00  0.00    -0.354 N 
ATOM     49  C   UNL A   1      40.496  27.605  28.689  1.00  0.00     0.074 A 
ATOM     50  C   UNL A   1      39.596  26.599  28.164  1.00  0.00     0.031 C 
ATOM     51  C   UNL A   1      46.179  24.635  28.638  1.00  0.00     0.029 A 
ATOM     52  C   UNL A   1      45.893  26.018  29.019  1.00  0.00     0.049 A 
ATOM     53  H   UNL A   1      44.039  26.966  29.025  1.00  0.00     0.167 HD
ATOM     54  C   UNL A   1      40.106  28.834  29.104  1.00  0.00     0.037 A 
ATOM     55  C   UNL A   1      46.800  26.920  29.442  1.00  0.00     0.037 A 
ATOM     56  C   UNL A   1      40.995  29.843  29.621  1.00  0.00     0.049 A 
ATOM     57  C   UNL A   1      46.352  28.306  29.828  1.00  0.00     0.074 A 
ATOM     58  C   UNL A   1      40.687  31.116  30.071  1.00  0.00     0.029 A 
ATOM     59  N   UNL A   1      42.367  29.697  29.749  1.00  0.00    -0.354 N 
ATOM     60  N   UNL A   1      45.142  28.812  29.852  1.00  0.00    -0.248 NA
ATOM     61  C   UNL A   1      47.400  29.245  30.257  1.00  0.00     0.031 C 
ATOM     62  C   UNL A   1      41.879  31.759  30.421  1.00  0.00     0.029 A 
ATOM     63  C   UNL A   1      42.923  30.867  30.246  1.00  0.00     0.049 A 
ATOM     64  H   UNL A   1      42.872  28.885  29.521  1.00  0.00     0.167 HD
ATOM     65  C   UNL A   1      45.281  30.114  30.321  1.00  0.00     0.074 A 
ATOM     66  C   UNL A   1      46.689  30.312  30.592  1.00  0.00     0.031 C 
ATOM     67  C   UNL A   1      44.328  31.060  30.511  1.00  0.00     0.037 A 
BRANCH  54  68
ATOM     68  C   UNL A   1      38.645  29.168  28.987  1.00  0.00     0.057 A 
ATOM     69  C   UNL A   1      37.771  29.069  30.077  1.00  0.00     0.134 A 
ATOM     70  C   UNL A   1      38.112  29.620  27.772  1.00  0.00     0.134 A 
ATOM     71  F   UNL A   1      38.213  28.630  31.265  1.00  0.00    -0.206 F 
ATOM     72  C   UNL A   1      36.415  29.381  29.958  1.00  0.00     0.040 A 
ATOM     73  C   UNL A   1      36.765  29.962  27.648  1.00  0.00     0.040 A 
ATOM     74  F   UNL A   1      38.895  29.744  26.689  1.00  0.00    -0.206 F 
ATOM     75  C   UNL A   1      35.910  29.835  28.741  1.00  0.00     0.006 A 
ENDBRANCH  54  68
BRANCH  55  76
ATOM     76  C   UNL A   1      48.240  26.553  29.518  1.00  0.00     0.057 A 
ATOM     77  C   UNL A   1      49.111  26.792  28.449  1.00  0.00     0.134 A 
ATOM     78  C   UNL A   1      48.766  25.915  30.647  1.00  0.00     0.134 A 
ATOM     79  F   UNL A   1      48.662  27.374  27.327  1.00  0.00    -0.206 F 
ATOM     80  C   UNL A   1      50.448  26.390  28.490  1.00  0.00     0.040 A 
ATOM     81  C   UNL A   1      50.107  25.532  30.714  1.00  0.00     0.040 A 
ATOM     82  F   UNL A   1      47.983  25.651  31.703  1.00  0.00    -0.206 F 
ATOM     83  C   UNL A   1      50.950  25.762  29.629  1.00  0.00     0.006 A 
ENDBRANCH  55  76
BRANCH  67  84
ATOM     84  C   UNL A   1      44.773  32.383  31.068  1.00  0.00     0.057 A 
ATOM     85  C   UNL A   1      45.072  33.477  30.244  1.00  0.00     0.134 A 
ATOM     86  C   UNL A   1      44.902  32.569  32.452  1.00  0.00     0.134 A 
ATOM     87  F   UNL A   1      44.981  33.367  28.910  1.00  0.00    -0.206 F 
ATOM     88  C   UNL A   1      45.519  34.690  30.772  1.00  0.00     0.040 A 
ATOM     89  C   UNL A   1      45.317  33.787  32.993  1.00  0.00     0.040 A 
ATOM     90  F   UNL A   1      44.621  31.570  33.303  1.00  0.00    -0.206 F 
ATOM     91  C   UNL A   1      45.639  34.848  32.151  1.00  0.00     0.006 A 
ENDBRANCH  67  84
ENDBRANCH  41  42
ENDBRANCH  34  36
ENDBRANCH  33  34
ENDBRANCH  32  33
ENDBRANCH  31  32
ENDBRANCH  30  31
ENDBRANCH  29  30
ENDBRANCH   1  29
TORSDOF 21
ENDMDL
MODEL 3
REMARK VINA RESULT:     -10.9      3.863      6.681
REMARK SMILES CCc1cc(OC(F)(F)F)cc2c1O[C@H](C(F)(F)F)C(C(=O)OCCOCCOCCOC(=O)c1ccc(-c3c4nc(c(-c5c(F)cccc5F)c5ccc([nH]5)c(-c5c(F)cccc5F)c5nc(c(-c6c(F)cccc6F)c6ccc3[nH]6)C=C5)C=C4)cc1)=C2
REMARK SMILES IDX 27 1 26 2 25 3 24 4 23 5 21 6 22 7 20 8 3 9 4 10 13 11 5 12
REMARK SMILES IDX 12 13 14 14 11 15 89 16 15 17 2 18 1 19 6 20 7 21 8 22 9 23
REMARK SMILES IDX 10 24 16 25 17 26 18 27 19 28 28 29 29 30 30 31 31 32 32 33
REMARK SMILES IDX 33 34 34 35 35 36 36 37 88 38 37 39 87 40 38 41 39 42 40 43
REMARK SMILES IDX 81 44 41 45 86 46 80 47 82 48 42 49 85 50 79 51 78 52 43 54
REMARK SMILES IDX 69 55 52 56 68 57 53 58 56 59 67 60 83 61 54 62 55 63 66 65
REMARK SMILES IDX 84 66 57 67 44 68 45 69 50 70 46 71 47 72 49 73 51 74 48 75
REMARK SMILES IDX 70 76 71 77 76 78 72 79 73 80 75 81 77 82 74 83 58 84 59 85
REMARK SMILES IDX 64 86 60 87 61 88 63 89 65 90 62 91
REMARK H PARENT 82 53 56 64
REMARK Flexibility Score: inf
ROOT
ATOM      1  C   UNL A   1      34.955  21.818  25.117  1.00  0.00     0.188 C 
ENDROOT
BRANCH   1   2
ATOM      2  O   UNL A   1      34.173  21.594  23.951  1.00  0.00    -0.376 OA
BRANCH   2   3
ATOM      3  C   UNL A   1      32.786  21.321  24.063  1.00  0.00     0.202 C 
BRANCH   3   4
ATOM      4  C   UNL A   1      32.086  21.590  25.402  1.00  0.00     0.261 C 
BRANCH   4   5
ATOM      5  O   UNL A   1      30.933  22.449  25.344  1.00  0.00    -0.460 OA
BRANCH   5   6
ATOM      6  C   UNL A   1      30.896  23.426  26.285  1.00  0.00     0.338 C 
ATOM      7  O   UNL A   1      30.833  23.255  27.492  1.00  0.00    -0.246 OA
BRANCH   6   8
ATOM      8  C   UNL A   1      31.062  24.774  25.703  1.00  0.00     0.087 C 
ATOM      9  C   UNL A   1      31.448  28.864  25.047  1.00  0.00    -0.002 A 
ATOM     10  C   UNL A   1      30.815  29.449  23.942  1.00  0.00     0.054 A 
ATOM     11  C   UNL A   1      31.227  27.507  25.293  1.00  0.00     0.131 A 
ATOM     12  C   UNL A   1      29.981  28.694  23.110  1.00  0.00     0.130 A 
ATOM     13  C   UNL A   1      30.433  26.715  24.446  1.00  0.00     0.021 A 
ATOM     14  O   UNL A   1      31.781  26.983  26.434  1.00  0.00    -0.475 OA
ATOM     15  C   UNL A   1      29.815  27.320  23.350  1.00  0.00     0.058 A 
ATOM     16  C   UNL A   1      30.233  25.298  24.783  1.00  0.00     0.027 C 
ATOM     17  C   UNL A   1      32.183  25.603  26.296  1.00  0.00     0.316 C 
BRANCH   9  18
ATOM     18  C   UNL A   1      32.379  29.682  25.912  1.00  0.00     0.036 C 
ATOM     19  C   UNL A   1      31.721  30.928  26.482  1.00  0.00     0.009 C 
ENDBRANCH   9  18
BRANCH  12  20
ATOM     20  O   UNL A   1      29.290  29.178  22.033  1.00  0.00    -0.406 OA
BRANCH  20  21
ATOM     21  C   UNL A   1      28.153  29.985  22.307  1.00  0.00     0.573 C 
ATOM     22  F   UNL A   1      27.575  30.427  21.168  1.00  0.00    -0.132 F 
ATOM     23  F   UNL A   1      27.244  29.307  23.039  1.00  0.00    -0.132 F 
ATOM     24  F   UNL A   1      28.546  31.063  23.020  1.00  0.00    -0.132 F 
ENDBRANCH  20  21
ENDBRANCH  12  20
BRANCH  17  25
ATOM     25  C   UNL A   1      33.520  25.502  25.528  1.00  0.00     0.430 C 
ATOM     26  F   UNL A   1      33.373  24.996  24.279  1.00  0.00    -0.167 F 
ATOM     27  F   UNL A   1      34.129  26.705  25.392  1.00  0.00    -0.167 F 
ATOM     28  F   UNL A   1      34.400  24.700  26.171  1.00  0.00    -0.167 F 
ENDBRANCH  17  25
ENDBRANCH   6   8
ENDBRANCH   5   6
ENDBRANCH   4   5
ENDBRANCH   3   4
ENDBRANCH   2   3
ENDBRANCH   1   2
BRANCH   1  29
ATOM     29  C   UNL A   1      36.420  21.341  25.199  1.00  0.00     0.188 C 
BRANCH  29  30
ATOM     30  O   UNL A   1      36.560  19.939  25.088  1.00  0.00    -0.376 OA
BRANCH  30  31
ATOM     31  C   UNL A   1      37.822  19.453  24.671  1.00  0.00     0.202 C 
BRANCH  31  32
ATOM     32  C   UNL A   1      38.919  19.301  25.738  1.00  0.00     0.261 C 
BRANCH  32  33
ATOM     33  O   UNL A   1      40.255  19.650  25.336  1.00  0.00    -0.460 OA
BRANCH  33  34
ATOM     34  C   UNL A   1      41.201  19.695  26.294  1.00  0.00     0.338 C 
ATOM     35  O   UNL A   1      41.924  18.774  26.657  1.00  0.00    -0.246 OA
BRANCH  34  36
ATOM     36  C   UNL A   1      41.350  21.092  26.756  1.00  0.00     0.060 A 
ATOM     37  C   UNL A   1      40.953  22.129  25.903  1.00  0.00     0.016 A 
ATOM     38  C   UNL A   1      41.908  21.388  28.004  1.00  0.00     0.016 A 
ATOM     39  C   UNL A   1      41.149  23.461  26.279  1.00  0.00     0.010 A 
ATOM     40  C   UNL A   1      42.115  22.726  28.374  1.00  0.00     0.010 A 
ATOM     41  C   UNL A   1      41.765  23.772  27.500  1.00  0.00    -0.014 A 
BRANCH  41  42
ATOM     42  C   UNL A   1      42.164  25.179  27.776  1.00  0.00     0.031 A 
ATOM     43  C   UNL A   1      43.512  25.668  27.309  1.00  0.00     0.074 A 
ATOM     44  C   UNL A   1      41.319  26.041  28.369  1.00  0.00     0.049 A 
ATOM     45  N   UNL A   1      44.044  26.860  27.400  1.00  0.00    -0.248 NA
ATOM     46  C   UNL A   1      44.371  24.676  26.644  1.00  0.00     0.031 C 
ATOM     47  C   UNL A   1      39.972  25.717  28.836  1.00  0.00     0.029 A 
ATOM     48  N   UNL A   1      41.469  27.373  28.671  1.00  0.00    -0.354 N 
ATOM     49  C   UNL A   1      45.295  26.766  26.801  1.00  0.00     0.074 A 
ATOM     50  C   UNL A   1      45.457  25.389  26.384  1.00  0.00     0.031 C 
ATOM     51  C   UNL A   1      39.417  26.823  29.364  1.00  0.00     0.029 A 
ATOM     52  C   UNL A   1      40.376  27.924  29.296  1.00  0.00     0.049 A 
ATOM     53  H   UNL A   1      42.284  27.885  28.462  1.00  0.00     0.167 HD
ATOM     54  C   UNL A   1      46.219  27.736  26.602  1.00  0.00     0.037 A 
ATOM     55  C   UNL A   1      40.175  29.171  29.766  1.00  0.00     0.037 A 
ATOM     56  C   UNL A   1      46.070  29.106  27.021  1.00  0.00     0.049 A 
ATOM     57  C   UNL A   1      41.250  30.215  29.599  1.00  0.00     0.074 A 
ATOM     58  C   UNL A   1      46.953  30.161  26.856  1.00  0.00     0.029 A 
ATOM     59  N   UNL A   1      44.969  29.612  27.695  1.00  0.00    -0.354 N 
ATOM     60  N   UNL A   1      42.417  30.119  29.008  1.00  0.00    -0.248 NA
ATOM     61  C   UNL A   1      40.972  31.547  30.159  1.00  0.00     0.031 C 
ATOM     62  C   UNL A   1      46.410  31.290  27.478  1.00  0.00     0.029 A 
ATOM     63  C   UNL A   1      45.162  30.956  27.976  1.00  0.00     0.049 A 
ATOM     64  H   UNL A   1      44.169  29.094  27.937  1.00  0.00     0.167 HD
ATOM     65  C   UNL A   1      42.997  31.380  29.102  1.00  0.00     0.074 A 
ATOM     66  C   UNL A   1      42.045  32.228  29.785  1.00  0.00     0.031 C 
ATOM     67  C   UNL A   1      44.211  31.796  28.661  1.00  0.00     0.037 A 
BRANCH  54  68
ATOM     68  C   UNL A   1      47.498  27.337  25.921  1.00  0.00     0.057 A 
ATOM     69  C   UNL A   1      48.556  26.739  26.620  1.00  0.00     0.134 A 
ATOM     70  C   UNL A   1      47.663  27.529  24.543  1.00  0.00     0.134 A 
ATOM     71  F   UNL A   1      48.469  26.539  27.943  1.00  0.00    -0.206 F 
ATOM     72  C   UNL A   1      49.740  26.373  25.978  1.00  0.00     0.040 A 
ATOM     73  C   UNL A   1      48.831  27.141  23.885  1.00  0.00     0.040 A 
ATOM     74  F   UNL A   1      46.687  28.090  23.812  1.00  0.00    -0.206 F 
ATOM     75  C   UNL A   1      49.877  26.567  24.605  1.00  0.00     0.006 A 
ENDBRANCH  54  68
BRANCH  55  76
ATOM     76  C   UNL A   1      38.904  29.514  30.456  1.00  0.00     0.057 A 
ATOM     77  C   UNL A   1      38.717  29.246  31.818  1.00  0.00     0.134 A 
ATOM     78  C   UNL A   1      37.829  30.078  29.759  1.00  0.00     0.134 A 
ATOM     79  F   UNL A   1      39.697  28.679  32.536  1.00  0.00    -0.206 F 
ATOM     80  C   UNL A   1      37.501  29.505  32.455  1.00  0.00     0.040 A 
ATOM     81  C   UNL A   1      36.618  30.369  30.388  1.00  0.00     0.040 A 
ATOM     82  F   UNL A   1      37.941  30.354  28.450  1.00  0.00    -0.206 F 
ATOM     83  C   UNL A   1      36.449  30.074  31.739  1.00  0.00     0.006 A 
ENDBRANCH  55  76
BRANCH  67  84
ATOM     84  C   UNL A   1      44.561  33.243  28.875  1.00  0.00     0.057 A 
ATOM     85  C   UNL A   1      45.229  33.686  30.024  1.00  0.00     0.134 A 
ATOM     86  C   UNL A   1      44.228  34.208  27.914  1.00  0.00     0.134 A 
ATOM     87  F   UNL A   1      45.569  32.818  30.990  1.00  0.00    -0.206 F 
ATOM     88  C   UNL A   1      45.518  35.037  30.228  1.00  0.00     0.040 A 
ATOM     89  C   UNL A   1      44.539  35.557  28.092  1.00  0.00     0.040 A 
ATOM     90  F   UNL A   1      43.599  33.856  26.782  1.00  0.00    -0.206 F 
ATOM     91  C   UNL A   1      45.175  35.977  29.258  1.00  0.00     0.006 A 
ENDBRANCH  67  84
ENDBRANCH  41  42
ENDBRANCH  34  36
ENDBRANCH  33  34
ENDBRANCH  32  33
ENDBRANCH  31  32
ENDBRANCH  30  31
ENDBRANCH  29  30
ENDBRANCH   1  29
TORSDOF 21
ENDMDL
