MODEL 1
REMARK VINA RESULT:     -10.4      0.000      0.000
REMARK SMILES Cc1ccc(C)c(NC(=O)C=CC(=O)OCCOCCOCCOC(=O)c2ccc(-c3c4nc(c(-c5c(F)cccc5F)c5ccc([nH]5)c(-c5c(F)cccc5F)c5nc(c(-c6c(F)cccc6F)c6ccc3[nH]6)C=C5)C=C4)cc2)c1
REMARK SMILES IDX 19 1 18 2 17 3 16 4 15 5 13 6 14 7 12 8 11 9 9 10 8 11 10 13
REMARK SMILES IDX 7 14 1 15 2 16 3 17 81 18 4 19 5 20 6 21 20 22 21 23 22 24
REMARK SMILES IDX 23 25 24 26 25 27 26 28 27 29 28 30 80 31 29 32 79 33 30 34
REMARK SMILES IDX 31 35 32 36 73 37 33 38 78 39 72 40 74 41 34 42 77 43 71 44
REMARK SMILES IDX 70 45 35 47 61 48 44 49 60 50 45 51 48 52 59 53 75 54 46 55
REMARK SMILES IDX 47 56 58 58 76 59 49 60 36 61 37 62 42 63 38 64 39 65 41 66
REMARK SMILES IDX 43 67 40 68 62 69 63 70 68 71 64 72 65 73 67 74 69 75 66 76
REMARK SMILES IDX 50 77 51 78 56 79 52 80 53 81 55 82 57 83 54 84
REMARK H PARENT 8 12 74 46 48 57
REMARK Flexibility Score: inf
ROOT
ATOM      1  C   UNL A   1      31.714  28.911  27.292  1.00  0.00     0.188 C 
ENDROOT
BRANCH   1   2
ATOM      2  O   UNL A   1      31.563  27.495  27.243  1.00  0.00    -0.376 OA
BRANCH   2   3
ATOM      3  C   UNL A   1      30.875  26.955  26.106  1.00  0.00     0.202 C 
BRANCH   3   4
ATOM      4  C   UNL A   1      31.138  25.472  25.733  1.00  0.00     0.261 C 
BRANCH   4   5
ATOM      5  O   UNL A   1      31.088  24.597  26.882  1.00  0.00    -0.460 OA
BRANCH   5   6
ATOM      6  C   UNL A   1      31.442  23.286  26.915  1.00  0.00     0.331 C 
ATOM      7  O   UNL A   1      32.050  22.829  27.879  1.00  0.00    -0.247 OA
BRANCH   6   8
ATOM      8  C   UNL A   1      31.136  22.380  25.776  1.00  0.00     0.099 C 
ATOM      9  C   UNL A   1      32.190  21.849  25.117  1.00  0.00     0.079 C 
BRANCH   9  10
ATOM     10  C   UNL A   1      32.669  22.368  23.792  1.00  0.00     0.248 C 
ATOM     11  N   UNL A   1      33.976  22.679  23.547  1.00  0.00    -0.322 N 
ATOM     12  H   UNL A   1      34.126  22.981  22.622  1.00  0.00     0.170 HD
ATOM     13  O   UNL A   1      31.854  22.464  22.871  1.00  0.00    -0.270 OA
BRANCH  11  14
ATOM     14  C   UNL A   1      35.160  22.668  24.315  1.00  0.00     0.044 A 
ATOM     15  C   UNL A   1      37.877  20.065  25.026  1.00  0.00     0.044 C 
ATOM     16  C   UNL A   1      37.145  21.369  24.927  1.00  0.00    -0.049 A 
ATOM     17  C   UNL A   1      37.744  22.531  25.410  1.00  0.00     0.004 A 
ATOM     18  C   UNL A   1      35.877  21.459  24.331  1.00  0.00     0.029 A 
ATOM     19  C   UNL A   1      36.997  23.697  25.505  1.00  0.00     0.006 A 
ATOM     20  C   UNL A   1      35.659  23.718  25.083  1.00  0.00    -0.027 A 
ATOM     21  C   UNL A   1      34.787  24.781  25.664  1.00  0.00     0.046 C 
ENDBRANCH  11  14
ENDBRANCH   9  10
ENDBRANCH   6   8
ENDBRANCH   5   6
ENDBRANCH   4   5
ENDBRANCH   3   4
ENDBRANCH   2   3
ENDBRANCH   1   2
BRANCH   1  22
ATOM     22  C   UNL A   1      32.776  29.475  26.348  1.00  0.00     0.188 C 
BRANCH  22  23
ATOM     23  O   UNL A   1      33.907  28.613  26.358  1.00  0.00    -0.376 OA
BRANCH  23  24
ATOM     24  C   UNL A   1      34.985  29.053  27.166  1.00  0.00     0.202 C 
BRANCH  24  25
ATOM     25  C   UNL A   1      34.983  30.522  27.617  1.00  0.00     0.261 C 
BRANCH  25  26
ATOM     26  O   UNL A   1      35.491  30.938  28.912  1.00  0.00    -0.460 OA
BRANCH  26  27
ATOM     27  C   UNL A   1      36.687  31.422  29.297  1.00  0.00     0.338 C 
ATOM     28  O   UNL A   1      36.971  32.614  29.217  1.00  0.00    -0.246 OA
BRANCH  27  29
ATOM     29  C   UNL A   1      37.731  30.453  29.604  1.00  0.00     0.060 A 
ATOM     30  C   UNL A   1      39.019  30.895  29.349  1.00  0.00     0.016 A 
ATOM     31  C   UNL A   1      37.483  29.135  29.998  1.00  0.00     0.016 A 
ATOM     32  C   UNL A   1      40.026  29.964  29.293  1.00  0.00     0.010 A 
ATOM     33  C   UNL A   1      38.522  28.197  29.941  1.00  0.00     0.010 A 
ATOM     34  C   UNL A   1      39.784  28.602  29.506  1.00  0.00    -0.014 A 
BRANCH  34  35
ATOM     35  C   UNL A   1      40.972  27.736  29.397  1.00  0.00     0.031 A 
ATOM     36  C   UNL A   1      41.981  27.990  30.462  1.00  0.00     0.074 A 
ATOM     37  C   UNL A   1      41.201  26.820  28.429  1.00  0.00     0.049 A 
ATOM     38  N   UNL A   1      43.249  28.210  30.310  1.00  0.00    -0.248 NA
ATOM     39  C   UNL A   1      41.493  28.153  31.845  1.00  0.00     0.031 C 
ATOM     40  C   UNL A   1      40.275  26.439  27.365  1.00  0.00     0.029 A 
ATOM     41  N   UNL A   1      42.277  25.978  28.224  1.00  0.00    -0.354 N 
ATOM     42  C   UNL A   1      43.750  28.308  31.604  1.00  0.00     0.074 A 
ATOM     43  C   UNL A   1      42.625  28.408  32.498  1.00  0.00     0.031 C 
ATOM     44  C   UNL A   1      40.728  25.319  26.764  1.00  0.00     0.029 A 
ATOM     45  C   UNL A   1      41.997  24.922  27.358  1.00  0.00     0.049 A 
ATOM     46  H   UNL A   1      43.156  26.112  28.647  1.00  0.00     0.167 HD
ATOM     47  C   UNL A   1      45.006  27.893  31.891  1.00  0.00     0.037 A 
ATOM     48  C   UNL A   1      42.686  23.764  27.176  1.00  0.00     0.037 A 
ATOM     49  C   UNL A   1      45.917  27.996  30.792  1.00  0.00     0.049 A 
ATOM     50  C   UNL A   1      44.093  23.950  27.604  1.00  0.00     0.074 A 
ATOM     51  C   UNL A   1      46.701  28.963  30.208  1.00  0.00     0.029 A 
ATOM     52  N   UNL A   1      45.911  26.922  29.956  1.00  0.00    -0.354 N 
ATOM     53  N   UNL A   1      45.001  24.566  26.902  1.00  0.00    -0.248 NA
ATOM     54  C   UNL A   1      44.488  23.589  28.963  1.00  0.00     0.031 C 
ATOM     55  C   UNL A   1      47.138  28.435  28.955  1.00  0.00     0.029 A 
ATOM     56  C   UNL A   1      46.618  27.153  28.810  1.00  0.00     0.049 A 
ATOM     57  H   UNL A   1      45.449  26.075  30.154  1.00  0.00     0.167 HD
ATOM     58  C   UNL A   1      45.905  25.018  27.840  1.00  0.00     0.074 A 
ATOM     59  C   UNL A   1      45.646  24.246  29.045  1.00  0.00     0.031 C 
ATOM     60  C   UNL A   1      46.494  26.238  27.700  1.00  0.00     0.037 A 
BRANCH  47  61
ATOM     61  C   UNL A   1      45.200  26.845  32.960  1.00  0.00     0.057 A 
ATOM     62  C   UNL A   1      46.143  27.036  33.976  1.00  0.00     0.134 A 
ATOM     63  C   UNL A   1      44.694  25.531  32.835  1.00  0.00     0.134 A 
ATOM     64  F   UNL A   1      46.752  28.221  34.128  1.00  0.00    -0.206 F 
ATOM     65  C   UNL A   1      46.538  25.992  34.823  1.00  0.00     0.040 A 
ATOM     66  C   UNL A   1      45.038  24.498  33.705  1.00  0.00     0.040 A 
ATOM     67  F   UNL A   1      43.930  25.163  31.796  1.00  0.00    -0.206 F 
ATOM     68  C   UNL A   1      45.977  24.723  34.697  1.00  0.00     0.006 A 
ENDBRANCH  47  61
BRANCH  48  69
ATOM     69  C   UNL A   1      42.211  22.422  26.728  1.00  0.00     0.057 A 
ATOM     70  C   UNL A   1      42.998  21.614  25.884  1.00  0.00     0.134 A 
ATOM     71  C   UNL A   1      41.095  21.779  27.295  1.00  0.00     0.134 A 
ATOM     72  F   UNL A   1      44.114  22.093  25.314  1.00  0.00    -0.206 F 
ATOM     73  C   UNL A   1      42.711  20.262  25.646  1.00  0.00     0.040 A 
ATOM     74  C   UNL A   1      40.783  20.438  27.044  1.00  0.00     0.040 A 
ATOM     75  F   UNL A   1      40.307  22.396  28.184  1.00  0.00    -0.206 F 
ATOM     76  C   UNL A   1      41.601  19.668  26.232  1.00  0.00     0.006 A 
ENDBRANCH  48  69
BRANCH  60  77
ATOM     77  C   UNL A   1      46.862  26.681  26.326  1.00  0.00     0.057 A 
ATOM     78  C   UNL A   1      46.125  27.580  25.549  1.00  0.00     0.134 A 
ATOM     79  C   UNL A   1      48.043  26.168  25.769  1.00  0.00     0.134 A 
ATOM     80  F   UNL A   1      45.029  28.186  26.033  1.00  0.00    -0.206 F 
ATOM     81  C   UNL A   1      46.521  27.908  24.248  1.00  0.00     0.040 A 
ATOM     82  C   UNL A   1      48.468  26.516  24.488  1.00  0.00     0.040 A 
ATOM     83  F   UNL A   1      48.812  25.322  26.473  1.00  0.00    -0.206 F 
ATOM     84  C   UNL A   1      47.695  27.378  23.716  1.00  0.00     0.006 A 
ENDBRANCH  60  77
ENDBRANCH  34  35
ENDBRANCH  27  29
ENDBRANCH  26  27
ENDBRANCH  25  26
ENDBRANCH  24  25
ENDBRANCH  23  24
ENDBRANCH  22  23
ENDBRANCH   1  22
TORSDOF 19
ENDMDL
MODEL 2
REMARK VINA RESULT:     -10.3      4.033      8.551
REMARK SMILES Cc1ccc(C)c(NC(=O)C=CC(=O)OCCOCCOCCOC(=O)c2ccc(-c3c4nc(c(-c5c(F)cccc5F)c5ccc([nH]5)c(-c5c(F)cccc5F)c5nc(c(-c6c(F)cccc6F)c6ccc3[nH]6)C=C5)C=C4)cc2)c1
REMARK SMILES IDX 19 1 18 2 17 3 16 4 15 5 13 6 14 7 12 8 11 9 9 10 8 11 10 13
REMARK SMILES IDX 7 14 1 15 2 16 3 17 81 18 4 19 5 20 6 21 20 22 21 23 22 24
REMARK SMILES IDX 23 25 24 26 25 27 26 28 27 29 28 30 80 31 29 32 79 33 30 34
REMARK SMILES IDX 31 35 32 36 73 37 33 38 78 39 72 40 74 41 34 42 77 43 71 44
REMARK SMILES IDX 70 45 35 47 61 48 44 49 60 50 45 51 48 52 59 53 75 54 46 55
REMARK SMILES IDX 47 56 58 58 76 59 49 60 36 61 37 62 42 63 38 64 39 65 41 66
REMARK SMILES IDX 43 67 40 68 62 69 63 70 68 71 64 72 65 73 67 74 69 75 66 76
REMARK SMILES IDX 50 77 51 78 56 79 52 80 53 81 55 82 57 83 54 84
REMARK H PARENT 8 12 74 46 48 57
REMARK Flexibility Score: inf
ROOT
ATOM      1  C   UNL A   1      42.104  19.922  27.090  1.00  0.00     0.188 C 
ENDROOT
BRANCH   1   2
ATOM      2  O   UNL A   1      42.464  21.168  26.500  1.00  0.00    -0.376 OA
BRANCH   2   3
ATOM      3  C   UNL A   1      41.395  22.070  26.186  1.00  0.00     0.202 C 
BRANCH   3   4
ATOM      4  C   UNL A   1      39.953  21.660  26.591  1.00  0.00     0.261 C 
BRANCH   4   5
ATOM      5  O   UNL A   1      39.046  22.784  26.614  1.00  0.00    -0.460 OA
BRANCH   5   6
ATOM      6  C   UNL A   1      37.897  22.909  25.900  1.00  0.00     0.331 C 
ATOM      7  O   UNL A   1      37.445  24.021  25.639  1.00  0.00    -0.247 OA
BRANCH   6   8
ATOM      8  C   UNL A   1      37.140  21.712  25.448  1.00  0.00     0.099 C 
ATOM      9  C   UNL A   1      35.813  21.869  25.241  1.00  0.00     0.079 C 
BRANCH   9  10
ATOM     10  C   UNL A   1      34.775  21.409  26.223  1.00  0.00     0.248 C 
ATOM     11  N   UNL A   1      33.809  20.498  25.907  1.00  0.00    -0.322 N 
ATOM     12  H   UNL A   1      33.224  20.286  26.671  1.00  0.00     0.170 HD
ATOM     13  O   UNL A   1      34.835  21.834  27.380  1.00  0.00    -0.270 OA
BRANCH  11  14
ATOM     14  C   UNL A   1      33.456  19.790  24.739  1.00  0.00     0.044 A 
ATOM     15  C   UNL A   1      34.238  16.300  23.372  1.00  0.00     0.044 C 
ATOM     16  C   UNL A   1      33.600  17.640  23.571  1.00  0.00    -0.049 A 
ATOM     17  C   UNL A   1      32.563  18.040  22.730  1.00  0.00     0.004 A 
ATOM     18  C   UNL A   1      33.999  18.500  24.607  1.00  0.00     0.029 A 
ATOM     19  C   UNL A   1      32.108  19.350  22.779  1.00  0.00     0.006 A 
ATOM     20  C   UNL A   1      32.660  20.259  23.695  1.00  0.00    -0.027 A 
ATOM     21  C   UNL A   1      32.525  21.708  23.370  1.00  0.00     0.046 C 
ENDBRANCH  11  14
ENDBRANCH   9  10
ENDBRANCH   6   8
ENDBRANCH   5   6
ENDBRANCH   4   5
ENDBRANCH   3   4
ENDBRANCH   2   3
ENDBRANCH   1   2
BRANCH   1  22
ATOM     22  C   UNL A   1      42.236  18.713  26.163  1.00  0.00     0.188 C 
BRANCH  22  23
ATOM     23  O   UNL A   1      43.444  18.028  26.468  1.00  0.00    -0.376 OA
BRANCH  23  24
ATOM     24  C   UNL A   1      44.563  18.421  25.692  1.00  0.00     0.202 C 
BRANCH  24  25
ATOM     25  C   UNL A   1      44.291  19.068  24.325  1.00  0.00     0.261 C 
BRANCH  25  26
ATOM     26  O   UNL A   1      44.654  20.443  24.031  1.00  0.00    -0.460 OA
BRANCH  26  27
ATOM     27  C   UNL A   1      45.684  21.208  24.437  1.00  0.00     0.338 C 
ATOM     28  O   UNL A   1      46.797  20.745  24.670  1.00  0.00    -0.246 OA
BRANCH  27  29
ATOM     29  C   UNL A   1      45.384  22.584  24.817  1.00  0.00     0.060 A 
ATOM     30  C   UNL A   1      46.184  23.088  25.829  1.00  0.00     0.016 A 
ATOM     31  C   UNL A   1      44.304  23.315  24.315  1.00  0.00     0.016 A 
ATOM     32  C   UNL A   1      45.776  24.231  26.471  1.00  0.00     0.010 A 
ATOM     33  C   UNL A   1      43.902  24.482  24.978  1.00  0.00     0.010 A 
ATOM     34  C   UNL A   1      44.597  24.896  26.115  1.00  0.00    -0.014 A 
BRANCH  34  35
ATOM     35  C   UNL A   1      44.298  26.099  26.912  1.00  0.00     0.031 A 
ATOM     36  C   UNL A   1      45.369  27.129  26.842  1.00  0.00     0.074 A 
ATOM     37  C   UNL A   1      43.203  26.288  27.683  1.00  0.00     0.049 A 
ATOM     38  N   UNL A   1      45.955  27.727  27.832  1.00  0.00    -0.248 NA
ATOM     39  C   UNL A   1      45.950  27.427  25.518  1.00  0.00     0.031 C 
ATOM     40  C   UNL A   1      42.060  25.385  27.796  1.00  0.00     0.029 A 
ATOM     41  N   UNL A   1      42.837  27.357  28.478  1.00  0.00    -0.354 N 
ATOM     42  C   UNL A   1      46.815  28.642  27.235  1.00  0.00     0.074 A 
ATOM     43  C   UNL A   1      46.881  28.326  25.832  1.00  0.00     0.031 C 
ATOM     44  C   UNL A   1      41.054  26.021  28.430  1.00  0.00     0.029 A 
ATOM     45  C   UNL A   1      41.484  27.358  28.816  1.00  0.00     0.049 A 
ATOM     46  H   UNL A   1      43.469  28.050  28.777  1.00  0.00     0.167 HD
ATOM     47  C   UNL A   1      47.085  29.827  27.835  1.00  0.00     0.037 A 
ATOM     48  C   UNL A   1      40.728  28.379  29.301  1.00  0.00     0.037 A 
ATOM     49  C   UNL A   1      47.008  29.785  29.263  1.00  0.00     0.049 A 
ATOM     50  C   UNL A   1      41.604  29.377  29.959  1.00  0.00     0.074 A 
ATOM     51  C   UNL A   1      47.815  29.420  30.315  1.00  0.00     0.029 A 
ATOM     52  N   UNL A   1      45.758  29.985  29.763  1.00  0.00    -0.354 N 
ATOM     53  N   UNL A   1      42.121  29.236  31.146  1.00  0.00    -0.248 NA
ATOM     54  C   UNL A   1      42.083  30.528  29.198  1.00  0.00     0.031 C 
ATOM     55  C   UNL A   1      46.981  29.369  31.473  1.00  0.00     0.029 A 
ATOM     56  C   UNL A   1      45.687  29.716  31.101  1.00  0.00     0.049 A 
ATOM     57  H   UNL A   1      44.992  30.288  29.223  1.00  0.00     0.167 HD
ATOM     58  C   UNL A   1      43.254  30.020  31.117  1.00  0.00     0.074 A 
ATOM     59  C   UNL A   1      43.086  30.919  29.986  1.00  0.00     0.031 C 
ATOM     60  C   UNL A   1      44.395  29.609  31.737  1.00  0.00     0.037 A 
BRANCH  47  61
ATOM     61  C   UNL A   1      46.804  31.104  27.082  1.00  0.00     0.057 A 
ATOM     62  C   UNL A   1      47.767  32.117  27.021  1.00  0.00     0.134 A 
ATOM     63  C   UNL A   1      45.500  31.474  26.676  1.00  0.00     0.134 A 
ATOM     64  F   UNL A   1      49.014  31.901  27.465  1.00  0.00    -0.206 F 
ATOM     65  C   UNL A   1      47.456  33.406  26.567  1.00  0.00     0.040 A 
ATOM     66  C   UNL A   1      45.192  32.736  26.171  1.00  0.00     0.040 A 
ATOM     67  F   UNL A   1      44.447  30.664  26.855  1.00  0.00    -0.206 F 
ATOM     68  C   UNL A   1      46.169  33.715  26.129  1.00  0.00     0.006 A 
ENDBRANCH  47  61
BRANCH  48  69
ATOM     69  C   UNL A   1      39.263  28.635  29.174  1.00  0.00     0.057 A 
ATOM     70  C   UNL A   1      38.415  28.594  30.299  1.00  0.00     0.134 A 
ATOM     71  C   UNL A   1      38.679  29.164  28.009  1.00  0.00     0.134 A 
ATOM     72  F   UNL A   1      38.862  28.152  31.484  1.00  0.00    -0.206 F 
ATOM     73  C   UNL A   1      37.097  29.070  30.273  1.00  0.00     0.040 A 
ATOM     74  C   UNL A   1      37.356  29.617  27.962  1.00  0.00     0.040 A 
ATOM     75  F   UNL A   1      39.388  29.345  26.888  1.00  0.00    -0.206 F 
ATOM     76  C   UNL A   1      36.564  29.589  29.100  1.00  0.00     0.006 A 
ENDBRANCH  48  69
BRANCH  60  77
ATOM     77  C   UNL A   1      44.261  28.886  33.033  1.00  0.00     0.057 A 
ATOM     78  C   UNL A   1      44.194  29.497  34.289  1.00  0.00     0.134 A 
ATOM     79  C   UNL A   1      44.184  27.485  32.994  1.00  0.00     0.134 A 
ATOM     80  F   UNL A   1      44.175  30.833  34.415  1.00  0.00    -0.206 F 
ATOM     81  C   UNL A   1      44.113  28.737  35.461  1.00  0.00     0.040 A 
ATOM     82  C   UNL A   1      44.065  26.720  34.153  1.00  0.00     0.040 A 
ATOM     83  F   UNL A   1      44.214  26.837  31.818  1.00  0.00    -0.206 F 
ATOM     84  C   UNL A   1      44.046  27.347  35.395  1.00  0.00     0.006 A 
ENDBRANCH  60  77
ENDBRANCH  34  35
ENDBRANCH  27  29
ENDBRANCH  26  27
ENDBRANCH  25  26
ENDBRANCH  24  25
ENDBRANCH  23  24
ENDBRANCH  22  23
ENDBRANCH   1  22
TORSDOF 19
ENDMDL
MODEL 3
REMARK VINA RESULT:      -9.9      2.240      4.080
REMARK SMILES Cc1ccc(C)c(NC(=O)C=CC(=O)OCCOCCOCCOC(=O)c2ccc(-c3c4nc(c(-c5c(F)cccc5F)c5ccc([nH]5)c(-c5c(F)cccc5F)c5nc(c(-c6c(F)cccc6F)c6ccc3[nH]6)C=C5)C=C4)cc2)c1
REMARK SMILES IDX 19 1 18 2 17 3 16 4 15 5 13 6 14 7 12 8 11 9 9 10 8 11 10 13
REMARK SMILES IDX 7 14 1 15 2 16 3 17 81 18 4 19 5 20 6 21 20 22 21 23 22 24
REMARK SMILES IDX 23 25 24 26 25 27 26 28 27 29 28 30 80 31 29 32 79 33 30 34
REMARK SMILES IDX 31 35 32 36 73 37 33 38 78 39 72 40 74 41 34 42 77 43 71 44
REMARK SMILES IDX 70 45 35 47 61 48 44 49 60 50 45 51 48 52 59 53 75 54 46 55
REMARK SMILES IDX 47 56 58 58 76 59 49 60 36 61 37 62 42 63 38 64 39 65 41 66
REMARK SMILES IDX 43 67 40 68 62 69 63 70 68 71 64 72 65 73 67 74 69 75 66 76
REMARK SMILES IDX 50 77 51 78 56 79 52 80 53 81 55 82 57 83 54 84
REMARK H PARENT 8 12 74 46 48 57
REMARK Flexibility Score: inf
ROOT
ATOM      1  C   UNL A   1      34.065  31.988  27.611  1.00  0.00     0.188 C 
ENDROOT
BRANCH   1   2
ATOM      2  O   UNL A   1      33.704  30.804  26.908  1.00  0.00    -0.376 OA
BRANCH   2   3
ATOM      3  C   UNL A   1      32.310  30.470  26.872  1.00  0.00     0.202 C 
BRANCH   3   4
ATOM      4  C   UNL A   1      31.884  29.067  27.382  1.00  0.00     0.261 C 
BRANCH   4   5
ATOM      5  O   UNL A   1      31.704  28.120  26.305  1.00  0.00    -0.460 OA
BRANCH   5   6
ATOM      6  C   UNL A   1      32.595  27.175  25.904  1.00  0.00     0.331 C 
ATOM      7  O   UNL A   1      32.607  26.068  26.435  1.00  0.00    -0.247 OA
BRANCH   6   8
ATOM      8  C   UNL A   1      33.594  27.464  24.842  1.00  0.00     0.099 C 
ATOM      9  C   UNL A   1      33.188  28.245  23.816  1.00  0.00     0.079 C 
BRANCH   9  10
ATOM     10  C   UNL A   1      32.810  27.694  22.472  1.00  0.00     0.248 C 
ATOM     11  N   UNL A   1      31.554  27.811  21.950  1.00  0.00    -0.322 N 
ATOM     12  H   UNL A   1      31.480  27.419  21.049  1.00  0.00     0.170 HD
ATOM     13  O   UNL A   1      33.689  27.161  21.789  1.00  0.00    -0.270 OA
BRANCH  11  14
ATOM     14  C   UNL A   1      30.338  28.365  22.404  1.00  0.00     0.044 A 
ATOM     15  C   UNL A   1      28.741  31.841  22.239  1.00  0.00     0.044 C 
ATOM     16  C   UNL A   1      28.921  30.364  22.417  1.00  0.00    -0.049 A 
ATOM     17  C   UNL A   1      27.842  29.584  22.825  1.00  0.00     0.004 A 
ATOM     18  C   UNL A   1      30.149  29.736  22.155  1.00  0.00     0.029 A 
ATOM     19  C   UNL A   1      28.051  28.259  23.184  1.00  0.00     0.006 A 
ATOM     20  C   UNL A   1      29.334  27.697  23.103  1.00  0.00    -0.027 A 
ATOM     21  C   UNL A   1      29.600  26.502  23.955  1.00  0.00     0.046 C 
ENDBRANCH  11  14
ENDBRANCH   9  10
ENDBRANCH   6   8
ENDBRANCH   5   6
ENDBRANCH   4   5
ENDBRANCH   3   4
ENDBRANCH   2   3
ENDBRANCH   1   2
BRANCH   1  22
ATOM     22  C   UNL A   1      34.511  31.764  29.056  1.00  0.00     0.188 C 
BRANCH  22  23
ATOM     23  O   UNL A   1      34.177  32.912  29.827  1.00  0.00    -0.376 OA
BRANCH  23  24
ATOM     24  C   UNL A   1      34.622  32.877  31.171  1.00  0.00     0.202 C 
BRANCH  24  25
ATOM     25  C   UNL A   1      36.118  33.112  31.433  1.00  0.00     0.261 C 
BRANCH  25  26
ATOM     26  O   UNL A   1      37.103  32.052  31.315  1.00  0.00    -0.460 OA
BRANCH  26  27
ATOM     27  C   UNL A   1      36.981  30.714  31.243  1.00  0.00     0.338 C 
ATOM     28  O   UNL A   1      36.119  30.097  31.862  1.00  0.00    -0.246 OA
BRANCH  27  29
ATOM     29  C   UNL A   1      38.053  29.981  30.580  1.00  0.00     0.060 A 
ATOM     30  C   UNL A   1      38.140  28.645  30.935  1.00  0.00     0.016 A 
ATOM     31  C   UNL A   1      39.010  30.574  29.753  1.00  0.00     0.016 A 
ATOM     32  C   UNL A   1      39.293  27.965  30.626  1.00  0.00     0.010 A 
ATOM     33  C   UNL A   1      40.178  29.866  29.442  1.00  0.00     0.010 A 
ATOM     34  C   UNL A   1      40.354  28.580  29.953  1.00  0.00    -0.014 A 
BRANCH  34  35
ATOM     35  C   UNL A   1      41.522  27.714  29.711  1.00  0.00     0.031 A 
ATOM     36  C   UNL A   1      42.628  27.938  30.681  1.00  0.00     0.074 A 
ATOM     37  C   UNL A   1      41.653  26.821  28.704  1.00  0.00     0.049 A 
ATOM     38  N   UNL A   1      43.878  28.157  30.415  1.00  0.00    -0.248 NA
ATOM     39  C   UNL A   1      42.274  28.068  32.108  1.00  0.00     0.031 C 
ATOM     40  C   UNL A   1      40.628  26.469  27.724  1.00  0.00     0.029 A 
ATOM     41  N   UNL A   1      42.700  25.981  28.377  1.00  0.00    -0.354 N 
ATOM     42  C   UNL A   1      44.499  28.222  31.658  1.00  0.00     0.074 A 
ATOM     43  C   UNL A   1      43.465  28.303  32.657  1.00  0.00     0.031 C 
ATOM     44  C   UNL A   1      41.015  25.364  27.055  1.00  0.00     0.029 A 
ATOM     45  C   UNL A   1      42.333  24.948  27.516  1.00  0.00     0.049 A 
ATOM     46  H   UNL A   1      43.616  26.102  28.718  1.00  0.00     0.167 HD
ATOM     47  C   UNL A   1      45.775  27.796  31.815  1.00  0.00     0.037 A 
ATOM     48  C   UNL A   1      42.996  23.793  27.242  1.00  0.00     0.037 A 
ATOM     49  C   UNL A   1      46.577  27.923  30.637  1.00  0.00     0.049 A 
ATOM     50  C   UNL A   1      44.437  23.964  27.538  1.00  0.00     0.074 A 
ATOM     51  C   UNL A   1      47.309  28.901  30.004  1.00  0.00     0.029 A 
ATOM     52  N   UNL A   1      46.486  26.870  29.780  1.00  0.00    -0.354 N 
ATOM     53  N   UNL A   1      45.279  24.594  26.769  1.00  0.00    -0.248 NA
ATOM     54  C   UNL A   1      44.958  23.567  28.844  1.00  0.00     0.031 C 
ATOM     55  C   UNL A   1      47.622  28.403  28.704  1.00  0.00     0.029 A 
ATOM     56  C   UNL A   1      47.083  27.127  28.577  1.00  0.00     0.049 A 
ATOM     57  H   UNL A   1      46.041  26.019  29.999  1.00  0.00     0.167 HD
ATOM     58  C   UNL A   1      46.269  25.019  27.627  1.00  0.00     0.074 A 
ATOM     59  C   UNL A   1      46.121  24.218  28.832  1.00  0.00     0.031 C 
ATOM     60  C   UNL A   1      46.849  26.241  27.463  1.00  0.00     0.037 A 
BRANCH  47  61
ATOM     61  C   UNL A   1      46.063  26.721  32.834  1.00  0.00     0.057 A 
ATOM     62  C   UNL A   1      47.144  26.850  33.713  1.00  0.00     0.134 A 
ATOM     63  C   UNL A   1      45.482  25.434  32.765  1.00  0.00     0.134 A 
ATOM     64  F   UNL A   1      47.826  28.003  33.793  1.00  0.00    -0.206 F 
ATOM     65  C   UNL A   1      47.602  25.774  34.485  1.00  0.00     0.040 A 
ATOM     66  C   UNL A   1      45.892  24.371  33.568  1.00  0.00     0.040 A 
ATOM     67  F   UNL A   1      44.565  25.120  31.838  1.00  0.00    -0.206 F 
ATOM     68  C   UNL A   1      46.968  24.534  34.423  1.00  0.00     0.006 A 
ENDBRANCH  47  61
BRANCH  48  69
ATOM     69  C   UNL A   1      42.472  22.463  26.808  1.00  0.00     0.057 A 
ATOM     70  C   UNL A   1      43.152  21.690  25.847  1.00  0.00     0.134 A 
ATOM     71  C   UNL A   1      41.435  21.795  27.483  1.00  0.00     0.134 A 
ATOM     72  F   UNL A   1      44.190  22.195  25.163  1.00  0.00    -0.206 F 
ATOM     73  C   UNL A   1      42.843  20.346  25.598  1.00  0.00     0.040 A 
ATOM     74  C   UNL A   1      41.098  20.461  27.225  1.00  0.00     0.040 A 
ATOM     75  F   UNL A   1      40.759  22.375  28.483  1.00  0.00    -0.206 F 
ATOM     76  C   UNL A   1      41.813  19.724  26.293  1.00  0.00     0.006 A 
ENDBRANCH  48  69
BRANCH  60  77
ATOM     77  C   UNL A   1      47.088  26.716  26.071  1.00  0.00     0.057 A 
ATOM     78  C   UNL A   1      46.290  27.643  25.392  1.00  0.00     0.134 A 
ATOM     79  C   UNL A   1      48.203  26.206  25.389  1.00  0.00     0.134 A 
ATOM     80  F   UNL A   1      45.254  28.246  25.995  1.00  0.00    -0.206 F 
ATOM     81  C   UNL A   1      46.563  28.001  24.067  1.00  0.00     0.040 A 
ATOM     82  C   UNL A   1      48.507  26.585  24.082  1.00  0.00     0.040 A 
ATOM     83  F   UNL A   1      49.027  25.334  25.993  1.00  0.00    -0.206 F 
ATOM     84  C   UNL A   1      47.673  27.474  23.410  1.00  0.00     0.006 A 
ENDBRANCH  60  77
ENDBRANCH  34  35
ENDBRANCH  27  29
ENDBRANCH  26  27
ENDBRANCH  25  26
ENDBRANCH  24  25
ENDBRANCH  23  24
ENDBRANCH  22  23
ENDBRANCH   1  22
TORSDOF 19
ENDMDL
