MODEL 1
REMARK VINA RESULT:     -11.5      0.000      0.000
REMARK SMILES C[C@@H](Oc1ccc(/C=C2\C(=O)[NH+]=C(OCCOCCOCCOC(=O)c3ccc(-c4c5nc(c(-c6c(F)cccc6F)c6ccc([nH]6)c(-c6c(F)cccc6F)c6nc(c(-c7c(F)cccc7F)c7ccc4[nH]7)C=C6)C=C5)cc3)N(c3ccc4c(c3)OCO4)C2=O)cc1)C(=O)[O-]
REMARK SMILES IDX 18 1 17 2 16 3 15 4 14 5 13 6 8 7 9 8 10 9 90 10 11 11 12 12
REMARK SMILES IDX 80 13 91 14 7 16 4 17 5 18 93 19 6 20 92 21 3 22 2 23 1 24
REMARK SMILES IDX 94 25 95 26 96 27 81 28 82 29 86 30 83 31 85 32 84 33 87 34
REMARK SMILES IDX 89 35 88 36 19 37 20 38 21 39 22 40 23 41 24 42 25 43 26 44
REMARK SMILES IDX 27 45 79 46 28 47 78 48 29 49 30 50 31 51 72 52 32 53 77 54
REMARK SMILES IDX 71 55 73 56 33 57 76 58 70 59 69 60 34 62 60 63 43 64 59 65
REMARK SMILES IDX 44 66 47 67 58 68 74 69 45 70 46 71 57 73 75 74 48 75 35 76
REMARK SMILES IDX 36 77 41 78 37 79 38 80 40 81 42 82 39 83 61 84 62 85 67 86
REMARK SMILES IDX 63 87 64 88 66 89 68 90 65 91 49 92 50 93 55 94 51 95 52 96
REMARK SMILES IDX 54 97 56 98 53 99
REMARK H PARENT 12 15 73 61 47 72
REMARK Flexibility Score: inf
ROOT
ATOM      1  C   UNL A   1      36.841  23.953  25.832  1.00  0.00     0.188 C 
ENDROOT
BRANCH   1   2
ATOM      2  O   UNL A   1      35.505  23.635  26.211  1.00  0.00    -0.376 OA
BRANCH   2   3
ATOM      3  C   UNL A   1      35.407  22.423  26.966  1.00  0.00     0.202 C 
BRANCH   3   4
ATOM      4  C   UNL A   1      34.272  22.550  27.988  1.00  0.00     0.266 C 
BRANCH   4   5
ATOM      5  O   UNL A   1      32.969  22.098  27.526  1.00  0.00    -0.428 OA
BRANCH   5   6
ATOM      6  C   UNL A   1      32.357  22.772  26.514  1.00  0.00     0.465 C 
ATOM      7  C   UNL A   1      31.344  25.112  23.402  1.00  0.00     0.032 C 
ATOM      8  C   UNL A   1      31.425  24.279  24.461  1.00  0.00     0.155 C 
ATOM      9  C   UNL A   1      31.125  24.594  25.867  1.00  0.00     0.349 C 
ATOM     10  C   UNL A   1      31.820  22.873  24.173  1.00  0.00     0.357 C 
ATOM     11  O   UNL A   1      30.194  25.321  26.181  1.00  0.00    -0.240 OA
ATOM     12  N   UNL A   1      31.893  23.942  26.791  1.00  0.00    -0.171 N 
ATOM     13  N   UNL A   1      32.285  22.165  25.272  1.00  0.00    -0.123 N 
ATOM     14  O   UNL A   1      31.777  22.433  23.023  1.00  0.00    -0.240 OA
ATOM     15  H   UNL A   1      32.090  24.363  27.658  1.00  0.00     0.319 HD
BRANCH   7  16
ATOM     16  C   UNL A   1      30.997  26.540  23.228  1.00  0.00    -0.024 A 
ATOM     17  C   UNL A   1      30.059  29.182  22.841  1.00  0.00     0.120 A 
ATOM     18  C   UNL A   1      31.405  28.876  22.661  1.00  0.00     0.047 A 
ATOM     19  C   UNL A   1      29.169  28.173  23.174  1.00  0.00     0.047 A 
ATOM     20  C   UNL A   1      31.869  27.562  22.844  1.00  0.00     0.012 A 
ATOM     21  C   UNL A   1      29.639  26.875  23.380  1.00  0.00     0.012 A 
BRANCH  17  22
ATOM     22  O   UNL A   1      29.634  30.444  22.537  1.00  0.00    -0.485 OA
BRANCH  22  23
ATOM     23  C   UNL A   1      28.240  30.531  22.203  1.00  0.00     0.216 C 
ATOM     24  C   UNL A   1      28.021  30.830  20.723  1.00  0.00     0.059 C 
BRANCH  23  25
ATOM     25  C   UNL A   1      27.636  31.680  23.003  1.00  0.00     0.082 C 
ATOM     26  O   UNL A   1      26.920  31.568  23.987  1.00  0.00    -0.546 OA
ATOM     27  O   UNL A   1      27.893  32.904  22.494  1.00  0.00    -0.546 OA
ENDBRANCH  23  25
ENDBRANCH  22  23
ENDBRANCH  17  22
ENDBRANCH   7  16
BRANCH  13  28
ATOM     28  C   UNL A   1      32.776  20.853  25.035  1.00  0.00     0.144 A 
ATOM     29  C   UNL A   1      34.122  20.684  24.632  1.00  0.00     0.056 A 
ATOM     30  C   UNL A   1      31.948  19.738  25.222  1.00  0.00     0.103 A 
ATOM     31  C   UNL A   1      34.646  19.410  24.405  1.00  0.00     0.055 A 
ATOM     32  C   UNL A   1      32.508  18.493  25.028  1.00  0.00     0.170 A 
ATOM     33  C   UNL A   1      33.815  18.334  24.628  1.00  0.00     0.166 A 
ATOM     34  O   UNL A   1      31.877  17.303  25.213  1.00  0.00    -0.453 OA
ATOM     35  O   UNL A   1      34.163  17.026  24.502  1.00  0.00    -0.454 OA
ATOM     36  C   UNL A   1      32.963  16.382  24.976  1.00  0.00     0.468 C 
ENDBRANCH  13  28
ENDBRANCH   5   6
ENDBRANCH   4   5
ENDBRANCH   3   4
ENDBRANCH   2   3
ENDBRANCH   1   2
BRANCH   1  37
ATOM     37  C   UNL A   1      37.471  23.111  24.720  1.00  0.00     0.188 C 
BRANCH  37  38
ATOM     38  O   UNL A   1      37.162  21.726  24.697  1.00  0.00    -0.376 OA
BRANCH  38  39
ATOM     39  C   UNL A   1      38.223  20.815  24.996  1.00  0.00     0.202 C 
BRANCH  39  40
ATOM     40  C   UNL A   1      39.298  21.331  25.956  1.00  0.00     0.261 C 
BRANCH  40  41
ATOM     41  O   UNL A   1      40.046  20.227  26.513  1.00  0.00    -0.460 OA
BRANCH  41  42
ATOM     42  C   UNL A   1      41.331  20.143  26.108  1.00  0.00     0.338 C 
ATOM     43  O   UNL A   1      41.821  19.314  25.359  1.00  0.00    -0.246 OA
BRANCH  42  44
ATOM     44  C   UNL A   1      42.128  21.244  26.670  1.00  0.00     0.060 A 
ATOM     45  C   UNL A   1      42.156  21.398  28.060  1.00  0.00     0.016 A 
ATOM     46  C   UNL A   1      42.634  22.239  25.828  1.00  0.00     0.016 A 
ATOM     47  C   UNL A   1      42.616  22.594  28.611  1.00  0.00     0.010 A 
ATOM     48  C   UNL A   1      43.090  23.439  26.383  1.00  0.00     0.010 A 
ATOM     49  C   UNL A   1      43.022  23.644  27.772  1.00  0.00    -0.014 A 
BRANCH  49  50
ATOM     50  C   UNL A   1      43.163  25.008  28.339  1.00  0.00     0.031 A 
ATOM     51  C   UNL A   1      44.539  25.512  28.691  1.00  0.00     0.074 A 
ATOM     52  C   UNL A   1      42.096  25.804  28.506  1.00  0.00     0.049 A 
ATOM     53  N   UNL A   1      44.903  26.686  29.142  1.00  0.00    -0.248 NA
ATOM     54  C   UNL A   1      45.649  24.560  28.525  1.00  0.00     0.031 C 
ATOM     55  C   UNL A   1      40.711  25.427  28.237  1.00  0.00     0.029 A 
ATOM     56  N   UNL A   1      42.018  27.104  28.936  1.00  0.00    -0.354 N 
ATOM     57  C   UNL A   1      46.278  26.611  29.324  1.00  0.00     0.074 A 
ATOM     58  C   UNL A   1      46.681  25.270  28.954  1.00  0.00     0.031 C 
ATOM     59  C   UNL A   1      39.919  26.485  28.485  1.00  0.00     0.029 A 
ATOM     60  C   UNL A   1      40.741  27.607  28.936  1.00  0.00     0.049 A 
ATOM     61  H   UNL A   1      42.803  27.627  29.217  1.00  0.00     0.167 HD
ATOM     62  C   UNL A   1      47.133  27.569  29.754  1.00  0.00     0.037 A 
ATOM     63  C   UNL A   1      40.293  28.835  29.254  1.00  0.00     0.037 A 
ATOM     64  C   UNL A   1      46.743  28.902  30.128  1.00  0.00     0.049 A 
ATOM     65  C   UNL A   1      41.263  29.898  29.692  1.00  0.00     0.074 A 
ATOM     66  C   UNL A   1      47.536  29.941  30.586  1.00  0.00     0.029 A 
ATOM     67  N   UNL A   1      45.443  29.381  30.082  1.00  0.00    -0.354 N 
ATOM     68  N   UNL A   1      42.565  29.823  29.830  1.00  0.00    -0.248 NA
ATOM     69  C   UNL A   1      40.701  31.218  30.015  1.00  0.00     0.031 C 
ATOM     70  C   UNL A   1      46.711  31.044  30.837  1.00  0.00     0.029 A 
ATOM     71  C   UNL A   1      45.411  30.700  30.505  1.00  0.00     0.049 A 
ATOM     72  H   UNL A   1      44.659  28.861  29.793  1.00  0.00     0.167 HD
ATOM     73  C   UNL A   1      42.976  31.083  30.249  1.00  0.00     0.074 A 
ATOM     74  C   UNL A   1      41.790  31.911  30.318  1.00  0.00     0.031 C 
ATOM     75  C   UNL A   1      44.224  31.512  30.561  1.00  0.00     0.037 A 
BRANCH  62  76
ATOM     76  C   UNL A   1      48.581  27.194  29.860  1.00  0.00     0.057 A 
ATOM     77  C   UNL A   1      49.108  26.622  31.025  1.00  0.00     0.134 A 
ATOM     78  C   UNL A   1      49.454  27.398  28.785  1.00  0.00     0.134 A 
ATOM     79  F   UNL A   1      48.324  26.416  32.094  1.00  0.00    -0.206 F 
ATOM     80  C   UNL A   1      50.459  26.285  31.125  1.00  0.00     0.040 A 
ATOM     81  C   UNL A   1      50.802  27.046  28.866  1.00  0.00     0.040 A 
ATOM     82  F   UNL A   1      49.012  27.940  27.641  1.00  0.00    -0.206 F 
ATOM     83  C   UNL A   1      51.309  26.494  30.040  1.00  0.00     0.006 A 
ENDBRANCH  62  76
BRANCH  63  84
ATOM     84  C   UNL A   1      38.847  29.140  29.141  1.00  0.00     0.057 A 
ATOM     85  C   UNL A   1      38.287  29.527  27.919  1.00  0.00     0.134 A 
ATOM     86  C   UNL A   1      37.996  29.054  30.248  1.00  0.00     0.134 A 
ATOM     87  F   UNL A   1      39.061  29.643  26.829  1.00  0.00    -0.206 F 
ATOM     88  C   UNL A   1      36.931  29.832  27.803  1.00  0.00     0.040 A 
ATOM     89  C   UNL A   1      36.634  29.335  30.142  1.00  0.00     0.040 A 
ATOM     90  F   UNL A   1      38.476  28.683  31.444  1.00  0.00    -0.206 F 
ATOM     91  C   UNL A   1      36.099  29.732  28.917  1.00  0.00     0.006 A 
ENDBRANCH  63  84
BRANCH  75  92
ATOM     92  C   UNL A   1      44.372  32.942  30.985  1.00  0.00     0.057 A 
ATOM     93  C   UNL A   1      44.576  33.968  30.054  1.00  0.00     0.134 A 
ATOM     94  C   UNL A   1      44.274  33.301  32.335  1.00  0.00     0.134 A 
ATOM     95  F   UNL A   1      44.688  33.686  28.748  1.00  0.00    -0.206 F 
ATOM     96  C   UNL A   1      44.698  35.299  30.453  1.00  0.00     0.040 A 
ATOM     97  C   UNL A   1      44.375  34.631  32.745  1.00  0.00     0.040 A 
ATOM     98  F   UNL A   1      44.071  32.366  33.275  1.00  0.00    -0.206 F 
ATOM     99  C   UNL A   1      44.592  35.634  31.802  1.00  0.00     0.006 A 
ENDBRANCH  75  92
ENDBRANCH  49  50
ENDBRANCH  42  44
ENDBRANCH  41  42
ENDBRANCH  40  41
ENDBRANCH  39  40
ENDBRANCH  38  39
ENDBRANCH  37  38
ENDBRANCH   1  37
TORSDOF 21
ENDMDL
MODEL 2
REMARK VINA RESULT:     -11.4      3.811      7.339
REMARK SMILES C[C@@H](Oc1ccc(/C=C2\C(=O)[NH+]=C(OCCOCCOCCOC(=O)c3ccc(-c4c5nc(c(-c6c(F)cccc6F)c6ccc([nH]6)c(-c6c(F)cccc6F)c6nc(c(-c7c(F)cccc7F)c7ccc4[nH]7)C=C6)C=C5)cc3)N(c3ccc4c(c3)OCO4)C2=O)cc1)C(=O)[O-]
REMARK SMILES IDX 18 1 17 2 16 3 15 4 14 5 13 6 8 7 9 8 10 9 90 10 11 11 12 12
REMARK SMILES IDX 80 13 91 14 7 16 4 17 5 18 93 19 6 20 92 21 3 22 2 23 1 24
REMARK SMILES IDX 94 25 95 26 96 27 81 28 82 29 86 30 83 31 85 32 84 33 87 34
REMARK SMILES IDX 89 35 88 36 19 37 20 38 21 39 22 40 23 41 24 42 25 43 26 44
REMARK SMILES IDX 27 45 79 46 28 47 78 48 29 49 30 50 31 51 72 52 32 53 77 54
REMARK SMILES IDX 71 55 73 56 33 57 76 58 70 59 69 60 34 62 60 63 43 64 59 65
REMARK SMILES IDX 44 66 47 67 58 68 74 69 45 70 46 71 57 73 75 74 48 75 35 76
REMARK SMILES IDX 36 77 41 78 37 79 38 80 40 81 42 82 39 83 61 84 62 85 67 86
REMARK SMILES IDX 63 87 64 88 66 89 68 90 65 91 49 92 50 93 55 94 51 95 52 96
REMARK SMILES IDX 54 97 56 98 53 99
REMARK H PARENT 12 15 73 61 47 72
REMARK Flexibility Score: inf
ROOT
ATOM      1  C   UNL A   1      37.336  22.667  25.373  1.00  0.00     0.188 C 
ENDROOT
BRANCH   1   2
ATOM      2  O   UNL A   1      36.132  22.718  24.613  1.00  0.00    -0.376 OA
BRANCH   2   3
ATOM      3  C   UNL A   1      35.506  24.006  24.636  1.00  0.00     0.202 C 
BRANCH   3   4
ATOM      4  C   UNL A   1      34.823  24.215  25.992  1.00  0.00     0.266 C 
BRANCH   4   5
ATOM      5  O   UNL A   1      33.556  23.523  26.161  1.00  0.00    -0.428 OA
BRANCH   5   6
ATOM      6  C   UNL A   1      32.426  24.076  25.639  1.00  0.00     0.465 C 
ATOM      7  C   UNL A   1      29.640  26.027  23.491  1.00  0.00     0.032 C 
ATOM      8  C   UNL A   1      30.377  25.330  24.382  1.00  0.00     0.155 C 
ATOM      9  C   UNL A   1      30.939  25.820  25.649  1.00  0.00     0.349 C 
ATOM     10  C   UNL A   1      30.613  23.894  24.070  1.00  0.00     0.357 C 
ATOM     11  O   UNL A   1      30.327  26.594  26.371  1.00  0.00    -0.240 OA
ATOM     12  N   UNL A   1      32.141  25.277  26.007  1.00  0.00    -0.171 N 
ATOM     13  N   UNL A   1      31.677  23.320  24.753  1.00  0.00    -0.123 N 
ATOM     14  O   UNL A   1      29.932  23.315  23.222  1.00  0.00    -0.240 OA
ATOM     15  H   UNL A   1      32.784  25.799  26.540  1.00  0.00     0.319 HD
BRANCH   7  16
ATOM     16  C   UNL A   1      29.169  27.427  23.402  1.00  0.00    -0.024 A 
ATOM     17  C   UNL A   1      28.529  30.183  23.343  1.00  0.00     0.120 A 
ATOM     18  C   UNL A   1      27.521  29.224  23.390  1.00  0.00     0.047 A 
ATOM     19  C   UNL A   1      29.856  29.780  23.365  1.00  0.00     0.047 A 
ATOM     20  C   UNL A   1      27.840  27.856  23.429  1.00  0.00     0.012 A 
ATOM     21  C   UNL A   1      30.166  28.420  23.376  1.00  0.00     0.012 A 
BRANCH  17  22
ATOM     22  O   UNL A   1      28.176  31.500  23.426  1.00  0.00    -0.485 OA
BRANCH  22  23
ATOM     23  C   UNL A   1      28.908  32.362  22.540  1.00  0.00     0.216 C 
ATOM     24  C   UNL A   1      29.153  33.739  23.150  1.00  0.00     0.059 C 
BRANCH  23  25
ATOM     25  C   UNL A   1      28.074  32.555  21.278  1.00  0.00     0.082 C 
ATOM     26  O   UNL A   1      27.518  33.589  20.939  1.00  0.00    -0.546 OA
ATOM     27  O   UNL A   1      27.912  31.433  20.544  1.00  0.00    -0.546 OA
ENDBRANCH  23  25
ENDBRANCH  22  23
ENDBRANCH  17  22
ENDBRANCH   7  16
BRANCH  13  28
ATOM     28  C   UNL A   1      32.015  21.982  24.415  1.00  0.00     0.144 A 
ATOM     29  C   UNL A   1      32.225  21.647  23.057  1.00  0.00     0.056 A 
ATOM     30  C   UNL A   1      32.165  21.011  25.415  1.00  0.00     0.103 A 
ATOM     31  C   UNL A   1      32.574  20.346  22.687  1.00  0.00     0.055 A 
ATOM     32  C   UNL A   1      32.549  19.748  25.019  1.00  0.00     0.170 A 
ATOM     33  C   UNL A   1      32.744  19.424  23.696  1.00  0.00     0.166 A 
ATOM     34  O   UNL A   1      32.794  18.698  25.849  1.00  0.00    -0.453 OA
ATOM     35  O   UNL A   1      33.124  18.129  23.530  1.00  0.00    -0.454 OA
ATOM     36  C   UNL A   1      33.255  17.709  24.904  1.00  0.00     0.468 C 
ENDBRANCH  13  28
ENDBRANCH   5   6
ENDBRANCH   4   5
ENDBRANCH   3   4
ENDBRANCH   2   3
ENDBRANCH   1   2
BRANCH   1  37
ATOM     37  C   UNL A   1      37.940  21.284  25.630  1.00  0.00     0.188 C 
BRANCH  37  38
ATOM     38  O   UNL A   1      39.351  21.203  25.752  1.00  0.00    -0.376 OA
BRANCH  38  39
ATOM     39  C   UNL A   1      39.946  21.824  26.894  1.00  0.00     0.202 C 
BRANCH  39  40
ATOM     40  C   UNL A   1      41.201  22.657  26.625  1.00  0.00     0.261 C 
BRANCH  40  41
ATOM     41  O   UNL A   1      40.840  23.953  26.096  1.00  0.00    -0.460 OA
BRANCH  41  42
ATOM     42  C   UNL A   1      41.738  24.935  26.323  1.00  0.00     0.338 C 
ATOM     43  O   UNL A   1      42.902  24.975  25.961  1.00  0.00    -0.246 OA
BRANCH  42  44
ATOM     44  C   UNL A   1      41.122  26.042  27.070  1.00  0.00     0.060 A 
ATOM     45  C   UNL A   1      41.656  27.325  26.914  1.00  0.00     0.016 A 
ATOM     46  C   UNL A   1      40.195  25.771  28.081  1.00  0.00     0.016 A 
ATOM     47  C   UNL A   1      41.328  28.324  27.829  1.00  0.00     0.010 A 
ATOM     48  C   UNL A   1      39.871  26.774  29.001  1.00  0.00     0.010 A 
ATOM     49  C   UNL A   1      40.487  28.034  28.915  1.00  0.00    -0.014 A 
BRANCH  49  50
ATOM     50  C   UNL A   1      40.431  28.978  30.058  1.00  0.00     0.031 A 
ATOM     51  C   UNL A   1      39.354  30.031  30.083  1.00  0.00     0.074 A 
ATOM     52  C   UNL A   1      41.297  28.883  31.079  1.00  0.00     0.049 A 
ATOM     53  N   UNL A   1      39.081  30.919  31.006  1.00  0.00    -0.248 NA
ATOM     54  C   UNL A   1      38.477  30.100  28.903  1.00  0.00     0.031 C 
ATOM     55  C   UNL A   1      42.403  27.933  31.162  1.00  0.00     0.029 A 
ATOM     56  N   UNL A   1      41.371  29.596  32.249  1.00  0.00    -0.354 N 
ATOM     57  C   UNL A   1      38.012  31.657  30.515  1.00  0.00     0.074 A 
ATOM     58  C   UNL A   1      37.697  31.128  29.205  1.00  0.00     0.031 C 
ATOM     59  C   UNL A   1      43.034  28.105  32.337  1.00  0.00     0.029 A 
ATOM     60  C   UNL A   1      42.379  29.180  33.081  1.00  0.00     0.049 A 
ATOM     61  H   UNL A   1      40.758  30.333  32.470  1.00  0.00     0.167 HD
ATOM     62  C   UNL A   1      37.345  32.681  31.100  1.00  0.00     0.037 A 
ATOM     63  C   UNL A   1      42.724  29.613  34.308  1.00  0.00     0.037 A 
ATOM     64  C   UNL A   1      37.651  33.217  32.399  1.00  0.00     0.049 A 
ATOM     65  C   UNL A   1      41.946  30.725  34.958  1.00  0.00     0.074 A 
ATOM     66  C   UNL A   1      37.038  34.260  33.073  1.00  0.00     0.029 A 
ATOM     67  N   UNL A   1      38.660  32.746  33.225  1.00  0.00    -0.354 N 
ATOM     68  N   UNL A   1      40.917  31.393  34.496  1.00  0.00    -0.248 NA
ATOM     69  C   UNL A   1      42.375  31.138  36.302  1.00  0.00     0.031 C 
ATOM     70  C   UNL A   1      37.691  34.434  34.299  1.00  0.00     0.029 A 
ATOM     71  C   UNL A   1      38.688  33.478  34.400  1.00  0.00     0.049 A 
ATOM     72  H   UNL A   1      39.267  32.003  33.007  1.00  0.00     0.167 HD
ATOM     73  C   UNL A   1      40.575  32.300  35.492  1.00  0.00     0.074 A 
ATOM     74  C   UNL A   1      41.488  32.079  36.594  1.00  0.00     0.031 C 
ATOM     75  C   UNL A   1      39.598  33.241  35.489  1.00  0.00     0.037 A 
BRANCH  62  76
ATOM     76  C   UNL A   1      36.223  33.299  30.320  1.00  0.00     0.057 A 
ATOM     77  C   UNL A   1      34.885  32.982  30.585  1.00  0.00     0.134 A 
ATOM     78  C   UNL A   1      36.482  34.225  29.303  1.00  0.00     0.134 A 
ATOM     79  F   UNL A   1      34.573  32.090  31.537  1.00  0.00    -0.206 F 
ATOM     80  C   UNL A   1      33.842  33.549  29.849  1.00  0.00     0.040 A 
ATOM     81  C   UNL A   1      35.448  34.814  28.574  1.00  0.00     0.040 A 
ATOM     82  F   UNL A   1      37.742  34.572  29.002  1.00  0.00    -0.206 F 
ATOM     83  C   UNL A   1      34.124  34.472  28.842  1.00  0.00     0.006 A 
ENDBRANCH  62  76
BRANCH  63  84
ATOM     84  C   UNL A   1      43.851  28.970  35.023  1.00  0.00     0.057 A 
ATOM     85  C   UNL A   1      45.172  29.376  34.799  1.00  0.00     0.134 A 
ATOM     86  C   UNL A   1      43.637  27.937  35.942  1.00  0.00     0.134 A 
ATOM     87  F   UNL A   1      45.436  30.350  33.915  1.00  0.00    -0.206 F 
ATOM     88  C   UNL A   1      46.243  28.768  35.453  1.00  0.00     0.040 A 
ATOM     89  C   UNL A   1      44.696  27.334  36.620  1.00  0.00     0.040 A 
ATOM     90  F   UNL A   1      42.392  27.509  36.200  1.00  0.00    -0.206 F 
ATOM     91  C   UNL A   1      46.005  27.746  36.371  1.00  0.00     0.006 A 
ENDBRANCH  63  84
BRANCH  75  92
ATOM     92  C   UNL A   1      39.456  34.086  36.719  1.00  0.00     0.057 A 
ATOM     93  C   UNL A   1      40.014  35.367  36.800  1.00  0.00     0.134 A 
ATOM     94  C   UNL A   1      38.724  33.626  37.821  1.00  0.00     0.134 A 
ATOM     95  F   UNL A   1      40.734  35.859  35.781  1.00  0.00    -0.206 F 
ATOM     96  C   UNL A   1      39.866  36.156  37.942  1.00  0.00     0.040 A 
ATOM     97  C   UNL A   1      38.553  34.412  38.961  1.00  0.00     0.040 A 
ATOM     98  F   UNL A   1      38.159  32.410  37.804  1.00  0.00    -0.206 F 
ATOM     99  C   UNL A   1      39.129  35.680  39.025  1.00  0.00     0.006 A 
ENDBRANCH  75  92
ENDBRANCH  49  50
ENDBRANCH  42  44
ENDBRANCH  41  42
ENDBRANCH  40  41
ENDBRANCH  39  40
ENDBRANCH  38  39
ENDBRANCH  37  38
ENDBRANCH   1  37
TORSDOF 21
ENDMDL
MODEL 3
REMARK VINA RESULT:     -11.3      1.603      2.324
REMARK SMILES C[C@@H](Oc1ccc(/C=C2\C(=O)[NH+]=C(OCCOCCOCCOC(=O)c3ccc(-c4c5nc(c(-c6c(F)cccc6F)c6ccc([nH]6)c(-c6c(F)cccc6F)c6nc(c(-c7c(F)cccc7F)c7ccc4[nH]7)C=C6)C=C5)cc3)N(c3ccc4c(c3)OCO4)C2=O)cc1)C(=O)[O-]
REMARK SMILES IDX 18 1 17 2 16 3 15 4 14 5 13 6 8 7 9 8 10 9 90 10 11 11 12 12
REMARK SMILES IDX 80 13 91 14 7 16 4 17 5 18 93 19 6 20 92 21 3 22 2 23 1 24
REMARK SMILES IDX 94 25 95 26 96 27 81 28 82 29 86 30 83 31 85 32 84 33 87 34
REMARK SMILES IDX 89 35 88 36 19 37 20 38 21 39 22 40 23 41 24 42 25 43 26 44
REMARK SMILES IDX 27 45 79 46 28 47 78 48 29 49 30 50 31 51 72 52 32 53 77 54
REMARK SMILES IDX 71 55 73 56 33 57 76 58 70 59 69 60 34 62 60 63 43 64 59 65
REMARK SMILES IDX 44 66 47 67 58 68 74 69 45 70 46 71 57 73 75 74 48 75 35 76
REMARK SMILES IDX 36 77 41 78 37 79 38 80 40 81 42 82 39 83 61 84 62 85 67 86
REMARK SMILES IDX 63 87 64 88 66 89 68 90 65 91 49 92 50 93 55 94 51 95 52 96
REMARK SMILES IDX 54 97 56 98 53 99
REMARK H PARENT 12 15 73 61 47 72
REMARK Flexibility Score: inf
ROOT
ATOM      1  C   UNL A   1      36.687  23.822  25.855  1.00  0.00     0.188 C 
ENDROOT
BRANCH   1   2
ATOM      2  O   UNL A   1      35.390  23.475  26.332  1.00  0.00    -0.376 OA
BRANCH   2   3
ATOM      3  C   UNL A   1      35.421  22.562  27.434  1.00  0.00     0.202 C 
BRANCH   3   4
ATOM      4  C   UNL A   1      34.072  22.594  28.160  1.00  0.00     0.266 C 
BRANCH   4   5
ATOM      5  O   UNL A   1      32.994  21.876  27.499  1.00  0.00    -0.428 OA
BRANCH   5   6
ATOM      6  C   UNL A   1      32.279  22.507  26.527  1.00  0.00     0.465 C 
ATOM      7  C   UNL A   1      30.925  24.786  23.500  1.00  0.00     0.032 C 
ATOM      8  C   UNL A   1      31.126  23.951  24.543  1.00  0.00     0.155 C 
ATOM      9  C   UNL A   1      30.870  24.226  25.965  1.00  0.00     0.349 C 
ATOM     10  C   UNL A   1      31.621  22.586  24.216  1.00  0.00     0.357 C 
ATOM     11  O   UNL A   1      29.899  24.870  26.333  1.00  0.00    -0.240 OA
ATOM     12  N   UNL A   1      31.734  23.631  26.842  1.00  0.00    -0.171 N 
ATOM     13  N   UNL A   1      32.197  21.908  25.281  1.00  0.00    -0.123 N 
ATOM     14  O   UNL A   1      31.558  22.155  23.063  1.00  0.00    -0.240 OA
ATOM     15  H   UNL A   1      31.938  24.058  27.704  1.00  0.00     0.319 HD
BRANCH   7  16
ATOM     16  C   UNL A   1      30.452  26.181  23.363  1.00  0.00    -0.024 A 
ATOM     17  C   UNL A   1      29.820  28.933  23.173  1.00  0.00     0.120 A 
ATOM     18  C   UNL A   1      28.823  27.994  23.422  1.00  0.00     0.047 A 
ATOM     19  C   UNL A   1      31.137  28.515  23.057  1.00  0.00     0.047 A 
ATOM     20  C   UNL A   1      29.139  26.629  23.526  1.00  0.00     0.012 A 
ATOM     21  C   UNL A   1      31.441  27.155  23.134  1.00  0.00     0.012 A 
BRANCH  17  22
ATOM     22  O   UNL A   1      29.486  30.257  23.198  1.00  0.00    -0.485 OA
BRANCH  22  23
ATOM     23  C   UNL A   1      28.316  30.582  22.430  1.00  0.00     0.216 C 
ATOM     24  C   UNL A   1      28.643  30.831  20.961  1.00  0.00     0.059 C 
BRANCH  23  25
ATOM     25  C   UNL A   1      27.724  31.867  22.998  1.00  0.00     0.082 C 
ATOM     26  O   UNL A   1      28.002  33.002  22.640  1.00  0.00    -0.546 OA
ATOM     27  O   UNL A   1      26.877  31.677  24.032  1.00  0.00    -0.546 OA
ENDBRANCH  23  25
ENDBRANCH  22  23
ENDBRANCH  17  22
ENDBRANCH   7  16
BRANCH  13  28
ATOM     28  C   UNL A   1      32.782  20.644  25.002  1.00  0.00     0.144 A 
ATOM     29  C   UNL A   1      34.172  20.570  24.746  1.00  0.00     0.056 A 
ATOM     30  C   UNL A   1      32.001  19.480  25.006  1.00  0.00     0.103 A 
ATOM     31  C   UNL A   1      34.786  19.344  24.484  1.00  0.00     0.055 A 
ATOM     32  C   UNL A   1      32.646  18.283  24.782  1.00  0.00     0.170 A 
ATOM     33  C   UNL A   1      33.996  18.217  24.525  1.00  0.00     0.166 A 
ATOM     34  O   UNL A   1      32.064  17.054  24.802  1.00  0.00    -0.453 OA
ATOM     35  O   UNL A   1      34.427  16.941  24.340  1.00  0.00    -0.454 OA
ATOM     36  C   UNL A   1      33.218  16.206  24.622  1.00  0.00     0.468 C 
ENDBRANCH  13  28
ENDBRANCH   5   6
ENDBRANCH   4   5
ENDBRANCH   3   4
ENDBRANCH   2   3
ENDBRANCH   1   2
BRANCH   1  37
ATOM     37  C   UNL A   1      37.266  22.968  24.724  1.00  0.00     0.188 C 
BRANCH  37  38
ATOM     38  O   UNL A   1      37.191  21.559  24.867  1.00  0.00    -0.376 OA
BRANCH  38  39
ATOM     39  C   UNL A   1      38.425  20.847  24.991  1.00  0.00     0.202 C 
BRANCH  39  40
ATOM     40  C   UNL A   1      39.369  21.331  26.094  1.00  0.00     0.261 C 
BRANCH  40  41
ATOM     41  O   UNL A   1      39.991  20.205  26.753  1.00  0.00    -0.460 OA
BRANCH  41  42
ATOM     42  C   UNL A   1      41.205  19.858  26.273  1.00  0.00     0.338 C 
ATOM     43  O   UNL A   1      41.497  18.850  25.652  1.00  0.00    -0.246 OA
BRANCH  42  44
ATOM     44  C   UNL A   1      42.197  20.904  26.563  1.00  0.00     0.060 A 
ATOM     45  C   UNL A   1      42.405  21.268  27.897  1.00  0.00     0.016 A 
ATOM     46  C   UNL A   1      42.730  21.668  25.520  1.00  0.00     0.016 A 
ATOM     47  C   UNL A   1      43.077  22.455  28.190  1.00  0.00     0.010 A 
ATOM     48  C   UNL A   1      43.399  22.860  25.817  1.00  0.00     0.010 A 
ATOM     49  C   UNL A   1      43.518  23.288  27.150  1.00  0.00    -0.014 A 
BRANCH  49  50
ATOM     50  C   UNL A   1      43.901  24.688  27.460  1.00  0.00     0.031 A 
ATOM     51  C   UNL A   1      45.328  25.118  27.244  1.00  0.00     0.074 A 
ATOM     52  C   UNL A   1      42.991  25.577  27.890  1.00  0.00     0.049 A 
ATOM     53  N   UNL A   1      45.871  26.301  27.391  1.00  0.00    -0.248 NA
ATOM     54  C   UNL A   1      46.272  24.072  26.818  1.00  0.00     0.031 C 
ATOM     55  C   UNL A   1      41.590  25.281  28.171  1.00  0.00     0.029 A 
ATOM     56  N   UNL A   1      43.119  26.916  28.157  1.00  0.00    -0.354 N 
ATOM     57  C   UNL A   1      47.217  26.139  27.088  1.00  0.00     0.074 A 
ATOM     58  C   UNL A   1      47.414  24.741  26.769  1.00  0.00     0.031 C 
ATOM     59  C   UNL A   1      40.976  26.417  28.548  1.00  0.00     0.029 A 
ATOM     60  C   UNL A   1      41.944  27.512  28.542  1.00  0.00     0.049 A 
ATOM     61  H   UNL A   1      43.970  27.403  28.079  1.00  0.00     0.167 HD
ATOM     62  C   UNL A   1      48.203  27.068  27.071  1.00  0.00     0.037 A 
ATOM     63  C   UNL A   1      41.683  28.797  28.843  1.00  0.00     0.037 A 
ATOM     64  C   UNL A   1      48.019  28.458  27.391  1.00  0.00     0.049 A 
ATOM     65  C   UNL A   1      42.783  29.823  28.780  1.00  0.00     0.074 A 
ATOM     66  C   UNL A   1      48.959  29.475  27.411  1.00  0.00     0.029 A 
ATOM     67  N   UNL A   1      46.806  29.029  27.744  1.00  0.00    -0.354 N 
ATOM     68  N   UNL A   1      44.044  29.662  28.461  1.00  0.00    -0.248 NA
ATOM     69  C   UNL A   1      42.420  31.208  29.114  1.00  0.00     0.031 C 
ATOM     70  C   UNL A   1      48.318  30.657  27.797  1.00  0.00     0.029 A 
ATOM     71  C   UNL A   1      46.973  30.382  27.986  1.00  0.00     0.049 A 
ATOM     72  H   UNL A   1      45.952  28.543  27.814  1.00  0.00     0.167 HD
ATOM     73  C   UNL A   1      44.622  30.923  28.553  1.00  0.00     0.074 A 
ATOM     74  C   UNL A   1      43.569  31.842  28.929  1.00  0.00     0.031 C 
ATOM     75  C   UNL A   1      45.914  31.284  28.353  1.00  0.00     0.037 A 
BRANCH  62  76
ATOM     76  C   UNL A   1      49.579  26.596  26.709  1.00  0.00     0.057 A 
ATOM     77  C   UNL A   1      50.060  26.676  25.396  1.00  0.00     0.134 A 
ATOM     78  C   UNL A   1      50.433  26.065  27.682  1.00  0.00     0.134 A 
ATOM     79  F   UNL A   1      49.283  27.162  24.416  1.00  0.00    -0.206 F 
ATOM     80  C   UNL A   1      51.338  26.225  25.059  1.00  0.00     0.040 A 
ATOM     81  C   UNL A   1      51.720  25.628  27.361  1.00  0.00     0.040 A 
ATOM     82  F   UNL A   1      50.034  25.962  28.958  1.00  0.00    -0.206 F 
ATOM     83  C   UNL A   1      52.173  25.702  26.045  1.00  0.00     0.006 A 
ENDBRANCH  62  76
BRANCH  63  84
ATOM     84  C   UNL A   1      40.304  29.200  29.206  1.00  0.00     0.057 A 
ATOM     85  C   UNL A   1      39.355  29.492  28.219  1.00  0.00     0.134 A 
ATOM     86  C   UNL A   1      39.902  29.303  30.542  1.00  0.00     0.134 A 
ATOM     87  F   UNL A   1      39.691  29.426  26.922  1.00  0.00    -0.206 F 
ATOM     88  C   UNL A   1      38.059  29.887  28.548  1.00  0.00     0.040 A 
ATOM     89  C   UNL A   1      38.603  29.676  30.886  1.00  0.00     0.040 A 
ATOM     90  F   UNL A   1      40.767  29.030  31.531  1.00  0.00    -0.206 F 
ATOM     91  C   UNL A   1      37.678  29.975  29.886  1.00  0.00     0.006 A 
ENDBRANCH  63  84
BRANCH  75  92
ATOM     92  C   UNL A   1      46.254  32.735  28.519  1.00  0.00     0.057 A 
ATOM     93  C   UNL A   1      46.687  33.252  29.746  1.00  0.00     0.134 A 
ATOM     94  C   UNL A   1      46.181  33.615  27.433  1.00  0.00     0.134 A 
ATOM     95  F   UNL A   1      46.768  32.461  30.826  1.00  0.00    -0.206 F 
ATOM     96  C   UNL A   1      47.016  34.601  29.892  1.00  0.00     0.040 A 
ATOM     97  C   UNL A   1      46.525  34.961  27.561  1.00  0.00     0.040 A 
ATOM     98  F   UNL A   1      45.780  33.179  26.229  1.00  0.00    -0.206 F 
ATOM     99  C   UNL A   1      46.940  35.458  28.796  1.00  0.00     0.006 A 
ENDBRANCH  75  92
ENDBRANCH  49  50
ENDBRANCH  42  44
ENDBRANCH  41  42
ENDBRANCH  40  41
ENDBRANCH  39  40
ENDBRANCH  38  39
ENDBRANCH  37  38
ENDBRANCH   1  37
TORSDOF 21
ENDMDL
