MODEL 1
REMARK VINA RESULT:     -10.7      0.000      0.000
REMARK SMILES O=C(OCCOCCOCCOC(=O)c1ccc(-n2cnc3ccccc32)nc1)c1ccc(-c2c3nc(c(-c4c(F)cccc4F)c4ccc([nH]4)c(-c4c(F)cccc4F)c4nc(c(-c5c(F)cccc5F)c5ccc2[nH]5)C=C4)C=C3)cc1
REMARK SMILES IDX 7 1 6 2 5 3 4 4 3 5 2 6 1 7 30 8 31 9 83 10 32 11 82 12
REMARK SMILES IDX 33 13 34 14 35 15 76 16 36 17 81 18 75 19 77 20 37 21 80 22
REMARK SMILES IDX 74 23 73 24 38 26 64 27 47 28 63 29 48 30 51 31 62 32 78 33
REMARK SMILES IDX 49 34 50 35 61 37 79 38 52 39 39 40 40 41 45 42 41 43 42 44
REMARK SMILES IDX 44 45 46 46 43 47 65 48 66 49 71 50 67 51 68 52 70 53 72 54
REMARK SMILES IDX 69 55 53 56 54 57 59 58 55 59 56 60 58 61 60 62 57 63 8 64
REMARK SMILES IDX 9 65 10 66 11 67 12 68 13 69 14 70 15 71 16 72 29 73 17 74
REMARK SMILES IDX 28 75 18 76 19 77 20 78 27 79 21 80 22 81 26 82 23 83 25 84
REMARK SMILES IDX 24 85
REMARK H PARENT 77 25 51 36
REMARK Flexibility Score: inf
ROOT
ATOM      1  C   UNL A   1      32.183  29.852  25.839  1.00  0.00     0.188 C 
ENDROOT
BRANCH   1   2
ATOM      2  O   UNL A   1      33.303  30.575  26.332  1.00  0.00    -0.376 OA
BRANCH   2   3
ATOM      3  C   UNL A   1      33.035  31.383  27.471  1.00  0.00     0.202 C 
BRANCH   3   4
ATOM      4  C   UNL A   1      32.023  32.528  27.289  1.00  0.00     0.261 C 
BRANCH   4   5
ATOM      5  O   UNL A   1      32.402  33.899  27.583  1.00  0.00    -0.460 OA
BRANCH   5   6
ATOM      6  C   UNL A   1      32.930  34.464  28.693  1.00  0.00     0.338 C 
ATOM      7  O   UNL A   1      32.318  35.314  29.329  1.00  0.00    -0.246 OA
BRANCH   6   8
ATOM      8  C   UNL A   1      34.325  34.141  29.039  1.00  0.00     0.060 A 
ATOM      9  C   UNL A   1      35.263  34.171  28.010  1.00  0.00     0.016 A 
ATOM     10  C   UNL A   1      34.679  33.668  30.303  1.00  0.00     0.016 A 
ATOM     11  C   UNL A   1      36.475  33.526  28.205  1.00  0.00     0.010 A 
ATOM     12  C   UNL A   1      35.854  32.932  30.453  1.00  0.00     0.010 A 
ATOM     13  C   UNL A   1      36.732  32.796  29.376  1.00  0.00    -0.014 A 
BRANCH  13  14
ATOM     14  C   UNL A   1      38.110  32.322  29.591  1.00  0.00     0.031 A 
ATOM     15  C   UNL A   1      38.142  30.862  29.303  1.00  0.00     0.074 A 
ATOM     16  C   UNL A   1      39.230  33.024  29.895  1.00  0.00     0.049 A 
ATOM     17  N   UNL A   1      38.329  29.909  30.156  1.00  0.00    -0.248 NA
ATOM     18  C   UNL A   1      37.645  30.404  27.990  1.00  0.00     0.031 C 
ATOM     19  C   UNL A   1      39.384  34.459  30.093  1.00  0.00     0.029 A 
ATOM     20  N   UNL A   1      40.534  32.593  30.036  1.00  0.00    -0.354 N 
ATOM     21  C   UNL A   1      38.226  28.743  29.404  1.00  0.00     0.074 A 
ATOM     22  C   UNL A   1      37.568  29.088  28.177  1.00  0.00     0.031 C 
ATOM     23  C   UNL A   1      40.673  34.828  30.071  1.00  0.00     0.029 A 
ATOM     24  C   UNL A   1      41.469  33.634  30.016  1.00  0.00     0.049 A 
ATOM     25  H   UNL A   1      40.781  31.646  30.142  1.00  0.00     0.167 HD
ATOM     26  C   UNL A   1      39.046  27.695  29.667  1.00  0.00     0.037 A 
ATOM     27  C   UNL A   1      42.820  33.617  30.085  1.00  0.00     0.037 A 
ATOM     28  C   UNL A   1      39.573  27.766  31.002  1.00  0.00     0.049 A 
ATOM     29  C   UNL A   1      43.195  32.313  30.658  1.00  0.00     0.074 A 
ATOM     30  C   UNL A   1      39.125  27.477  32.271  1.00  0.00     0.029 A 
ATOM     31  N   UNL A   1      40.665  28.582  31.124  1.00  0.00    -0.354 N 
ATOM     32  N   UNL A   1      42.961  31.981  31.899  1.00  0.00    -0.248 NA
ATOM     33  C   UNL A   1      43.421  31.204  29.743  1.00  0.00     0.031 C 
ATOM     34  C   UNL A   1      39.915  28.265  33.160  1.00  0.00     0.029 A 
ATOM     35  C   UNL A   1      40.852  28.981  32.418  1.00  0.00     0.049 A 
ATOM     36  H   UNL A   1      41.244  28.847  30.373  1.00  0.00     0.167 HD
ATOM     37  C   UNL A   1      42.597  30.648  31.836  1.00  0.00     0.074 A 
ATOM     38  C   UNL A   1      43.031  30.190  30.520  1.00  0.00     0.031 C 
ATOM     39  C   UNL A   1      41.707  30.111  32.721  1.00  0.00     0.037 A 
BRANCH  26  40
ATOM     40  C   UNL A   1      39.790  26.967  28.571  1.00  0.00     0.057 A 
ATOM     41  C   UNL A   1      39.497  25.649  28.149  1.00  0.00     0.134 A 
ATOM     42  C   UNL A   1      40.603  27.704  27.699  1.00  0.00     0.134 A 
ATOM     43  F   UNL A   1      38.642  24.851  28.799  1.00  0.00    -0.206 F 
ATOM     44  C   UNL A   1      39.980  25.104  26.959  1.00  0.00     0.040 A 
ATOM     45  C   UNL A   1      41.048  27.185  26.476  1.00  0.00     0.040 A 
ATOM     46  F   UNL A   1      40.923  28.978  27.973  1.00  0.00    -0.206 F 
ATOM     47  C   UNL A   1      40.734  25.883  26.102  1.00  0.00     0.006 A 
ENDBRANCH  26  40
BRANCH  27  48
ATOM     48  C   UNL A   1      43.763  34.627  29.542  1.00  0.00     0.057 A 
ATOM     49  C   UNL A   1      44.142  35.759  30.294  1.00  0.00     0.134 A 
ATOM     50  C   UNL A   1      44.154  34.638  28.197  1.00  0.00     0.134 A 
ATOM     51  F   UNL A   1      43.773  35.901  31.575  1.00  0.00    -0.206 F 
ATOM     52  C   UNL A   1      44.850  36.834  29.749  1.00  0.00     0.040 A 
ATOM     53  C   UNL A   1      44.851  35.719  27.632  1.00  0.00     0.040 A 
ATOM     54  F   UNL A   1      43.828  33.623  27.384  1.00  0.00    -0.206 F 
ATOM     55  C   UNL A   1      45.191  36.826  28.405  1.00  0.00     0.006 A 
ENDBRANCH  27  48
BRANCH  39  56
ATOM     56  C   UNL A   1      41.492  30.821  34.023  1.00  0.00     0.057 A 
ATOM     57  C   UNL A   1      42.247  30.419  35.131  1.00  0.00     0.134 A 
ATOM     58  C   UNL A   1      40.514  31.798  34.239  1.00  0.00     0.134 A 
ATOM     59  F   UNL A   1      43.171  29.452  35.005  1.00  0.00    -0.206 F 
ATOM     60  C   UNL A   1      42.041  30.956  36.402  1.00  0.00     0.040 A 
ATOM     61  C   UNL A   1      40.318  32.368  35.502  1.00  0.00     0.040 A 
ATOM     62  F   UNL A   1      39.695  32.183  33.247  1.00  0.00    -0.206 F 
ATOM     63  C   UNL A   1      41.078  31.941  36.589  1.00  0.00     0.006 A 
ENDBRANCH  39  56
ENDBRANCH  13  14
ENDBRANCH   6   8
ENDBRANCH   5   6
ENDBRANCH   4   5
ENDBRANCH   3   4
ENDBRANCH   2   3
ENDBRANCH   1   2
BRANCH   1  64
ATOM     64  C   UNL A   1      32.365  28.331  25.848  1.00  0.00     0.188 C 
BRANCH  64  65
ATOM     65  O   UNL A   1      32.503  27.683  24.592  1.00  0.00    -0.376 OA
BRANCH  65  66
ATOM     66  C   UNL A   1      31.460  27.877  23.658  1.00  0.00     0.202 C 
BRANCH  66  67
ATOM     67  C   UNL A   1      30.081  27.245  23.900  1.00  0.00     0.261 C 
BRANCH  67  68
ATOM     68  O   UNL A   1      29.898  25.830  23.918  1.00  0.00    -0.460 OA
BRANCH  68  69
ATOM     69  C   UNL A   1      30.114  25.261  25.128  1.00  0.00     0.339 C 
ATOM     70  O   UNL A   1      29.805  25.710  26.207  1.00  0.00    -0.246 OA
BRANCH  69  71
ATOM     71  C   UNL A   1      30.933  24.044  24.976  1.00  0.00     0.078 A 
ATOM     72  C   UNL A   1      31.857  23.987  23.931  1.00  0.00     0.021 A 
ATOM     73  C   UNL A   1      30.804  22.937  25.802  1.00  0.00     0.129 A 
ATOM     74  C   UNL A   1      32.681  22.873  23.818  1.00  0.00     0.048 A 
ATOM     75  N   UNL A   1      31.569  21.817  25.691  1.00  0.00    -0.238 NA
ATOM     76  C   UNL A   1      32.544  21.843  24.746  1.00  0.00     0.138 A 
BRANCH  76  77
ATOM     77  N   UNL A   1      33.566  20.867  24.815  1.00  0.00    -0.283 N 
ATOM     78  C   UNL A   1      34.882  21.077  25.143  1.00  0.00     0.206 A 
ATOM     79  C   UNL A   1      33.457  19.550  24.396  1.00  0.00     0.074 A 
ATOM     80  N   UNL A   1      35.592  19.968  25.082  1.00  0.00    -0.236 NA
ATOM     81  C   UNL A   1      34.733  19.023  24.578  1.00  0.00     0.089 A 
ATOM     82  C   UNL A   1      32.419  18.817  23.795  1.00  0.00     0.029 A 
ATOM     83  C   UNL A   1      34.984  17.693  24.201  1.00  0.00     0.030 A 
ATOM     84  C   UNL A   1      32.696  17.507  23.400  1.00  0.00     0.002 A 
ATOM     85  C   UNL A   1      33.956  16.949  23.607  1.00  0.00     0.002 A 
ENDBRANCH  76  77
ENDBRANCH  69  71
ENDBRANCH  68  69
ENDBRANCH  67  68
ENDBRANCH  66  67
ENDBRANCH  65  66
ENDBRANCH  64  65
ENDBRANCH   1  64
TORSDOF 18
ENDMDL
MODEL 2
REMARK VINA RESULT:     -10.7      5.669     10.626
REMARK SMILES O=C(OCCOCCOCCOC(=O)c1ccc(-n2cnc3ccccc32)nc1)c1ccc(-c2c3nc(c(-c4c(F)cccc4F)c4ccc([nH]4)c(-c4c(F)cccc4F)c4nc(c(-c5c(F)cccc5F)c5ccc2[nH]5)C=C4)C=C3)cc1
REMARK SMILES IDX 7 1 6 2 5 3 4 4 3 5 2 6 1 7 30 8 31 9 83 10 32 11 82 12
REMARK SMILES IDX 33 13 34 14 35 15 76 16 36 17 81 18 75 19 77 20 37 21 80 22
REMARK SMILES IDX 74 23 73 24 38 26 64 27 47 28 63 29 48 30 51 31 62 32 78 33
REMARK SMILES IDX 49 34 50 35 61 37 79 38 52 39 39 40 40 41 45 42 41 43 42 44
REMARK SMILES IDX 44 45 46 46 43 47 65 48 66 49 71 50 67 51 68 52 70 53 72 54
REMARK SMILES IDX 69 55 53 56 54 57 59 58 55 59 56 60 58 61 60 62 57 63 8 64
REMARK SMILES IDX 9 65 10 66 11 67 12 68 13 69 14 70 15 71 16 72 29 73 17 74
REMARK SMILES IDX 28 75 18 76 19 77 20 78 27 79 21 80 22 81 26 82 23 83 25 84
REMARK SMILES IDX 24 85
REMARK H PARENT 77 25 51 36
REMARK Flexibility Score: inf
ROOT
ATOM      1  C   UNL A   1      44.158  19.282  25.340  1.00  0.00     0.188 C 
ENDROOT
BRANCH   1   2
ATOM      2  O   UNL A   1      42.836  18.979  24.914  1.00  0.00    -0.376 OA
BRANCH   2   3
ATOM      3  C   UNL A   1      41.840  19.130  25.917  1.00  0.00     0.202 C 
BRANCH   3   4
ATOM      4  C   UNL A   1      41.769  20.493  26.627  1.00  0.00     0.261 C 
BRANCH   4   5
ATOM      5  O   UNL A   1      41.066  21.608  26.014  1.00  0.00    -0.460 OA
BRANCH   5   6
ATOM      6  C   UNL A   1      39.940  22.265  26.379  1.00  0.00     0.338 C 
ATOM      7  O   UNL A   1      38.843  21.941  25.938  1.00  0.00    -0.246 OA
BRANCH   6   8
ATOM      8  C   UNL A   1      40.080  23.476  27.204  1.00  0.00     0.060 A 
ATOM      9  C   UNL A   1      39.220  24.537  26.935  1.00  0.00     0.016 A 
ATOM     10  C   UNL A   1      41.128  23.630  28.112  1.00  0.00     0.016 A 
ATOM     11  C   UNL A   1      39.554  25.794  27.415  1.00  0.00     0.010 A 
ATOM     12  C   UNL A   1      41.514  24.913  28.499  1.00  0.00     0.010 A 
ATOM     13  C   UNL A   1      40.764  26.018  28.091  1.00  0.00    -0.014 A 
BRANCH  13  14
ATOM     14  C   UNL A   1      40.944  27.325  28.745  1.00  0.00     0.031 A 
ATOM     15  C   UNL A   1      42.226  27.906  28.263  1.00  0.00     0.074 A 
ATOM     16  C   UNL A   1      40.106  28.004  29.568  1.00  0.00     0.049 A 
ATOM     17  N   UNL A   1      43.300  28.094  28.957  1.00  0.00    -0.248 NA
ATOM     18  C   UNL A   1      42.423  28.035  26.804  1.00  0.00     0.031 C 
ATOM     19  C   UNL A   1      38.780  27.627  30.038  1.00  0.00     0.029 A 
ATOM     20  N   UNL A   1      40.244  29.256  30.134  1.00  0.00    -0.354 N 
ATOM     21  C   UNL A   1      44.216  28.614  28.048  1.00  0.00     0.074 A 
ATOM     22  C   UNL A   1      43.722  28.319  26.734  1.00  0.00     0.031 C 
ATOM     23  C   UNL A   1      38.129  28.667  30.578  1.00  0.00     0.029 A 
ATOM     24  C   UNL A   1      39.046  29.770  30.646  1.00  0.00     0.049 A 
ATOM     25  H   UNL A   1      41.100  29.739  30.174  1.00  0.00     0.167 HD
ATOM     26  C   UNL A   1      45.075  29.589  28.437  1.00  0.00     0.037 A 
ATOM     27  C   UNL A   1      38.766  30.958  31.230  1.00  0.00     0.037 A 
ATOM     28  C   UNL A   1      45.240  29.601  29.864  1.00  0.00     0.049 A 
ATOM     29  C   UNL A   1      40.051  31.514  31.687  1.00  0.00     0.074 A 
ATOM     30  C   UNL A   1      45.951  28.878  30.796  1.00  0.00     0.029 A 
ATOM     31  N   UNL A   1      44.255  30.279  30.529  1.00  0.00    -0.354 N 
ATOM     32  N   UNL A   1      40.744  31.005  32.669  1.00  0.00    -0.248 NA
ATOM     33  C   UNL A   1      40.793  32.362  30.767  1.00  0.00     0.031 C 
ATOM     34  C   UNL A   1      45.265  29.045  32.035  1.00  0.00     0.029 A 
ATOM     35  C   UNL A   1      44.180  29.898  31.840  1.00  0.00     0.049 A 
ATOM     36  H   UNL A   1      43.673  30.956  30.115  1.00  0.00     0.167 HD
ATOM     37  C   UNL A   1      42.060  31.120  32.257  1.00  0.00     0.074 A 
ATOM     38  C   UNL A   1      42.039  32.080  31.157  1.00  0.00     0.031 C 
ATOM     39  C   UNL A   1      43.004  30.207  32.628  1.00  0.00     0.037 A 
BRANCH  26  40
ATOM     40  C   UNL A   1      45.293  30.838  27.614  1.00  0.00     0.057 A 
ATOM     41  C   UNL A   1      44.335  31.867  27.458  1.00  0.00     0.134 A 
ATOM     42  C   UNL A   1      46.598  31.177  27.231  1.00  0.00     0.134 A 
ATOM     43  F   UNL A   1      43.072  31.754  27.884  1.00  0.00    -0.206 F 
ATOM     44  C   UNL A   1      44.647  33.129  26.954  1.00  0.00     0.040 A 
ATOM     45  C   UNL A   1      46.932  32.460  26.775  1.00  0.00     0.040 A 
ATOM     46  F   UNL A   1      47.602  30.297  27.364  1.00  0.00    -0.206 F 
ATOM     47  C   UNL A   1      45.956  33.440  26.639  1.00  0.00     0.006 A 
ENDBRANCH  26  40
BRANCH  27  48
ATOM     48  C   UNL A   1      37.457  31.658  31.264  1.00  0.00     0.057 A 
ATOM     49  C   UNL A   1      36.718  31.776  32.460  1.00  0.00     0.134 A 
ATOM     50  C   UNL A   1      36.784  32.044  30.098  1.00  0.00     0.134 A 
ATOM     51  F   UNL A   1      37.225  31.379  33.636  1.00  0.00    -0.206 F 
ATOM     52  C   UNL A   1      35.397  32.234  32.498  1.00  0.00     0.040 A 
ATOM     53  C   UNL A   1      35.452  32.488  30.119  1.00  0.00     0.040 A 
ATOM     54  F   UNL A   1      37.384  31.951  28.903  1.00  0.00    -0.206 F 
ATOM     55  C   UNL A   1      34.751  32.574  31.319  1.00  0.00     0.006 A 
ENDBRANCH  27  48
BRANCH  39  56
ATOM     56  C   UNL A   1      42.734  29.368  33.841  1.00  0.00     0.057 A 
ATOM     57  C   UNL A   1      42.092  28.136  33.667  1.00  0.00     0.134 A 
ATOM     58  C   UNL A   1      42.989  29.775  35.155  1.00  0.00     0.134 A 
ATOM     59  F   UNL A   1      41.776  27.706  32.435  1.00  0.00    -0.206 F 
ATOM     60  C   UNL A   1      41.713  27.339  34.748  1.00  0.00     0.040 A 
ATOM     61  C   UNL A   1      42.643  28.970  36.248  1.00  0.00     0.040 A 
ATOM     62  F   UNL A   1      43.529  30.976  35.412  1.00  0.00    -0.206 F 
ATOM     63  C   UNL A   1      41.996  27.753  36.045  1.00  0.00     0.006 A 
ENDBRANCH  39  56
ENDBRANCH  13  14
ENDBRANCH   6   8
ENDBRANCH   5   6
ENDBRANCH   4   5
ENDBRANCH   3   4
ENDBRANCH   2   3
ENDBRANCH   1   2
BRANCH   1  64
ATOM     64  C   UNL A   1      44.875  20.319  24.469  1.00  0.00     0.188 C 
BRANCH  64  65
ATOM     65  O   UNL A   1      44.549  21.685  24.677  1.00  0.00    -0.376 OA
BRANCH  65  66
ATOM     66  C   UNL A   1      45.550  22.633  24.363  1.00  0.00     0.202 C 
BRANCH  66  67
ATOM     67  C   UNL A   1      46.314  23.348  25.488  1.00  0.00     0.261 C 
BRANCH  67  68
ATOM     68  O   UNL A   1      45.844  23.341  26.835  1.00  0.00    -0.460 OA
BRANCH  68  69
ATOM     69  C   UNL A   1      45.741  24.573  27.390  1.00  0.00     0.339 C 
ATOM     70  O   UNL A   1      46.092  25.620  26.902  1.00  0.00    -0.246 OA
BRANCH  69  71
ATOM     71  C   UNL A   1      45.260  24.463  28.780  1.00  0.00     0.078 A 
ATOM     72  C   UNL A   1      44.511  23.341  29.141  1.00  0.00     0.021 A 
ATOM     73  C   UNL A   1      45.486  25.439  29.739  1.00  0.00     0.129 A 
ATOM     74  C   UNL A   1      44.109  23.193  30.463  1.00  0.00     0.048 A 
ATOM     75  N   UNL A   1      45.072  25.340  31.032  1.00  0.00    -0.238 NA
ATOM     76  C   UNL A   1      44.457  24.181  31.382  1.00  0.00     0.138 A 
BRANCH  76  77
ATOM     77  N   UNL A   1      44.316  23.891  32.759  1.00  0.00    -0.283 N 
ATOM     78  C   UNL A   1      43.631  22.836  33.310  1.00  0.00     0.206 A 
ATOM     79  C   UNL A   1      44.701  24.716  33.805  1.00  0.00     0.074 A 
ATOM     80  N   UNL A   1      43.655  22.863  34.628  1.00  0.00    -0.236 NA
ATOM     81  C   UNL A   1      44.276  24.045  34.948  1.00  0.00     0.089 A 
ATOM     82  C   UNL A   1      45.273  25.999  33.853  1.00  0.00     0.029 A 
ATOM     83  C   UNL A   1      44.474  24.641  36.205  1.00  0.00     0.030 A 
ATOM     84  C   UNL A   1      45.434  26.588  35.109  1.00  0.00     0.002 A 
ATOM     85  C   UNL A   1      45.049  25.918  36.269  1.00  0.00     0.002 A 
ENDBRANCH  76  77
ENDBRANCH  69  71
ENDBRANCH  68  69
ENDBRANCH  67  68
ENDBRANCH  66  67
ENDBRANCH  65  66
ENDBRANCH  64  65
ENDBRANCH   1  64
TORSDOF 18
ENDMDL
MODEL 3
REMARK VINA RESULT:     -10.7      3.583      7.886
REMARK SMILES O=C(OCCOCCOCCOC(=O)c1ccc(-n2cnc3ccccc32)nc1)c1ccc(-c2c3nc(c(-c4c(F)cccc4F)c4ccc([nH]4)c(-c4c(F)cccc4F)c4nc(c(-c5c(F)cccc5F)c5ccc2[nH]5)C=C4)C=C3)cc1
REMARK SMILES IDX 7 1 6 2 5 3 4 4 3 5 2 6 1 7 30 8 31 9 83 10 32 11 82 12
REMARK SMILES IDX 33 13 34 14 35 15 76 16 36 17 81 18 75 19 77 20 37 21 80 22
REMARK SMILES IDX 74 23 73 24 38 26 64 27 47 28 63 29 48 30 51 31 62 32 78 33
REMARK SMILES IDX 49 34 50 35 61 37 79 38 52 39 39 40 40 41 45 42 41 43 42 44
REMARK SMILES IDX 44 45 46 46 43 47 65 48 66 49 71 50 67 51 68 52 70 53 72 54
REMARK SMILES IDX 69 55 53 56 54 57 59 58 55 59 56 60 58 61 60 62 57 63 8 64
REMARK SMILES IDX 9 65 10 66 11 67 12 68 13 69 14 70 15 71 16 72 29 73 17 74
REMARK SMILES IDX 28 75 18 76 19 77 20 78 27 79 21 80 22 81 26 82 23 83 25 84
REMARK SMILES IDX 24 85
REMARK H PARENT 77 25 51 36
REMARK Flexibility Score: inf
ROOT
ATOM      1  C   UNL A   1      33.595  21.329  26.003  1.00  0.00     0.188 C 
ENDROOT
BRANCH   1   2
ATOM      2  O   UNL A   1      34.743  20.609  25.572  1.00  0.00    -0.376 OA
BRANCH   2   3
ATOM      3  C   UNL A   1      35.797  21.419  25.070  1.00  0.00     0.202 C 
BRANCH   3   4
ATOM      4  C   UNL A   1      37.230  21.015  25.457  1.00  0.00     0.261 C 
BRANCH   4   5
ATOM      5  O   UNL A   1      38.281  22.014  25.542  1.00  0.00    -0.460 OA
BRANCH   5   6
ATOM      6  C   UNL A   1      39.337  22.134  26.380  1.00  0.00     0.338 C 
ATOM      7  O   UNL A   1      39.874  21.149  26.873  1.00  0.00    -0.246 OA
BRANCH   6   8
ATOM      8  C   UNL A   1      39.736  23.486  26.806  1.00  0.00     0.060 A 
ATOM      9  C   UNL A   1      40.827  23.592  27.663  1.00  0.00     0.016 A 
ATOM     10  C   UNL A   1      38.966  24.610  26.501  1.00  0.00     0.016 A 
ATOM     11  C   UNL A   1      40.999  24.774  28.369  1.00  0.00     0.010 A 
ATOM     12  C   UNL A   1      39.082  25.752  27.292  1.00  0.00     0.010 A 
ATOM     13  C   UNL A   1      40.060  25.814  28.286  1.00  0.00    -0.014 A 
BRANCH  13  14
ATOM     14  C   UNL A   1      40.422  27.104  28.898  1.00  0.00     0.031 A 
ATOM     15  C   UNL A   1      41.753  27.506  28.366  1.00  0.00     0.074 A 
ATOM     16  C   UNL A   1      39.701  27.904  29.723  1.00  0.00     0.049 A 
ATOM     17  N   UNL A   1      42.862  27.573  29.027  1.00  0.00    -0.248 NA
ATOM     18  C   UNL A   1      41.922  27.573  26.900  1.00  0.00     0.031 C 
ATOM     19  C   UNL A   1      38.353  27.709  30.237  1.00  0.00     0.029 A 
ATOM     20  N   UNL A   1      40.012  29.142  30.249  1.00  0.00    -0.354 N 
ATOM     21  C   UNL A   1      43.809  27.950  28.080  1.00  0.00     0.074 A 
ATOM     22  C   UNL A   1      43.244  27.688  26.789  1.00  0.00     0.031 C 
ATOM     23  C   UNL A   1      37.854  28.837  30.763  1.00  0.00     0.029 A 
ATOM     24  C   UNL A   1      38.904  29.816  30.777  1.00  0.00     0.049 A 
ATOM     25  H   UNL A   1      40.924  29.514  30.253  1.00  0.00     0.167 HD
ATOM     26  C   UNL A   1      44.796  28.817  28.420  1.00  0.00     0.037 A 
ATOM     27  C   UNL A   1      38.793  31.044  31.335  1.00  0.00     0.037 A 
ATOM     28  C   UNL A   1      45.002  28.844  29.842  1.00  0.00     0.049 A 
ATOM     29  C   UNL A   1      40.150  31.444  31.742  1.00  0.00     0.074 A 
ATOM     30  C   UNL A   1      45.643  28.060  30.775  1.00  0.00     0.029 A 
ATOM     31  N   UNL A   1      44.129  29.657  30.512  1.00  0.00    -0.354 N 
ATOM     32  N   UNL A   1      40.803  30.876  32.720  1.00  0.00    -0.248 NA
ATOM     33  C   UNL A   1      40.967  32.168  30.780  1.00  0.00     0.031 C 
ATOM     34  C   UNL A   1      45.020  28.343  32.026  1.00  0.00     0.029 A 
ATOM     35  C   UNL A   1      44.045  29.322  31.835  1.00  0.00     0.049 A 
ATOM     36  H   UNL A   1      43.626  30.392  30.094  1.00  0.00     0.167 HD
ATOM     37  C   UNL A   1      42.110  30.812  32.271  1.00  0.00     0.074 A 
ATOM     38  C   UNL A   1      42.178  31.740  31.146  1.00  0.00     0.031 C 
ATOM     39  C   UNL A   1      42.941  29.796  32.644  1.00  0.00     0.037 A 
BRANCH  26  40
ATOM     40  C   UNL A   1      45.145  30.009  27.557  1.00  0.00     0.057 A 
ATOM     41  C   UNL A   1      44.301  31.126  27.361  1.00  0.00     0.134 A 
ATOM     42  C   UNL A   1      46.480  30.196  27.170  1.00  0.00     0.134 A 
ATOM     43  F   UNL A   1      43.032  31.161  27.784  1.00  0.00    -0.206 F 
ATOM     44  C   UNL A   1      44.744  32.331  26.817  1.00  0.00     0.040 A 
ATOM     45  C   UNL A   1      46.947  31.420  26.674  1.00  0.00     0.040 A 
ATOM     46  F   UNL A   1      47.385  29.220  27.338  1.00  0.00    -0.206 F 
ATOM     47  C   UNL A   1      46.080  32.492  26.499  1.00  0.00     0.006 A 
ENDBRANCH  26  40
BRANCH  27  48
ATOM     48  C   UNL A   1      37.585  31.905  31.383  1.00  0.00     0.057 A 
ATOM     49  C   UNL A   1      37.303  32.834  30.359  1.00  0.00     0.134 A 
ATOM     50  C   UNL A   1      36.782  32.005  32.526  1.00  0.00     0.134 A 
ATOM     51  F   UNL A   1      38.041  32.886  29.241  1.00  0.00    -0.206 F 
ATOM     52  C   UNL A   1      36.303  33.805  30.466  1.00  0.00     0.040 A 
ATOM     53  C   UNL A   1      35.786  32.987  32.654  1.00  0.00     0.040 A 
ATOM     54  F   UNL A   1      36.978  31.185  33.569  1.00  0.00    -0.206 F 
ATOM     55  C   UNL A   1      35.551  33.897  31.628  1.00  0.00     0.006 A 
ENDBRANCH  27  48
BRANCH  39  56
ATOM     56  C   UNL A   1      42.603  29.028  33.886  1.00  0.00     0.057 A 
ATOM     57  C   UNL A   1      43.262  29.364  35.075  1.00  0.00     0.134 A 
ATOM     58  C   UNL A   1      41.743  27.925  33.923  1.00  0.00     0.134 A 
ATOM     59  F   UNL A   1      44.137  30.384  35.098  1.00  0.00    -0.206 F 
ATOM     60  C   UNL A   1      43.082  28.638  36.252  1.00  0.00     0.040 A 
ATOM     61  C   UNL A   1      41.529  27.207  35.106  1.00  0.00     0.040 A 
ATOM     62  F   UNL A   1      41.134  27.489  32.810  1.00  0.00    -0.206 F 
ATOM     63  C   UNL A   1      42.206  27.558  36.272  1.00  0.00     0.006 A 
ENDBRANCH  39  56
ENDBRANCH  13  14
ENDBRANCH   6   8
ENDBRANCH   5   6
ENDBRANCH   4   5
ENDBRANCH   3   4
ENDBRANCH   2   3
ENDBRANCH   1   2
BRANCH   1  64
ATOM     64  C   UNL A   1      32.329  21.036  25.192  1.00  0.00     0.188 C 
BRANCH  64  65
ATOM     65  O   UNL A   1      32.499  20.538  23.873  1.00  0.00    -0.376 OA
BRANCH  65  66
ATOM     66  C   UNL A   1      32.449  21.485  22.824  1.00  0.00     0.202 C 
BRANCH  66  67
ATOM     67  C   UNL A   1      32.029  22.934  23.113  1.00  0.00     0.261 C 
BRANCH  67  68
ATOM     68  O   UNL A   1      32.992  23.969  23.303  1.00  0.00    -0.460 OA
BRANCH  68  69
ATOM     69  C   UNL A   1      32.832  25.031  22.476  1.00  0.00     0.339 C 
ATOM     70  O   UNL A   1      32.915  25.031  21.271  1.00  0.00    -0.246 OA
BRANCH  69  71
ATOM     71  C   UNL A   1      32.678  26.268  23.265  1.00  0.00     0.078 A 
ATOM     72  C   UNL A   1      31.804  26.262  24.353  1.00  0.00     0.021 A 
ATOM     73  C   UNL A   1      33.335  27.449  22.955  1.00  0.00     0.129 A 
ATOM     74  C   UNL A   1      31.701  27.401  25.144  1.00  0.00     0.048 A 
ATOM     75  N   UNL A   1      33.225  28.591  23.688  1.00  0.00    -0.238 NA
ATOM     76  C   UNL A   1      32.467  28.516  24.812  1.00  0.00     0.138 A 
BRANCH  76  77
ATOM     77  N   UNL A   1      32.591  29.548  25.771  1.00  0.00    -0.283 N 
ATOM     78  C   UNL A   1      31.776  30.644  25.909  1.00  0.00     0.206 A 
ATOM     79  C   UNL A   1      33.661  29.726  26.635  1.00  0.00     0.074 A 
ATOM     80  N   UNL A   1      32.178  31.444  26.876  1.00  0.00    -0.236 NA
ATOM     81  C   UNL A   1      33.369  30.912  27.306  1.00  0.00     0.089 A 
ATOM     82  C   UNL A   1      34.873  29.038  26.817  1.00  0.00     0.029 A 
ATOM     83  C   UNL A   1      34.289  31.413  28.241  1.00  0.00     0.030 A 
ATOM     84  C   UNL A   1      35.788  29.568  27.728  1.00  0.00     0.002 A 
ATOM     85  C   UNL A   1      35.500  30.733  28.437  1.00  0.00     0.002 A 
ENDBRANCH  76  77
ENDBRANCH  69  71
ENDBRANCH  68  69
ENDBRANCH  67  68
ENDBRANCH  66  67
ENDBRANCH  65  66
ENDBRANCH  64  65
ENDBRANCH   1  64
TORSDOF 18
ENDMDL
