MODEL 1
REMARK VINA RESULT:     -10.5      0.000      0.000
REMARK SMILES O=C(OCCOCCOCCOC(=O)c1ccc(Cn2cc(Br)cc([N+](=O)[O-])c2=O)nc1)c1ccc(-c2c3nc(c(-c4c(F)cccc4F)c4ccc([nH]4)c(-c4c(F)cccc4F)c4nc(c(-c5c(F)cccc5F)c5ccc2[nH]5)C=C4)C=C3)cc1
REMARK SMILES IDX 8 1 7 2 6 3 5 4 4 5 3 6 2 7 1 8 33 9 34 10 86 11 35 12 85 13
REMARK SMILES IDX 36 14 37 15 38 16 79 17 39 18 84 19 78 20 80 21 40 22 83 23
REMARK SMILES IDX 77 24 76 25 41 27 67 28 50 29 66 30 51 31 54 32 65 33 81 34
REMARK SMILES IDX 52 35 53 36 64 38 82 39 55 40 42 41 43 42 48 43 44 44 45 45
REMARK SMILES IDX 47 46 49 47 46 48 68 49 69 50 74 51 70 52 71 53 73 54 75 55
REMARK SMILES IDX 72 56 56 57 57 58 62 59 58 60 59 61 61 62 63 63 60 64 9 65
REMARK SMILES IDX 10 66 11 67 12 68 13 69 14 70 15 71 16 72 32 73 17 74 31 75
REMARK SMILES IDX 18 76 19 77 20 78 21 79 29 80 22 81 25 82 30 83 23 84 24 85
REMARK SMILES IDX 26 86 27 87 28 88
REMARK H PARENT 80 26 54 37
REMARK Flexibility Score: inf
ROOT
ATOM      1  C   UNL A   1      32.497  35.919  31.132  1.00  0.00     0.188 C 
ENDROOT
BRANCH   1   2
ATOM      2  C   UNL A   1      33.303  36.933  31.952  1.00  0.00     0.188 C 
BRANCH   2   3
ATOM      3  O   UNL A   1      33.813  36.388  33.178  1.00  0.00    -0.376 OA
BRANCH   3   4
ATOM      4  C   UNL A   1      34.939  35.528  32.971  1.00  0.00     0.202 C 
BRANCH   4   5
ATOM      5  C   UNL A   1      35.113  34.428  34.019  1.00  0.00     0.261 C 
BRANCH   5   6
ATOM      6  O   UNL A   1      36.093  33.444  33.669  1.00  0.00    -0.460 OA
BRANCH   6   7
ATOM      7  C   UNL A   1      36.010  32.414  32.794  1.00  0.00     0.338 C 
ATOM      8  O   UNL A   1      34.880  32.025  32.497  1.00  0.00    -0.246 OA
BRANCH   7   9
ATOM      9  C   UNL A   1      37.176  31.679  32.187  1.00  0.00     0.060 A 
ATOM     10  C   UNL A   1      37.174  31.578  30.780  1.00  0.00     0.016 A 
ATOM     11  C   UNL A   1      38.267  31.126  32.863  1.00  0.00     0.016 A 
ATOM     12  C   UNL A   1      38.234  30.987  30.081  1.00  0.00     0.010 A 
ATOM     13  C   UNL A   1      39.338  30.548  32.172  1.00  0.00     0.010 A 
ATOM     14  C   UNL A   1      39.338  30.495  30.778  1.00  0.00    -0.014 A 
BRANCH  14  15
ATOM     15  C   UNL A   1      40.562  30.072  30.067  1.00  0.00     0.031 A 
ATOM     16  C   UNL A   1      41.665  31.035  29.763  1.00  0.00     0.074 A 
ATOM     17  C   UNL A   1      40.612  28.809  29.607  1.00  0.00     0.049 A 
ATOM     18  N   UNL A   1      42.836  30.802  29.228  1.00  0.00    -0.248 NA
ATOM     19  C   UNL A   1      41.419  32.450  30.081  1.00  0.00     0.031 C 
ATOM     20  C   UNL A   1      39.540  27.820  29.747  1.00  0.00     0.029 A 
ATOM     21  N   UNL A   1      41.585  28.151  28.905  1.00  0.00    -0.354 N 
ATOM     22  C   UNL A   1      43.485  32.027  29.188  1.00  0.00     0.074 A 
ATOM     23  C   UNL A   1      42.550  33.016  29.680  1.00  0.00     0.031 C 
ATOM     24  C   UNL A   1      39.910  26.684  29.137  1.00  0.00     0.029 A 
ATOM     25  C   UNL A   1      41.245  26.862  28.579  1.00  0.00     0.049 A 
ATOM     26  H   UNL A   1      42.445  28.561  28.658  1.00  0.00     0.167 HD
ATOM     27  C   UNL A   1      44.758  32.290  28.808  1.00  0.00     0.037 A 
ATOM     28  C   UNL A   1      41.944  25.925  27.916  1.00  0.00     0.037 A 
ATOM     29  C   UNL A   1      45.651  31.306  28.253  1.00  0.00     0.049 A 
ATOM     30  C   UNL A   1      43.349  26.238  27.495  1.00  0.00     0.074 A 
ATOM     31  C   UNL A   1      46.970  31.454  27.862  1.00  0.00     0.029 A 
ATOM     32  N   UNL A   1      45.297  29.993  27.980  1.00  0.00    -0.354 N 
ATOM     33  N   UNL A   1      44.016  27.362  27.614  1.00  0.00    -0.248 NA
ATOM     34  C   UNL A   1      44.112  25.144  26.883  1.00  0.00     0.031 C 
ATOM     35  C   UNL A   1      47.405  30.235  27.325  1.00  0.00     0.029 A 
ATOM     36  C   UNL A   1      46.367  29.322  27.411  1.00  0.00     0.049 A 
ATOM     37  H   UNL A   1      44.415  29.596  28.163  1.00  0.00     0.167 HD
ATOM     38  C   UNL A   1      45.286  27.103  27.118  1.00  0.00     0.074 A 
ATOM     39  C   UNL A   1      45.298  25.711  26.715  1.00  0.00     0.031 C 
ATOM     40  C   UNL A   1      46.349  27.939  27.007  1.00  0.00     0.037 A 
BRANCH  27  41
ATOM     41  C   UNL A   1      45.265  33.682  29.021  1.00  0.00     0.057 A 
ATOM     42  C   UNL A   1      45.145  34.669  28.037  1.00  0.00     0.134 A 
ATOM     43  C   UNL A   1      45.922  34.032  30.209  1.00  0.00     0.134 A 
ATOM     44  F   UNL A   1      44.538  34.399  26.872  1.00  0.00    -0.206 F 
ATOM     45  C   UNL A   1      45.651  35.956  28.233  1.00  0.00     0.040 A 
ATOM     46  C   UNL A   1      46.421  35.318  30.422  1.00  0.00     0.040 A 
ATOM     47  F   UNL A   1      46.063  33.135  31.197  1.00  0.00    -0.206 F 
ATOM     48  C   UNL A   1      46.287  36.285  29.430  1.00  0.00     0.006 A 
ENDBRANCH  27  41
BRANCH  28  49
ATOM     49  C   UNL A   1      41.344  24.591  27.677  1.00  0.00     0.057 A 
ATOM     50  C   UNL A   1      40.354  24.401  26.706  1.00  0.00     0.134 A 
ATOM     51  C   UNL A   1      41.731  23.478  28.432  1.00  0.00     0.134 A 
ATOM     52  F   UNL A   1      39.930  25.432  25.961  1.00  0.00    -0.206 F 
ATOM     53  C   UNL A   1      39.771  23.151  26.492  1.00  0.00     0.040 A 
ATOM     54  C   UNL A   1      41.172  22.218  28.216  1.00  0.00     0.040 A 
ATOM     55  F   UNL A   1      42.681  23.598  29.371  1.00  0.00    -0.206 F 
ATOM     56  C   UNL A   1      40.185  22.054  27.246  1.00  0.00     0.006 A 
ENDBRANCH  28  49
BRANCH  40  57
ATOM     57  C   UNL A   1      47.603  27.348  26.440  1.00  0.00     0.057 A 
ATOM     58  C   UNL A   1      48.548  26.743  27.276  1.00  0.00     0.134 A 
ATOM     59  C   UNL A   1      47.865  27.360  25.064  1.00  0.00     0.134 A 
ATOM     60  F   UNL A   1      48.360  26.705  28.604  1.00  0.00    -0.206 F 
ATOM     61  C   UNL A   1      49.705  26.158  26.761  1.00  0.00     0.040 A 
ATOM     62  C   UNL A   1      49.006  26.757  24.535  1.00  0.00     0.040 A 
ATOM     63  F   UNL A   1      46.989  27.913  24.210  1.00  0.00    -0.206 F 
ATOM     64  C   UNL A   1      49.931  26.154  25.385  1.00  0.00     0.006 A 
ENDBRANCH  40  57
ENDBRANCH  14  15
ENDBRANCH   7   9
ENDBRANCH   6   7
ENDBRANCH   5   6
ENDBRANCH   4   5
ENDBRANCH   3   4
ENDBRANCH   2   3
ENDBRANCH   1   2
BRANCH   1  65
ATOM     65  O   UNL A   1      32.524  36.084  29.716  1.00  0.00    -0.376 OA
BRANCH  65  66
ATOM     66  C   UNL A   1      33.715  35.697  29.036  1.00  0.00     0.202 C 
BRANCH  66  67
ATOM     67  C   UNL A   1      34.297  34.321  29.373  1.00  0.00     0.261 C 
BRANCH  67  68
ATOM     68  O   UNL A   1      33.713  33.241  28.619  1.00  0.00    -0.460 OA
BRANCH  68  69
ATOM     69  C   UNL A   1      34.612  32.436  28.009  1.00  0.00     0.339 C 
ATOM     70  O   UNL A   1      35.791  32.692  27.776  1.00  0.00    -0.246 OA
BRANCH  69  71
ATOM     71  C   UNL A   1      34.004  31.192  27.525  1.00  0.00     0.078 A 
ATOM     72  C   UNL A   1      34.814  30.064  27.403  1.00  0.00     0.019 A 
ATOM     73  C   UNL A   1      32.646  31.047  27.301  1.00  0.00     0.127 A 
ATOM     74  C   UNL A   1      34.239  28.836  27.088  1.00  0.00     0.026 A 
ATOM     75  N   UNL A   1      32.068  29.859  26.983  1.00  0.00    -0.258 NA
ATOM     76  C   UNL A   1      32.863  28.762  26.891  1.00  0.00     0.060 A 
BRANCH  76  77
ATOM     77  C   UNL A   1      32.194  27.416  26.671  1.00  0.00     0.181 C 
BRANCH  77  78
ATOM     78  N   UNL A   1      31.789  27.250  25.268  1.00  0.00    -0.303 N 
ATOM     79  C   UNL A   1      30.679  27.934  24.785  1.00  0.00     0.105 A 
ATOM     80  C   UNL A   1      32.573  26.418  24.447  1.00  0.00     0.329 A 
ATOM     81  C   UNL A   1      30.322  27.881  23.492  1.00  0.00     0.041 A 
ATOM     82  C   UNL A   1      32.220  26.478  23.008  1.00  0.00     0.335 A 
ATOM     83  O   UNL A   1      33.440  25.667  24.881  1.00  0.00    -0.261 OA
ATOM     84  Br  UNL A   1      28.822  28.767  22.835  1.00  0.00    -0.049 Br
ATOM     85  C   UNL A   1      31.147  27.149  22.558  1.00  0.00     0.109 A 
BRANCH  82  86
ATOM     86  N   UNL A   1      33.060  25.824  22.040  1.00  0.00     0.068 N 
ATOM     87  O   UNL A   1      32.837  24.634  21.790  1.00  0.00    -0.258 OA
ATOM     88  O   UNL A   1      34.007  26.478  21.575  1.00  0.00    -0.258 OA
ENDBRANCH  82  86
ENDBRANCH  77  78
ENDBRANCH  76  77
ENDBRANCH  69  71
ENDBRANCH  68  69
ENDBRANCH  67  68
ENDBRANCH  66  67
ENDBRANCH  65  66
ENDBRANCH   1  65
TORSDOF 20
ENDMDL
MODEL 2
REMARK VINA RESULT:     -10.1      0.726      6.053
REMARK SMILES O=C(OCCOCCOCCOC(=O)c1ccc(Cn2cc(Br)cc([N+](=O)[O-])c2=O)nc1)c1ccc(-c2c3nc(c(-c4c(F)cccc4F)c4ccc([nH]4)c(-c4c(F)cccc4F)c4nc(c(-c5c(F)cccc5F)c5ccc2[nH]5)C=C4)C=C3)cc1
REMARK SMILES IDX 8 1 7 2 6 3 5 4 4 5 3 6 2 7 1 8 33 9 34 10 86 11 35 12 85 13
REMARK SMILES IDX 36 14 37 15 38 16 79 17 39 18 84 19 78 20 80 21 40 22 83 23
REMARK SMILES IDX 77 24 76 25 41 27 67 28 50 29 66 30 51 31 54 32 65 33 81 34
REMARK SMILES IDX 52 35 53 36 64 38 82 39 55 40 42 41 43 42 48 43 44 44 45 45
REMARK SMILES IDX 47 46 49 47 46 48 68 49 69 50 74 51 70 52 71 53 73 54 75 55
REMARK SMILES IDX 72 56 56 57 57 58 62 59 58 60 59 61 61 62 63 63 60 64 9 65
REMARK SMILES IDX 10 66 11 67 12 68 13 69 14 70 15 71 16 72 32 73 17 74 31 75
REMARK SMILES IDX 18 76 19 77 20 78 21 79 29 80 22 81 25 82 30 83 23 84 24 85
REMARK SMILES IDX 26 86 27 87 28 88
REMARK H PARENT 80 26 54 37
REMARK Flexibility Score: inf
ROOT
ATOM      1  C   UNL A   1      32.591  35.943  31.160  1.00  0.00     0.188 C 
ENDROOT
BRANCH   1   2
ATOM      2  C   UNL A   1      33.481  36.967  31.874  1.00  0.00     0.188 C 
BRANCH   2   3
ATOM      3  O   UNL A   1      34.121  36.437  33.045  1.00  0.00    -0.376 OA
BRANCH   3   4
ATOM      4  C   UNL A   1      35.237  35.598  32.730  1.00  0.00     0.202 C 
BRANCH   4   5
ATOM      5  C   UNL A   1      35.316  34.299  33.534  1.00  0.00     0.261 C 
BRANCH   5   6
ATOM      6  O   UNL A   1      36.321  33.391  33.070  1.00  0.00    -0.460 OA
BRANCH   6   7
ATOM      7  C   UNL A   1      36.188  32.237  32.374  1.00  0.00     0.338 C 
ATOM      8  O   UNL A   1      35.050  31.779  32.264  1.00  0.00    -0.246 OA
BRANCH   7   9
ATOM      9  C   UNL A   1      37.313  31.445  31.761  1.00  0.00     0.060 A 
ATOM     10  C   UNL A   1      37.389  31.473  30.353  1.00  0.00     0.016 A 
ATOM     11  C   UNL A   1      38.301  30.723  32.437  1.00  0.00     0.016 A 
ATOM     12  C   UNL A   1      38.428  30.843  29.657  1.00  0.00     0.010 A 
ATOM     13  C   UNL A   1      39.352  30.104  31.750  1.00  0.00     0.010 A 
ATOM     14  C   UNL A   1      39.434  30.179  30.360  1.00  0.00    -0.014 A 
BRANCH  14  15
ATOM     15  C   UNL A   1      40.653  29.700  29.677  1.00  0.00     0.031 A 
ATOM     16  C   UNL A   1      40.779  28.289  29.197  1.00  0.00     0.074 A 
ATOM     17  C   UNL A   1      41.695  30.546  29.590  1.00  0.00     0.049 A 
ATOM     18  N   UNL A   1      41.744  27.739  28.505  1.00  0.00    -0.248 NA
ATOM     19  C   UNL A   1      39.694  27.365  29.556  1.00  0.00     0.031 C 
ATOM     20  C   UNL A   1      41.718  31.909  30.130  1.00  0.00     0.029 A 
ATOM     21  N   UNL A   1      42.939  30.381  29.046  1.00  0.00    -0.354 N 
ATOM     22  C   UNL A   1      41.362  26.422  28.303  1.00  0.00     0.074 A 
ATOM     23  C   UNL A   1      40.116  26.230  29.012  1.00  0.00     0.031 C 
ATOM     24  C   UNL A   1      42.924  32.450  29.901  1.00  0.00     0.029 A 
ATOM     25  C   UNL A   1      43.748  31.480  29.188  1.00  0.00     0.049 A 
ATOM     26  H   UNL A   1      43.226  29.554  28.595  1.00  0.00     0.167 HD
ATOM     27  C   UNL A   1      41.983  25.473  27.562  1.00  0.00     0.037 A 
ATOM     28  C   UNL A   1      45.010  31.685  28.775  1.00  0.00     0.037 A 
ATOM     29  C   UNL A   1      43.259  25.658  26.922  1.00  0.00     0.049 A 
ATOM     30  C   UNL A   1      45.684  30.617  27.963  1.00  0.00     0.074 A 
ATOM     31  C   UNL A   1      43.966  24.777  26.122  1.00  0.00     0.029 A 
ATOM     32  N   UNL A   1      44.035  26.802  27.041  1.00  0.00    -0.354 N 
ATOM     33  N   UNL A   1      45.241  29.427  27.634  1.00  0.00    -0.248 NA
ATOM     34  C   UNL A   1      47.014  30.937  27.432  1.00  0.00     0.031 C 
ATOM     35  C   UNL A   1      45.184  25.379  25.782  1.00  0.00     0.029 A 
ATOM     36  C   UNL A   1      45.221  26.645  26.343  1.00  0.00     0.049 A 
ATOM     37  H   UNL A   1      43.781  27.607  27.547  1.00  0.00     0.167 HD
ATOM     38  C   UNL A   1      46.226  28.864  26.836  1.00  0.00     0.074 A 
ATOM     39  C   UNL A   1      47.279  29.853  26.715  1.00  0.00     0.031 C 
ATOM     40  C   UNL A   1      46.258  27.641  26.250  1.00  0.00     0.037 A 
BRANCH  27  41
ATOM     41  C   UNL A   1      41.267  24.171  27.373  1.00  0.00     0.057 A 
ATOM     42  C   UNL A   1      40.155  24.058  26.531  1.00  0.00     0.134 A 
ATOM     43  C   UNL A   1      41.665  23.025  28.074  1.00  0.00     0.134 A 
ATOM     44  F   UNL A   1      39.714  25.117  25.838  1.00  0.00    -0.206 F 
ATOM     45  C   UNL A   1      39.474  22.846  26.386  1.00  0.00     0.040 A 
ATOM     46  C   UNL A   1      41.000  21.807  27.929  1.00  0.00     0.040 A 
ATOM     47  F   UNL A   1      42.729  23.064  28.892  1.00  0.00    -0.206 F 
ATOM     48  C   UNL A   1      39.899  21.715  27.083  1.00  0.00     0.006 A 
ENDBRANCH  27  41
BRANCH  28  49
ATOM     49  C   UNL A   1      45.680  32.974  29.066  1.00  0.00     0.057 A 
ATOM     50  C   UNL A   1      46.439  33.155  30.228  1.00  0.00     0.134 A 
ATOM     51  C   UNL A   1      45.558  34.064  28.197  1.00  0.00     0.134 A 
ATOM     52  F   UNL A   1      46.580  32.151  31.107  1.00  0.00    -0.206 F 
ATOM     53  C   UNL A   1      47.054  34.374  30.517  1.00  0.00     0.040 A 
ATOM     54  C   UNL A   1      46.185  35.283  28.462  1.00  0.00     0.040 A 
ATOM     55  F   UNL A   1      44.852  33.948  27.064  1.00  0.00    -0.206 F 
ATOM     56  C   UNL A   1      46.932  35.440  29.629  1.00  0.00     0.006 A 
ENDBRANCH  28  49
BRANCH  40  57
ATOM     57  C   UNL A   1      47.469  27.331  25.423  1.00  0.00     0.057 A 
ATOM     58  C   UNL A   1      48.574  26.688  25.991  1.00  0.00     0.134 A 
ATOM     59  C   UNL A   1      47.530  27.649  24.060  1.00  0.00     0.134 A 
ATOM     60  F   UNL A   1      48.580  26.362  27.293  1.00  0.00    -0.206 F 
ATOM     61  C   UNL A   1      49.696  26.360  25.228  1.00  0.00     0.040 A 
ATOM     62  C   UNL A   1      48.636  27.305  23.282  1.00  0.00     0.040 A 
ATOM     63  F   UNL A   1      46.495  28.253  23.456  1.00  0.00    -0.206 F 
ATOM     64  C   UNL A   1      49.723  26.659  23.867  1.00  0.00     0.006 A 
ENDBRANCH  40  57
ENDBRANCH  14  15
ENDBRANCH   7   9
ENDBRANCH   6   7
ENDBRANCH   5   6
ENDBRANCH   4   5
ENDBRANCH   3   4
ENDBRANCH   2   3
ENDBRANCH   1   2
BRANCH   1  65
ATOM     65  O   UNL A   1      32.350  36.172  29.773  1.00  0.00    -0.376 OA
BRANCH  65  66
ATOM     66  C   UNL A   1      33.390  35.823  28.864  1.00  0.00     0.202 C 
BRANCH  66  67
ATOM     67  C   UNL A   1      34.005  34.428  29.007  1.00  0.00     0.261 C 
BRANCH  67  68
ATOM     68  O   UNL A   1      33.777  33.570  27.872  1.00  0.00    -0.460 OA
BRANCH  68  69
ATOM     69  C   UNL A   1      34.679  32.573  27.734  1.00  0.00     0.339 C 
ATOM     70  O   UNL A   1      35.896  32.694  27.604  1.00  0.00    -0.246 OA
BRANCH  69  71
ATOM     71  C   UNL A   1      34.041  31.256  27.645  1.00  0.00     0.078 A 
ATOM     72  C   UNL A   1      32.653  31.200  27.538  1.00  0.00     0.019 A 
ATOM     73  C   UNL A   1      34.752  30.073  27.538  1.00  0.00     0.127 A 
ATOM     74  C   UNL A   1      32.031  29.976  27.305  1.00  0.00     0.026 A 
ATOM     75  N   UNL A   1      34.163  28.869  27.321  1.00  0.00    -0.258 NA
ATOM     76  C   UNL A   1      32.811  28.828  27.193  1.00  0.00     0.060 A 
BRANCH  76  77
ATOM     77  C   UNL A   1      32.172  27.503  26.815  1.00  0.00     0.181 C 
BRANCH  77  78
ATOM     78  N   UNL A   1      31.929  27.428  25.368  1.00  0.00    -0.303 N 
ATOM     79  C   UNL A   1      30.863  28.126  24.811  1.00  0.00     0.105 A 
ATOM     80  C   UNL A   1      32.818  26.667  24.587  1.00  0.00     0.329 A 
ATOM     81  C   UNL A   1      30.653  28.156  23.485  1.00  0.00     0.041 A 
ATOM     82  C   UNL A   1      32.625  26.820  23.124  1.00  0.00     0.335 A 
ATOM     83  O   UNL A   1      33.650  25.902  25.064  1.00  0.00    -0.261 OA
ATOM     84  Br  UNL A   1      29.214  29.061  22.724  1.00  0.00    -0.049 Br
ATOM     85  C   UNL A   1      31.593  27.504  22.603  1.00  0.00     0.109 A 
BRANCH  82  86
ATOM     86  N   UNL A   1      33.583  26.249  22.215  1.00  0.00     0.068 N 
ATOM     87  O   UNL A   1      34.019  26.966  21.307  1.00  0.00    -0.258 OA
ATOM     88  O   UNL A   1      33.849  25.044  22.353  1.00  0.00    -0.258 OA
ENDBRANCH  82  86
ENDBRANCH  77  78
ENDBRANCH  76  77
ENDBRANCH  69  71
ENDBRANCH  68  69
ENDBRANCH  67  68
ENDBRANCH  66  67
ENDBRANCH  65  66
ENDBRANCH   1  65
TORSDOF 20
ENDMDL
MODEL 3
REMARK VINA RESULT:     -10.1      2.659      7.024
REMARK SMILES O=C(OCCOCCOCCOC(=O)c1ccc(Cn2cc(Br)cc([N+](=O)[O-])c2=O)nc1)c1ccc(-c2c3nc(c(-c4c(F)cccc4F)c4ccc([nH]4)c(-c4c(F)cccc4F)c4nc(c(-c5c(F)cccc5F)c5ccc2[nH]5)C=C4)C=C3)cc1
REMARK SMILES IDX 8 1 7 2 6 3 5 4 4 5 3 6 2 7 1 8 33 9 34 10 86 11 35 12 85 13
REMARK SMILES IDX 36 14 37 15 38 16 79 17 39 18 84 19 78 20 80 21 40 22 83 23
REMARK SMILES IDX 77 24 76 25 41 27 67 28 50 29 66 30 51 31 54 32 65 33 81 34
REMARK SMILES IDX 52 35 53 36 64 38 82 39 55 40 42 41 43 42 48 43 44 44 45 45
REMARK SMILES IDX 47 46 49 47 46 48 68 49 69 50 74 51 70 52 71 53 73 54 75 55
REMARK SMILES IDX 72 56 56 57 57 58 62 59 58 60 59 61 61 62 63 63 60 64 9 65
REMARK SMILES IDX 10 66 11 67 12 68 13 69 14 70 15 71 16 72 32 73 17 74 31 75
REMARK SMILES IDX 18 76 19 77 20 78 21 79 29 80 22 81 25 82 30 83 23 84 24 85
REMARK SMILES IDX 26 86 27 87 28 88
REMARK H PARENT 80 26 54 37
REMARK Flexibility Score: inf
ROOT
ATOM      1  C   UNL A   1      34.371  32.587  27.798  1.00  0.00     0.188 C 
ENDROOT
BRANCH   1   2
ATOM      2  C   UNL A   1      33.464  33.702  28.332  1.00  0.00     0.188 C 
BRANCH   2   3
ATOM      3  O   UNL A   1      34.186  34.734  29.020  1.00  0.00    -0.376 OA
BRANCH   3   4
ATOM      4  C   UNL A   1      33.706  34.948  30.352  1.00  0.00     0.202 C 
BRANCH   4   5
ATOM      5  C   UNL A   1      34.695  34.585  31.461  1.00  0.00     0.261 C 
BRANCH   5   6
ATOM      6  O   UNL A   1      35.750  33.716  31.034  1.00  0.00    -0.460 OA
BRANCH   6   7
ATOM      7  C   UNL A   1      36.007  32.434  31.383  1.00  0.00     0.338 C 
ATOM      8  O   UNL A   1      35.195  31.884  32.127  1.00  0.00    -0.246 OA
BRANCH   7   9
ATOM      9  C   UNL A   1      37.219  31.637  30.975  1.00  0.00     0.060 A 
ATOM     10  C   UNL A   1      37.318  31.329  29.602  1.00  0.00     0.016 A 
ATOM     11  C   UNL A   1      38.263  31.208  31.800  1.00  0.00     0.016 A 
ATOM     12  C   UNL A   1      38.429  30.661  29.074  1.00  0.00     0.010 A 
ATOM     13  C   UNL A   1      39.384  30.553  31.279  1.00  0.00     0.010 A 
ATOM     14  C   UNL A   1      39.485  30.296  29.911  1.00  0.00    -0.014 A 
BRANCH  14  15
ATOM     15  C   UNL A   1      40.759  29.793  29.359  1.00  0.00     0.031 A 
ATOM     16  C   UNL A   1      40.948  28.351  29.010  1.00  0.00     0.074 A 
ATOM     17  C   UNL A   1      41.786  30.657  29.273  1.00  0.00     0.049 A 
ATOM     18  N   UNL A   1      41.971  27.772  28.436  1.00  0.00    -0.248 NA
ATOM     19  C   UNL A   1      39.859  27.432  29.369  1.00  0.00     0.031 C 
ATOM     20  C   UNL A   1      41.743  32.060  29.695  1.00  0.00     0.029 A 
ATOM     21  N   UNL A   1      43.070  30.480  28.833  1.00  0.00    -0.354 N 
ATOM     22  C   UNL A   1      41.632  26.432  28.320  1.00  0.00     0.074 A 
ATOM     23  C   UNL A   1      40.342  26.267  28.955  1.00  0.00     0.031 C 
ATOM     24  C   UNL A   1      42.951  32.612  29.506  1.00  0.00     0.029 A 
ATOM     25  C   UNL A   1      43.844  31.608  28.938  1.00  0.00     0.049 A 
ATOM     26  H   UNL A   1      43.406  29.626  28.475  1.00  0.00     0.167 HD
ATOM     27  C   UNL A   1      42.323  25.442  27.708  1.00  0.00     0.037 A 
ATOM     28  C   UNL A   1      45.128  31.811  28.598  1.00  0.00     0.037 A 
ATOM     29  C   UNL A   1      43.638  25.607  27.146  1.00  0.00     0.049 A 
ATOM     30  C   UNL A   1      45.880  30.698  27.928  1.00  0.00     0.074 A 
ATOM     31  C   UNL A   1      44.418  24.682  26.474  1.00  0.00     0.029 A 
ATOM     32  N   UNL A   1      44.380  26.777  27.220  1.00  0.00    -0.354 N 
ATOM     33  N   UNL A   1      45.486  29.473  27.672  1.00  0.00    -0.248 NA
ATOM     34  C   UNL A   1      47.238  31.007  27.466  1.00  0.00     0.031 C 
ATOM     35  C   UNL A   1      45.645  25.285  26.170  1.00  0.00     0.029 A 
ATOM     36  C   UNL A   1      45.616  26.594  26.623  1.00  0.00     0.049 A 
ATOM     37  H   UNL A   1      44.074  27.614  27.638  1.00  0.00     0.167 HD
ATOM     38  C   UNL A   1      46.537  28.872  26.994  1.00  0.00     0.074 A 
ATOM     39  C   UNL A   1      47.575  29.875  26.864  1.00  0.00     0.031 C 
ATOM     40  C   UNL A   1      46.636  27.605  26.518  1.00  0.00     0.037 A 
BRANCH  27  41
ATOM     41  C   UNL A   1      41.649  24.111  27.580  1.00  0.00     0.057 A 
ATOM     42  C   UNL A   1      41.975  23.037  28.416  1.00  0.00     0.134 A 
ATOM     43  C   UNL A   1      40.692  23.885  26.581  1.00  0.00     0.134 A 
ATOM     44  F   UNL A   1      42.889  23.181  29.386  1.00  0.00    -0.206 F 
ATOM     45  C   UNL A   1      41.363  21.790  28.268  1.00  0.00     0.040 A 
ATOM     46  C   UNL A   1      40.066  22.646  26.431  1.00  0.00     0.040 A 
ATOM     47  F   UNL A   1      40.328  24.875  25.752  1.00  0.00    -0.206 F 
ATOM     48  C   UNL A   1      40.402  21.593  27.276  1.00  0.00     0.006 A 
ENDBRANCH  27  41
BRANCH  28  49
ATOM     49  C   UNL A   1      45.749  33.137  28.824  1.00  0.00     0.057 A 
ATOM     50  C   UNL A   1      45.853  34.078  27.793  1.00  0.00     0.134 A 
ATOM     51  C   UNL A   1      46.273  33.486  30.073  1.00  0.00     0.134 A 
ATOM     52  F   UNL A   1      45.382  33.796  26.569  1.00  0.00    -0.206 F 
ATOM     53  C   UNL A   1      46.456  35.320  27.996  1.00  0.00     0.040 A 
ATOM     54  C   UNL A   1      46.861  34.732  30.297  1.00  0.00     0.040 A 
ATOM     55  F   UNL A   1      46.194  32.629  31.101  1.00  0.00    -0.206 F 
ATOM     56  C   UNL A   1      46.957  35.651  29.254  1.00  0.00     0.006 A 
ENDBRANCH  28  49
BRANCH  40  57
ATOM     57  C   UNL A   1      47.909  27.259  25.807  1.00  0.00     0.057 A 
ATOM     58  C   UNL A   1      48.022  27.431  24.423  1.00  0.00     0.134 A 
ATOM     59  C   UNL A   1      49.029  26.777  26.497  1.00  0.00     0.134 A 
ATOM     60  F   UNL A   1      46.983  27.883  23.704  1.00  0.00    -0.206 F 
ATOM     61  C   UNL A   1      49.210  27.147  23.750  1.00  0.00     0.040 A 
ATOM     62  C   UNL A   1      50.230  26.513  25.838  1.00  0.00     0.040 A 
ATOM     63  F   UNL A   1      48.987  26.606  27.827  1.00  0.00    -0.206 F 
ATOM     64  C   UNL A   1      50.322  26.697  24.460  1.00  0.00     0.006 A 
ENDBRANCH  40  57
ENDBRANCH  14  15
ENDBRANCH   7   9
ENDBRANCH   6   7
ENDBRANCH   5   6
ENDBRANCH   4   5
ENDBRANCH   3   4
ENDBRANCH   2   3
ENDBRANCH   1   2
BRANCH   1  65
ATOM     65  O   UNL A   1      34.203  31.298  28.387  1.00  0.00    -0.376 OA
BRANCH  65  66
ATOM     66  C   UNL A   1      34.352  30.167  27.534  1.00  0.00     0.202 C 
BRANCH  66  67
ATOM     67  C   UNL A   1      33.128  29.739  26.719  1.00  0.00     0.261 C 
BRANCH  67  68
ATOM     68  O   UNL A   1      33.453  29.128  25.455  1.00  0.00    -0.460 OA
BRANCH  68  69
ATOM     69  C   UNL A   1      32.444  28.418  24.902  1.00  0.00     0.339 C 
ATOM     70  O   UNL A   1      31.538  28.855  24.196  1.00  0.00    -0.246 OA
BRANCH  69  71
ATOM     71  C   UNL A   1      32.460  27.013  25.321  1.00  0.00     0.078 A 
ATOM     72  C   UNL A   1      33.631  26.280  25.130  1.00  0.00     0.019 A 
ATOM     73  C   UNL A   1      31.418  26.412  26.004  1.00  0.00     0.127 A 
ATOM     74  C   UNL A   1      33.725  24.991  25.647  1.00  0.00     0.026 A 
ATOM     75  N   UNL A   1      31.488  25.152  26.509  1.00  0.00    -0.258 NA
ATOM     76  C   UNL A   1      32.642  24.455  26.339  1.00  0.00     0.060 A 
BRANCH  76  77
ATOM     77  C   UNL A   1      32.763  23.104  27.022  1.00  0.00     0.181 C 
BRANCH  77  78
ATOM     78  N   UNL A   1      33.372  22.112  26.125  1.00  0.00    -0.303 N 
ATOM     79  C   UNL A   1      34.754  22.076  25.974  1.00  0.00     0.105 A 
ATOM     80  C   UNL A   1      32.521  21.202  25.469  1.00  0.00     0.329 A 
ATOM     81  C   UNL A   1      35.361  21.134  25.234  1.00  0.00     0.041 A 
ATOM     82  C   UNL A   1      33.232  20.111  24.760  1.00  0.00     0.335 A 
ATOM     83  O   UNL A   1      31.301  21.322  25.439  1.00  0.00    -0.261 OA
ATOM     84  Br  UNL A   1      37.207  21.088  24.997  1.00  0.00    -0.049 Br
ATOM     85  C   UNL A   1      34.568  20.088  24.629  1.00  0.00     0.109 A 
BRANCH  82  86
ATOM     86  N   UNL A   1      32.482  19.012  24.209  1.00  0.00     0.068 N 
ATOM     87  O   UNL A   1      32.151  19.076  23.020  1.00  0.00    -0.258 OA
ATOM     88  O   UNL A   1      32.149  18.105  24.987  1.00  0.00    -0.258 OA
ENDBRANCH  82  86
ENDBRANCH  77  78
ENDBRANCH  76  77
ENDBRANCH  69  71
ENDBRANCH  68  69
ENDBRANCH  67  68
ENDBRANCH  66  67
ENDBRANCH  65  66
ENDBRANCH   1  65
TORSDOF 20
ENDMDL
