MODEL 1
REMARK VINA RESULT:     -10.4      0.000      0.000
REMARK SMILES Cc1ccc(OCC(=O)NNC(=O)[C@H]2CCCC[C@@H]2C(=O)OCCOCCOCCOC(=O)c2ccc(-c3c4nc(c(-c5c(F)cccc5F)c5ccc([nH]5)c(-c5c(F)cccc5F)c5nc(c(-c6c(F)cccc6F)c6ccc3[nH]6)C=C5)C=C4)cc2)cc1
REMARK SMILES IDX 25 1 24 2 23 3 22 4 20 5 21 6 19 7 14 8 15 9 16 10 18 11
REMARK SMILES IDX 17 12 12 13 11 14 13 16 10 17 8 18 9 19 7 21 6 22 5 23 1 24
REMARK SMILES IDX 2 25 3 26 89 27 4 28 88 29 26 30 27 31 28 32 29 33 30 34
REMARK SMILES IDX 31 35 32 36 33 37 34 38 35 39 87 40 36 41 86 42 37 43 38 44
REMARK SMILES IDX 39 45 80 46 40 47 85 48 79 49 81 50 41 51 84 52 78 53 77 54
REMARK SMILES IDX 42 56 68 57 51 58 67 59 52 60 55 61 66 62 82 63 53 64 54 65
REMARK SMILES IDX 65 67 83 68 56 69 43 70 44 71 49 72 45 73 46 74 48 75 50 76
REMARK SMILES IDX 47 77 69 78 70 79 75 80 71 81 72 82 74 83 76 84 73 85 57 86
REMARK SMILES IDX 58 87 63 88 59 89 60 90 62 91 64 92 61 93
REMARK H PARENT 11 15 10 20 81 55 55 66
REMARK Flexibility Score: inf
ROOT
ATOM      1  O   UNL A   1      38.255  23.217  26.547  1.00  0.00    -0.376 OA
ENDROOT
BRANCH   1   2
ATOM      2  C   UNL A   1      37.560  23.289  25.314  1.00  0.00     0.202 C 
BRANCH   2   3
ATOM      3  C   UNL A   1      37.337  21.932  24.551  1.00  0.00     0.261 C 
BRANCH   3   4
ATOM      4  O   UNL A   1      36.708  20.779  25.235  1.00  0.00    -0.463 OA
BRANCH   4   5
ATOM      5  C   UNL A   1      35.424  20.409  25.006  1.00  0.00     0.309 C 
ATOM      6  O   UNL A   1      35.141  19.224  24.815  1.00  0.00    -0.252 OA
BRANCH   5   7
ATOM      7  C   UNL A   1      34.260  21.548  24.865  1.00  0.00     0.111 C 
ATOM      8  C   UNL A   1      33.981  22.836  23.945  1.00  0.00     0.094 C 
ATOM      9  C   UNL A   1      34.054  24.268  24.594  1.00  0.00     0.014 C 
ATOM     10  C   UNL A   1      34.023  24.368  26.105  1.00  0.00     0.001 C 
ATOM     11  C   UNL A   1      33.761  21.809  26.287  1.00  0.00     0.016 C 
ATOM     12  C   UNL A   1      34.253  23.102  26.903  1.00  0.00     0.001 C 
BRANCH   8  13
ATOM     13  C   UNL A   1      32.490  22.869  23.536  1.00  0.00     0.242 C 
ATOM     14  N   UNL A   1      32.001  23.851  22.707  1.00  0.00    -0.267 N 
ATOM     15  H   UNL A   1      31.240  24.383  23.035  1.00  0.00     0.191 HD
ATOM     16  O   UNL A   1      31.652  22.238  24.187  1.00  0.00    -0.273 OA
BRANCH  14  17
ATOM     17  N   UNL A   1      32.495  24.153  21.439  1.00  0.00    -0.265 N 
ATOM     18  C   UNL A   1      32.658  25.465  21.016  1.00  0.00     0.276 C 
ATOM     19  O   UNL A   1      33.157  25.706  19.913  1.00  0.00    -0.269 OA
ATOM     20  H   UNL A   1      32.736  23.419  20.829  1.00  0.00     0.191 HD
BRANCH  18  21
ATOM     21  C   UNL A   1      32.302  26.618  21.986  1.00  0.00     0.331 C 
BRANCH  21  22
ATOM     22  O   UNL A   1      33.357  27.405  22.511  1.00  0.00    -0.484 OA
BRANCH  22  23
ATOM     23  C   UNL A   1      33.111  28.149  23.634  1.00  0.00     0.120 A 
ATOM     24  C   UNL A   1      32.755  30.361  27.320  1.00  0.00     0.044 C 
ATOM     25  C   UNL A   1      32.863  29.579  26.046  1.00  0.00    -0.051 A 
ATOM     26  C   UNL A   1      33.977  28.768  25.818  1.00  0.00     0.007 A 
ATOM     27  C   UNL A   1      31.872  29.659  25.061  1.00  0.00     0.007 A 
ATOM     28  C   UNL A   1      34.100  28.065  24.618  1.00  0.00     0.047 A 
ATOM     29  C   UNL A   1      31.990  28.944  23.864  1.00  0.00     0.047 A 
ENDBRANCH  22  23
ENDBRANCH  21  22
ENDBRANCH  18  21
ENDBRANCH  14  17
ENDBRANCH   8  13
ENDBRANCH   5   7
ENDBRANCH   4   5
ENDBRANCH   3   4
ENDBRANCH   2   3
ENDBRANCH   1   2
BRANCH   1  30
ATOM     30  C   UNL A   1      39.556  22.618  26.504  1.00  0.00     0.188 C 
BRANCH  30  31
ATOM     31  C   UNL A   1      40.676  23.545  26.993  1.00  0.00     0.188 C 
BRANCH  31  32
ATOM     32  O   UNL A   1      41.867  23.290  26.268  1.00  0.00    -0.376 OA
BRANCH  32  33
ATOM     33  C   UNL A   1      42.024  21.984  25.739  1.00  0.00     0.202 C 
BRANCH  33  34
ATOM     34  C   UNL A   1      43.101  21.136  26.427  1.00  0.00     0.261 C 
BRANCH  34  35
ATOM     35  O   UNL A   1      44.061  20.690  25.446  1.00  0.00    -0.460 OA
BRANCH  35  36
ATOM     36  C   UNL A   1      44.483  21.625  24.549  1.00  0.00     0.338 C 
ATOM     37  O   UNL A   1      44.561  21.457  23.337  1.00  0.00    -0.246 OA
BRANCH  36  38
ATOM     38  C   UNL A   1      45.157  22.741  25.286  1.00  0.00     0.060 A 
ATOM     39  C   UNL A   1      45.470  22.615  26.635  1.00  0.00     0.016 A 
ATOM     40  C   UNL A   1      45.146  24.017  24.775  1.00  0.00     0.016 A 
ATOM     41  C   UNL A   1      45.529  23.765  27.481  1.00  0.00     0.010 A 
ATOM     42  C   UNL A   1      45.092  25.103  25.678  1.00  0.00     0.010 A 
ATOM     43  C   UNL A   1      45.178  25.065  27.070  1.00  0.00    -0.014 A 
BRANCH  43  44
ATOM     44  C   UNL A   1      44.600  26.197  28.032  1.00  0.00     0.031 A 
ATOM     45  C   UNL A   1      43.214  26.909  28.101  1.00  0.00     0.074 A 
ATOM     46  C   UNL A   1      45.362  26.592  29.075  1.00  0.00     0.049 A 
ATOM     47  N   UNL A   1      42.378  27.102  29.100  1.00  0.00    -0.248 NA
ATOM     48  C   UNL A   1      42.732  27.622  26.935  1.00  0.00     0.031 C 
ATOM     49  C   UNL A   1      45.013  27.472  30.186  1.00  0.00     0.029 A 
ATOM     50  N   UNL A   1      46.739  26.452  29.198  1.00  0.00    -0.354 N 
ATOM     51  C   UNL A   1      41.229  27.781  28.636  1.00  0.00     0.074 A 
ATOM     52  C   UNL A   1      41.463  27.941  27.206  1.00  0.00     0.031 C 
ATOM     53  C   UNL A   1      46.134  28.070  30.616  1.00  0.00     0.029 A 
ATOM     54  C   UNL A   1      47.213  27.653  29.741  1.00  0.00     0.049 A 
ATOM     55  H   UNL A   1      47.276  25.664  28.950  1.00  0.00     0.167 HD
ATOM     56  C   UNL A   1      40.660  28.874  29.246  1.00  0.00     0.037 A 
ATOM     57  C   UNL A   1      47.967  28.451  28.932  1.00  0.00     0.037 A 
ATOM     58  C   UNL A   1      41.656  29.822  29.696  1.00  0.00     0.049 A 
ATOM     59  C   UNL A   1      47.249  29.722  28.524  1.00  0.00     0.074 A 
ATOM     60  C   UNL A   1      42.209  30.159  30.912  1.00  0.00     0.029 A 
ATOM     61  N   UNL A   1      42.370  30.522  28.735  1.00  0.00    -0.354 N 
ATOM     62  N   UNL A   1      46.010  30.008  28.830  1.00  0.00    -0.248 NA
ATOM     63  C   UNL A   1      47.861  30.751  27.683  1.00  0.00     0.031 C 
ATOM     64  C   UNL A   1      43.368  30.946  30.651  1.00  0.00     0.029 A 
ATOM     65  C   UNL A   1      43.478  31.128  29.283  1.00  0.00     0.049 A 
ATOM     66  H   UNL A   1      42.117  30.577  27.785  1.00  0.00     0.167 HD
ATOM     67  C   UNL A   1      45.666  31.204  28.262  1.00  0.00     0.074 A 
ATOM     68  C   UNL A   1      46.847  31.619  27.530  1.00  0.00     0.031 C 
ATOM     69  C   UNL A   1      44.443  31.783  28.418  1.00  0.00     0.037 A 
BRANCH  56  70
ATOM     70  C   UNL A   1      39.168  29.195  29.139  1.00  0.00     0.057 A 
ATOM     71  C   UNL A   1      38.314  29.060  30.256  1.00  0.00     0.134 A 
ATOM     72  C   UNL A   1      38.507  29.565  27.948  1.00  0.00     0.134 A 
ATOM     73  F   UNL A   1      38.792  28.680  31.450  1.00  0.00    -0.206 F 
ATOM     74  C   UNL A   1      36.922  29.271  30.194  1.00  0.00     0.040 A 
ATOM     75  C   UNL A   1      37.116  29.795  27.879  1.00  0.00     0.040 A 
ATOM     76  F   UNL A   1      39.181  29.719  26.800  1.00  0.00    -0.206 F 
ATOM     77  C   UNL A   1      36.317  29.642  29.003  1.00  0.00     0.006 A 
ENDBRANCH  56  70
BRANCH  57  78
ATOM     78  C   UNL A   1      48.947  27.661  28.114  1.00  0.00     0.057 A 
ATOM     79  C   UNL A   1      50.113  27.194  28.768  1.00  0.00     0.134 A 
ATOM     80  C   UNL A   1      48.648  27.070  26.882  1.00  0.00     0.134 A 
ATOM     81  F   UNL A   1      50.467  27.704  29.960  1.00  0.00    -0.206 F 
ATOM     82  C   UNL A   1      50.853  26.105  28.301  1.00  0.00     0.040 A 
ATOM     83  C   UNL A   1      49.413  26.003  26.380  1.00  0.00     0.040 A 
ATOM     84  F   UNL A   1      47.545  27.413  26.203  1.00  0.00    -0.206 F 
ATOM     85  C   UNL A   1      50.489  25.492  27.110  1.00  0.00     0.006 A 
ENDBRANCH  57  78
BRANCH  69  86
ATOM     86  C   UNL A   1      44.111  33.092  27.785  1.00  0.00     0.057 A 
ATOM     87  C   UNL A   1      43.868  33.199  26.410  1.00  0.00     0.134 A 
ATOM     88  C   UNL A   1      44.143  34.290  28.514  1.00  0.00     0.134 A 
ATOM     89  F   UNL A   1      43.842  32.105  25.633  1.00  0.00    -0.206 F 
ATOM     90  C   UNL A   1      43.652  34.432  25.792  1.00  0.00     0.040 A 
ATOM     91  C   UNL A   1      43.965  35.534  27.903  1.00  0.00     0.040 A 
ATOM     92  F   UNL A   1      44.340  34.283  29.844  1.00  0.00    -0.206 F 
ATOM     93  C   UNL A   1      43.716  35.607  26.536  1.00  0.00     0.006 A 
ENDBRANCH  69  86
ENDBRANCH  43  44
ENDBRANCH  36  38
ENDBRANCH  35  36
ENDBRANCH  34  35
ENDBRANCH  33  34
ENDBRANCH  32  33
ENDBRANCH  31  32
ENDBRANCH  30  31
ENDBRANCH   1  30
TORSDOF 22
ENDMDL
MODEL 2
REMARK VINA RESULT:     -10.3      3.657      8.942
REMARK SMILES Cc1ccc(OCC(=O)NNC(=O)[C@H]2CCCC[C@@H]2C(=O)OCCOCCOCCOC(=O)c2ccc(-c3c4nc(c(-c5c(F)cccc5F)c5ccc([nH]5)c(-c5c(F)cccc5F)c5nc(c(-c6c(F)cccc6F)c6ccc3[nH]6)C=C5)C=C4)cc2)cc1
REMARK SMILES IDX 25 1 24 2 23 3 22 4 20 5 21 6 19 7 14 8 15 9 16 10 18 11
REMARK SMILES IDX 17 12 12 13 11 14 13 16 10 17 8 18 9 19 7 21 6 22 5 23 1 24
REMARK SMILES IDX 2 25 3 26 89 27 4 28 88 29 26 30 27 31 28 32 29 33 30 34
REMARK SMILES IDX 31 35 32 36 33 37 34 38 35 39 87 40 36 41 86 42 37 43 38 44
REMARK SMILES IDX 39 45 80 46 40 47 85 48 79 49 81 50 41 51 84 52 78 53 77 54
REMARK SMILES IDX 42 56 68 57 51 58 67 59 52 60 55 61 66 62 82 63 53 64 54 65
REMARK SMILES IDX 65 67 83 68 56 69 43 70 44 71 49 72 45 73 46 74 48 75 50 76
REMARK SMILES IDX 47 77 69 78 70 79 75 80 71 81 72 82 74 83 76 84 73 85 57 86
REMARK SMILES IDX 58 87 63 88 59 89 60 90 62 91 64 92 61 93
REMARK H PARENT 11 15 10 20 81 55 55 66
REMARK Flexibility Score: inf
ROOT
ATOM      1  O   UNL A   1      31.729  31.505  26.534  1.00  0.00    -0.376 OA
ENDROOT
BRANCH   1   2
ATOM      2  C   UNL A   1      31.786  30.397  25.651  1.00  0.00     0.202 C 
BRANCH   2   3
ATOM      3  C   UNL A   1      33.019  29.434  25.807  1.00  0.00     0.261 C 
BRANCH   3   4
ATOM      4  O   UNL A   1      33.030  28.391  26.858  1.00  0.00    -0.463 OA
BRANCH   4   5
ATOM      5  C   UNL A   1      31.984  27.554  27.064  1.00  0.00     0.309 C 
ATOM      6  O   UNL A   1      31.319  27.629  28.099  1.00  0.00    -0.252 OA
BRANCH   5   7
ATOM      7  C   UNL A   1      31.672  26.359  25.992  1.00  0.00     0.111 C 
ATOM      8  C   UNL A   1      30.389  25.521  25.507  1.00  0.00     0.094 C 
ATOM      9  C   UNL A   1      30.288  23.996  25.881  1.00  0.00     0.014 C 
ATOM     10  C   UNL A   1      31.542  23.293  26.356  1.00  0.00     0.001 C 
ATOM     11  C   UNL A   1      32.905  25.455  26.009  1.00  0.00     0.016 C 
ATOM     12  C   UNL A   1      32.724  24.151  26.757  1.00  0.00     0.001 C 
BRANCH   8  13
ATOM     13  C   UNL A   1      30.428  25.357  23.970  1.00  0.00     0.242 C 
ATOM     14  N   UNL A   1      30.483  26.450  23.138  1.00  0.00    -0.267 N 
ATOM     15  H   UNL A   1      29.784  26.531  22.450  1.00  0.00     0.191 HD
ATOM     16  O   UNL A   1      30.082  24.292  23.448  1.00  0.00    -0.273 OA
BRANCH  14  17
ATOM     17  N   UNL A   1      31.449  27.454  23.192  1.00  0.00    -0.265 N 
ATOM     18  C   UNL A   1      32.671  27.322  22.547  1.00  0.00     0.276 C 
ATOM     19  O   UNL A   1      33.484  28.250  22.557  1.00  0.00    -0.269 OA
ATOM     20  H   UNL A   1      31.261  28.277  23.698  1.00  0.00     0.191 HD
BRANCH  18  21
ATOM     21  C   UNL A   1      32.955  26.037  21.731  1.00  0.00     0.331 C 
BRANCH  21  22
ATOM     22  O   UNL A   1      34.128  25.298  22.028  1.00  0.00    -0.484 OA
BRANCH  22  23
ATOM     23  C   UNL A   1      33.988  24.096  22.669  1.00  0.00     0.120 A 
ATOM     24  C   UNL A   1      33.929  20.423  24.931  1.00  0.00     0.044 C 
ATOM     25  C   UNL A   1      33.955  21.688  24.127  1.00  0.00    -0.051 A 
ATOM     26  C   UNL A   1      35.004  22.596  24.288  1.00  0.00     0.007 A 
ATOM     27  C   UNL A   1      32.930  21.993  23.224  1.00  0.00     0.007 A 
ATOM     28  C   UNL A   1      35.014  23.792  23.568  1.00  0.00     0.047 A 
ATOM     29  C   UNL A   1      32.948  23.187  22.494  1.00  0.00     0.047 A 
ENDBRANCH  22  23
ENDBRANCH  21  22
ENDBRANCH  18  21
ENDBRANCH  14  17
ENDBRANCH   8  13
ENDBRANCH   5   7
ENDBRANCH   4   5
ENDBRANCH   3   4
ENDBRANCH   2   3
ENDBRANCH   1   2
BRANCH   1  30
ATOM     30  C   UNL A   1      32.844  31.664  27.418  1.00  0.00     0.188 C 
BRANCH  30  31
ATOM     31  C   UNL A   1      33.059  33.110  27.883  1.00  0.00     0.188 C 
BRANCH  31  32
ATOM     32  O   UNL A   1      34.126  33.167  28.814  1.00  0.00    -0.376 OA
BRANCH  32  33
ATOM     33  C   UNL A   1      34.083  34.214  29.769  1.00  0.00     0.202 C 
BRANCH  33  34
ATOM     34  C   UNL A   1      34.660  33.856  31.144  1.00  0.00     0.261 C 
BRANCH  34  35
ATOM     35  O   UNL A   1      34.520  32.438  31.370  1.00  0.00    -0.460 OA
BRANCH  35  36
ATOM     36  C   UNL A   1      35.637  31.782  31.794  1.00  0.00     0.338 C 
ATOM     37  O   UNL A   1      36.059  31.777  32.946  1.00  0.00    -0.246 OA
BRANCH  36  38
ATOM     38  C   UNL A   1      36.447  31.373  30.602  1.00  0.00     0.060 A 
ATOM     39  C   UNL A   1      36.493  30.045  30.197  1.00  0.00     0.016 A 
ATOM     40  C   UNL A   1      37.434  32.198  30.118  1.00  0.00     0.016 A 
ATOM     41  C   UNL A   1      37.641  29.528  29.520  1.00  0.00     0.010 A 
ATOM     42  C   UNL A   1      38.590  31.608  29.562  1.00  0.00     0.010 A 
ATOM     43  C   UNL A   1      38.828  30.256  29.312  1.00  0.00    -0.014 A 
BRANCH  43  44
ATOM     44  C   UNL A   1      40.280  29.611  29.192  1.00  0.00     0.031 A 
ATOM     45  C   UNL A   1      40.768  28.206  28.718  1.00  0.00     0.074 A 
ATOM     46  C   UNL A   1      41.348  30.401  29.431  1.00  0.00     0.049 A 
ATOM     47  N   UNL A   1      41.681  27.849  27.839  1.00  0.00    -0.248 NA
ATOM     48  C   UNL A   1      40.273  27.025  29.396  1.00  0.00     0.031 C 
ATOM     49  C   UNL A   1      42.766  30.116  29.231  1.00  0.00     0.029 A 
ATOM     50  N   UNL A   1      41.359  31.583  30.161  1.00  0.00    -0.354 N 
ATOM     51  C   UNL A   1      41.725  26.439  27.744  1.00  0.00     0.074 A 
ATOM     52  C   UNL A   1      40.684  25.988  28.660  1.00  0.00     0.031 C 
ATOM     53  C   UNL A   1      43.468  30.847  30.110  1.00  0.00     0.029 A 
ATOM     54  C   UNL A   1      42.518  31.553  30.947  1.00  0.00     0.049 A 
ATOM     55  H   UNL A   1      40.684  32.300  30.133  1.00  0.00     0.167 HD
ATOM     56  C   UNL A   1      42.872  25.683  27.771  1.00  0.00     0.037 A 
ATOM     57  C   UNL A   1      42.357  31.422  32.295  1.00  0.00     0.037 A 
ATOM     58  C   UNL A   1      43.804  26.148  28.776  1.00  0.00     0.049 A 
ATOM     59  C   UNL A   1      42.803  30.068  32.812  1.00  0.00     0.074 A 
ATOM     60  C   UNL A   1      44.975  26.874  28.765  1.00  0.00     0.029 A 
ATOM     61  N   UNL A   1      43.462  25.976  30.108  1.00  0.00    -0.354 N 
ATOM     62  N   UNL A   1      43.222  29.085  32.059  1.00  0.00    -0.248 NA
ATOM     63  C   UNL A   1      42.757  29.699  34.227  1.00  0.00     0.031 C 
ATOM     64  C   UNL A   1      45.242  27.271  30.107  1.00  0.00     0.029 A 
ATOM     65  C   UNL A   1      44.264  26.738  30.929  1.00  0.00     0.049 A 
ATOM     66  H   UNL A   1      42.740  25.386  30.426  1.00  0.00     0.167 HD
ATOM     67  C   UNL A   1      43.495  27.997  32.841  1.00  0.00     0.074 A 
ATOM     68  C   UNL A   1      43.163  28.418  34.189  1.00  0.00     0.031 C 
ATOM     69  C   UNL A   1      43.971  26.820  32.349  1.00  0.00     0.037 A 
BRANCH  56  70
ATOM     70  C   UNL A   1      42.984  24.327  27.071  1.00  0.00     0.057 A 
ATOM     71  C   UNL A   1      43.268  24.243  25.690  1.00  0.00     0.134 A 
ATOM     72  C   UNL A   1      42.746  23.080  27.688  1.00  0.00     0.134 A 
ATOM     73  F   UNL A   1      43.482  25.347  24.960  1.00  0.00    -0.206 F 
ATOM     74  C   UNL A   1      43.308  23.025  24.982  1.00  0.00     0.040 A 
ATOM     75  C   UNL A   1      42.801  21.853  26.993  1.00  0.00     0.040 A 
ATOM     76  F   UNL A   1      42.450  22.997  28.993  1.00  0.00    -0.206 F 
ATOM     77  C   UNL A   1      43.076  21.823  25.633  1.00  0.00     0.006 A 
ENDBRANCH  56  70
BRANCH  57  78
ATOM     78  C   UNL A   1      41.227  32.263  32.814  1.00  0.00     0.057 A 
ATOM     79  C   UNL A   1      41.429  33.662  32.869  1.00  0.00     0.134 A 
ATOM     80  C   UNL A   1      39.903  31.822  32.919  1.00  0.00     0.134 A 
ATOM     81  F   UNL A   1      42.670  34.168  32.766  1.00  0.00    -0.206 F 
ATOM     82  C   UNL A   1      40.372  34.576  32.878  1.00  0.00     0.040 A 
ATOM     83  C   UNL A   1      38.834  32.733  32.976  1.00  0.00     0.040 A 
ATOM     84  F   UNL A   1      39.602  30.519  32.838  1.00  0.00    -0.206 F 
ATOM     85  C   UNL A   1      39.065  34.109  32.911  1.00  0.00     0.006 A 
ENDBRANCH  57  78
BRANCH  69  86
ATOM     86  C   UNL A   1      44.261  25.659  33.239  1.00  0.00     0.057 A 
ATOM     87  C   UNL A   1      43.318  25.193  34.164  1.00  0.00     0.134 A 
ATOM     88  C   UNL A   1      45.529  25.058  33.274  1.00  0.00     0.134 A 
ATOM     89  F   UNL A   1      42.089  25.728  34.214  1.00  0.00    -0.206 F 
ATOM     90  C   UNL A   1      43.614  24.171  35.068  1.00  0.00     0.040 A 
ATOM     91  C   UNL A   1      45.850  24.060  34.198  1.00  0.00     0.040 A 
ATOM     92  F   UNL A   1      46.488  25.420  32.404  1.00  0.00    -0.206 F 
ATOM     93  C   UNL A   1      44.889  23.612  35.098  1.00  0.00     0.006 A 
ENDBRANCH  69  86
ENDBRANCH  43  44
ENDBRANCH  36  38
ENDBRANCH  35  36
ENDBRANCH  34  35
ENDBRANCH  33  34
ENDBRANCH  32  33
ENDBRANCH  31  32
ENDBRANCH  30  31
ENDBRANCH   1  30
TORSDOF 22
ENDMDL
MODEL 3
REMARK VINA RESULT:     -10.2      3.196      7.991
REMARK SMILES Cc1ccc(OCC(=O)NNC(=O)[C@H]2CCCC[C@@H]2C(=O)OCCOCCOCCOC(=O)c2ccc(-c3c4nc(c(-c5c(F)cccc5F)c5ccc([nH]5)c(-c5c(F)cccc5F)c5nc(c(-c6c(F)cccc6F)c6ccc3[nH]6)C=C5)C=C4)cc2)cc1
REMARK SMILES IDX 25 1 24 2 23 3 22 4 20 5 21 6 19 7 14 8 15 9 16 10 18 11
REMARK SMILES IDX 17 12 12 13 11 14 13 16 10 17 8 18 9 19 7 21 6 22 5 23 1 24
REMARK SMILES IDX 2 25 3 26 89 27 4 28 88 29 26 30 27 31 28 32 29 33 30 34
REMARK SMILES IDX 31 35 32 36 33 37 34 38 35 39 87 40 36 41 86 42 37 43 38 44
REMARK SMILES IDX 39 45 80 46 40 47 85 48 79 49 81 50 41 51 84 52 78 53 77 54
REMARK SMILES IDX 42 56 68 57 51 58 67 59 52 60 55 61 66 62 82 63 53 64 54 65
REMARK SMILES IDX 65 67 83 68 56 69 43 70 44 71 49 72 45 73 46 74 48 75 50 76
REMARK SMILES IDX 47 77 69 78 70 79 75 80 71 81 72 82 74 83 76 84 73 85 57 86
REMARK SMILES IDX 58 87 63 88 59 89 60 90 62 91 64 92 61 93
REMARK H PARENT 11 15 10 20 81 55 55 66
REMARK Flexibility Score: inf
ROOT
ATOM      1  O   UNL A   1      37.377  22.068  24.319  1.00  0.00    -0.376 OA
ENDROOT
BRANCH   1   2
ATOM      2  C   UNL A   1      35.983  22.246  24.503  1.00  0.00     0.202 C 
BRANCH   2   3
ATOM      3  C   UNL A   1      35.531  23.560  25.239  1.00  0.00     0.261 C 
BRANCH   3   4
ATOM      4  O   UNL A   1      35.103  24.747  24.464  1.00  0.00    -0.463 OA
BRANCH   4   5
ATOM      5  C   UNL A   1      34.054  24.716  23.605  1.00  0.00     0.309 C 
ATOM      6  O   UNL A   1      34.128  24.077  22.554  1.00  0.00    -0.252 OA
BRANCH   5   7
ATOM      7  C   UNL A   1      32.728  25.623  23.905  1.00  0.00     0.111 C 
ATOM      8  C   UNL A   1      31.265  25.814  23.265  1.00  0.00     0.094 C 
ATOM      9  C   UNL A   1      30.925  27.162  22.527  1.00  0.00     0.014 C 
ATOM     10  C   UNL A   1      31.836  28.350  22.755  1.00  0.00     0.001 C 
ATOM     11  C   UNL A   1      33.251  26.968  24.411  1.00  0.00     0.016 C 
ATOM     12  C   UNL A   1      33.183  28.095  23.401  1.00  0.00     0.001 C 
BRANCH   8  13
ATOM     13  C   UNL A   1      30.215  25.925  24.395  1.00  0.00     0.242 C 
ATOM     14  N   UNL A   1      30.183  25.019  25.428  1.00  0.00    -0.267 N 
ATOM     15  H   UNL A   1      29.336  24.544  25.588  1.00  0.00     0.191 HD
ATOM     16  O   UNL A   1      29.197  26.606  24.234  1.00  0.00    -0.273 OA
BRANCH  14  17
ATOM     17  N   UNL A   1      31.255  24.718  26.268  1.00  0.00    -0.265 N 
ATOM     18  C   UNL A   1      31.799  23.442  26.323  1.00  0.00     0.276 C 
ATOM     19  O   UNL A   1      32.787  23.216  27.027  1.00  0.00    -0.269 OA
ATOM     20  H   UNL A   1      31.636  25.426  26.835  1.00  0.00     0.191 HD
BRANCH  18  21
ATOM     21  C   UNL A   1      31.214  22.335  25.413  1.00  0.00     0.331 C 
BRANCH  21  22
ATOM     22  O   UNL A   1      31.902  22.014  24.216  1.00  0.00    -0.484 OA
BRANCH  22  23
ATOM     23  C   UNL A   1      32.260  20.709  24.008  1.00  0.00     0.120 A 
ATOM     24  C   UNL A   1      33.487  16.579  23.806  1.00  0.00     0.044 C 
ATOM     25  C   UNL A   1      33.078  18.020  23.865  1.00  0.00    -0.051 A 
ATOM     26  C   UNL A   1      33.206  18.733  25.059  1.00  0.00     0.007 A 
ATOM     27  C   UNL A   1      32.548  18.667  22.743  1.00  0.00     0.007 A 
ATOM     28  C   UNL A   1      32.793  20.065  25.128  1.00  0.00     0.047 A 
ATOM     29  C   UNL A   1      32.146  20.006  22.811  1.00  0.00     0.047 A 
ENDBRANCH  22  23
ENDBRANCH  21  22
ENDBRANCH  18  21
ENDBRANCH  14  17
ENDBRANCH   8  13
ENDBRANCH   5   7
ENDBRANCH   4   5
ENDBRANCH   3   4
ENDBRANCH   2   3
ENDBRANCH   1   2
BRANCH   1  30
ATOM     30  C   UNL A   1      37.993  21.046  25.111  1.00  0.00     0.188 C 
BRANCH  30  31
ATOM     31  C   UNL A   1      39.021  21.582  26.116  1.00  0.00     0.188 C 
BRANCH  31  32
ATOM     32  O   UNL A   1      40.314  21.101  25.790  1.00  0.00    -0.376 OA
BRANCH  32  33
ATOM     33  C   UNL A   1      40.746  19.931  26.464  1.00  0.00     0.202 C 
BRANCH  33  34
ATOM     34  C   UNL A   1      42.215  19.557  26.229  1.00  0.00     0.261 C 
BRANCH  34  35
ATOM     35  O   UNL A   1      42.884  20.641  25.551  1.00  0.00    -0.460 OA
BRANCH  35  36
ATOM     36  C   UNL A   1      44.146  20.384  25.105  1.00  0.00     0.338 C 
ATOM     37  O   UNL A   1      44.814  19.400  25.401  1.00  0.00    -0.246 OA
BRANCH  36  38
ATOM     38  C   UNL A   1      44.712  21.631  24.497  1.00  0.00     0.060 A 
ATOM     39  C   UNL A   1      46.075  21.745  24.249  1.00  0.00     0.016 A 
ATOM     40  C   UNL A   1      43.991  22.801  24.517  1.00  0.00     0.016 A 
ATOM     41  C   UNL A   1      46.714  23.022  24.263  1.00  0.00     0.010 A 
ATOM     42  C   UNL A   1      44.692  24.021  24.643  1.00  0.00     0.010 A 
ATOM     43  C   UNL A   1      46.073  24.222  24.626  1.00  0.00    -0.014 A 
BRANCH  43  44
ATOM     44  C   UNL A   1      46.802  25.479  25.280  1.00  0.00     0.031 A 
ATOM     45  C   UNL A   1      48.245  25.683  25.836  1.00  0.00     0.074 A 
ATOM     46  C   UNL A   1      46.142  26.658  25.298  1.00  0.00     0.049 A 
ATOM     47  N   UNL A   1      49.154  26.605  25.593  1.00  0.00    -0.248 NA
ATOM     48  C   UNL A   1      48.714  24.826  26.906  1.00  0.00     0.031 C 
ATOM     49  C   UNL A   1      46.632  27.979  25.676  1.00  0.00     0.029 A 
ATOM     50  N   UNL A   1      44.768  26.841  25.198  1.00  0.00    -0.354 N 
ATOM     51  C   UNL A   1      50.326  26.326  26.331  1.00  0.00     0.074 A 
ATOM     52  C   UNL A   1      50.019  25.083  27.029  1.00  0.00     0.031 C 
ATOM     53  C   UNL A   1      45.593  28.697  26.130  1.00  0.00     0.029 A 
ATOM     54  C   UNL A   1      44.432  27.829  26.133  1.00  0.00     0.049 A 
ATOM     55  H   UNL A   1      44.152  26.368  24.593  1.00  0.00     0.167 HD
ATOM     56  C   UNL A   1      51.022  27.243  27.082  1.00  0.00     0.037 A 
ATOM     57  C   UNL A   1      43.700  27.442  27.216  1.00  0.00     0.037 A 
ATOM     58  C   UNL A   1      50.139  28.098  27.847  1.00  0.00     0.049 A 
ATOM     59  C   UNL A   1      44.497  27.471  28.506  1.00  0.00     0.074 A 
ATOM     60  C   UNL A   1      49.693  29.396  27.733  1.00  0.00     0.029 A 
ATOM     61  N   UNL A   1      49.430  27.531  28.894  1.00  0.00    -0.354 N 
ATOM     62  N   UNL A   1      45.772  27.750  28.587  1.00  0.00    -0.248 NA
ATOM     63  C   UNL A   1      43.924  27.128  29.807  1.00  0.00     0.031 C 
ATOM     64  C   UNL A   1      48.591  29.548  28.624  1.00  0.00     0.029 A 
ATOM     65  C   UNL A   1      48.413  28.359  29.312  1.00  0.00     0.049 A 
ATOM     66  H   UNL A   1      49.628  26.650  29.288  1.00  0.00     0.167 HD
ATOM     67  C   UNL A   1      46.181  27.636  29.886  1.00  0.00     0.074 A 
ATOM     68  C   UNL A   1      44.996  27.217  30.611  1.00  0.00     0.031 C 
ATOM     69  C   UNL A   1      47.456  27.886  30.296  1.00  0.00     0.037 A 
BRANCH  56  70
ATOM     70  C   UNL A   1      52.527  27.131  27.336  1.00  0.00     0.057 A 
ATOM     71  C   UNL A   1      53.458  27.384  26.304  1.00  0.00     0.134 A 
ATOM     72  C   UNL A   1      53.109  26.706  28.549  1.00  0.00     0.134 A 
ATOM     73  F   UNL A   1      53.052  27.762  25.084  1.00  0.00    -0.206 F 
ATOM     74  C   UNL A   1      54.849  27.223  26.464  1.00  0.00     0.040 A 
ATOM     75  C   UNL A   1      54.502  26.558  28.725  1.00  0.00     0.040 A 
ATOM     76  F   UNL A   1      52.353  26.414  29.617  1.00  0.00    -0.206 F 
ATOM     77  C   UNL A   1      55.377  26.811  27.678  1.00  0.00     0.006 A 
ENDBRANCH  56  70
BRANCH  57  78
ATOM     78  C   UNL A   1      42.608  26.480  26.847  1.00  0.00     0.057 A 
ATOM     79  C   UNL A   1      42.773  25.129  27.233  1.00  0.00     0.134 A 
ATOM     80  C   UNL A   1      41.317  26.864  26.467  1.00  0.00     0.134 A 
ATOM     81  F   UNL A   1      43.980  24.681  27.621  1.00  0.00    -0.206 F 
ATOM     82  C   UNL A   1      41.697  24.250  27.377  1.00  0.00     0.040 A 
ATOM     83  C   UNL A   1      40.234  25.974  26.564  1.00  0.00     0.040 A 
ATOM     84  F   UNL A   1      41.048  28.131  26.124  1.00  0.00    -0.206 F 
ATOM     85  C   UNL A   1      40.415  24.680  27.060  1.00  0.00     0.006 A 
ENDBRANCH  57  78
BRANCH  69  86
ATOM     86  C   UNL A   1      47.858  27.756  31.726  1.00  0.00     0.057 A 
ATOM     87  C   UNL A   1      48.331  26.543  32.244  1.00  0.00     0.134 A 
ATOM     88  C   UNL A   1      47.671  28.802  32.641  1.00  0.00     0.134 A 
ATOM     89  F   UNL A   1      48.518  25.484  31.443  1.00  0.00    -0.206 F 
ATOM     90  C   UNL A   1      48.619  26.383  33.601  1.00  0.00     0.040 A 
ATOM     91  C   UNL A   1      47.920  28.645  34.007  1.00  0.00     0.040 A 
ATOM     92  F   UNL A   1      47.249  30.011  32.230  1.00  0.00    -0.206 F 
ATOM     93  C   UNL A   1      48.398  27.431  34.491  1.00  0.00     0.006 A 
ENDBRANCH  69  86
ENDBRANCH  43  44
ENDBRANCH  36  38
ENDBRANCH  35  36
ENDBRANCH  34  35
ENDBRANCH  33  34
ENDBRANCH  32  33
ENDBRANCH  31  32
ENDBRANCH  30  31
ENDBRANCH   1  30
TORSDOF 22
ENDMDL
