MODEL 1
REMARK VINA RESULT:     -11.4      0.000      0.000
REMARK SMILES Cc1ccc(S(=O)(=O)n2cc(C(=O)C(=O)N[C@@H](Cc3c[nH]c4ccccc34)C(=O)OCCOCCOCCOC(=O)c3ccc(-c4c5nc(c(-c6c(F)cccc6F)c6ccc([nH]6)c(-c6c(F)cccc6F)c6nc(c(-c7c(F)cccc7F)c7ccc4[nH]7)C=C6)C=C5)cc3)c3ccccc32)cc1
REMARK SMILES IDX 33 1 32 2 31 3 30 4 28 5 29 6 17 7 16 8 14 9 15 10 12 12
REMARK SMILES IDX 13 13 11 14 9 15 10 16 101 17 96 18 100 19 97 20 99 21 98 22
REMARK SMILES IDX 6 23 7 24 8 25 5 26 1 27 2 28 3 29 103 30 4 31 102 32 18 33
REMARK SMILES IDX 19 34 20 35 27 36 21 37 22 38 26 39 23 41 25 42 24 43 34 44
REMARK SMILES IDX 35 45 36 46 37 47 38 48 39 49 40 50 41 51 42 52 43 53 95 54
REMARK SMILES IDX 44 55 94 56 45 57 46 58 47 59 88 60 48 61 93 62 87 63 89 64
REMARK SMILES IDX 49 65 92 66 86 67 85 68 50 70 76 71 59 72 75 73 60 74 63 75
REMARK SMILES IDX 74 76 90 77 61 78 62 79 73 81 91 82 64 83 51 84 52 85 57 86
REMARK SMILES IDX 53 87 54 88 56 89 58 90 55 91 77 92 78 93 83 94 79 95 80 96
REMARK SMILES IDX 82 97 84 98 81 99 65 100 66 101 71 102 67 103 68 104 70 105
REMARK SMILES IDX 72 106 69 107
REMARK H PARENT 16 11 21 40 89 69 63 80
REMARK Flexibility Score: inf
ROOT
ATOM      1  O   UNL A   1      38.397  29.068  27.813  1.00  0.00    -0.376 OA
ENDROOT
BRANCH   1   2
ATOM      2  C   UNL A   1      39.711  28.897  27.344  1.00  0.00     0.202 C 
BRANCH   2   3
ATOM      3  C   UNL A   1      40.654  27.794  27.929  1.00  0.00     0.261 C 
BRANCH   3   4
ATOM      4  O   UNL A   1      40.716  26.025  27.652  1.00  0.00    -0.462 OA
BRANCH   4   5
ATOM      5  C   UNL A   1      40.338  24.928  26.752  1.00  0.00     0.329 C 
ATOM      6  O   UNL A   1      40.449  25.149  25.544  1.00  0.00    -0.250 OA
BRANCH   5   7
ATOM      7  C   UNL A   1      39.668  23.381  26.950  1.00  0.00     0.197 C 
BRANCH   7   8
ATOM      8  N   UNL A   1      39.181  22.274  26.081  1.00  0.00    -0.335 N 
ATOM      9  C   UNL A   1      38.018  22.178  25.382  1.00  0.00     0.293 C 
ATOM     10  O   UNL A   1      37.786  21.216  24.664  1.00  0.00    -0.265 OA
ATOM     11  H   UNL A   1      39.787  21.502  26.001  1.00  0.00     0.164 HD
BRANCH   9  12
ATOM     12  C   UNL A   1      37.062  23.360  25.501  1.00  0.00     0.252 C 
ATOM     13  O   UNL A   1      37.163  24.124  26.457  1.00  0.00    -0.283 OA
BRANCH  12  14
ATOM     14  C   UNL A   1      35.881  23.317  24.701  1.00  0.00     0.054 A 
ATOM     15  N   UNL A   1      34.436  22.623  23.199  1.00  0.00    -0.240 N 
ATOM     16  C   UNL A   1      35.666  23.247  23.328  1.00  0.00     0.117 A 
ATOM     17  C   UNL A   1      34.089  22.139  24.488  1.00  0.00     0.065 A 
ATOM     18  C   UNL A   1      34.665  23.062  25.339  1.00  0.00     0.012 A 
ATOM     19  C   UNL A   1      33.027  21.328  24.914  1.00  0.00     0.028 A 
ATOM     20  C   UNL A   1      34.125  23.306  26.608  1.00  0.00     0.011 A 
ATOM     21  C   UNL A   1      32.414  21.679  26.120  1.00  0.00     0.002 A 
ATOM     22  C   UNL A   1      32.935  22.673  26.945  1.00  0.00     0.001 A 
BRANCH  15  23
ATOM     23  S   UNL A   1      33.006  23.206  22.481  1.00  0.00     0.268 S 
ATOM     24  O   UNL A   1      32.257  21.978  22.245  1.00  0.00    -0.201 OA
ATOM     25  O   UNL A   1      33.608  23.963  21.386  1.00  0.00    -0.201 OA
BRANCH  23  26
ATOM     26  C   UNL A   1      31.755  24.318  22.910  1.00  0.00     0.088 A 
ATOM     27  C   UNL A   1      29.838  28.093  23.559  1.00  0.00     0.044 C 
ATOM     28  C   UNL A   1      30.415  26.733  23.321  1.00  0.00    -0.051 A 
ATOM     29  C   UNL A   1      31.392  26.676  22.349  1.00  0.00     0.005 A 
ATOM     30  C   UNL A   1      30.063  25.560  24.036  1.00  0.00     0.005 A 
ATOM     31  C   UNL A   1      32.012  25.480  22.131  1.00  0.00     0.022 A 
ATOM     32  C   UNL A   1      30.744  24.328  23.845  1.00  0.00     0.022 A 
ENDBRANCH  23  26
ENDBRANCH  15  23
ENDBRANCH  12  14
ENDBRANCH   9  12
ENDBRANCH   7   8
BRANCH   7  33
ATOM     33  C   UNL A   1      40.548  22.571  27.933  1.00  0.00     0.074 C 
BRANCH  33  34
ATOM     34  C   UNL A   1      41.455  21.744  27.125  1.00  0.00    -0.020 A 
ATOM     35  C   UNL A   1      41.550  19.979  27.425  1.00  0.00     0.087 A 
ATOM     36  C   UNL A   1      42.894  22.213  25.886  1.00  0.00     0.003 A 
ATOM     37  N   UNL A   1      43.065  19.318  26.491  1.00  0.00    -0.361 N 
ATOM     38  C   UNL A   1      43.870  20.709  25.579  1.00  0.00     0.046 A 
ATOM     39  C   UNL A   1      43.304  23.360  25.136  1.00  0.00     0.010 A 
ATOM     40  H   UNL A   1      43.373  18.383  26.492  1.00  0.00     0.166 HD
ATOM     41  C   UNL A   1      44.853  20.762  24.572  1.00  0.00     0.026 A 
ATOM     42  C   UNL A   1      44.403  23.240  24.248  1.00  0.00     0.001 A 
ATOM     43  C   UNL A   1      45.098  22.026  23.965  1.00  0.00     0.002 A 
ENDBRANCH  33  34
ENDBRANCH   7  33
ENDBRANCH   5   7
ENDBRANCH   4   5
ENDBRANCH   3   4
ENDBRANCH   2   3
ENDBRANCH   1   2
BRANCH   1  44
ATOM     44  C   UNL A   1      38.368  29.312  29.193  1.00  0.00     0.188 C 
BRANCH  44  45
ATOM     45  C   UNL A   1      36.986  29.518  29.799  1.00  0.00     0.188 C 
BRANCH  45  46
ATOM     46  O   UNL A   1      36.943  29.786  31.177  1.00  0.00    -0.376 OA
BRANCH  46  47
ATOM     47  C   UNL A   1      36.192  30.759  31.855  1.00  0.00     0.202 C 
BRANCH  47  48
ATOM     48  C   UNL A   1      37.094  31.525  32.763  1.00  0.00     0.261 C 
BRANCH  48  49
ATOM     49  O   UNL A   1      37.744  32.707  32.193  1.00  0.00    -0.460 OA
BRANCH  49  50
ATOM     50  C   UNL A   1      38.513  32.741  31.070  1.00  0.00     0.338 C 
ATOM     51  O   UNL A   1      38.028  32.990  29.970  1.00  0.00    -0.246 OA
BRANCH  50  52
ATOM     52  C   UNL A   1      39.987  32.477  31.218  1.00  0.00     0.060 A 
ATOM     53  C   UNL A   1      40.831  33.398  30.690  1.00  0.00     0.016 A 
ATOM     54  C   UNL A   1      40.617  31.318  31.665  1.00  0.00     0.016 A 
ATOM     55  C   UNL A   1      42.166  33.007  30.465  1.00  0.00     0.010 A 
ATOM     56  C   UNL A   1      41.909  30.894  31.118  1.00  0.00     0.010 A 
ATOM     57  C   UNL A   1      42.728  31.720  30.321  1.00  0.00    -0.014 A 
BRANCH  57  58
ATOM     58  C   UNL A   1      44.314  31.347  29.399  1.00  0.00     0.031 A 
ATOM     59  C   UNL A   1      44.946  32.426  27.559  1.00  0.00     0.074 A 
ATOM     60  C   UNL A   1      45.202  30.103  30.083  1.00  0.00     0.049 A 
ATOM     61  N   UNL A   1      45.878  32.087  26.542  1.00  0.00    -0.248 NA
ATOM     62  C   UNL A   1      44.591  33.885  26.783  1.00  0.00     0.031 C 
ATOM     63  C   UNL A   1      46.715  30.029  30.419  1.00  0.00     0.029 A 
ATOM     64  N   UNL A   1      45.007  28.712  30.557  1.00  0.00    -0.354 N 
ATOM     65  C   UNL A   1      46.636  33.190  26.322  1.00  0.00     0.074 A 
ATOM     66  C   UNL A   1      45.667  34.186  26.053  1.00  0.00     0.031 C 
ATOM     67  C   UNL A   1      47.152  28.769  30.692  1.00  0.00     0.029 A 
ATOM     68  C   UNL A   1      46.060  27.826  30.632  1.00  0.00     0.049 A 
ATOM     69  H   UNL A   1      44.107  28.415  30.823  1.00  0.00     0.167 HD
ATOM     70  C   UNL A   1      47.909  33.213  26.818  1.00  0.00     0.037 A 
ATOM     71  C   UNL A   1      46.054  26.480  30.307  1.00  0.00     0.037 A 
ATOM     72  C   UNL A   1      48.438  31.917  27.325  1.00  0.00     0.049 A 
ATOM     73  C   UNL A   1      46.947  26.411  29.095  1.00  0.00     0.074 A 
ATOM     74  C   UNL A   1      49.045  31.540  28.517  1.00  0.00     0.029 A 
ATOM     75  N   UNL A   1      48.240  30.719  26.625  1.00  0.00    -0.354 N 
ATOM     76  N   UNL A   1      47.189  27.488  28.395  1.00  0.00    -0.248 NA
ATOM     77  C   UNL A   1      47.697  25.249  28.626  1.00  0.00     0.031 C 
ATOM     78  C   UNL A   1      49.234  30.128  28.510  1.00  0.00     0.029 A 
ATOM     79  C   UNL A   1      48.718  29.612  27.332  1.00  0.00     0.049 A 
ATOM     80  H   UNL A   1      47.816  30.663  25.739  1.00  0.00     0.167 HD
ATOM     81  C   UNL A   1      48.189  27.246  27.518  1.00  0.00     0.074 A 
ATOM     82  C   UNL A   1      48.454  25.820  27.668  1.00  0.00     0.031 C 
ATOM     83  C   UNL A   1      48.720  28.251  26.763  1.00  0.00     0.037 A 
BRANCH  70  84
ATOM     84  C   UNL A   1      48.638  34.512  27.043  1.00  0.00     0.057 A 
ATOM     85  C   UNL A   1      48.429  35.208  28.241  1.00  0.00     0.134 A 
ATOM     86  C   UNL A   1      49.539  35.129  26.150  1.00  0.00     0.134 A 
ATOM     87  F   UNL A   1      47.514  34.806  29.134  1.00  0.00    -0.206 F 
ATOM     88  C   UNL A   1      49.153  36.349  28.583  1.00  0.00     0.040 A 
ATOM     89  C   UNL A   1      50.330  36.221  26.512  1.00  0.00     0.040 A 
ATOM     90  F   UNL A   1      49.662  34.756  24.869  1.00  0.00    -0.206 F 
ATOM     91  C   UNL A   1      50.150  36.824  27.744  1.00  0.00     0.006 A 
ENDBRANCH  70  84
BRANCH  71  92
ATOM     92  C   UNL A   1      44.854  25.564  30.540  1.00  0.00     0.057 A 
ATOM     93  C   UNL A   1      43.983  25.280  29.476  1.00  0.00     0.134 A 
ATOM     94  C   UNL A   1      44.719  24.703  31.636  1.00  0.00     0.134 A 
ATOM     95  F   UNL A   1      43.814  26.173  28.488  1.00  0.00    -0.206 F 
ATOM     96  C   UNL A   1      43.296  24.056  29.364  1.00  0.00     0.040 A 
ATOM     97  C   UNL A   1      44.158  23.412  31.482  1.00  0.00     0.040 A 
ATOM     98  F   UNL A   1      45.320  24.978  32.804  1.00  0.00    -0.206 F 
ATOM     99  C   UNL A   1      43.504  23.060  30.310  1.00  0.00     0.006 A 
ENDBRANCH  71  92
BRANCH  83 100
ATOM    100  C   UNL A   1      49.419  27.988  25.470  1.00  0.00     0.057 A 
ATOM    101  C   UNL A   1      50.806  28.092  25.293  1.00  0.00     0.134 A 
ATOM    102  C   UNL A   1      48.709  27.460  24.374  1.00  0.00     0.134 A 
ATOM    103  F   UNL A   1      51.636  28.409  26.296  1.00  0.00    -0.206 F 
ATOM    104  C   UNL A   1      51.420  27.819  24.073  1.00  0.00     0.040 A 
ATOM    105  C   UNL A   1      49.329  27.072  23.194  1.00  0.00     0.040 A 
ATOM    106  F   UNL A   1      47.383  27.271  24.394  1.00  0.00    -0.206 F 
ATOM    107  C   UNL A   1      50.683  27.293  23.023  1.00  0.00     0.006 A 
ENDBRANCH  83 100
ENDBRANCH  57  58
ENDBRANCH  50  52
ENDBRANCH  49  50
ENDBRANCH  48  49
ENDBRANCH  47  48
ENDBRANCH  46  47
ENDBRANCH  45  46
ENDBRANCH  44  45
ENDBRANCH   1  44
TORSDOF 24
ENDMDL
MODEL 2
REMARK VINA RESULT:     -10.9      5.172     10.331
REMARK SMILES Cc1ccc(S(=O)(=O)n2cc(C(=O)C(=O)N[C@@H](Cc3c[nH]c4ccccc34)C(=O)OCCOCCOCCOC(=O)c3ccc(-c4c5nc(c(-c6c(F)cccc6F)c6ccc([nH]6)c(-c6c(F)cccc6F)c6nc(c(-c7c(F)cccc7F)c7ccc4[nH]7)C=C6)C=C5)cc3)c3ccccc32)cc1
REMARK SMILES IDX 33 1 32 2 31 3 30 4 28 5 29 6 17 7 16 8 14 9 15 10 12 12
REMARK SMILES IDX 13 13 11 14 9 15 10 16 101 17 96 18 100 19 97 20 99 21 98 22
REMARK SMILES IDX 6 23 7 24 8 25 5 26 1 27 2 28 3 29 103 30 4 31 102 32 18 33
REMARK SMILES IDX 19 34 20 35 27 36 21 37 22 38 26 39 23 41 25 42 24 43 34 44
REMARK SMILES IDX 35 45 36 46 37 47 38 48 39 49 40 50 41 51 42 52 43 53 95 54
REMARK SMILES IDX 44 55 94 56 45 57 46 58 47 59 88 60 48 61 93 62 87 63 89 64
REMARK SMILES IDX 49 65 92 66 86 67 85 68 50 70 76 71 59 72 75 73 60 74 63 75
REMARK SMILES IDX 74 76 90 77 61 78 62 79 73 81 91 82 64 83 51 84 52 85 57 86
REMARK SMILES IDX 53 87 54 88 56 89 58 90 55 91 77 92 78 93 83 94 79 95 80 96
REMARK SMILES IDX 82 97 84 98 81 99 65 100 66 101 71 102 67 103 68 104 70 105
REMARK SMILES IDX 72 106 69 107
REMARK H PARENT 16 11 21 40 89 69 63 80
REMARK Flexibility Score: inf
ROOT
ATOM      1  O   UNL A   1      35.222  33.450  34.652  1.00  0.00    -0.376 OA
ENDROOT
BRANCH   1   2
ATOM      2  C   UNL A   1      36.210  34.182  35.333  1.00  0.00     0.202 C 
BRANCH   2   3
ATOM      3  C   UNL A   1      37.683  34.254  34.812  1.00  0.00     0.261 C 
BRANCH   3   4
ATOM      4  O   UNL A   1      39.057  35.296  35.296  1.00  0.00    -0.462 OA
BRANCH   4   5
ATOM      5  C   UNL A   1      40.472  35.327  35.687  1.00  0.00     0.329 C 
ATOM      6  O   UNL A   1      41.076  36.380  35.472  1.00  0.00    -0.250 OA
BRANCH   5   7
ATOM      7  C   UNL A   1      41.577  34.200  36.314  1.00  0.00     0.197 C 
BRANCH   7   8
ATOM      8  N   UNL A   1      43.042  33.946  36.253  1.00  0.00    -0.335 N 
ATOM      9  C   UNL A   1      43.724  33.021  35.527  1.00  0.00     0.293 C 
ATOM     10  O   UNL A   1      44.946  32.974  35.546  1.00  0.00    -0.265 OA
ATOM     11  H   UNL A   1      43.596  34.531  36.820  1.00  0.00     0.164 HD
BRANCH   9  12
ATOM     12  C   UNL A   1      42.883  32.099  34.651  1.00  0.00     0.252 C 
ATOM     13  O   UNL A   1      42.179  32.581  33.769  1.00  0.00    -0.283 OA
BRANCH  12  14
ATOM     14  C   UNL A   1      42.679  30.768  35.126  1.00  0.00     0.054 A 
ATOM     15  N   UNL A   1      41.654  29.017  35.970  1.00  0.00    -0.240 N 
ATOM     16  C   UNL A   1      42.181  30.251  36.317  1.00  0.00     0.117 A 
ATOM     17  C   UNL A   1      41.651  28.963  34.551  1.00  0.00     0.065 A 
ATOM     18  C   UNL A   1      42.751  29.724  34.202  1.00  0.00     0.012 A 
ATOM     19  C   UNL A   1      41.118  28.016  33.665  1.00  0.00     0.028 A 
ATOM     20  C   UNL A   1      43.443  29.483  33.008  1.00  0.00     0.011 A 
ATOM     21  C   UNL A   1      41.896  27.692  32.550  1.00  0.00     0.002 A 
ATOM     22  C   UNL A   1      43.058  28.393  32.238  1.00  0.00     0.001 A 
BRANCH  15  23
ATOM     23  S   UNL A   1      42.087  27.468  36.529  1.00  0.00     0.268 S 
ATOM     24  O   UNL A   1      40.902  27.069  37.278  1.00  0.00    -0.201 OA
ATOM     25  O   UNL A   1      43.337  27.823  37.198  1.00  0.00    -0.201 OA
BRANCH  23  26
ATOM     26  C   UNL A   1      42.588  25.976  35.817  1.00  0.00     0.088 A 
ATOM     27  C   UNL A   1      44.630  23.335  33.133  1.00  0.00     0.044 C 
ATOM     28  C   UNL A   1      43.911  24.180  34.137  1.00  0.00    -0.051 A 
ATOM     29  C   UNL A   1      44.516  25.387  34.423  1.00  0.00     0.005 A 
ATOM     30  C   UNL A   1      42.677  23.848  34.751  1.00  0.00     0.005 A 
ATOM     31  C   UNL A   1      43.877  26.239  35.276  1.00  0.00     0.022 A 
ATOM     32  C   UNL A   1      41.988  24.756  35.598  1.00  0.00     0.022 A 
ENDBRANCH  23  26
ENDBRANCH  15  23
ENDBRANCH  12  14
ENDBRANCH   9  12
ENDBRANCH   7   8
BRANCH   7  33
ATOM     33  C   UNL A   1      41.353  34.068  37.840  1.00  0.00     0.074 C 
BRANCH  33  34
ATOM     34  C   UNL A   1      40.148  33.247  38.034  1.00  0.00    -0.020 A 
ATOM     35  C   UNL A   1      39.695  32.033  36.796  1.00  0.00     0.087 A 
ATOM     36  C   UNL A   1      38.667  33.384  39.302  1.00  0.00     0.003 A 
ATOM     37  N   UNL A   1      37.926  31.456  37.178  1.00  0.00    -0.361 N 
ATOM     38  C   UNL A   1      37.325  32.313  38.701  1.00  0.00     0.046 A 
ATOM     39  C   UNL A   1      38.413  34.017  40.560  1.00  0.00     0.010 A 
ATOM     40  H   UNL A   1      37.412  30.803  36.650  1.00  0.00     0.166 HD
ATOM     41  C   UNL A   1      36.221  32.108  39.552  1.00  0.00     0.026 A 
ATOM     42  C   UNL A   1      37.179  33.772  41.213  1.00  0.00     0.001 A 
ATOM     43  C   UNL A   1      36.179  32.861  40.759  1.00  0.00     0.002 A 
ENDBRANCH  33  34
ENDBRANCH   7  33
ENDBRANCH   5   7
ENDBRANCH   4   5
ENDBRANCH   3   4
ENDBRANCH   2   3
ENDBRANCH   1   2
BRANCH   1  44
ATOM     44  C   UNL A   1      35.675  33.006  33.402  1.00  0.00     0.188 C 
BRANCH  44  45
ATOM     45  C   UNL A   1      34.595  32.735  32.364  1.00  0.00     0.188 C 
BRANCH  45  46
ATOM     46  O   UNL A   1      34.704  33.436  31.152  1.00  0.00    -0.376 OA
BRANCH  46  47
ATOM     47  C   UNL A   1      34.538  32.951  29.845  1.00  0.00     0.202 C 
BRANCH  47  48
ATOM     48  C   UNL A   1      35.873  32.866  29.185  1.00  0.00     0.261 C 
BRANCH  48  49
ATOM     49  O   UNL A   1      36.842  31.948  29.789  1.00  0.00    -0.460 OA
BRANCH  49  50
ATOM     50  C   UNL A   1      37.983  32.297  30.443  1.00  0.00     0.338 C 
ATOM     51  O   UNL A   1      38.060  33.346  31.078  1.00  0.00    -0.246 OA
BRANCH  50  52
ATOM     52  C   UNL A   1      39.150  31.350  30.379  1.00  0.00     0.060 A 
ATOM     53  C   UNL A   1      40.348  31.823  30.805  1.00  0.00     0.016 A 
ATOM     54  C   UNL A   1      39.217  30.101  29.767  1.00  0.00     0.016 A 
ATOM     55  C   UNL A   1      41.506  31.126  30.406  1.00  0.00     0.010 A 
ATOM     56  C   UNL A   1      40.454  29.624  29.141  1.00  0.00     0.010 A 
ATOM     57  C   UNL A   1      41.709  30.240  29.326  1.00  0.00    -0.014 A 
BRANCH  57  58
ATOM     58  C   UNL A   1      43.365  29.907  28.518  1.00  0.00     0.031 A 
ATOM     59  C   UNL A   1      44.375  31.346  27.154  1.00  0.00     0.074 A 
ATOM     60  C   UNL A   1      44.004  28.409  28.906  1.00  0.00     0.049 A 
ATOM     61  N   UNL A   1      45.406  31.167  26.193  1.00  0.00    -0.248 NA
ATOM     62  C   UNL A   1      44.297  32.997  26.801  1.00  0.00     0.031 C 
ATOM     63  C   UNL A   1      45.433  28.027  29.372  1.00  0.00     0.029 A 
ATOM     64  N   UNL A   1      43.593  26.984  28.930  1.00  0.00    -0.354 N 
ATOM     65  C   UNL A   1      46.302  32.166  26.389  1.00  0.00     0.074 A 
ATOM     66  C   UNL A   1      45.496  33.327  26.314  1.00  0.00     0.031 C 
ATOM     67  C   UNL A   1      45.688  26.691  29.315  1.00  0.00     0.029 A 
ATOM     68  C   UNL A   1      44.522  25.969  28.861  1.00  0.00     0.049 A 
ATOM     69  H   UNL A   1      42.636  26.760  28.996  1.00  0.00     0.167 HD
ATOM     70  C   UNL A   1      47.482  31.867  27.009  1.00  0.00     0.037 A 
ATOM     71  C   UNL A   1      44.420  24.780  28.161  1.00  0.00     0.037 A 
ATOM     72  C   UNL A   1      47.789  30.419  27.173  1.00  0.00     0.049 A 
ATOM     73  C   UNL A   1      45.470  24.916  27.088  1.00  0.00     0.074 A 
ATOM     74  C   UNL A   1      48.168  29.647  28.265  1.00  0.00     0.029 A 
ATOM     75  N   UNL A   1      47.569  29.501  26.138  1.00  0.00    -0.354 N 
ATOM     76  N   UNL A   1      45.927  26.097  26.763  1.00  0.00    -0.248 NA
ATOM     77  C   UNL A   1      46.153  23.831  26.389  1.00  0.00     0.031 C 
ATOM     78  C   UNL A   1      48.204  28.279  27.869  1.00  0.00     0.029 A 
ATOM     79  C   UNL A   1      47.815  28.186  26.541  1.00  0.00     0.049 A 
ATOM     80  H   UNL A   1      47.277  29.752  25.232  1.00  0.00     0.167 HD
ATOM     81  C   UNL A   1      47.015  25.962  25.971  1.00  0.00     0.074 A 
ATOM     82  C   UNL A   1      47.100  24.526  25.729  1.00  0.00     0.031 C 
ATOM     83  C   UNL A   1      47.756  27.047  25.605  1.00  0.00     0.037 A 
BRANCH  70  84
ATOM     84  C   UNL A   1      48.305  32.936  27.682  1.00  0.00     0.057 A 
ATOM     85  C   UNL A   1      48.038  33.254  29.021  1.00  0.00     0.134 A 
ATOM     86  C   UNL A   1      49.350  33.678  27.094  1.00  0.00     0.134 A 
ATOM     87  F   UNL A   1      47.000  32.716  29.675  1.00  0.00    -0.206 F 
ATOM     88  C   UNL A   1      48.828  34.138  29.754  1.00  0.00     0.040 A 
ATOM     89  C   UNL A   1      50.200  34.501  27.836  1.00  0.00     0.040 A 
ATOM     90  F   UNL A   1      49.571  33.701  25.773  1.00  0.00    -0.206 F 
ATOM     91  C   UNL A   1      49.949  34.718  29.180  1.00  0.00     0.006 A 
ENDBRANCH  70  84
BRANCH  71  92
ATOM     92  C   UNL A   1      43.107  24.018  27.982  1.00  0.00     0.057 A 
ATOM     93  C   UNL A   1      42.393  24.143  26.779  1.00  0.00     0.134 A 
ATOM     94  C   UNL A   1      42.707  22.937  28.776  1.00  0.00     0.134 A 
ATOM     95  F   UNL A   1      42.481  25.272  26.059  1.00  0.00    -0.206 F 
ATOM     96  C   UNL A   1      41.607  23.101  26.252  1.00  0.00     0.040 A 
ATOM     97  C   UNL A   1      42.044  21.823  28.207  1.00  0.00     0.040 A 
ATOM     98  F   UNL A   1      43.139  22.816  30.041  1.00  0.00    -0.206 F 
ATOM     99  C   UNL A   1      41.553  21.878  26.910  1.00  0.00     0.006 A 
ENDBRANCH  71  92
BRANCH  83 100
ATOM    100  C   UNL A   1      48.607  27.050  24.378  1.00  0.00     0.057 A 
ATOM    101  C   UNL A   1      48.188  27.547  23.135  1.00  0.00     0.134 A 
ATOM    102  C   UNL A   1      49.963  26.677  24.453  1.00  0.00     0.134 A 
ATOM    103  F   UNL A   1      46.983  28.103  22.953  1.00  0.00    -0.206 F 
ATOM    104  C   UNL A   1      49.021  27.548  22.018  1.00  0.00     0.040 A 
ATOM    105  C   UNL A   1      50.832  26.786  23.377  1.00  0.00     0.040 A 
ATOM    106  F   UNL A   1      50.523  26.210  25.576  1.00  0.00    -0.206 F 
ATOM    107  C   UNL A   1      50.352  27.180  22.141  1.00  0.00     0.006 A 
ENDBRANCH  83 100
ENDBRANCH  57  58
ENDBRANCH  50  52
ENDBRANCH  49  50
ENDBRANCH  48  49
ENDBRANCH  47  48
ENDBRANCH  46  47
ENDBRANCH  45  46
ENDBRANCH  44  45
ENDBRANCH   1  44
TORSDOF 24
ENDMDL
MODEL 3
REMARK VINA RESULT:     -10.4      4.250     10.597
REMARK SMILES Cc1ccc(S(=O)(=O)n2cc(C(=O)C(=O)N[C@@H](Cc3c[nH]c4ccccc34)C(=O)OCCOCCOCCOC(=O)c3ccc(-c4c5nc(c(-c6c(F)cccc6F)c6ccc([nH]6)c(-c6c(F)cccc6F)c6nc(c(-c7c(F)cccc7F)c7ccc4[nH]7)C=C6)C=C5)cc3)c3ccccc32)cc1
REMARK SMILES IDX 33 1 32 2 31 3 30 4 28 5 29 6 17 7 16 8 14 9 15 10 12 12
REMARK SMILES IDX 13 13 11 14 9 15 10 16 101 17 96 18 100 19 97 20 99 21 98 22
REMARK SMILES IDX 6 23 7 24 8 25 5 26 1 27 2 28 3 29 103 30 4 31 102 32 18 33
REMARK SMILES IDX 19 34 20 35 27 36 21 37 22 38 26 39 23 41 25 42 24 43 34 44
REMARK SMILES IDX 35 45 36 46 37 47 38 48 39 49 40 50 41 51 42 52 43 53 95 54
REMARK SMILES IDX 44 55 94 56 45 57 46 58 47 59 88 60 48 61 93 62 87 63 89 64
REMARK SMILES IDX 49 65 92 66 86 67 85 68 50 70 76 71 59 72 75 73 60 74 63 75
REMARK SMILES IDX 74 76 90 77 61 78 62 79 73 81 91 82 64 83 51 84 52 85 57 86
REMARK SMILES IDX 53 87 54 88 56 89 58 90 55 91 77 92 78 93 83 94 79 95 80 96
REMARK SMILES IDX 82 97 84 98 81 99 65 100 66 101 71 102 67 103 68 104 70 105
REMARK SMILES IDX 72 106 69 107
REMARK H PARENT 16 11 21 40 89 69 63 80
REMARK Flexibility Score: inf
ROOT
ATOM      1  O   UNL A   1      41.684  27.963  27.843  1.00  0.00    -0.376 OA
ENDROOT
BRANCH   1   2
ATOM      2  C   UNL A   1      40.503  28.672  28.122  1.00  0.00     0.202 C 
BRANCH   2   3
ATOM      3  C   UNL A   1      39.796  28.572  29.514  1.00  0.00     0.261 C 
BRANCH   3   4
ATOM      4  O   UNL A   1      38.065  28.653  29.967  1.00  0.00    -0.462 OA
BRANCH   4   5
ATOM      5  C   UNL A   1      36.825  29.435  29.871  1.00  0.00     0.329 C 
ATOM      6  O   UNL A   1      36.031  29.318  30.807  1.00  0.00    -0.250 OA
BRANCH   5   7
ATOM      7  C   UNL A   1      36.124  30.448  28.702  1.00  0.00     0.197 C 
BRANCH   7   8
ATOM      8  N   UNL A   1      36.280  31.849  28.225  1.00  0.00    -0.335 N 
ATOM      9  C   UNL A   1      35.900  33.009  28.826  1.00  0.00     0.293 C 
ATOM     10  O   UNL A   1      36.151  34.095  28.324  1.00  0.00    -0.265 OA
ATOM     11  H   UNL A   1      36.721  31.951  27.350  1.00  0.00     0.164 HD
BRANCH   9  12
ATOM     12  C   UNL A   1      35.207  32.871  30.177  1.00  0.00     0.252 C 
ATOM     13  O   UNL A   1      34.026  33.188  30.284  1.00  0.00    -0.283 OA
BRANCH  12  14
ATOM     14  C   UNL A   1      36.047  32.724  31.321  1.00  0.00     0.054 A 
ATOM     15  N   UNL A   1      37.236  31.751  32.892  1.00  0.00    -0.240 N 
ATOM     16  C   UNL A   1      35.929  31.994  32.499  1.00  0.00     0.117 A 
ATOM     17  C   UNL A   1      38.065  32.143  31.808  1.00  0.00     0.065 A 
ATOM     18  C   UNL A   1      37.363  33.185  31.232  1.00  0.00     0.012 A 
ATOM     19  C   UNL A   1      39.445  32.003  31.605  1.00  0.00     0.028 A 
ATOM     20  C   UNL A   1      38.028  34.202  30.535  1.00  0.00     0.011 A 
ATOM     21  C   UNL A   1      40.109  33.092  31.033  1.00  0.00     0.002 A 
ATOM     22  C   UNL A   1      39.417  34.191  30.530  1.00  0.00     0.001 A 
BRANCH  15  23
ATOM     23  S   UNL A   1      38.031  32.218  34.324  1.00  0.00     0.268 S 
ATOM     24  O   UNL A   1      38.671  30.976  34.740  1.00  0.00    -0.201 OA
ATOM     25  O   UNL A   1      36.880  32.768  35.039  1.00  0.00    -0.201 OA
BRANCH  23  26
ATOM     26  C   UNL A   1      39.205  33.402  34.774  1.00  0.00     0.088 A 
ATOM     27  C   UNL A   1      42.555  35.102  36.831  1.00  0.00     0.044 C 
ATOM     28  C   UNL A   1      41.401  34.576  36.038  1.00  0.00    -0.051 A 
ATOM     29  C   UNL A   1      41.404  33.211  35.838  1.00  0.00     0.005 A 
ATOM     30  C   UNL A   1      40.329  35.358  35.539  1.00  0.00     0.005 A 
ATOM     31  C   UNL A   1      40.344  32.655  35.185  1.00  0.00     0.022 A 
ATOM     32  C   UNL A   1      39.201  34.773  34.904  1.00  0.00     0.022 A 
ENDBRANCH  23  26
ENDBRANCH  15  23
ENDBRANCH  12  14
ENDBRANCH   9  12
ENDBRANCH   7   8
BRANCH   7  33
ATOM     33  C   UNL A   1      36.104  29.711  27.341  1.00  0.00     0.074 C 
BRANCH  33  34
ATOM     34  C   UNL A   1      34.695  29.480  26.991  1.00  0.00    -0.020 A 
ATOM     35  C   UNL A   1      33.490  30.779  27.263  1.00  0.00     0.087 A 
ATOM     36  C   UNL A   1      33.718  27.855  26.514  1.00  0.00     0.003 A 
ATOM     37  N   UNL A   1      31.764  30.012  27.069  1.00  0.00    -0.361 N 
ATOM     38  C   UNL A   1      31.941  28.225  26.630  1.00  0.00     0.046 A 
ATOM     39  C   UNL A   1      34.028  26.540  26.043  1.00  0.00     0.010 A 
ATOM     40  H   UNL A   1      30.911  30.490  27.183  1.00  0.00     0.166 HD
ATOM     41  C   UNL A   1      31.038  27.255  26.153  1.00  0.00     0.026 A 
ATOM     42  C   UNL A   1      32.966  25.660  25.721  1.00  0.00     0.001 A 
ATOM     43  C   UNL A   1      31.581  26.005  25.742  1.00  0.00     0.002 A 
ENDBRANCH  33  34
ENDBRANCH   7  33
ENDBRANCH   5   7
ENDBRANCH   4   5
ENDBRANCH   3   4
ENDBRANCH   2   3
ENDBRANCH   1   2
BRANCH   1  44
ATOM     44  C   UNL A   1      41.457  26.914  26.942  1.00  0.00     0.188 C 
BRANCH  44  45
ATOM     45  C   UNL A   1      41.921  25.537  27.399  1.00  0.00     0.188 C 
BRANCH  45  46
ATOM     46  O   UNL A   1      42.046  24.558  26.400  1.00  0.00    -0.376 OA
BRANCH  46  47
ATOM     47  C   UNL A   1      41.822  23.176  26.499  1.00  0.00     0.202 C 
BRANCH  47  48
ATOM     48  C   UNL A   1      42.903  22.454  25.768  1.00  0.00     0.261 C 
BRANCH  48  49
ATOM     49  O   UNL A   1      44.000  23.274  25.248  1.00  0.00    -0.460 OA
BRANCH  49  50
ATOM     50  C   UNL A   1      45.262  23.343  25.753  1.00  0.00     0.338 C 
ATOM     51  O   UNL A   1      46.024  22.381  25.703  1.00  0.00    -0.246 OA
BRANCH  50  52
ATOM     52  C   UNL A   1      45.707  24.644  26.364  1.00  0.00     0.060 A 
ATOM     53  C   UNL A   1      46.333  24.575  27.565  1.00  0.00     0.016 A 
ATOM     54  C   UNL A   1      45.402  25.940  25.955  1.00  0.00     0.016 A 
ATOM     55  C   UNL A   1      46.409  25.756  28.331  1.00  0.00     0.010 A 
ATOM     56  C   UNL A   1      45.241  27.027  26.925  1.00  0.00     0.010 A 
ATOM     57  C   UNL A   1      45.626  26.929  28.277  1.00  0.00    -0.014 A 
BRANCH  57  58
ATOM     58  C   UNL A   1      45.377  28.110  29.709  1.00  0.00     0.031 A 
ATOM     59  C   UNL A   1      46.315  30.125  29.815  1.00  0.00     0.074 A 
ATOM     60  C   UNL A   1      44.395  27.492  30.916  1.00  0.00     0.049 A 
ATOM     61  N   UNL A   1      46.547  30.999  30.910  1.00  0.00    -0.248 NA
ATOM     62  C   UNL A   1      47.017  31.233  28.749  1.00  0.00     0.031 C 
ATOM     63  C   UNL A   1      43.193  28.141  31.651  1.00  0.00     0.029 A 
ATOM     64  N   UNL A   1      44.267  26.268  31.744  1.00  0.00    -0.354 N 
ATOM     65  C   UNL A   1      46.149  32.234  30.517  1.00  0.00     0.074 A 
ATOM     66  C   UNL A   1      46.882  32.432  29.322  1.00  0.00     0.031 C 
ATOM     67  C   UNL A   1      42.813  27.472  32.773  1.00  0.00     0.029 A 
ATOM     68  C   UNL A   1      43.623  26.291  32.962  1.00  0.00     0.049 A 
ATOM     69  H   UNL A   1      44.651  25.423  31.417  1.00  0.00     0.167 HD
ATOM     70  C   UNL A   1      44.966  32.719  30.996  1.00  0.00     0.037 A 
ATOM     71  C   UNL A   1      43.992  25.633  34.123  1.00  0.00     0.037 A 
ATOM     72  C   UNL A   1      44.350  31.956  32.116  1.00  0.00     0.049 A 
ATOM     73  C   UNL A   1      44.377  26.755  35.052  1.00  0.00     0.074 A 
ATOM     74  C   UNL A   1      43.078  31.437  32.325  1.00  0.00     0.029 A 
ATOM     75  N   UNL A   1      45.117  31.478  33.188  1.00  0.00    -0.354 N 
ATOM     76  N   UNL A   1      44.677  27.933  34.571  1.00  0.00    -0.248 NA
ATOM     77  C   UNL A   1      44.367  26.724  36.512  1.00  0.00     0.031 C 
ATOM     78  C   UNL A   1      43.083  30.680  33.533  1.00  0.00     0.029 A 
ATOM     79  C   UNL A   1      44.363  30.694  34.065  1.00  0.00     0.049 A 
ATOM     80  H   UNL A   1      46.074  31.672  33.308  1.00  0.00     0.167 HD
ATOM     81  C   UNL A   1      44.749  28.831  35.579  1.00  0.00     0.074 A 
ATOM     82  C   UNL A   1      44.587  28.026  36.784  1.00  0.00     0.031 C 
ATOM     83  C   UNL A   1      44.917  30.162  35.324  1.00  0.00     0.037 A 
BRANCH  70  84
ATOM     84  C   UNL A   1      44.225  33.821  30.283  1.00  0.00     0.057 A 
ATOM     85  C   UNL A   1      43.430  33.497  29.175  1.00  0.00     0.134 A 
ATOM     86  C   UNL A   1      44.244  35.191  30.617  1.00  0.00     0.134 A 
ATOM     87  F   UNL A   1      43.406  32.256  28.669  1.00  0.00    -0.206 F 
ATOM     88  C   UNL A   1      42.617  34.431  28.535  1.00  0.00     0.040 A 
ATOM     89  C   UNL A   1      43.374  36.119  30.040  1.00  0.00     0.040 A 
ATOM     90  F   UNL A   1      45.136  35.720  31.465  1.00  0.00    -0.206 F 
ATOM     91  C   UNL A   1      42.541  35.733  29.006  1.00  0.00     0.006 A 
ENDBRANCH  70  84
BRANCH  71  92
ATOM     92  C   UNL A   1      44.641  24.250  34.135  1.00  0.00     0.057 A 
ATOM     93  C   UNL A   1      46.041  24.142  34.110  1.00  0.00     0.134 A 
ATOM     94  C   UNL A   1      43.982  23.072  34.508  1.00  0.00     0.134 A 
ATOM     95  F   UNL A   1      46.778  25.094  33.518  1.00  0.00    -0.206 F 
ATOM     96  C   UNL A   1      46.731  23.083  34.731  1.00  0.00     0.040 A 
ATOM     97  C   UNL A   1      44.647  22.075  35.262  1.00  0.00     0.040 A 
ATOM     98  F   UNL A   1      42.653  22.954  34.367  1.00  0.00    -0.206 F 
ATOM     99  C   UNL A   1      46.023  22.118  35.436  1.00  0.00     0.006 A 
ENDBRANCH  71  92
BRANCH  83 100
ATOM    100  C   UNL A   1      45.502  31.095  36.332  1.00  0.00     0.057 A 
ATOM    101  C   UNL A   1      44.763  31.712  37.351  1.00  0.00     0.134 A 
ATOM    102  C   UNL A   1      46.896  31.286  36.396  1.00  0.00     0.134 A 
ATOM    103  F   UNL A   1      43.455  31.483  37.530  1.00  0.00    -0.206 F 
ATOM    104  C   UNL A   1      45.353  32.562  38.284  1.00  0.00     0.040 A 
ATOM    105  C   UNL A   1      47.505  32.036  37.393  1.00  0.00     0.040 A 
ATOM    106  F   UNL A   1      47.743  30.741  35.513  1.00  0.00    -0.206 F 
ATOM    107  C   UNL A   1      46.730  32.714  38.315  1.00  0.00     0.006 A 
ENDBRANCH  83 100
ENDBRANCH  57  58
ENDBRANCH  50  52
ENDBRANCH  49  50
ENDBRANCH  48  49
ENDBRANCH  47  48
ENDBRANCH  46  47
ENDBRANCH  45  46
ENDBRANCH  44  45
ENDBRANCH   1  44
TORSDOF 24
ENDMDL
