MODEL 1
REMARK VINA RESULT:      -9.9      0.000      0.000
REMARK SMILES COCCCC(=O)N[C@H]1CC[C@@H](C(=O)OCCOCCOCCOC(=O)c2ccc(-c3c4nc(c(-c5c(F)cccc5F)c5ccc([nH]5)c(-c5c(F)cccc5F)c5nc(c(-c6c(F)cccc6F)c6ccc3[nH]6)C=C5)C=C4)cc2)CC1
REMARK SMILES IDX 18 1 17 2 16 3 15 4 13 5 14 6 12 7 9 8 10 9 82 10 11 11
REMARK SMILES IDX 81 12 8 13 6 14 7 15 5 17 4 18 3 19 2 20 1 21 19 22 20 23
REMARK SMILES IDX 21 24 22 25 23 26 24 27 25 28 26 29 27 30 28 31 80 32 29 33
REMARK SMILES IDX 79 34 30 35 31 36 32 37 73 38 33 39 78 40 72 41 74 42 34 43
REMARK SMILES IDX 77 44 71 45 70 46 35 48 61 49 44 50 60 51 45 52 48 53 59 54
REMARK SMILES IDX 75 55 46 56 47 57 58 59 76 60 49 61 36 62 37 63 42 64 38 65
REMARK SMILES IDX 39 66 41 67 43 68 40 69 62 70 63 71 68 72 64 73 65 74 67 75
REMARK SMILES IDX 69 76 66 77 50 78 51 79 56 80 52 81 53 82 55 83 57 84 54 85
REMARK H PARENT 8 16 74 47 48 58
REMARK Flexibility Score: inf
ROOT
ATOM      1  O   UNL A   1      38.824  21.540  26.342  1.00  0.00    -0.376 OA
ENDROOT
BRANCH   1   2
ATOM      2  C   UNL A   1      37.967  21.739  25.223  1.00  0.00     0.202 C 
BRANCH   2   3
ATOM      3  C   UNL A   1      36.617  21.007  25.164  1.00  0.00     0.261 C 
BRANCH   3   4
ATOM      4  O   UNL A   1      35.503  21.689  25.777  1.00  0.00    -0.463 OA
BRANCH   4   5
ATOM      5  C   UNL A   1      34.479  22.026  24.957  1.00  0.00     0.309 C 
ATOM      6  O   UNL A   1      33.397  21.448  24.923  1.00  0.00    -0.252 OA
BRANCH   5   7
ATOM      7  C   UNL A   1      34.817  23.132  23.958  1.00  0.00     0.099 C 
ATOM      8  C   UNL A   1      33.400  25.718  24.440  1.00  0.00     0.082 C 
ATOM      9  C   UNL A   1      34.303  25.043  25.475  1.00  0.00     0.026 C 
ATOM     10  C   UNL A   1      32.729  24.637  23.585  1.00  0.00     0.026 C 
ATOM     11  C   UNL A   1      35.415  24.243  24.805  1.00  0.00     0.017 C 
ATOM     12  C   UNL A   1      33.788  23.721  22.965  1.00  0.00     0.017 C 
BRANCH   8  13
ATOM     13  N   UNL A   1      32.446  26.582  25.097  1.00  0.00    -0.353 N 
ATOM     14  C   UNL A   1      31.940  27.786  24.727  1.00  0.00     0.220 C 
ATOM     15  O   UNL A   1      31.249  28.367  25.572  1.00  0.00    -0.275 OA
ATOM     16  H   UNL A   1      32.108  26.241  25.956  1.00  0.00     0.163 HD
BRANCH  14  17
ATOM     17  C   UNL A   1      32.067  28.381  23.324  1.00  0.00     0.102 C 
BRANCH  17  18
ATOM     18  C   UNL A   1      30.894  28.415  22.343  1.00  0.00     0.038 C 
BRANCH  18  19
ATOM     19  C   UNL A   1      30.058  29.696  22.325  1.00  0.00     0.160 C 
BRANCH  19  20
ATOM     20  O   UNL A   1      28.908  29.566  21.495  1.00  0.00    -0.385 OA
ATOM     21  C   UNL A   1      27.981  30.636  21.650  1.00  0.00     0.194 C 
ENDBRANCH  19  20
ENDBRANCH  18  19
ENDBRANCH  17  18
ENDBRANCH  14  17
ENDBRANCH   8  13
ENDBRANCH   5   7
ENDBRANCH   4   5
ENDBRANCH   3   4
ENDBRANCH   2   3
ENDBRANCH   1   2
BRANCH   1  22
ATOM     22  C   UNL A   1      40.204  21.270  26.154  1.00  0.00     0.188 C 
BRANCH  22  23
ATOM     23  C   UNL A   1      40.764  19.893  26.513  1.00  0.00     0.188 C 
BRANCH  23  24
ATOM     24  O   UNL A   1      42.134  19.845  26.823  1.00  0.00    -0.376 OA
BRANCH  24  25
ATOM     25  C   UNL A   1      43.075  19.803  25.765  1.00  0.00     0.202 C 
BRANCH  25  26
ATOM     26  C   UNL A   1      43.909  21.057  25.442  1.00  0.00     0.261 C 
BRANCH  26  27
ATOM     27  O   UNL A   1      43.591  22.252  26.176  1.00  0.00    -0.460 OA
BRANCH  27  28
ATOM     28  C   UNL A   1      43.772  23.446  25.553  1.00  0.00     0.338 C 
ATOM     29  O   UNL A   1      44.120  23.623  24.408  1.00  0.00    -0.246 OA
BRANCH  28  30
ATOM     30  C   UNL A   1      43.168  24.488  26.436  1.00  0.00     0.060 A 
ATOM     31  C   UNL A   1      43.683  25.795  26.388  1.00  0.00     0.016 A 
ATOM     32  C   UNL A   1      42.053  24.207  27.226  1.00  0.00     0.016 A 
ATOM     33  C   UNL A   1      43.100  26.813  27.150  1.00  0.00     0.010 A 
ATOM     34  C   UNL A   1      41.487  25.219  28.008  1.00  0.00     0.010 A 
ATOM     35  C   UNL A   1      42.026  26.520  28.000  1.00  0.00    -0.014 A 
BRANCH  35  36
ATOM     36  C   UNL A   1      41.617  27.487  29.051  1.00  0.00     0.031 A 
ATOM     37  C   UNL A   1      42.353  27.440  30.364  1.00  0.00     0.074 A 
ATOM     38  C   UNL A   1      40.623  28.377  28.872  1.00  0.00     0.049 A 
ATOM     39  N   UNL A   1      42.120  28.089  31.476  1.00  0.00    -0.248 NA
ATOM     40  C   UNL A   1      43.507  26.528  30.430  1.00  0.00     0.031 C 
ATOM     41  C   UNL A   1      39.858  28.565  27.643  1.00  0.00     0.029 A 
ATOM     42  N   UNL A   1      40.075  29.282  29.751  1.00  0.00    -0.354 N 
ATOM     43  C   UNL A   1      43.083  27.647  32.376  1.00  0.00     0.074 A 
ATOM     44  C   UNL A   1      43.890  26.663  31.690  1.00  0.00     0.031 C 
ATOM     45  C   UNL A   1      38.920  29.508  27.853  1.00  0.00     0.029 A 
ATOM     46  C   UNL A   1      38.994  29.962  29.243  1.00  0.00     0.049 A 
ATOM     47  H   UNL A   1      40.424  29.429  30.660  1.00  0.00     0.167 HD
ATOM     48  C   UNL A   1      43.278  28.028  33.660  1.00  0.00     0.037 A 
ATOM     49  C   UNL A   1      38.144  30.823  29.840  1.00  0.00     0.037 A 
ATOM     50  C   UNL A   1      42.484  29.012  34.343  1.00  0.00     0.049 A 
ATOM     51  C   UNL A   1      38.343  31.179  31.295  1.00  0.00     0.074 A 
ATOM     52  C   UNL A   1      42.629  29.483  35.636  1.00  0.00     0.029 A 
ATOM     53  N   UNL A   1      41.394  29.667  33.795  1.00  0.00    -0.354 N 
ATOM     54  N   UNL A   1      39.274  30.780  32.129  1.00  0.00    -0.248 NA
ATOM     55  C   UNL A   1      37.370  32.108  31.893  1.00  0.00     0.031 C 
ATOM     56  C   UNL A   1      41.588  30.380  35.891  1.00  0.00     0.029 A 
ATOM     57  C   UNL A   1      40.837  30.518  34.736  1.00  0.00     0.049 A 
ATOM     58  H   UNL A   1      41.064  29.545  32.875  1.00  0.00     0.167 HD
ATOM     59  C   UNL A   1      39.020  31.437  33.329  1.00  0.00     0.074 A 
ATOM     60  C   UNL A   1      37.857  32.269  33.115  1.00  0.00     0.031 C 
ATOM     61  C   UNL A   1      39.692  31.359  34.504  1.00  0.00     0.037 A 
BRANCH  48  62
ATOM     62  C   UNL A   1      44.380  27.358  34.424  1.00  0.00     0.057 A 
ATOM     63  C   UNL A   1      44.201  26.123  35.059  1.00  0.00     0.134 A 
ATOM     64  C   UNL A   1      45.657  27.933  34.474  1.00  0.00     0.134 A 
ATOM     65  F   UNL A   1      42.998  25.529  35.065  1.00  0.00    -0.206 F 
ATOM     66  C   UNL A   1      45.251  25.488  35.725  1.00  0.00     0.040 A 
ATOM     67  C   UNL A   1      46.721  27.294  35.112  1.00  0.00     0.040 A 
ATOM     68  F   UNL A   1      45.896  29.115  33.885  1.00  0.00    -0.206 F 
ATOM     69  C   UNL A   1      46.518  26.069  35.742  1.00  0.00     0.006 A 
ENDBRANCH  48  62
BRANCH  49  70
ATOM     70  C   UNL A   1      36.991  31.391  29.090  1.00  0.00     0.057 A 
ATOM     71  C   UNL A   1      36.983  32.725  28.661  1.00  0.00     0.134 A 
ATOM     72  C   UNL A   1      35.837  30.635  28.849  1.00  0.00     0.134 A 
ATOM     73  F   UNL A   1      38.045  33.512  28.890  1.00  0.00    -0.206 F 
ATOM     74  C   UNL A   1      35.864  33.293  28.049  1.00  0.00     0.040 A 
ATOM     75  C   UNL A   1      34.722  31.181  28.209  1.00  0.00     0.040 A 
ATOM     76  F   UNL A   1      35.772  29.354  29.239  1.00  0.00    -0.206 F 
ATOM     77  C   UNL A   1      34.730  32.518  27.819  1.00  0.00     0.006 A 
ENDBRANCH  49  70
BRANCH  61  78
ATOM     78  C   UNL A   1      39.230  32.235  35.636  1.00  0.00     0.057 A 
ATOM     79  C   UNL A   1      39.627  33.572  35.755  1.00  0.00     0.134 A 
ATOM     80  C   UNL A   1      38.330  31.742  36.591  1.00  0.00     0.134 A 
ATOM     81  F   UNL A   1      40.493  34.107  34.880  1.00  0.00    -0.206 F 
ATOM     82  C   UNL A   1      39.166  34.380  36.797  1.00  0.00     0.040 A 
ATOM     83  C   UNL A   1      37.837  32.549  37.618  1.00  0.00     0.040 A 
ATOM     84  F   UNL A   1      37.897  30.475  36.528  1.00  0.00    -0.206 F 
ATOM     85  C   UNL A   1      38.262  33.871  37.727  1.00  0.00     0.006 A 
ENDBRANCH  61  78
ENDBRANCH  35  36
ENDBRANCH  28  30
ENDBRANCH  27  28
ENDBRANCH  26  27
ENDBRANCH  25  26
ENDBRANCH  24  25
ENDBRANCH  23  24
ENDBRANCH  22  23
ENDBRANCH   1  22
TORSDOF 22
ENDMDL
MODEL 2
REMARK VINA RESULT:      -9.4      0.927      2.142
REMARK SMILES COCCCC(=O)N[C@H]1CC[C@@H](C(=O)OCCOCCOCCOC(=O)c2ccc(-c3c4nc(c(-c5c(F)cccc5F)c5ccc([nH]5)c(-c5c(F)cccc5F)c5nc(c(-c6c(F)cccc6F)c6ccc3[nH]6)C=C5)C=C4)cc2)CC1
REMARK SMILES IDX 18 1 17 2 16 3 15 4 13 5 14 6 12 7 9 8 10 9 82 10 11 11
REMARK SMILES IDX 81 12 8 13 6 14 7 15 5 17 4 18 3 19 2 20 1 21 19 22 20 23
REMARK SMILES IDX 21 24 22 25 23 26 24 27 25 28 26 29 27 30 28 31 80 32 29 33
REMARK SMILES IDX 79 34 30 35 31 36 32 37 73 38 33 39 78 40 72 41 74 42 34 43
REMARK SMILES IDX 77 44 71 45 70 46 35 48 61 49 44 50 60 51 45 52 48 53 59 54
REMARK SMILES IDX 75 55 46 56 47 57 58 59 76 60 49 61 36 62 37 63 42 64 38 65
REMARK SMILES IDX 39 66 41 67 43 68 40 69 62 70 63 71 68 72 64 73 65 74 67 75
REMARK SMILES IDX 69 76 66 77 50 78 51 79 56 80 52 81 53 82 55 83 57 84 54 85
REMARK H PARENT 8 16 74 47 48 58
REMARK Flexibility Score: inf
ROOT
ATOM      1  O   UNL A   1      38.841  21.625  26.465  1.00  0.00    -0.376 OA
ENDROOT
BRANCH   1   2
ATOM      2  C   UNL A   1      37.865  21.960  25.486  1.00  0.00     0.202 C 
BRANCH   2   3
ATOM      3  C   UNL A   1      36.874  20.887  25.005  1.00  0.00     0.261 C 
BRANCH   3   4
ATOM      4  O   UNL A   1      35.513  21.325  24.820  1.00  0.00    -0.463 OA
BRANCH   4   5
ATOM      5  C   UNL A   1      35.345  22.585  24.352  1.00  0.00     0.309 C 
ATOM      6  O   UNL A   1      35.726  22.974  23.253  1.00  0.00    -0.252 OA
BRANCH   5   7
ATOM      7  C   UNL A   1      34.737  23.552  25.367  1.00  0.00     0.099 C 
ATOM      8  C   UNL A   1      32.583  25.311  24.274  1.00  0.00     0.082 C 
ATOM      9  C   UNL A   1      32.524  23.782  24.242  1.00  0.00     0.026 C 
ATOM     10  C   UNL A   1      34.047  25.754  24.167  1.00  0.00     0.026 C 
ATOM     11  C   UNL A   1      33.267  23.172  25.426  1.00  0.00     0.017 C 
ATOM     12  C   UNL A   1      34.881  25.089  25.265  1.00  0.00     0.017 C 
BRANCH   8  13
ATOM     13  N   UNL A   1      31.754  25.865  23.228  1.00  0.00    -0.353 N 
ATOM     14  C   UNL A   1      31.687  27.125  22.725  1.00  0.00     0.220 C 
ATOM     15  O   UNL A   1      30.766  27.342  21.929  1.00  0.00    -0.275 OA
ATOM     16  H   UNL A   1      31.136  25.222  22.811  1.00  0.00     0.163 HD
BRANCH  14  17
ATOM     17  C   UNL A   1      32.729  28.213  22.982  1.00  0.00     0.102 C 
BRANCH  17  18
ATOM     18  C   UNL A   1      32.787  28.993  24.297  1.00  0.00     0.038 C 
BRANCH  18  19
ATOM     19  C   UNL A   1      31.495  29.047  25.115  1.00  0.00     0.160 C 
BRANCH  19  20
ATOM     20  O   UNL A   1      31.502  28.103  26.180  1.00  0.00    -0.385 OA
ATOM     21  C   UNL A   1      32.711  28.116  26.932  1.00  0.00     0.194 C 
ENDBRANCH  19  20
ENDBRANCH  18  19
ENDBRANCH  17  18
ENDBRANCH  14  17
ENDBRANCH   8  13
ENDBRANCH   5   7
ENDBRANCH   4   5
ENDBRANCH   3   4
ENDBRANCH   2   3
ENDBRANCH   1   2
BRANCH   1  22
ATOM     22  C   UNL A   1      40.192  21.405  26.090  1.00  0.00     0.188 C 
BRANCH  22  23
ATOM     23  C   UNL A   1      40.813  20.018  26.269  1.00  0.00     0.188 C 
BRANCH  23  24
ATOM     24  O   UNL A   1      42.142  19.991  26.725  1.00  0.00    -0.376 OA
BRANCH  24  25
ATOM     25  C   UNL A   1      43.191  19.912  25.777  1.00  0.00     0.202 C 
BRANCH  25  26
ATOM     26  C   UNL A   1      44.057  21.154  25.499  1.00  0.00     0.261 C 
BRANCH  26  27
ATOM     27  O   UNL A   1      43.734  22.347  26.236  1.00  0.00    -0.460 OA
BRANCH  27  28
ATOM     28  C   UNL A   1      43.829  23.538  25.588  1.00  0.00     0.338 C 
ATOM     29  O   UNL A   1      44.118  23.712  24.427  1.00  0.00    -0.246 OA
BRANCH  28  30
ATOM     30  C   UNL A   1      43.215  24.563  26.482  1.00  0.00     0.060 A 
ATOM     31  C   UNL A   1      43.700  25.881  26.431  1.00  0.00     0.016 A 
ATOM     32  C   UNL A   1      42.116  24.256  27.286  1.00  0.00     0.016 A 
ATOM     33  C   UNL A   1      43.106  26.884  27.204  1.00  0.00     0.010 A 
ATOM     34  C   UNL A   1      41.539  25.254  28.078  1.00  0.00     0.010 A 
ATOM     35  C   UNL A   1      42.049  26.566  28.067  1.00  0.00    -0.014 A 
BRANCH  35  36
ATOM     36  C   UNL A   1      41.633  27.521  29.126  1.00  0.00     0.031 A 
ATOM     37  C   UNL A   1      42.380  27.478  30.434  1.00  0.00     0.074 A 
ATOM     38  C   UNL A   1      40.624  28.397  28.960  1.00  0.00     0.049 A 
ATOM     39  N   UNL A   1      42.145  28.117  31.552  1.00  0.00    -0.248 NA
ATOM     40  C   UNL A   1      43.548  26.583  30.487  1.00  0.00     0.031 C 
ATOM     41  C   UNL A   1      39.848  28.579  27.737  1.00  0.00     0.029 A 
ATOM     42  N   UNL A   1      40.069  29.288  29.848  1.00  0.00    -0.354 N 
ATOM     43  C   UNL A   1      43.120  27.685  32.441  1.00  0.00     0.074 A 
ATOM     44  C   UNL A   1      43.937  26.717  31.744  1.00  0.00     0.031 C 
ATOM     45  C   UNL A   1      38.897  29.506  27.960  1.00  0.00     0.029 A 
ATOM     46  C   UNL A   1      38.974  29.954  29.351  1.00  0.00     0.049 A 
ATOM     47  H   UNL A   1      40.422  29.436  30.755  1.00  0.00     0.167 HD
ATOM     48  C   UNL A   1      43.319  28.063  33.726  1.00  0.00     0.037 A 
ATOM     49  C   UNL A   1      38.115  30.798  29.959  1.00  0.00     0.037 A 
ATOM     50  C   UNL A   1      42.515  29.030  34.421  1.00  0.00     0.049 A 
ATOM     51  C   UNL A   1      38.319  31.150  31.415  1.00  0.00     0.074 A 
ATOM     52  C   UNL A   1      42.662  29.497  35.715  1.00  0.00     0.029 A 
ATOM     53  N   UNL A   1      41.411  29.672  33.884  1.00  0.00    -0.354 N 
ATOM     54  N   UNL A   1      39.262  30.761  32.239  1.00  0.00    -0.248 NA
ATOM     55  C   UNL A   1      37.336  32.060  32.024  1.00  0.00     0.031 C 
ATOM     56  C   UNL A   1      41.609  30.376  35.983  1.00  0.00     0.029 A 
ATOM     57  C   UNL A   1      40.848  30.509  34.833  1.00  0.00     0.049 A 
ATOM     58  H   UNL A   1      41.076  29.550  32.966  1.00  0.00     0.167 HD
ATOM     59  C   UNL A   1      39.007  31.408  33.445  1.00  0.00     0.074 A 
ATOM     60  C   UNL A   1      37.830  32.222  33.244  1.00  0.00     0.031 C 
ATOM     61  C   UNL A   1      39.689  31.333  34.615  1.00  0.00     0.037 A 
BRANCH  48  62
ATOM     62  C   UNL A   1      44.437  27.405  34.479  1.00  0.00     0.057 A 
ATOM     63  C   UNL A   1      45.718  27.965  34.549  1.00  0.00     0.134 A 
ATOM     64  C   UNL A   1      44.207  26.222  35.194  1.00  0.00     0.134 A 
ATOM     65  F   UNL A   1      46.008  29.087  33.872  1.00  0.00    -0.206 F 
ATOM     66  C   UNL A   1      46.735  27.366  35.295  1.00  0.00     0.040 A 
ATOM     67  C   UNL A   1      45.207  25.630  35.966  1.00  0.00     0.040 A 
ATOM     68  F   UNL A   1      43.001  25.634  35.169  1.00  0.00    -0.206 F 
ATOM     69  C   UNL A   1      46.476  26.202  36.016  1.00  0.00     0.006 A 
ENDBRANCH  48  62
BRANCH  49  70
ATOM     70  C   UNL A   1      36.948  31.353  29.221  1.00  0.00     0.057 A 
ATOM     71  C   UNL A   1      35.828  30.564  28.925  1.00  0.00     0.134 A 
ATOM     72  C   UNL A   1      36.955  32.663  28.729  1.00  0.00     0.134 A 
ATOM     73  F   UNL A   1      35.773  29.289  29.339  1.00  0.00    -0.206 F 
ATOM     74  C   UNL A   1      34.776  31.046  28.144  1.00  0.00     0.040 A 
ATOM     75  C   UNL A   1      35.894  33.170  27.974  1.00  0.00     0.040 A 
ATOM     76  F   UNL A   1      37.997  33.472  28.968  1.00  0.00    -0.206 F 
ATOM     77  C   UNL A   1      34.806  32.356  27.669  1.00  0.00     0.006 A 
ENDBRANCH  49  70
BRANCH  61  78
ATOM     78  C   UNL A   1      39.222  32.196  35.754  1.00  0.00     0.057 A 
ATOM     79  C   UNL A   1      38.342  31.724  36.736  1.00  0.00     0.134 A 
ATOM     80  C   UNL A   1      39.704  33.504  35.897  1.00  0.00     0.134 A 
ATOM     81  F   UNL A   1      37.835  30.484  36.658  1.00  0.00    -0.206 F 
ATOM     82  C   UNL A   1      37.941  32.529  37.805  1.00  0.00     0.040 A 
ATOM     83  C   UNL A   1      39.336  34.308  36.977  1.00  0.00     0.040 A 
ATOM     84  F   UNL A   1      40.561  34.015  35.000  1.00  0.00    -0.206 F 
ATOM     85  C   UNL A   1      38.445  33.823  37.931  1.00  0.00     0.006 A 
ENDBRANCH  61  78
ENDBRANCH  35  36
ENDBRANCH  28  30
ENDBRANCH  27  28
ENDBRANCH  26  27
ENDBRANCH  25  26
ENDBRANCH  24  25
ENDBRANCH  23  24
ENDBRANCH  22  23
ENDBRANCH   1  22
TORSDOF 22
ENDMDL
MODEL 3
REMARK VINA RESULT:      -9.4      3.817      7.682
REMARK SMILES COCCCC(=O)N[C@H]1CC[C@@H](C(=O)OCCOCCOCCOC(=O)c2ccc(-c3c4nc(c(-c5c(F)cccc5F)c5ccc([nH]5)c(-c5c(F)cccc5F)c5nc(c(-c6c(F)cccc6F)c6ccc3[nH]6)C=C5)C=C4)cc2)CC1
REMARK SMILES IDX 18 1 17 2 16 3 15 4 13 5 14 6 12 7 9 8 10 9 82 10 11 11
REMARK SMILES IDX 81 12 8 13 6 14 7 15 5 17 4 18 3 19 2 20 1 21 19 22 20 23
REMARK SMILES IDX 21 24 22 25 23 26 24 27 25 28 26 29 27 30 28 31 80 32 29 33
REMARK SMILES IDX 79 34 30 35 31 36 32 37 73 38 33 39 78 40 72 41 74 42 34 43
REMARK SMILES IDX 77 44 71 45 70 46 35 48 61 49 44 50 60 51 45 52 48 53 59 54
REMARK SMILES IDX 75 55 46 56 47 57 58 59 76 60 49 61 36 62 37 63 42 64 38 65
REMARK SMILES IDX 39 66 41 67 43 68 40 69 62 70 63 71 68 72 64 73 65 74 67 75
REMARK SMILES IDX 69 76 66 77 50 78 51 79 56 80 52 81 53 82 55 83 57 84 54 85
REMARK H PARENT 8 16 74 47 48 58
REMARK Flexibility Score: inf
ROOT
ATOM      1  O   UNL A   1      34.543  22.537  27.069  1.00  0.00    -0.376 OA
ENDROOT
BRANCH   1   2
ATOM      2  C   UNL A   1      33.267  22.608  27.693  1.00  0.00     0.202 C 
BRANCH   2   3
ATOM      3  C   UNL A   1      31.996  22.516  26.833  1.00  0.00     0.261 C 
BRANCH   3   4
ATOM      4  O   UNL A   1      31.392  23.773  26.466  1.00  0.00    -0.463 OA
BRANCH   4   5
ATOM      5  C   UNL A   1      32.040  24.499  25.524  1.00  0.00     0.309 C 
ATOM      6  O   UNL A   1      32.397  24.063  24.434  1.00  0.00    -0.252 OA
BRANCH   5   7
ATOM      7  C   UNL A   1      32.418  25.910  25.974  1.00  0.00     0.099 C 
ATOM      8  C   UNL A   1      31.679  28.071  24.048  1.00  0.00     0.082 C 
ATOM      9  C   UNL A   1      30.666  27.100  24.660  1.00  0.00     0.026 C 
ATOM     10  C   UNL A   1      33.025  27.353  23.899  1.00  0.00     0.026 C 
ATOM     11  C   UNL A   1      31.096  26.653  26.054  1.00  0.00     0.017 C 
ATOM     12  C   UNL A   1      33.470  26.779  25.246  1.00  0.00     0.017 C 
BRANCH   8  13
ATOM     13  N   UNL A   1      31.180  28.588  22.795  1.00  0.00    -0.353 N 
ATOM     14  C   UNL A   1      30.172  29.460  22.534  1.00  0.00     0.220 C 
ATOM     15  O   UNL A   1      29.871  29.602  21.344  1.00  0.00    -0.275 OA
ATOM     16  H   UNL A   1      31.649  28.252  21.996  1.00  0.00     0.163 HD
BRANCH  14  17
ATOM     17  C   UNL A   1      29.502  30.343  23.587  1.00  0.00     0.102 C 
BRANCH  17  18
ATOM     18  C   UNL A   1      28.068  30.853  23.432  1.00  0.00     0.038 C 
BRANCH  18  19
ATOM     19  C   UNL A   1      27.836  31.916  22.355  1.00  0.00     0.160 C 
BRANCH  19  20
ATOM     20  O   UNL A   1      28.964  32.771  22.205  1.00  0.00    -0.385 OA
ATOM     21  C   UNL A   1      29.111  33.698  23.276  1.00  0.00     0.194 C 
ENDBRANCH  19  20
ENDBRANCH  18  19
ENDBRANCH  17  18
ENDBRANCH  14  17
ENDBRANCH   8  13
ENDBRANCH   5   7
ENDBRANCH   4   5
ENDBRANCH   3   4
ENDBRANCH   2   3
ENDBRANCH   1   2
BRANCH   1  22
ATOM     22  C   UNL A   1      34.849  21.482  26.170  1.00  0.00     0.188 C 
BRANCH  22  23
ATOM     23  C   UNL A   1      35.185  21.799  24.712  1.00  0.00     0.188 C 
BRANCH  23  24
ATOM     24  O   UNL A   1      36.548  21.971  24.417  1.00  0.00    -0.376 OA
BRANCH  24  25
ATOM     25  C   UNL A   1      37.463  20.953  24.784  1.00  0.00     0.202 C 
BRANCH  25  26
ATOM     26  C   UNL A   1      38.682  21.307  25.655  1.00  0.00     0.261 C 
BRANCH  26  27
ATOM     27  O   UNL A   1      39.315  20.221  26.354  1.00  0.00    -0.460 OA
BRANCH  27  28
ATOM     28  C   UNL A   1      40.652  20.048  26.179  1.00  0.00     0.338 C 
ATOM     29  O   UNL A   1      41.193  19.198  25.512  1.00  0.00    -0.246 OA
BRANCH  28  30
ATOM     30  C   UNL A   1      41.316  21.277  26.705  1.00  0.00     0.060 A 
ATOM     31  C   UNL A   1      41.323  21.499  28.093  1.00  0.00     0.016 A 
ATOM     32  C   UNL A   1      42.003  22.147  25.858  1.00  0.00     0.016 A 
ATOM     33  C   UNL A   1      41.993  22.604  28.630  1.00  0.00     0.010 A 
ATOM     34  C   UNL A   1      42.651  23.265  26.392  1.00  0.00     0.010 A 
ATOM     35  C   UNL A   1      42.623  23.519  27.777  1.00  0.00    -0.014 A 
BRANCH  35  36
ATOM     36  C   UNL A   1      43.042  24.851  28.284  1.00  0.00     0.031 A 
ATOM     37  C   UNL A   1      41.963  25.877  28.515  1.00  0.00     0.074 A 
ATOM     38  C   UNL A   1      44.328  25.165  28.528  1.00  0.00     0.049 A 
ATOM     39  N   UNL A   1      42.068  27.140  28.841  1.00  0.00    -0.248 NA
ATOM     40  C   UNL A   1      40.576  25.412  28.347  1.00  0.00     0.031 C 
ATOM     41  C   UNL A   1      45.466  24.261  28.393  1.00  0.00     0.029 A 
ATOM     42  N   UNL A   1      44.890  26.356  28.925  1.00  0.00    -0.354 N 
ATOM     43  C   UNL A   1      40.765  27.621  28.895  1.00  0.00     0.074 A 
ATOM     44  C   UNL A   1      39.889  26.525  28.550  1.00  0.00     0.031 C 
ATOM     45  C   UNL A   1      46.595  24.937  28.676  1.00  0.00     0.029 A 
ATOM     46  C   UNL A   1      46.263  26.330  28.974  1.00  0.00     0.049 A 
ATOM     47  H   UNL A   1      44.358  27.153  29.151  1.00  0.00     0.167 HD
ATOM     48  C   UNL A   1      40.337  28.867  29.206  1.00  0.00     0.037 A 
ATOM     49  C   UNL A   1      47.147  27.324  29.200  1.00  0.00     0.037 A 
ATOM     50  C   UNL A   1      41.204  29.959  29.557  1.00  0.00     0.049 A 
ATOM     51  C   UNL A   1      46.644  28.722  29.476  1.00  0.00     0.074 A 
ATOM     52  C   UNL A   1      40.855  31.249  29.916  1.00  0.00     0.029 A 
ATOM     53  N   UNL A   1      42.587  29.892  29.585  1.00  0.00    -0.354 N 
ATOM     54  N   UNL A   1      45.411  29.161  29.555  1.00  0.00    -0.248 NA
ATOM     55  C   UNL A   1      47.661  29.765  29.694  1.00  0.00     0.031 C 
ATOM     56  C   UNL A   1      42.031  31.981  30.102  1.00  0.00     0.029 A 
ATOM     57  C   UNL A   1      43.109  31.129  29.926  1.00  0.00     0.049 A 
ATOM     58  H   UNL A   1      43.119  29.087  29.389  1.00  0.00     0.167 HD
ATOM     59  C   UNL A   1      45.505  30.514  29.870  1.00  0.00     0.074 A 
ATOM     60  C   UNL A   1      46.913  30.822  29.978  1.00  0.00     0.031 C 
ATOM     61  C   UNL A   1      44.513  31.419  30.053  1.00  0.00     0.037 A 
BRANCH  48  62
ATOM     62  C   UNL A   1      38.861  29.129  29.152  1.00  0.00     0.057 A 
ATOM     63  C   UNL A   1      38.050  29.049  30.290  1.00  0.00     0.134 A 
ATOM     64  C   UNL A   1      38.257  29.524  27.951  1.00  0.00     0.134 A 
ATOM     65  F   UNL A   1      38.563  28.659  31.466  1.00  0.00    -0.206 F 
ATOM     66  C   UNL A   1      36.686  29.345  30.234  1.00  0.00     0.040 A 
ATOM     67  C   UNL A   1      36.902  29.849  27.889  1.00  0.00     0.040 A 
ATOM     68  F   UNL A   1      38.980  29.620  26.824  1.00  0.00    -0.206 F 
ATOM     69  C   UNL A   1      36.112  29.758  29.032  1.00  0.00     0.006 A 
ENDBRANCH  48  62
BRANCH  49  70
ATOM     70  C   UNL A   1      48.611  27.063  29.138  1.00  0.00     0.057 A 
ATOM     71  C   UNL A   1      49.326  26.637  30.266  1.00  0.00     0.134 A 
ATOM     72  C   UNL A   1      49.344  27.304  27.970  1.00  0.00     0.134 A 
ATOM     73  F   UNL A   1      48.687  26.420  31.426  1.00  0.00    -0.206 F 
ATOM     74  C   UNL A   1      50.714  26.490  30.243  1.00  0.00     0.040 A 
ATOM     75  C   UNL A   1      50.730  27.129  27.924  1.00  0.00     0.040 A 
ATOM     76  F   UNL A   1      48.726  27.719  26.855  1.00  0.00    -0.206 F 
ATOM     77  C   UNL A   1      51.419  26.734  29.066  1.00  0.00     0.006 A 
ENDBRANCH  49  70
BRANCH  61  78
ATOM     78  C   UNL A   1      44.903  32.817  30.448  1.00  0.00     0.057 A 
ATOM     79  C   UNL A   1      45.100  33.832  29.505  1.00  0.00     0.134 A 
ATOM     80  C   UNL A   1      45.030  33.160  31.801  1.00  0.00     0.134 A 
ATOM     81  F   UNL A   1      45.001  33.571  28.192  1.00  0.00    -0.206 F 
ATOM     82  C   UNL A   1      45.434  35.132  29.891  1.00  0.00     0.040 A 
ATOM     83  C   UNL A   1      45.332  34.463  32.201  1.00  0.00     0.040 A 
ATOM     84  F   UNL A   1      44.841  32.241  32.759  1.00  0.00    -0.206 F 
ATOM     85  C   UNL A   1      45.542  35.452  31.243  1.00  0.00     0.006 A 
ENDBRANCH  61  78
ENDBRANCH  35  36
ENDBRANCH  28  30
ENDBRANCH  27  28
ENDBRANCH  26  27
ENDBRANCH  25  26
ENDBRANCH  24  25
ENDBRANCH  23  24
ENDBRANCH  22  23
ENDBRANCH   1  22
TORSDOF 22
ENDMDL
