MODEL 1
REMARK VINA RESULT:     -10.4      0.000      0.000
REMARK SMILES O=C(OCCOCCOCCOC(=O)c1ccc(C(F)(F)F)nc1NC[C@@H]1CCOC1)c1ccc(-c2c3nc(c(-c4c(F)cccc4F)c4ccc([nH]4)c(-c4c(F)cccc4F)c4nc(c(-c5c(F)cccc5F)c5ccc2[nH]5)C=C4)C=C3)cc1
REMARK SMILES IDX 8 1 7 2 6 3 5 4 4 5 3 6 2 7 1 8 32 9 33 10 85 11 34 12 84 13
REMARK SMILES IDX 35 14 36 15 37 16 78 17 38 18 83 19 77 20 79 21 39 22 82 23
REMARK SMILES IDX 76 24 75 25 40 27 66 28 49 29 65 30 50 31 53 32 64 33 80 34
REMARK SMILES IDX 51 35 52 36 63 38 81 39 54 40 41 41 42 42 47 43 43 44 44 45
REMARK SMILES IDX 46 46 48 47 45 48 67 49 68 50 73 51 69 52 70 53 72 54 74 55
REMARK SMILES IDX 71 56 55 57 56 58 61 59 57 60 58 61 60 62 62 63 59 64 9 65
REMARK SMILES IDX 10 66 11 67 12 68 13 69 14 70 15 71 16 72 24 73 17 74 23 75
REMARK SMILES IDX 18 76 25 77 26 79 27 80 28 81 31 82 29 83 30 84 19 85 20 86
REMARK SMILES IDX 21 87 22 88
REMARK H PARENT 79 26 53 37 25 78
REMARK Flexibility Score: inf
ROOT
ATOM      1  C   UNL A   1      41.792  19.376  27.225  1.00  0.00     0.188 C 
ENDROOT
BRANCH   1   2
ATOM      2  C   UNL A   1      42.832  19.022  26.160  1.00  0.00     0.188 C 
BRANCH   2   3
ATOM      3  O   UNL A   1      43.890  19.987  26.137  1.00  0.00    -0.376 OA
BRANCH   3   4
ATOM      4  C   UNL A   1      44.224  20.435  24.823  1.00  0.00     0.202 C 
BRANCH   4   5
ATOM      5  C   UNL A   1      44.901  21.808  24.796  1.00  0.00     0.261 C 
BRANCH   5   6
ATOM      6  O   UNL A   1      44.077  22.814  25.408  1.00  0.00    -0.460 OA
BRANCH   6   7
ATOM      7  C   UNL A   1      44.212  24.161  25.329  1.00  0.00     0.338 C 
ATOM      8  O   UNL A   1      44.819  24.637  24.370  1.00  0.00    -0.246 OA
BRANCH   7   9
ATOM      9  C   UNL A   1      43.590  25.109  26.303  1.00  0.00     0.060 A 
ATOM     10  C   UNL A   1      43.843  26.481  26.355  1.00  0.00     0.016 A 
ATOM     11  C   UNL A   1      42.632  24.580  27.186  1.00  0.00     0.016 A 
ATOM     12  C   UNL A   1      43.279  27.278  27.351  1.00  0.00     0.010 A 
ATOM     13  C   UNL A   1      42.002  25.392  28.136  1.00  0.00     0.010 A 
ATOM     14  C   UNL A   1      42.363  26.739  28.257  1.00  0.00    -0.014 A 
BRANCH  14  15
ATOM     15  C   UNL A   1      41.864  27.572  29.373  1.00  0.00     0.031 A 
ATOM     16  C   UNL A   1      42.584  27.547  30.689  1.00  0.00     0.074 A 
ATOM     17  C   UNL A   1      40.827  28.409  29.189  1.00  0.00     0.049 A 
ATOM     18  N   UNL A   1      42.311  28.188  31.796  1.00  0.00    -0.248 NA
ATOM     19  C   UNL A   1      43.784  26.697  30.764  1.00  0.00     0.031 C 
ATOM     20  C   UNL A   1      40.098  28.579  27.932  1.00  0.00     0.029 A 
ATOM     21  N   UNL A   1      40.217  29.281  30.052  1.00  0.00    -0.354 N 
ATOM     22  C   UNL A   1      43.302  27.820  32.696  1.00  0.00     0.074 A 
ATOM     23  C   UNL A   1      44.164  26.876  32.019  1.00  0.00     0.031 C 
ATOM     24  C   UNL A   1      39.139  29.501  28.108  1.00  0.00     0.029 A 
ATOM     25  C   UNL A   1      39.148  29.939  29.498  1.00  0.00     0.049 A 
ATOM     26  H   UNL A   1      40.516  29.422  30.979  1.00  0.00     0.167 HD
ATOM     27  C   UNL A   1      43.485  28.243  33.968  1.00  0.00     0.037 A 
ATOM     28  C   UNL A   1      38.251  30.774  30.055  1.00  0.00     0.037 A 
ATOM     29  C   UNL A   1      42.625  29.177  34.641  1.00  0.00     0.049 A 
ATOM     30  C   UNL A   1      38.407  31.148  31.500  1.00  0.00     0.074 A 
ATOM     31  C   UNL A   1      42.710  29.658  35.935  1.00  0.00     0.029 A 
ATOM     32  N   UNL A   1      41.510  29.770  34.064  1.00  0.00    -0.354 N 
ATOM     33  N   UNL A   1      39.340  30.785  32.345  1.00  0.00    -0.248 NA
ATOM     34  C   UNL A   1      37.392  32.046  32.067  1.00  0.00     0.031 C 
ATOM     35  C   UNL A   1      41.628  30.518  36.152  1.00  0.00     0.029 A 
ATOM     36  C   UNL A   1      40.886  30.595  34.983  1.00  0.00     0.049 A 
ATOM     37  H   UNL A   1      41.208  29.624  33.139  1.00  0.00     0.167 HD
ATOM     38  C   UNL A   1      39.036  31.417  33.542  1.00  0.00     0.074 A 
ATOM     39  C   UNL A   1      37.836  32.198  33.308  1.00  0.00     0.031 C 
ATOM     40  C   UNL A   1      39.692  31.359  34.725  1.00  0.00     0.037 A 
BRANCH  27  41
ATOM     41  C   UNL A   1      44.650  27.658  34.706  1.00  0.00     0.057 A 
ATOM     42  C   UNL A   1      45.915  28.260  34.682  1.00  0.00     0.134 A 
ATOM     43  C   UNL A   1      44.517  26.455  35.409  1.00  0.00     0.134 A 
ATOM     44  F   UNL A   1      46.112  29.400  34.002  1.00  0.00    -0.206 F 
ATOM     45  C   UNL A   1      47.014  27.670  35.308  1.00  0.00     0.040 A 
ATOM     46  C   UNL A   1      45.604  25.864  36.053  1.00  0.00     0.040 A 
ATOM     47  F   UNL A   1      43.333  25.826  35.463  1.00  0.00    -0.206 F 
ATOM     48  C   UNL A   1      46.859  26.468  35.996  1.00  0.00     0.006 A 
ENDBRANCH  27  41
BRANCH  28  49
ATOM     49  C   UNL A   1      37.106  31.263  29.249  1.00  0.00     0.057 A 
ATOM     50  C   UNL A   1      35.981  30.467  29.009  1.00  0.00     0.134 A 
ATOM     51  C   UNL A   1      37.107  32.559  28.718  1.00  0.00     0.134 A 
ATOM     52  F   UNL A   1      35.929  29.214  29.481  1.00  0.00    -0.206 F 
ATOM     53  C   UNL A   1      34.899  30.943  28.266  1.00  0.00     0.040 A 
ATOM     54  C   UNL A   1      36.025  33.054  27.989  1.00  0.00     0.040 A 
ATOM     55  F   UNL A   1      38.153  33.371  28.922  1.00  0.00    -0.206 F 
ATOM     56  C   UNL A   1      34.916  32.241  27.759  1.00  0.00     0.006 A 
ENDBRANCH  28  49
BRANCH  40  57
ATOM     57  C   UNL A   1      39.130  32.173  35.849  1.00  0.00     0.057 A 
ATOM     58  C   UNL A   1      38.247  31.618  36.783  1.00  0.00     0.134 A 
ATOM     59  C   UNL A   1      39.505  33.510  36.018  1.00  0.00     0.134 A 
ATOM     60  F   UNL A   1      37.840  30.346  36.662  1.00  0.00    -0.206 F 
ATOM     61  C   UNL A   1      37.747  32.372  37.844  1.00  0.00     0.040 A 
ATOM     62  C   UNL A   1      39.026  34.270  37.084  1.00  0.00     0.040 A 
ATOM     63  F   UNL A   1      40.351  34.095  35.155  1.00  0.00    -0.206 F 
ATOM     64  C   UNL A   1      38.141  33.700  38.000  1.00  0.00     0.006 A 
ENDBRANCH  40  57
ENDBRANCH  14  15
ENDBRANCH   7   9
ENDBRANCH   6   7
ENDBRANCH   5   6
ENDBRANCH   4   5
ENDBRANCH   3   4
ENDBRANCH   2   3
ENDBRANCH   1   2
BRANCH   1  65
ATOM     65  O   UNL A   1      40.608  19.980  26.702  1.00  0.00    -0.376 OA
BRANCH  65  66
ATOM     66  C   UNL A   1      40.388  21.346  27.048  1.00  0.00     0.202 C 
BRANCH  66  67
ATOM     67  C   UNL A   1      39.645  22.181  26.001  1.00  0.00     0.261 C 
BRANCH  67  68
ATOM     68  O   UNL A   1      38.205  22.138  26.103  1.00  0.00    -0.460 OA
BRANCH  68  69
ATOM     69  C   UNL A   1      37.600  21.229  25.302  1.00  0.00     0.341 C 
ATOM     70  O   UNL A   1      38.066  20.166  24.903  1.00  0.00    -0.246 OA
BRANCH  69  71
ATOM     71  C   UNL A   1      36.337  21.746  24.775  1.00  0.00     0.102 A 
ATOM     72  C   UNL A   1      36.401  22.994  24.139  1.00  0.00     0.022 A 
ATOM     73  C   UNL A   1      35.169  20.986  24.703  1.00  0.00     0.141 A 
ATOM     74  C   UNL A   1      35.301  23.460  23.430  1.00  0.00     0.034 A 
ATOM     75  N   UNL A   1      34.090  21.479  24.046  1.00  0.00    -0.226 NA
ATOM     76  C   UNL A   1      34.155  22.676  23.392  1.00  0.00     0.146 A 
BRANCH  73  77
ATOM     77  N   UNL A   1      35.035  19.750  25.314  1.00  0.00    -0.369 N 
ATOM     78  H   UNL A   1      34.812  19.700  26.272  1.00  0.00     0.162 HD
BRANCH  77  79
ATOM     79  C   UNL A   1      35.223  18.520  24.548  1.00  0.00     0.120 C 
BRANCH  79  80
ATOM     80  C   UNL A   1      34.037  17.533  24.614  1.00  0.00     0.036 C 
ATOM     81  C   UNL A   1      33.366  17.357  23.260  1.00  0.00     0.036 C 
ATOM     82  C   UNL A   1      32.849  17.991  25.437  1.00  0.00     0.165 C 
ATOM     83  C   UNL A   1      32.364  18.491  23.221  1.00  0.00     0.160 C 
ATOM     84  O   UNL A   1      32.117  18.887  24.581  1.00  0.00    -0.381 OA
ENDBRANCH  79  80
ENDBRANCH  77  79
ENDBRANCH  73  77
BRANCH  76  85
ATOM     85  C   UNL A   1      32.939  23.138  22.597  1.00  0.00     0.433 C 
ATOM     86  F   UNL A   1      31.979  22.174  22.485  1.00  0.00    -0.165 F 
ATOM     87  F   UNL A   1      32.322  24.224  23.136  1.00  0.00    -0.165 F 
ATOM     88  F   UNL A   1      33.248  23.484  21.310  1.00  0.00    -0.165 F 
ENDBRANCH  76  85
ENDBRANCH  69  71
ENDBRANCH  68  69
ENDBRANCH  67  68
ENDBRANCH  66  67
ENDBRANCH  65  66
ENDBRANCH   1  65
TORSDOF 21
ENDMDL
MODEL 2
REMARK VINA RESULT:     -10.4      1.716      2.664
REMARK SMILES O=C(OCCOCCOCCOC(=O)c1ccc(C(F)(F)F)nc1NC[C@@H]1CCOC1)c1ccc(-c2c3nc(c(-c4c(F)cccc4F)c4ccc([nH]4)c(-c4c(F)cccc4F)c4nc(c(-c5c(F)cccc5F)c5ccc2[nH]5)C=C4)C=C3)cc1
REMARK SMILES IDX 8 1 7 2 6 3 5 4 4 5 3 6 2 7 1 8 32 9 33 10 85 11 34 12 84 13
REMARK SMILES IDX 35 14 36 15 37 16 78 17 38 18 83 19 77 20 79 21 39 22 82 23
REMARK SMILES IDX 76 24 75 25 40 27 66 28 49 29 65 30 50 31 53 32 64 33 80 34
REMARK SMILES IDX 51 35 52 36 63 38 81 39 54 40 41 41 42 42 47 43 43 44 44 45
REMARK SMILES IDX 46 46 48 47 45 48 67 49 68 50 73 51 69 52 70 53 72 54 74 55
REMARK SMILES IDX 71 56 55 57 56 58 61 59 57 60 58 61 60 62 62 63 59 64 9 65
REMARK SMILES IDX 10 66 11 67 12 68 13 69 14 70 15 71 16 72 24 73 17 74 23 75
REMARK SMILES IDX 18 76 25 77 26 79 27 80 28 81 31 82 29 83 30 84 19 85 20 86
REMARK SMILES IDX 21 87 22 88
REMARK H PARENT 79 26 53 37 25 78
REMARK Flexibility Score: inf
ROOT
ATOM      1  C   UNL A   1      40.437  20.137  26.541  1.00  0.00     0.188 C 
ENDROOT
BRANCH   1   2
ATOM      2  C   UNL A   1      41.704  19.407  26.089  1.00  0.00     0.188 C 
BRANCH   2   3
ATOM      3  O   UNL A   1      42.876  20.158  26.427  1.00  0.00    -0.376 OA
BRANCH   3   4
ATOM      4  C   UNL A   1      43.779  20.325  25.335  1.00  0.00     0.202 C 
BRANCH   4   5
ATOM      5  C   UNL A   1      44.552  21.647  25.373  1.00  0.00     0.261 C 
BRANCH   5   6
ATOM      6  O   UNL A   1      43.663  22.776  25.355  1.00  0.00    -0.460 OA
BRANCH   6   7
ATOM      7  C   UNL A   1      43.991  24.092  25.381  1.00  0.00     0.338 C 
ATOM      8  O   UNL A   1      44.753  24.527  24.520  1.00  0.00    -0.246 OA
BRANCH   7   9
ATOM      9  C   UNL A   1      43.408  25.066  26.355  1.00  0.00     0.060 A 
ATOM     10  C   UNL A   1      43.750  26.417  26.434  1.00  0.00     0.016 A 
ATOM     11  C   UNL A   1      42.397  24.590  27.207  1.00  0.00     0.016 A 
ATOM     12  C   UNL A   1      43.216  27.237  27.428  1.00  0.00     0.010 A 
ATOM     13  C   UNL A   1      41.798  25.428  28.154  1.00  0.00     0.010 A 
ATOM     14  C   UNL A   1      42.244  26.746  28.304  1.00  0.00    -0.014 A 
BRANCH  14  15
ATOM     15  C   UNL A   1      41.773  27.596  29.421  1.00  0.00     0.031 A 
ATOM     16  C   UNL A   1      42.503  27.558  30.731  1.00  0.00     0.074 A 
ATOM     17  C   UNL A   1      40.755  28.456  29.241  1.00  0.00     0.049 A 
ATOM     18  N   UNL A   1      42.254  28.210  31.837  1.00  0.00    -0.248 NA
ATOM     19  C   UNL A   1      43.683  26.682  30.800  1.00  0.00     0.031 C 
ATOM     20  C   UNL A   1      40.020  28.638  27.989  1.00  0.00     0.029 A 
ATOM     21  N   UNL A   1      40.172  29.345  30.106  1.00  0.00    -0.354 N 
ATOM     22  C   UNL A   1      43.244  27.823  32.731  1.00  0.00     0.074 A 
ATOM     23  C   UNL A   1      44.077  26.857  32.052  1.00  0.00     0.031 C 
ATOM     24  C   UNL A   1      39.084  29.583  28.170  1.00  0.00     0.029 A 
ATOM     25  C   UNL A   1      39.113  30.025  29.558  1.00  0.00     0.049 A 
ATOM     26  H   UNL A   1      40.482  29.482  31.030  1.00  0.00     0.167 HD
ATOM     27  C   UNL A   1      43.446  28.247  34.000  1.00  0.00     0.037 A 
ATOM     28  C   UNL A   1      38.241  30.883  30.118  1.00  0.00     0.037 A 
ATOM     29  C   UNL A   1      42.614  29.204  34.675  1.00  0.00     0.049 A 
ATOM     30  C   UNL A   1      38.417  31.260  31.560  1.00  0.00     0.074 A 
ATOM     31  C   UNL A   1      42.721  29.687  35.967  1.00  0.00     0.029 A 
ATOM     32  N   UNL A   1      41.508  29.819  34.105  1.00  0.00    -0.354 N 
ATOM     33  N   UNL A   1      39.349  30.878  32.399  1.00  0.00    -0.248 NA
ATOM     34  C   UNL A   1      37.428  32.182  32.132  1.00  0.00     0.031 C 
ATOM     35  C   UNL A   1      41.660  30.573  36.189  1.00  0.00     0.029 A 
ATOM     36  C   UNL A   1      40.911  30.663  35.025  1.00  0.00     0.049 A 
ATOM     37  H   UNL A   1      41.196  29.677  33.183  1.00  0.00     0.167 HD
ATOM     38  C   UNL A   1      39.069  31.522  33.596  1.00  0.00     0.074 A 
ATOM     39  C   UNL A   1      37.886  32.329  33.368  1.00  0.00     0.031 C 
ATOM     40  C   UNL A   1      39.733  31.453  34.774  1.00  0.00     0.037 A 
BRANCH  27  41
ATOM     41  C   UNL A   1      44.603  27.638  34.731  1.00  0.00     0.057 A 
ATOM     42  C   UNL A   1      45.882  28.210  34.694  1.00  0.00     0.134 A 
ATOM     43  C   UNL A   1      44.448  26.441  35.439  1.00  0.00     0.134 A 
ATOM     44  F   UNL A   1      46.100  29.343  34.009  1.00  0.00    -0.206 F 
ATOM     45  C   UNL A   1      46.972  27.597  35.314  1.00  0.00     0.040 A 
ATOM     46  C   UNL A   1      45.526  25.827  36.077  1.00  0.00     0.040 A 
ATOM     47  F   UNL A   1      43.250  25.840  35.505  1.00  0.00    -0.206 F 
ATOM     48  C   UNL A   1      46.795  26.402  36.008  1.00  0.00     0.006 A 
ENDBRANCH  27  41
BRANCH  28  49
ATOM     49  C   UNL A   1      37.101  31.395  29.320  1.00  0.00     0.057 A 
ATOM     50  C   UNL A   1      37.109  32.677  28.762  1.00  0.00     0.134 A 
ATOM     51  C   UNL A   1      35.980  30.591  29.078  1.00  0.00     0.134 A 
ATOM     52  F   UNL A   1      38.148  33.497  28.970  1.00  0.00    -0.206 F 
ATOM     53  C   UNL A   1      36.039  33.143  27.994  1.00  0.00     0.040 A 
ATOM     54  C   UNL A   1      34.912  31.036  28.297  1.00  0.00     0.040 A 
ATOM     55  F   UNL A   1      35.919  29.349  29.579  1.00  0.00    -0.206 F 
ATOM     56  C   UNL A   1      34.940  32.319  27.755  1.00  0.00     0.006 A 
ENDBRANCH  28  49
BRANCH  40  57
ATOM     57  C   UNL A   1      39.199  32.284  35.899  1.00  0.00     0.057 A 
ATOM     58  C   UNL A   1      38.272  31.769  36.813  1.00  0.00     0.134 A 
ATOM     59  C   UNL A   1      39.645  33.597  36.090  1.00  0.00     0.134 A 
ATOM     60  F   UNL A   1      37.798  30.523  36.670  1.00  0.00    -0.206 F 
ATOM     61  C   UNL A   1      37.798  32.538  37.875  1.00  0.00     0.040 A 
ATOM     62  C   UNL A   1      39.191  34.370  37.158  1.00  0.00     0.040 A 
ATOM     63  F   UNL A   1      40.535  34.144  35.247  1.00  0.00    -0.206 F 
ATOM     64  C   UNL A   1      38.262  33.840  38.053  1.00  0.00     0.006 A 
ENDBRANCH  40  57
ENDBRANCH  14  15
ENDBRANCH   7   9
ENDBRANCH   6   7
ENDBRANCH   5   6
ENDBRANCH   4   5
ENDBRANCH   3   4
ENDBRANCH   2   3
ENDBRANCH   1   2
BRANCH   1  65
ATOM     65  O   UNL A   1      40.184  21.352  25.834  1.00  0.00    -0.376 OA
BRANCH  65  66
ATOM     66  C   UNL A   1      39.497  22.372  26.556  1.00  0.00     0.202 C 
BRANCH  66  67
ATOM     67  C   UNL A   1      38.154  22.810  25.964  1.00  0.00     0.261 C 
BRANCH  67  68
ATOM     68  O   UNL A   1      37.386  21.750  25.355  1.00  0.00    -0.460 OA
BRANCH  68  69
ATOM     69  C   UNL A   1      36.080  21.710  25.710  1.00  0.00     0.341 C 
ATOM     70  O   UNL A   1      35.527  22.380  26.577  1.00  0.00    -0.246 OA
BRANCH  69  71
ATOM     71  C   UNL A   1      35.387  20.601  25.056  1.00  0.00     0.102 A 
ATOM     72  C   UNL A   1      36.139  19.435  24.862  1.00  0.00     0.022 A 
ATOM     73  C   UNL A   1      34.012  20.591  24.817  1.00  0.00     0.141 A 
ATOM     74  C   UNL A   1      35.506  18.271  24.444  1.00  0.00     0.034 A 
ATOM     75  N   UNL A   1      33.420  19.459  24.363  1.00  0.00    -0.226 NA
ATOM     76  C   UNL A   1      34.138  18.307  24.207  1.00  0.00     0.146 A 
BRANCH  73  77
ATOM     77  N   UNL A   1      33.210  21.710  24.979  1.00  0.00    -0.369 N 
ATOM     78  H   UNL A   1      33.366  22.508  24.424  1.00  0.00     0.162 HD
BRANCH  77  79
ATOM     79  C   UNL A   1      32.136  21.714  25.970  1.00  0.00     0.120 C 
BRANCH  79  80
ATOM     80  C   UNL A   1      30.932  22.612  25.611  1.00  0.00     0.036 C 
ATOM     81  C   UNL A   1      31.362  23.883  24.893  1.00  0.00     0.036 C 
ATOM     82  C   UNL A   1      30.191  23.214  26.789  1.00  0.00     0.165 C 
ATOM     83  C   UNL A   1      31.676  24.832  26.030  1.00  0.00     0.160 C 
ATOM     84  O   UNL A   1      30.978  24.350  27.191  1.00  0.00    -0.381 OA
ENDBRANCH  79  80
ENDBRANCH  77  79
ENDBRANCH  73  77
BRANCH  76  85
ATOM     85  C   UNL A   1      33.401  17.043  23.779  1.00  0.00     0.433 C 
ATOM     86  F   UNL A   1      32.586  17.240  22.703  1.00  0.00    -0.165 F 
ATOM     87  F   UNL A   1      34.234  16.022  23.440  1.00  0.00    -0.165 F 
ATOM     88  F   UNL A   1      32.585  16.549  24.759  1.00  0.00    -0.165 F 
ENDBRANCH  76  85
ENDBRANCH  69  71
ENDBRANCH  68  69
ENDBRANCH  67  68
ENDBRANCH  66  67
ENDBRANCH  65  66
ENDBRANCH   1  65
TORSDOF 21
ENDMDL
MODEL 3
REMARK VINA RESULT:     -10.3      4.643      7.098
REMARK SMILES O=C(OCCOCCOCCOC(=O)c1ccc(C(F)(F)F)nc1NC[C@@H]1CCOC1)c1ccc(-c2c3nc(c(-c4c(F)cccc4F)c4ccc([nH]4)c(-c4c(F)cccc4F)c4nc(c(-c5c(F)cccc5F)c5ccc2[nH]5)C=C4)C=C3)cc1
REMARK SMILES IDX 8 1 7 2 6 3 5 4 4 5 3 6 2 7 1 8 32 9 33 10 85 11 34 12 84 13
REMARK SMILES IDX 35 14 36 15 37 16 78 17 38 18 83 19 77 20 79 21 39 22 82 23
REMARK SMILES IDX 76 24 75 25 40 27 66 28 49 29 65 30 50 31 53 32 64 33 80 34
REMARK SMILES IDX 51 35 52 36 63 38 81 39 54 40 41 41 42 42 47 43 43 44 44 45
REMARK SMILES IDX 46 46 48 47 45 48 67 49 68 50 73 51 69 52 70 53 72 54 74 55
REMARK SMILES IDX 71 56 55 57 56 58 61 59 57 60 58 61 60 62 62 63 59 64 9 65
REMARK SMILES IDX 10 66 11 67 12 68 13 69 14 70 15 71 16 72 24 73 17 74 23 75
REMARK SMILES IDX 18 76 25 77 26 79 27 80 28 81 31 82 29 83 30 84 19 85 20 86
REMARK SMILES IDX 21 87 22 88
REMARK H PARENT 79 26 53 37 25 78
REMARK Flexibility Score: inf
ROOT
ATOM      1  C   UNL A   1      35.616  22.846  24.509  1.00  0.00     0.188 C 
ENDROOT
BRANCH   1   2
ATOM      2  C   UNL A   1      36.713  21.804  24.279  1.00  0.00     0.188 C 
BRANCH   2   3
ATOM      3  O   UNL A   1      36.363  20.551  24.878  1.00  0.00    -0.376 OA
BRANCH   3   4
ATOM      4  C   UNL A   1      37.456  19.638  24.969  1.00  0.00     0.202 C 
BRANCH   4   5
ATOM      5  C   UNL A   1      38.754  20.283  25.464  1.00  0.00     0.261 C 
BRANCH   5   6
ATOM      6  O   UNL A   1      39.790  19.304  25.651  1.00  0.00    -0.460 OA
BRANCH   6   7
ATOM      7  C   UNL A   1      41.075  19.515  26.031  1.00  0.00     0.338 C 
ATOM      8  O   UNL A   1      41.903  18.629  25.826  1.00  0.00    -0.246 OA
BRANCH   7   9
ATOM      9  C   UNL A   1      41.560  20.804  26.611  1.00  0.00     0.060 A 
ATOM     10  C   UNL A   1      41.631  21.089  27.976  1.00  0.00     0.016 A 
ATOM     11  C   UNL A   1      42.037  21.772  25.709  1.00  0.00     0.016 A 
ATOM     12  C   UNL A   1      42.021  22.350  28.428  1.00  0.00     0.010 A 
ATOM     13  C   UNL A   1      42.506  23.010  26.162  1.00  0.00     0.010 A 
ATOM     14  C   UNL A   1      42.450  23.325  27.524  1.00  0.00    -0.014 A 
BRANCH  14  15
ATOM     15  C   UNL A   1      42.751  24.690  28.012  1.00  0.00     0.031 A 
ATOM     16  C   UNL A   1      44.176  25.083  28.263  1.00  0.00     0.074 A 
ATOM     17  C   UNL A   1      41.767  25.596  28.149  1.00  0.00     0.049 A 
ATOM     18  N   UNL A   1      44.658  26.218  28.700  1.00  0.00    -0.248 NA
ATOM     19  C   UNL A   1      45.199  24.068  27.967  1.00  0.00     0.031 C 
ATOM     20  C   UNL A   1      40.353  25.354  27.859  1.00  0.00     0.029 A 
ATOM     21  N   UNL A   1      41.807  26.905  28.553  1.00  0.00    -0.354 N 
ATOM     22  C   UNL A   1      46.036  26.053  28.730  1.00  0.00     0.074 A 
ATOM     23  C   UNL A   1      46.313  24.701  28.301  1.00  0.00     0.031 C 
ATOM     24  C   UNL A   1      39.663  26.480  28.094  1.00  0.00     0.029 A 
ATOM     25  C   UNL A   1      40.571  27.498  28.607  1.00  0.00     0.049 A 
ATOM     26  H   UNL A   1      42.641  27.375  28.782  1.00  0.00     0.167 HD
ATOM     27  C   UNL A   1      46.986  26.954  29.073  1.00  0.00     0.037 A 
ATOM     28  C   UNL A   1      40.202  28.714  29.053  1.00  0.00     0.037 A 
ATOM     29  C   UNL A   1      46.709  28.296  29.504  1.00  0.00     0.049 A 
ATOM     30  C   UNL A   1      41.261  29.663  29.532  1.00  0.00     0.074 A 
ATOM     31  C   UNL A   1      47.596  29.283  29.892  1.00  0.00     0.029 A 
ATOM     32  N   UNL A   1      45.434  28.837  29.611  1.00  0.00    -0.354 N 
ATOM     33  N   UNL A   1      42.560  29.493  29.568  1.00  0.00    -0.248 NA
ATOM     34  C   UNL A   1      40.808  30.969  30.027  1.00  0.00     0.031 C 
ATOM     35  C   UNL A   1      46.857  30.413  30.263  1.00  0.00     0.029 A 
ATOM     36  C   UNL A   1      45.510  30.137  30.078  1.00  0.00     0.049 A 
ATOM     37  H   UNL A   1      44.600  28.365  29.387  1.00  0.00     0.167 HD
ATOM     38  C   UNL A   1      43.083  30.671  30.078  1.00  0.00     0.074 A 
ATOM     39  C   UNL A   1      41.960  31.554  30.325  1.00  0.00     0.031 C 
ATOM     40  C   UNL A   1      44.377  30.994  30.318  1.00  0.00     0.037 A 
BRANCH  27  41
ATOM     41  C   UNL A   1      48.406  26.482  29.018  1.00  0.00     0.057 A 
ATOM     42  C   UNL A   1      49.018  25.857  30.113  1.00  0.00     0.134 A 
ATOM     43  C   UNL A   1      49.185  26.697  27.875  1.00  0.00     0.134 A 
ATOM     44  F   UNL A   1      48.331  25.648  31.247  1.00  0.00    -0.206 F 
ATOM     45  C   UNL A   1      50.363  25.488  30.083  1.00  0.00     0.040 A 
ATOM     46  C   UNL A   1      50.526  26.317  27.827  1.00  0.00     0.040 A 
ATOM     47  F   UNL A   1      48.659  27.297  26.796  1.00  0.00    -0.206 F 
ATOM     48  C   UNL A   1      51.121  25.718  28.937  1.00  0.00     0.006 A 
ENDBRANCH  27  41
BRANCH  28  49
ATOM     49  C   UNL A   1      38.763  29.068  29.110  1.00  0.00     0.057 A 
ATOM     50  C   UNL A   1      38.022  28.953  30.290  1.00  0.00     0.134 A 
ATOM     51  C   UNL A   1      38.102  29.556  27.976  1.00  0.00     0.134 A 
ATOM     52  F   UNL A   1      38.598  28.479  31.404  1.00  0.00    -0.206 F 
ATOM     53  C   UNL A   1      36.673  29.307  30.339  1.00  0.00     0.040 A 
ATOM     54  C   UNL A   1      36.758  29.932  28.015  1.00  0.00     0.040 A 
ATOM     55  F   UNL A   1      38.762  29.697  26.818  1.00  0.00    -0.206 F 
ATOM     56  C   UNL A   1      36.039  29.805  29.201  1.00  0.00     0.006 A 
ENDBRANCH  28  49
BRANCH  40  57
ATOM     57  C   UNL A   1      44.642  32.363  30.860  1.00  0.00     0.057 A 
ATOM     58  C   UNL A   1      44.724  32.600  32.238  1.00  0.00     0.134 A 
ATOM     59  C   UNL A   1      44.853  33.444  29.998  1.00  0.00     0.134 A 
ATOM     60  F   UNL A   1      44.514  31.605  33.112  1.00  0.00    -0.206 F 
ATOM     61  C   UNL A   1      44.997  33.872  32.739  1.00  0.00     0.040 A 
ATOM     62  C   UNL A   1      45.144  34.717  30.486  1.00  0.00     0.040 A 
ATOM     63  F   UNL A   1      44.789  33.277  28.668  1.00  0.00    -0.206 F 
ATOM     64  C   UNL A   1      45.214  34.934  31.862  1.00  0.00     0.006 A 
ENDBRANCH  40  57
ENDBRANCH  14  15
ENDBRANCH   7   9
ENDBRANCH   6   7
ENDBRANCH   5   6
ENDBRANCH   4   5
ENDBRANCH   3   4
ENDBRANCH   2   3
ENDBRANCH   1   2
BRANCH   1  65
ATOM     65  O   UNL A   1      35.157  23.479  23.314  1.00  0.00    -0.376 OA
BRANCH  65  66
ATOM     66  C   UNL A   1      33.916  23.013  22.788  1.00  0.00     0.202 C 
BRANCH  66  67
ATOM     67  C   UNL A   1      33.259  23.921  21.743  1.00  0.00     0.261 C 
BRANCH  67  68
ATOM     68  O   UNL A   1      33.407  25.335  21.991  1.00  0.00    -0.460 OA
BRANCH  68  69
ATOM     69  C   UNL A   1      32.246  26.029  22.067  1.00  0.00     0.341 C 
ATOM     70  O   UNL A   1      31.493  26.318  21.142  1.00  0.00    -0.246 OA
BRANCH  69  71
ATOM     71  C   UNL A   1      32.055  26.596  23.402  1.00  0.00     0.102 A 
ATOM     72  C   UNL A   1      33.036  26.277  24.351  1.00  0.00     0.022 A 
ATOM     73  C   UNL A   1      31.091  27.562  23.692  1.00  0.00     0.141 A 
ATOM     74  C   UNL A   1      33.047  26.937  25.573  1.00  0.00     0.034 A 
ATOM     75  N   UNL A   1      31.090  28.160  24.909  1.00  0.00    -0.226 NA
ATOM     76  C   UNL A   1      32.063  27.884  25.826  1.00  0.00     0.146 A 
BRANCH  73  77
ATOM     77  N   UNL A   1      30.089  27.919  22.804  1.00  0.00    -0.369 N 
ATOM     78  H   UNL A   1      29.455  27.238  22.483  1.00  0.00     0.162 HD
BRANCH  77  79
ATOM     79  C   UNL A   1      29.968  29.299  22.339  1.00  0.00     0.120 C 
BRANCH  79  80
ATOM     80  C   UNL A   1      28.536  29.722  21.945  1.00  0.00     0.036 C 
ATOM     81  C   UNL A   1      28.502  31.108  21.318  1.00  0.00     0.036 C 
ATOM     82  C   UNL A   1      27.575  29.933  23.098  1.00  0.00     0.165 C 
ATOM     83  C   UNL A   1      28.398  32.026  22.517  1.00  0.00     0.160 C 
ATOM     84  O   UNL A   1      27.874  31.247  23.606  1.00  0.00    -0.381 OA
ENDBRANCH  79  80
ENDBRANCH  77  79
ENDBRANCH  73  77
BRANCH  76  85
ATOM     85  C   UNL A   1      32.062  28.653  27.143  1.00  0.00     0.433 C 
ATOM     86  F   UNL A   1      31.160  28.165  28.044  1.00  0.00    -0.165 F 
ATOM     87  F   UNL A   1      33.267  28.645  27.773  1.00  0.00    -0.165 F 
ATOM     88  F   UNL A   1      31.731  29.971  26.986  1.00  0.00    -0.165 F 
ENDBRANCH  76  85
ENDBRANCH  69  71
ENDBRANCH  68  69
ENDBRANCH  67  68
ENDBRANCH  66  67
ENDBRANCH  65  66
ENDBRANCH   1  65
TORSDOF 21
ENDMDL
