MODEL 1
REMARK VINA RESULT:     -11.0      0.000      0.000
REMARK SMILES COc1ccc(-c2nn(-c3ccccc3)cc2/C=C2\SC(=S)N(CCC(=O)OCCOCCOCCOC(=O)c3ccc(-c4c5nc(c(-c6c(F)cccc6F)c6ccc([nH]6)c(-c6c(F)cccc6F)c6nc(c(-c7c(F)cccc7F)c7ccc4[nH]7)C=C6)C=C5)cc3)C2=O)c(C)c1
REMARK SMILES IDX 31 1 30 2 29 3 28 4 26 5 27 6 25 7 24 8 23 9 18 10 19 11
REMARK SMILES IDX 20 12 94 13 21 14 95 15 22 16 17 17 7 18 8 19 9 20 16 21
REMARK SMILES IDX 6 22 3 23 4 24 98 25 5 26 96 27 97 28 2 29 1 30 10 31 11 32
REMARK SMILES IDX 15 33 12 34 14 35 13 36 32 37 33 38 34 39 35 40 36 41 37 42
REMARK SMILES IDX 38 43 39 44 40 45 41 46 93 47 42 48 92 49 43 50 44 51 45 52
REMARK SMILES IDX 86 53 46 54 91 55 85 56 87 57 47 58 90 59 84 60 83 61 48 63
REMARK SMILES IDX 74 64 57 65 73 66 58 67 61 68 72 69 88 70 59 71 60 72 71 74
REMARK SMILES IDX 89 75 62 76 49 77 50 78 55 79 51 80 52 81 54 82 56 83 53 84
REMARK SMILES IDX 75 85 76 86 81 87 77 88 78 89 80 90 82 91 79 92 63 93 64 94
REMARK SMILES IDX 69 95 65 96 66 97 68 98 70 99 67 100
REMARK H PARENT 87 62 61 73
REMARK Flexibility Score: inf
ROOT
ATOM      1  O   UNL A   1      36.113  23.412  26.099  1.00  0.00    -0.376 OA
ENDROOT
BRANCH   1   2
ATOM      2  C   UNL A   1      35.641  22.092  26.456  1.00  0.00     0.202 C 
BRANCH   2   3
ATOM      3  C   UNL A   1      35.599  21.030  25.274  1.00  0.00     0.261 C 
BRANCH   3   4
ATOM      4  O   UNL A   1      34.289  20.101  24.700  1.00  0.00    -0.463 OA
BRANCH   4   5
ATOM      5  C   UNL A   1      32.921  20.314  24.363  1.00  0.00     0.307 C 
ATOM      6  O   UNL A   1      32.286  19.861  23.414  1.00  0.00    -0.252 OA
BRANCH   5   7
ATOM      7  C   UNL A   1      32.040  21.303  25.046  1.00  0.00     0.144 C 
BRANCH   7   8
ATOM      8  C   UNL A   1      31.579  22.485  24.250  1.00  0.00     0.139 C 
BRANCH   8   9
ATOM      9  N   UNL A   1      31.901  23.620  25.073  1.00  0.00    -0.292 N 
ATOM     10  C   UNL A   1      32.999  26.888  24.217  1.00  0.00     0.033 C 
ATOM     11  C   UNL A   1      32.468  25.846  24.875  1.00  0.00     0.081 C 
ATOM     12  S   UNL A   1      31.333  25.854  26.174  1.00  0.00    -0.054 SA
ATOM     13  C   UNL A   1      32.853  24.468  24.549  1.00  0.00     0.266 C 
ATOM     14  C   UNL A   1      31.034  24.133  26.022  1.00  0.00     0.148 C 
ATOM     15  O   UNL A   1      33.812  24.160  23.856  1.00  0.00    -0.268 OA
ATOM     16  S   UNL A   1      29.800  23.347  26.825  1.00  0.00    -0.052 S 
BRANCH  10  17
ATOM     17  C   UNL A   1      33.006  28.165  24.804  1.00  0.00     0.022 A 
ATOM     18  C   UNL A   1      32.157  29.286  24.922  1.00  0.00     0.100 A 
ATOM     19  N   UNL A   1      32.631  30.093  25.903  1.00  0.00    -0.167 NA
ATOM     20  N   UNL A   1      33.865  29.608  26.181  1.00  0.00    -0.240 N 
ATOM     21  C   UNL A   1      34.153  28.495  25.465  1.00  0.00     0.123 A 
BRANCH  18  22
ATOM     22  C   UNL A   1      30.977  29.653  24.128  1.00  0.00     0.006 A 
ATOM     23  C   UNL A   1      28.695  30.375  22.617  1.00  0.00     0.119 A 
ATOM     24  C   UNL A   1      29.448  29.260  22.259  1.00  0.00     0.047 A 
ATOM     25  C   UNL A   1      29.103  31.155  23.693  1.00  0.00     0.050 A 
ATOM     26  C   UNL A   1      30.578  28.893  23.015  1.00  0.00     0.014 A 
ATOM     27  C   UNL A   1      30.240  30.817  24.451  1.00  0.00    -0.038 A 
ATOM     28  C   UNL A   1      30.583  31.722  25.604  1.00  0.00     0.045 C 
BRANCH  23  29
ATOM     29  O   UNL A   1      27.596  30.831  21.945  1.00  0.00    -0.497 OA
ATOM     30  C   UNL A   1      27.883  31.485  20.713  1.00  0.00     0.278 C 
ENDBRANCH  23  29
ENDBRANCH  18  22
BRANCH  20  31
ATOM     31  C   UNL A   1      34.726  30.044  27.203  1.00  0.00     0.065 A 
ATOM     32  C   UNL A   1      34.442  31.215  27.898  1.00  0.00     0.028 A 
ATOM     33  C   UNL A   1      35.718  29.153  27.654  1.00  0.00     0.028 A 
ATOM     34  C   UNL A   1      35.131  31.462  29.087  1.00  0.00     0.002 A 
ATOM     35  C   UNL A   1      36.422  29.427  28.817  1.00  0.00     0.002 A 
ATOM     36  C   UNL A   1      36.116  30.575  29.541  1.00  0.00     0.000 A 
ENDBRANCH  20  31
ENDBRANCH  10  17
ENDBRANCH   8   9
ENDBRANCH   7   8
ENDBRANCH   5   7
ENDBRANCH   4   5
ENDBRANCH   3   4
ENDBRANCH   2   3
ENDBRANCH   1   2
BRANCH   1  37
ATOM     37  C   UNL A   1      37.472  23.703  25.728  1.00  0.00     0.188 C 
BRANCH  37  38
ATOM     38  C   UNL A   1      38.583  22.709  26.043  1.00  0.00     0.188 C 
BRANCH  38  39
ATOM     39  O   UNL A   1      39.385  23.282  27.056  1.00  0.00    -0.376 OA
BRANCH  39  40
ATOM     40  C   UNL A   1      40.784  23.237  26.874  1.00  0.00     0.202 C 
BRANCH  40  41
ATOM     41  C   UNL A   1      41.190  22.002  26.053  1.00  0.00     0.261 C 
BRANCH  41  42
ATOM     42  O   UNL A   1      42.640  21.910  25.956  1.00  0.00    -0.460 OA
BRANCH  42  43
ATOM     43  C   UNL A   1      43.303  22.809  25.156  1.00  0.00     0.338 C 
ATOM     44  O   UNL A   1      43.432  22.699  23.943  1.00  0.00    -0.246 OA
BRANCH  43  45
ATOM     45  C   UNL A   1      44.066  23.809  25.994  1.00  0.00     0.060 A 
ATOM     46  C   UNL A   1      44.465  23.679  27.339  1.00  0.00     0.016 A 
ATOM     47  C   UNL A   1      44.011  25.079  25.535  1.00  0.00     0.016 A 
ATOM     48  C   UNL A   1      44.637  24.844  28.219  1.00  0.00     0.010 A 
ATOM     49  C   UNL A   1      43.857  26.060  26.506  1.00  0.00     0.010 A 
ATOM     50  C   UNL A   1      44.241  26.127  27.845  1.00  0.00    -0.014 A 
BRANCH  50  51
ATOM     51  C   UNL A   1      44.027  27.474  28.723  1.00  0.00     0.031 A 
ATOM     52  C   UNL A   1      42.649  28.300  29.237  1.00  0.00     0.074 A 
ATOM     53  C   UNL A   1      45.172  28.002  29.189  1.00  0.00     0.049 A 
ATOM     54  N   UNL A   1      42.260  29.523  28.915  1.00  0.00    -0.248 NA
ATOM     55  C   UNL A   1      41.578  27.784  30.151  1.00  0.00     0.031 C 
ATOM     56  C   UNL A   1      45.335  29.035  30.198  1.00  0.00     0.029 A 
ATOM     57  N   UNL A   1      46.462  27.781  28.696  1.00  0.00    -0.354 N 
ATOM     58  C   UNL A   1      41.055  29.787  29.643  1.00  0.00     0.074 A 
ATOM     59  C   UNL A   1      40.505  28.533  29.975  1.00  0.00     0.031 C 
ATOM     60  C   UNL A   1      46.554  29.580  30.036  1.00  0.00     0.029 A 
ATOM     61  C   UNL A   1      47.116  29.017  28.817  1.00  0.00     0.049 A 
ATOM     62  H   UNL A   1      46.832  26.940  28.342  1.00  0.00     0.167 HD
ATOM     63  C   UNL A   1      40.835  30.845  30.499  1.00  0.00     0.037 A 
ATOM     64  C   UNL A   1      47.468  29.713  27.697  1.00  0.00     0.037 A 
ATOM     65  C   UNL A   1      42.063  31.573  30.627  1.00  0.00     0.049 A 
ATOM     66  C   UNL A   1      46.852  31.094  27.634  1.00  0.00     0.074 A 
ATOM     67  C   UNL A   1      43.062  31.601  31.585  1.00  0.00     0.029 A 
ATOM     68  N   UNL A   1      42.560  32.162  29.499  1.00  0.00    -0.354 N 
ATOM     69  N   UNL A   1      45.856  31.482  28.379  1.00  0.00    -0.248 NA
ATOM     70  C   UNL A   1      47.302  32.152  26.736  1.00  0.00     0.031 C 
ATOM     71  C   UNL A   1      44.177  32.262  31.012  1.00  0.00     0.029 A 
ATOM     72  C   UNL A   1      43.830  32.619  29.724  1.00  0.00     0.049 A 
ATOM     73  H   UNL A   1      42.074  32.246  28.647  1.00  0.00     0.167 HD
ATOM     74  C   UNL A   1      45.507  32.771  28.068  1.00  0.00     0.074 A 
ATOM     75  C   UNL A   1      46.467  33.158  27.058  1.00  0.00     0.031 C 
ATOM     76  C   UNL A   1      44.432  33.375  28.651  1.00  0.00     0.037 A 
BRANCH  63  77
ATOM     77  C   UNL A   1      39.698  30.971  31.546  1.00  0.00     0.057 A 
ATOM     78  C   UNL A   1      38.669  31.922  31.383  1.00  0.00     0.134 A 
ATOM     79  C   UNL A   1      39.568  30.223  32.737  1.00  0.00     0.134 A 
ATOM     80  F   UNL A   1      38.522  32.604  30.241  1.00  0.00    -0.206 F 
ATOM     81  C   UNL A   1      37.730  32.232  32.385  1.00  0.00     0.040 A 
ATOM     82  C   UNL A   1      38.680  30.565  33.778  1.00  0.00     0.040 A 
ATOM     83  F   UNL A   1      40.275  29.101  32.944  1.00  0.00    -0.206 F 
ATOM     84  C   UNL A   1      37.771  31.596  33.613  1.00  0.00     0.006 A 
ENDBRANCH  63  77
BRANCH  64  85
ATOM     85  C   UNL A   1      47.820  28.837  26.535  1.00  0.00     0.057 A 
ATOM     86  C   UNL A   1      49.110  28.266  26.491  1.00  0.00     0.134 A 
ATOM     87  C   UNL A   1      46.867  28.280  25.677  1.00  0.00     0.134 A 
ATOM     88  F   UNL A   1      50.085  28.744  27.281  1.00  0.00    -0.206 F 
ATOM     89  C   UNL A   1      49.405  27.130  25.729  1.00  0.00     0.040 A 
ATOM     90  C   UNL A   1      47.162  27.158  24.880  1.00  0.00     0.040 A 
ATOM     91  F   UNL A   1      45.602  28.722  25.681  1.00  0.00    -0.206 F 
ATOM     92  C   UNL A   1      48.420  26.556  24.936  1.00  0.00     0.006 A 
ENDBRANCH  64  85
BRANCH  76  93
ATOM     93  C   UNL A   1      43.705  34.652  28.267  1.00  0.00     0.057 A 
ATOM     94  C   UNL A   1      43.568  35.765  29.099  1.00  0.00     0.134 A 
ATOM     95  C   UNL A   1      43.334  34.876  26.910  1.00  0.00     0.134 A 
ATOM     96  F   UNL A   1      43.937  35.733  30.384  1.00  0.00    -0.206 F 
ATOM     97  C   UNL A   1      43.104  37.001  28.624  1.00  0.00     0.040 A 
ATOM     98  C   UNL A   1      42.952  36.123  26.411  1.00  0.00     0.040 A 
ATOM     99  F   UNL A   1      43.374  33.899  25.990  1.00  0.00    -0.206 F 
ATOM    100  C   UNL A   1      42.826  37.194  27.275  1.00  0.00     0.006 A 
ENDBRANCH  76  93
ENDBRANCH  50  51
ENDBRANCH  43  45
ENDBRANCH  42  43
ENDBRANCH  41  42
ENDBRANCH  40  41
ENDBRANCH  39  40
ENDBRANCH  38  39
ENDBRANCH  37  38
ENDBRANCH   1  37
TORSDOF 23
ENDMDL
MODEL 2
REMARK VINA RESULT:     -10.8      1.274      3.456
REMARK SMILES COc1ccc(-c2nn(-c3ccccc3)cc2/C=C2\SC(=S)N(CCC(=O)OCCOCCOCCOC(=O)c3ccc(-c4c5nc(c(-c6c(F)cccc6F)c6ccc([nH]6)c(-c6c(F)cccc6F)c6nc(c(-c7c(F)cccc7F)c7ccc4[nH]7)C=C6)C=C5)cc3)C2=O)c(C)c1
REMARK SMILES IDX 31 1 30 2 29 3 28 4 26 5 27 6 25 7 24 8 23 9 18 10 19 11
REMARK SMILES IDX 20 12 94 13 21 14 95 15 22 16 17 17 7 18 8 19 9 20 16 21
REMARK SMILES IDX 6 22 3 23 4 24 98 25 5 26 96 27 97 28 2 29 1 30 10 31 11 32
REMARK SMILES IDX 15 33 12 34 14 35 13 36 32 37 33 38 34 39 35 40 36 41 37 42
REMARK SMILES IDX 38 43 39 44 40 45 41 46 93 47 42 48 92 49 43 50 44 51 45 52
REMARK SMILES IDX 86 53 46 54 91 55 85 56 87 57 47 58 90 59 84 60 83 61 48 63
REMARK SMILES IDX 74 64 57 65 73 66 58 67 61 68 72 69 88 70 59 71 60 72 71 74
REMARK SMILES IDX 89 75 62 76 49 77 50 78 55 79 51 80 52 81 54 82 56 83 53 84
REMARK SMILES IDX 75 85 76 86 81 87 77 88 78 89 80 90 82 91 79 92 63 93 64 94
REMARK SMILES IDX 69 95 65 96 66 97 68 98 70 99 67 100
REMARK H PARENT 87 62 61 73
REMARK Flexibility Score: inf
ROOT
ATOM      1  O   UNL A   1      35.847  23.187  26.100  1.00  0.00    -0.376 OA
ENDROOT
BRANCH   1   2
ATOM      2  C   UNL A   1      35.419  21.864  26.499  1.00  0.00     0.202 C 
BRANCH   2   3
ATOM      3  C   UNL A   1      35.487  20.746  25.372  1.00  0.00     0.261 C 
BRANCH   3   4
ATOM      4  O   UNL A   1      34.251  20.157  24.354  1.00  0.00    -0.463 OA
BRANCH   4   5
ATOM      5  C   UNL A   1      32.900  20.486  24.049  1.00  0.00     0.307 C 
ATOM      6  O   UNL A   1      32.207  20.090  23.115  1.00  0.00    -0.252 OA
BRANCH   5   7
ATOM      7  C   UNL A   1      32.122  21.548  24.749  1.00  0.00     0.144 C 
BRANCH   7   8
ATOM      8  C   UNL A   1      31.158  22.352  23.933  1.00  0.00     0.139 C 
BRANCH   8   9
ATOM      9  N   UNL A   1      31.295  23.693  24.436  1.00  0.00    -0.292 N 
ATOM     10  C   UNL A   1      30.917  26.840  22.831  1.00  0.00     0.033 C 
ATOM     11  C   UNL A   1      30.985  25.877  23.763  1.00  0.00     0.081 C 
ATOM     12  S   UNL A   1      30.337  25.874  25.362  1.00  0.00    -0.054 SA
ATOM     13  C   UNL A   1      31.707  24.625  23.509  1.00  0.00     0.266 C 
ATOM     14  C   UNL A   1      30.613  24.152  25.551  1.00  0.00     0.148 C 
ATOM     15  O   UNL A   1      32.473  24.443  22.574  1.00  0.00    -0.268 OA
ATOM     16  S   UNL A   1      30.006  23.266  26.827  1.00  0.00    -0.052 S 
BRANCH  10  17
ATOM     17  C   UNL A   1      30.655  28.169  23.205  1.00  0.00     0.022 A 
ATOM     18  C   UNL A   1      31.213  29.173  24.026  1.00  0.00     0.100 A 
ATOM     19  N   UNL A   1      30.652  30.364  23.703  1.00  0.00    -0.167 NA
ATOM     20  N   UNL A   1      29.605  30.046  22.904  1.00  0.00    -0.240 N 
ATOM     21  C   UNL A   1      29.531  28.716  22.660  1.00  0.00     0.123 A 
BRANCH  18  22
ATOM     22  C   UNL A   1      32.188  29.052  25.119  1.00  0.00     0.006 A 
ATOM     23  C   UNL A   1      34.082  28.809  27.207  1.00  0.00     0.119 A 
ATOM     24  C   UNL A   1      32.754  29.114  27.498  1.00  0.00     0.047 A 
ATOM     25  C   UNL A   1      34.474  28.672  25.881  1.00  0.00     0.050 A 
ATOM     26  C   UNL A   1      31.808  29.226  26.460  1.00  0.00     0.014 A 
ATOM     27  C   UNL A   1      33.549  28.800  24.828  1.00  0.00    -0.038 A 
ATOM     28  C   UNL A   1      34.079  28.618  23.431  1.00  0.00     0.045 C 
BRANCH  23  29
ATOM     29  O   UNL A   1      35.083  28.697  28.132  1.00  0.00    -0.497 OA
ATOM     30  C   UNL A   1      36.014  29.773  28.131  1.00  0.00     0.278 C 
ENDBRANCH  23  29
ENDBRANCH  18  22
BRANCH  20  31
ATOM     31  C   UNL A   1      28.765  30.946  22.226  1.00  0.00     0.065 A 
ATOM     32  C   UNL A   1      28.587  32.234  22.719  1.00  0.00     0.028 A 
ATOM     33  C   UNL A   1      28.322  30.592  20.938  1.00  0.00     0.028 A 
ATOM     34  C   UNL A   1      28.001  33.187  21.883  1.00  0.00     0.002 A 
ATOM     35  C   UNL A   1      27.709  31.537  20.129  1.00  0.00     0.002 A 
ATOM     36  C   UNL A   1      27.563  32.839  20.597  1.00  0.00     0.000 A 
ENDBRANCH  20  31
ENDBRANCH  10  17
ENDBRANCH   8   9
ENDBRANCH   7   8
ENDBRANCH   5   7
ENDBRANCH   4   5
ENDBRANCH   3   4
ENDBRANCH   2   3
ENDBRANCH   1   2
BRANCH   1  37
ATOM     37  C   UNL A   1      37.218  23.619  26.100  1.00  0.00     0.188 C 
BRANCH  37  38
ATOM     38  C   UNL A   1      38.328  22.649  25.710  1.00  0.00     0.188 C 
BRANCH  38  39
ATOM     39  O   UNL A   1      39.248  22.610  26.782  1.00  0.00    -0.376 OA
BRANCH  39  40
ATOM     40  C   UNL A   1      40.613  22.786  26.468  1.00  0.00     0.202 C 
BRANCH  40  41
ATOM     41  C   UNL A   1      41.288  21.434  26.183  1.00  0.00     0.261 C 
BRANCH  41  42
ATOM     42  O   UNL A   1      42.709  21.499  26.492  1.00  0.00    -0.460 OA
BRANCH  42  43
ATOM     43  C   UNL A   1      43.550  22.106  25.591  1.00  0.00     0.338 C 
ATOM     44  O   UNL A   1      43.828  21.656  24.486  1.00  0.00    -0.246 OA
BRANCH  43  45
ATOM     45  C   UNL A   1      44.282  23.260  26.235  1.00  0.00     0.060 A 
ATOM     46  C   UNL A   1      44.901  23.288  27.501  1.00  0.00     0.016 A 
ATOM     47  C   UNL A   1      43.974  24.472  25.723  1.00  0.00     0.016 A 
ATOM     48  C   UNL A   1      45.038  24.530  28.275  1.00  0.00     0.010 A 
ATOM     49  C   UNL A   1      43.833  25.495  26.652  1.00  0.00     0.010 A 
ATOM     50  C   UNL A   1      44.407  25.716  27.903  1.00  0.00    -0.014 A 
BRANCH  50  51
ATOM     51  C   UNL A   1      44.141  27.086  28.730  1.00  0.00     0.031 A 
ATOM     52  C   UNL A   1      42.733  27.905  29.167  1.00  0.00     0.074 A 
ATOM     53  C   UNL A   1      45.260  27.647  29.219  1.00  0.00     0.049 A 
ATOM     54  N   UNL A   1      42.337  29.111  28.793  1.00  0.00    -0.248 NA
ATOM     55  C   UNL A   1      41.638  27.401  30.058  1.00  0.00     0.031 C 
ATOM     56  C   UNL A   1      45.371  28.713  30.200  1.00  0.00     0.029 A 
ATOM     57  N   UNL A   1      46.571  27.432  28.781  1.00  0.00    -0.354 N 
ATOM     58  C   UNL A   1      41.103  29.378  29.468  1.00  0.00     0.074 A 
ATOM     59  C   UNL A   1      40.561  28.126  29.820  1.00  0.00     0.031 C 
ATOM     60  C   UNL A   1      46.587  29.272  30.066  1.00  0.00     0.029 A 
ATOM     61  C   UNL A   1      47.201  28.681  28.886  1.00  0.00     0.049 A 
ATOM     62  H   UNL A   1      46.966  26.586  28.467  1.00  0.00     0.167 HD
ATOM     63  C   UNL A   1      40.836  30.458  30.282  1.00  0.00     0.037 A 
ATOM     64  C   UNL A   1      47.583  29.348  27.757  1.00  0.00     0.037 A 
ATOM     65  C   UNL A   1      42.048  31.209  30.431  1.00  0.00     0.049 A 
ATOM     66  C   UNL A   1      46.949  30.716  27.629  1.00  0.00     0.074 A 
ATOM     67  C   UNL A   1      43.010  31.283  31.423  1.00  0.00     0.029 A 
ATOM     68  N   UNL A   1      42.577  31.771  29.303  1.00  0.00    -0.354 N 
ATOM     69  N   UNL A   1      45.920  31.110  28.325  1.00  0.00    -0.248 NA
ATOM     70  C   UNL A   1      47.415  31.753  26.714  1.00  0.00     0.031 C 
ATOM     71  C   UNL A   1      44.136  31.944  30.870  1.00  0.00     0.029 A 
ATOM     72  C   UNL A   1      43.830  32.256  29.559  1.00  0.00     0.049 A 
ATOM     73  H   UNL A   1      42.121  31.821  28.432  1.00  0.00     0.167 HD
ATOM     74  C   UNL A   1      45.564  32.384  27.961  1.00  0.00     0.074 A 
ATOM     75  C   UNL A   1      46.554  32.754  26.975  1.00  0.00     0.031 C 
ATOM     76  C   UNL A   1      44.459  32.988  28.486  1.00  0.00     0.037 A 
BRANCH  63  77
ATOM     77  C   UNL A   1      39.660  30.598  31.283  1.00  0.00     0.057 A 
ATOM     78  C   UNL A   1      38.506  31.336  30.943  1.00  0.00     0.134 A 
ATOM     79  C   UNL A   1      39.605  30.068  32.592  1.00  0.00     0.134 A 
ATOM     80  F   UNL A   1      38.297  31.769  29.694  1.00  0.00    -0.206 F 
ATOM     81  C   UNL A   1      37.501  31.677  31.867  1.00  0.00     0.040 A 
ATOM     82  C   UNL A   1      38.643  30.455  33.547  1.00  0.00     0.040 A 
ATOM     83  F   UNL A   1      40.463  29.124  33.005  1.00  0.00    -0.206 F 
ATOM     84  C   UNL A   1      37.596  31.288  33.191  1.00  0.00     0.006 A 
ENDBRANCH  63  77
BRANCH  64  85
ATOM     85  C   UNL A   1      47.990  28.441  26.638  1.00  0.00     0.057 A 
ATOM     86  C   UNL A   1      49.229  27.772  26.732  1.00  0.00     0.134 A 
ATOM     87  C   UNL A   1      47.097  27.957  25.678  1.00  0.00     0.134 A 
ATOM     88  F   UNL A   1      50.146  28.177  27.626  1.00  0.00    -0.206 F 
ATOM     89  C   UNL A   1      49.516  26.613  26.002  1.00  0.00     0.040 A 
ATOM     90  C   UNL A   1      47.388  26.812  24.913  1.00  0.00     0.040 A 
ATOM     91  F   UNL A   1      45.877  28.496  25.546  1.00  0.00    -0.206 F 
ATOM     92  C   UNL A   1      48.582  26.114  25.105  1.00  0.00     0.006 A 
ENDBRANCH  64  85
BRANCH  76  93
ATOM     93  C   UNL A   1      43.728  34.241  28.036  1.00  0.00     0.057 A 
ATOM     94  C   UNL A   1      43.523  35.367  28.835  1.00  0.00     0.134 A 
ATOM     95  C   UNL A   1      43.425  34.428  26.656  1.00  0.00     0.134 A 
ATOM     96  F   UNL A   1      43.823  35.370  30.138  1.00  0.00    -0.206 F 
ATOM     97  C   UNL A   1      43.060  36.582  28.309  1.00  0.00     0.040 A 
ATOM     98  C   UNL A   1      43.045  35.656  26.111  1.00  0.00     0.040 A 
ATOM     99  F   UNL A   1      43.535  33.433  25.761  1.00  0.00    -0.206 F 
ATOM    100  C   UNL A   1      42.851  36.741  26.943  1.00  0.00     0.006 A 
ENDBRANCH  76  93
ENDBRANCH  50  51
ENDBRANCH  43  45
ENDBRANCH  42  43
ENDBRANCH  41  42
ENDBRANCH  40  41
ENDBRANCH  39  40
ENDBRANCH  38  39
ENDBRANCH  37  38
ENDBRANCH   1  37
TORSDOF 23
ENDMDL
MODEL 3
REMARK VINA RESULT:     -10.1      8.477     13.837
REMARK SMILES COc1ccc(-c2nn(-c3ccccc3)cc2/C=C2\SC(=S)N(CCC(=O)OCCOCCOCCOC(=O)c3ccc(-c4c5nc(c(-c6c(F)cccc6F)c6ccc([nH]6)c(-c6c(F)cccc6F)c6nc(c(-c7c(F)cccc7F)c7ccc4[nH]7)C=C6)C=C5)cc3)C2=O)c(C)c1
REMARK SMILES IDX 31 1 30 2 29 3 28 4 26 5 27 6 25 7 24 8 23 9 18 10 19 11
REMARK SMILES IDX 20 12 94 13 21 14 95 15 22 16 17 17 7 18 8 19 9 20 16 21
REMARK SMILES IDX 6 22 3 23 4 24 98 25 5 26 96 27 97 28 2 29 1 30 10 31 11 32
REMARK SMILES IDX 15 33 12 34 14 35 13 36 32 37 33 38 34 39 35 40 36 41 37 42
REMARK SMILES IDX 38 43 39 44 40 45 41 46 93 47 42 48 92 49 43 50 44 51 45 52
REMARK SMILES IDX 86 53 46 54 91 55 85 56 87 57 47 58 90 59 84 60 83 61 48 63
REMARK SMILES IDX 74 64 57 65 73 66 58 67 61 68 72 69 88 70 59 71 60 72 71 74
REMARK SMILES IDX 89 75 62 76 49 77 50 78 55 79 51 80 52 81 54 82 56 83 53 84
REMARK SMILES IDX 75 85 76 86 81 87 77 88 78 89 80 90 82 91 79 92 63 93 64 94
REMARK SMILES IDX 69 95 65 96 66 97 68 98 70 99 67 100
REMARK H PARENT 87 62 61 73
REMARK Flexibility Score: inf
ROOT
ATOM      1  O   UNL A   1      44.149  22.713  29.874  1.00  0.00    -0.376 OA
ENDROOT
BRANCH   1   2
ATOM      2  C   UNL A   1      44.087  23.723  30.907  1.00  0.00     0.202 C 
BRANCH   2   3
ATOM      3  C   UNL A   1      43.889  23.185  32.390  1.00  0.00     0.261 C 
BRANCH   3   4
ATOM      4  O   UNL A   1      44.761  23.565  33.805  1.00  0.00    -0.463 OA
BRANCH   4   5
ATOM      5  C   UNL A   1      45.292  22.869  34.928  1.00  0.00     0.307 C 
ATOM      6  O   UNL A   1      44.881  22.856  36.086  1.00  0.00    -0.252 OA
BRANCH   5   7
ATOM      7  C   UNL A   1      46.593  22.142  34.918  1.00  0.00     0.144 C 
BRANCH   7   8
ATOM      8  C   UNL A   1      47.841  22.953  35.081  1.00  0.00     0.139 C 
BRANCH   8   9
ATOM      9  N   UNL A   1      48.617  22.226  36.050  1.00  0.00    -0.292 N 
ATOM     10  C   UNL A   1      47.727  20.856  39.204  1.00  0.00     0.033 C 
ATOM     11  C   UNL A   1      48.354  21.095  38.042  1.00  0.00     0.081 C 
ATOM     12  S   UNL A   1      49.413  20.063  37.154  1.00  0.00    -0.054 SA
ATOM     13  C   UNL A   1      48.216  22.386  37.358  1.00  0.00     0.266 C 
ATOM     14  C   UNL A   1      49.344  21.091  35.734  1.00  0.00     0.148 C 
ATOM     15  O   UNL A   1      47.741  23.393  37.865  1.00  0.00    -0.268 OA
ATOM     16  S   UNL A   1      49.961  20.640  34.251  1.00  0.00    -0.052 S 
BRANCH  10  17
ATOM     17  C   UNL A   1      48.202  19.857  40.071  1.00  0.00     0.022 A 
ATOM     18  C   UNL A   1      47.810  18.587  40.547  1.00  0.00     0.100 A 
ATOM     19  N   UNL A   1      48.878  17.988  41.127  1.00  0.00    -0.167 NA
ATOM     20  N   UNL A   1      49.807  18.969  41.232  1.00  0.00    -0.240 N 
ATOM     21  C   UNL A   1      49.389  20.134  40.682  1.00  0.00     0.123 A 
BRANCH  18  22
ATOM     22  C   UNL A   1      46.485  17.951  40.533  1.00  0.00     0.006 A 
ATOM     23  C   UNL A   1      43.932  16.730  40.531  1.00  0.00     0.119 A 
ATOM     24  C   UNL A   1      44.781  16.580  39.437  1.00  0.00     0.047 A 
ATOM     25  C   UNL A   1      44.333  17.522  41.600  1.00  0.00     0.050 A 
ATOM     26  C   UNL A   1      46.056  17.179  39.440  1.00  0.00     0.014 A 
ATOM     27  C   UNL A   1      45.595  18.146  41.615  1.00  0.00    -0.038 A 
ATOM     28  C   UNL A   1      45.933  18.969  42.828  1.00  0.00     0.045 C 
BRANCH  23  29
ATOM     29  O   UNL A   1      42.672  16.210  40.624  1.00  0.00    -0.497 OA
ATOM     30  C   UNL A   1      42.485  14.979  39.933  1.00  0.00     0.278 C 
ENDBRANCH  23  29
ENDBRANCH  18  22
BRANCH  20  31
ATOM     31  C   UNL A   1      51.132  18.824  41.681  1.00  0.00     0.065 A 
ATOM     32  C   UNL A   1      51.499  19.315  42.930  1.00  0.00     0.028 A 
ATOM     33  C   UNL A   1      51.984  17.972  40.954  1.00  0.00     0.028 A 
ATOM     34  C   UNL A   1      52.717  18.899  43.471  1.00  0.00     0.002 A 
ATOM     35  C   UNL A   1      53.208  17.595  41.486  1.00  0.00     0.002 A 
ATOM     36  C   UNL A   1      53.567  18.047  42.752  1.00  0.00     0.000 A 
ENDBRANCH  20  31
ENDBRANCH  10  17
ENDBRANCH   8   9
ENDBRANCH   7   8
ENDBRANCH   5   7
ENDBRANCH   4   5
ENDBRANCH   3   4
ENDBRANCH   2   3
ENDBRANCH   1   2
BRANCH   1  37
ATOM     37  C   UNL A   1      43.583  22.874  28.562  1.00  0.00     0.188 C 
BRANCH  37  38
ATOM     38  C   UNL A   1      42.291  22.157  28.191  1.00  0.00     0.188 C 
BRANCH  38  39
ATOM     39  O   UNL A   1      42.415  21.736  26.847  1.00  0.00    -0.376 OA
BRANCH  39  40
ATOM     40  C   UNL A   1      42.398  20.346  26.602  1.00  0.00     0.202 C 
BRANCH  40  41
ATOM     41  C   UNL A   1      43.260  19.995  25.378  1.00  0.00     0.261 C 
BRANCH  41  42
ATOM     42  O   UNL A   1      43.726  21.207  24.719  1.00  0.00    -0.460 OA
BRANCH  42  43
ATOM     43  C   UNL A   1      45.080  21.428  24.632  1.00  0.00     0.338 C 
ATOM     44  O   UNL A   1      45.922  20.548  24.505  1.00  0.00    -0.246 OA
BRANCH  43  45
ATOM     45  C   UNL A   1      45.411  22.863  24.969  1.00  0.00     0.060 A 
ATOM     46  C   UNL A   1      46.423  23.335  25.828  1.00  0.00     0.016 A 
ATOM     47  C   UNL A   1      44.406  23.737  24.737  1.00  0.00     0.016 A 
ATOM     48  C   UNL A   1      46.303  24.609  26.551  1.00  0.00     0.010 A 
ATOM     49  C   UNL A   1      44.232  24.718  25.704  1.00  0.00     0.010 A 
ATOM     50  C   UNL A   1      45.117  25.339  26.584  1.00  0.00    -0.014 A 
BRANCH  50  51
ATOM     51  C   UNL A   1      44.645  26.561  27.543  1.00  0.00     0.031 A 
ATOM     52  C   UNL A   1      43.140  27.255  27.857  1.00  0.00     0.074 A 
ATOM     53  C   UNL A   1      45.639  27.082  28.282  1.00  0.00     0.049 A 
ATOM     54  N   UNL A   1      42.737  28.488  27.597  1.00  0.00    -0.248 NA
ATOM     55  C   UNL A   1      41.951  26.585  28.477  1.00  0.00     0.031 C 
ATOM     56  C   UNL A   1      45.533  27.993  29.408  1.00  0.00     0.029 A 
ATOM     57  N   UNL A   1      47.012  26.981  28.036  1.00  0.00    -0.354 N 
ATOM     58  C   UNL A   1      41.399  28.608  28.094  1.00  0.00     0.074 A 
ATOM     59  C   UNL A   1      40.883  27.299  28.173  1.00  0.00     0.031 C 
ATOM     60  C   UNL A   1      46.720  28.609  29.553  1.00  0.00     0.029 A 
ATOM     61  C   UNL A   1      47.543  28.223  28.417  1.00  0.00     0.049 A 
ATOM     62  H   UNL A   1      47.501  26.206  27.674  1.00  0.00     0.167 HD
ATOM     63  C   UNL A   1      40.945  29.544  28.998  1.00  0.00     0.037 A 
ATOM     64  C   UNL A   1      48.057  29.063  27.472  1.00  0.00     0.037 A 
ATOM     65  C   UNL A   1      42.073  30.308  29.446  1.00  0.00     0.049 A 
ATOM     66  C   UNL A   1      47.371  30.412  27.437  1.00  0.00     0.074 A 
ATOM     67  C   UNL A   1      42.863  30.267  30.582  1.00  0.00     0.029 A 
ATOM     68  N   UNL A   1      42.737  31.050  28.510  1.00  0.00    -0.354 N 
ATOM     69  N   UNL A   1      46.225  30.661  28.005  1.00  0.00    -0.248 NA
ATOM     70  C   UNL A   1      47.912  31.589  26.766  1.00  0.00     0.031 C 
ATOM     71  C   UNL A   1      44.020  31.043  30.318  1.00  0.00     0.029 A 
ATOM     72  C   UNL A   1      43.904  31.535  29.032  1.00  0.00     0.049 A 
ATOM     73  H   UNL A   1      42.419  31.212  27.592  1.00  0.00     0.167 HD
ATOM     74  C   UNL A   1      45.855  31.961  27.771  1.00  0.00     0.074 A 
ATOM     75  C   UNL A   1      46.963  32.509  27.021  1.00  0.00     0.031 C 
ATOM     76  C   UNL A   1      44.648  32.440  28.189  1.00  0.00     0.037 A 
BRANCH  63  77
ATOM     77  C   UNL A   1      39.622  29.491  29.804  1.00  0.00     0.057 A 
ATOM     78  C   UNL A   1      39.513  28.693  30.962  1.00  0.00     0.134 A 
ATOM     79  C   UNL A   1      38.420  30.164  29.489  1.00  0.00     0.134 A 
ATOM     80  F   UNL A   1      40.586  28.116  31.516  1.00  0.00    -0.206 F 
ATOM     81  C   UNL A   1      38.295  28.435  31.618  1.00  0.00     0.040 A 
ATOM     82  C   UNL A   1      37.181  29.866  30.091  1.00  0.00     0.040 A 
ATOM     83  F   UNL A   1      38.390  31.170  28.601  1.00  0.00    -0.206 F 
ATOM     84  C   UNL A   1      37.111  28.974  31.147  1.00  0.00     0.006 A 
ENDBRANCH  63  77
BRANCH  64  85
ATOM     85  C   UNL A   1      48.686  28.348  26.316  1.00  0.00     0.057 A 
ATOM     86  C   UNL A   1      50.006  27.869  26.461  1.00  0.00     0.134 A 
ATOM     87  C   UNL A   1      47.955  27.834  25.241  1.00  0.00     0.134 A 
ATOM     88  F   UNL A   1      50.777  28.315  27.466  1.00  0.00    -0.206 F 
ATOM     89  C   UNL A   1      50.528  26.848  25.659  1.00  0.00     0.040 A 
ATOM     90  C   UNL A   1      48.482  26.831  24.406  1.00  0.00     0.040 A 
ATOM     91  F   UNL A   1      46.678  28.192  25.049  1.00  0.00    -0.206 F 
ATOM     92  C   UNL A   1      49.754  26.307  24.640  1.00  0.00     0.006 A 
ENDBRANCH  64  85
BRANCH  76  93
ATOM     93  C   UNL A   1      43.923  33.719  27.808  1.00  0.00     0.057 A 
ATOM     94  C   UNL A   1      43.703  34.792  28.674  1.00  0.00     0.134 A 
ATOM     95  C   UNL A   1      43.645  33.995  26.438  1.00  0.00     0.134 A 
ATOM     96  F   UNL A   1      43.979  34.712  29.980  1.00  0.00    -0.206 F 
ATOM     97  C   UNL A   1      43.247  36.038  28.219  1.00  0.00     0.040 A 
ATOM     98  C   UNL A   1      43.273  35.255  25.966  1.00  0.00     0.040 A 
ATOM     99  F   UNL A   1      43.772  33.060  25.483  1.00  0.00    -0.206 F 
ATOM    100  C   UNL A   1      43.062  36.285  26.863  1.00  0.00     0.006 A 
ENDBRANCH  76  93
ENDBRANCH  50  51
ENDBRANCH  43  45
ENDBRANCH  42  43
ENDBRANCH  41  42
ENDBRANCH  40  41
ENDBRANCH  39  40
ENDBRANCH  38  39
ENDBRANCH  37  38
ENDBRANCH   1  37
TORSDOF 23
ENDMDL
