MODEL 1
REMARK VINA RESULT:     -10.2      0.000      0.000
REMARK SMILES C[C@H](C(=O)OCCOCCOCCOC(=O)c1ccc(-c2c3nc(c(-c4c(F)cccc4F)c4ccc([nH]4)c(-c4c(F)cccc4F)c4nc(c(-c5c(F)cccc5F)c5ccc2[nH]5)C=C4)C=C3)cc1)[C@H](C)[NH+]1CCN(S(C)(=O)=O)CC1
REMARK SMILES IDX 9 1 8 2 7 3 6 4 5 5 3 6 4 7 2 8 1 9 71 10 72 11 73 12 74 13
REMARK SMILES IDX 82 14 75 16 81 17 76 18 77 19 78 20 79 21 80 22 10 23 11 24
REMARK SMILES IDX 12 25 13 26 14 27 15 28 16 29 17 30 18 31 70 32 19 33 69 34
REMARK SMILES IDX 20 35 21 36 22 37 63 38 23 39 68 40 62 41 64 42 24 43 67 44
REMARK SMILES IDX 61 45 60 46 25 48 51 49 34 50 50 51 35 52 38 53 49 54 65 55
REMARK SMILES IDX 36 56 37 57 48 59 66 60 39 61 26 62 27 63 32 64 28 65 29 66
REMARK SMILES IDX 31 67 33 68 30 69 52 70 53 71 58 72 54 73 55 74 57 75 59 76
REMARK SMILES IDX 56 77 40 78 41 79 46 80 42 81 43 82 45 83 47 84 44 85
REMARK H PARENT 73 15 64 47 38 58
REMARK Flexibility Score: inf
ROOT
ATOM      1  C   UNL A   1      39.903  20.569  26.101  1.00  0.00     0.188 C 
ENDROOT
BRANCH   1   2
ATOM      2  O   UNL A   1      39.978  21.985  26.099  1.00  0.00    -0.376 OA
BRANCH   2   3
ATOM      3  C   UNL A   1      38.739  22.675  26.213  1.00  0.00     0.202 C 
BRANCH   3   4
ATOM      4  C   UNL A   1      37.505  21.955  25.649  1.00  0.00     0.261 C 
BRANCH   4   5
ATOM      5  O   UNL A   1      37.426  21.931  24.214  1.00  0.00    -0.463 OA
BRANCH   5   6
ATOM      6  C   UNL A   1      36.501  22.731  23.624  1.00  0.00     0.314 C 
ATOM      7  O   UNL A   1      36.589  23.138  22.474  1.00  0.00    -0.252 OA
BRANCH   6   8
ATOM      8  C   UNL A   1      35.262  22.864  24.514  1.00  0.00     0.154 C 
ATOM      9  C   UNL A   1      35.098  24.264  25.111  1.00  0.00     0.026 C 
BRANCH   8  10
ATOM     10  C   UNL A   1      34.003  22.300  23.811  1.00  0.00     0.195 C 
ATOM     11  C   UNL A   1      33.133  23.414  23.217  1.00  0.00     0.076 C 
BRANCH  10  12
ATOM     12  N   UNL A   1      33.361  21.338  24.742  1.00  0.00    -0.330 N 
ATOM     13  C   UNL A   1      32.313  20.461  24.192  1.00  0.00     0.279 C 
ATOM     14  C   UNL A   1      34.325  20.541  25.525  1.00  0.00     0.279 C 
ATOM     15  H   UNL A   1      32.867  21.980  25.362  1.00  0.00     0.348 HD
ATOM     16  C   UNL A   1      32.808  19.209  23.439  1.00  0.00     0.163 C 
ATOM     17  C   UNL A   1      34.917  19.347  24.761  1.00  0.00     0.163 C 
ATOM     18  N   UNL A   1      33.853  18.481  24.196  1.00  0.00    -0.191 NA
BRANCH  18  19
ATOM     19  S   UNL A   1      33.474  17.018  24.921  1.00  0.00     0.211 S 
ATOM     20  C   UNL A   1      35.066  16.351  25.357  1.00  0.00     0.176 C 
ATOM     21  O   UNL A   1      32.771  17.304  26.150  1.00  0.00    -0.212 OA
ATOM     22  O   UNL A   1      32.896  16.154  23.911  1.00  0.00    -0.212 OA
ENDBRANCH  18  19
ENDBRANCH  10  12
ENDBRANCH   8  10
ENDBRANCH   6   8
ENDBRANCH   5   6
ENDBRANCH   4   5
ENDBRANCH   3   4
ENDBRANCH   2   3
ENDBRANCH   1   2
BRANCH   1  23
ATOM     23  C   UNL A   1      41.240  19.868  26.436  1.00  0.00     0.188 C 
BRANCH  23  24
ATOM     24  O   UNL A   1      42.202  19.636  25.424  1.00  0.00    -0.376 OA
BRANCH  24  25
ATOM     25  C   UNL A   1      43.516  20.138  25.601  1.00  0.00     0.202 C 
BRANCH  25  26
ATOM     26  C   UNL A   1      43.936  21.498  25.004  1.00  0.00     0.261 C 
BRANCH  26  27
ATOM     27  O   UNL A   1      43.174  22.658  25.392  1.00  0.00    -0.460 OA
BRANCH  27  28
ATOM     28  C   UNL A   1      43.793  23.857  25.248  1.00  0.00     0.338 C 
ATOM     29  O   UNL A   1      44.666  24.147  24.449  1.00  0.00    -0.246 OA
BRANCH  28  30
ATOM     30  C   UNL A   1      43.128  24.865  26.106  1.00  0.00     0.060 A 
ATOM     31  C   UNL A   1      43.691  26.147  26.216  1.00  0.00     0.016 A 
ATOM     32  C   UNL A   1      41.995  24.534  26.849  1.00  0.00     0.016 A 
ATOM     33  C   UNL A   1      43.136  27.093  27.082  1.00  0.00     0.010 A 
ATOM     34  C   UNL A   1      41.456  25.473  27.737  1.00  0.00     0.010 A 
ATOM     35  C   UNL A   1      42.039  26.746  27.881  1.00  0.00    -0.014 A 
BRANCH  35  36
ATOM     36  C   UNL A   1      41.617  27.636  28.994  1.00  0.00     0.031 A 
ATOM     37  C   UNL A   1      42.364  27.562  30.298  1.00  0.00     0.074 A 
ATOM     38  C   UNL A   1      40.592  28.498  28.858  1.00  0.00     0.049 A 
ATOM     39  N   UNL A   1      42.126  28.173  31.431  1.00  0.00    -0.248 NA
ATOM     40  C   UNL A   1      43.538  26.676  30.327  1.00  0.00     0.031 C 
ATOM     41  C   UNL A   1      39.813  28.703  27.639  1.00  0.00     0.029 A 
ATOM     42  N   UNL A   1      40.021  29.350  29.772  1.00  0.00    -0.354 N 
ATOM     43  C   UNL A   1      43.108  27.734  32.310  1.00  0.00     0.074 A 
ATOM     44  C   UNL A   1      43.929  26.786  31.587  1.00  0.00     0.031 C 
ATOM     45  C   UNL A   1      38.850  29.609  27.887  1.00  0.00     0.029 A 
ATOM     46  C   UNL A   1      38.923  30.019  29.289  1.00  0.00     0.049 A 
ATOM     47  H   UNL A   1      40.367  29.470  30.686  1.00  0.00     0.167 HD
ATOM     48  C   UNL A   1      43.313  28.091  33.600  1.00  0.00     0.037 A 
ATOM     49  C   UNL A   1      38.058  30.843  29.916  1.00  0.00     0.037 A 
ATOM     50  C   UNL A   1      42.495  29.030  34.323  1.00  0.00     0.049 A 
ATOM     51  C   UNL A   1      38.258  31.161  31.377  1.00  0.00     0.074 A 
ATOM     52  C   UNL A   1      42.636  29.470  35.627  1.00  0.00     0.029 A 
ATOM     53  N   UNL A   1      41.377  29.665  33.806  1.00  0.00    -0.354 N 
ATOM     54  N   UNL A   1      39.203  30.761  32.193  1.00  0.00    -0.248 NA
ATOM     55  C   UNL A   1      37.266  32.049  32.004  1.00  0.00     0.031 C 
ATOM     56  C   UNL A   1      41.569  30.324  35.920  1.00  0.00     0.029 A 
ATOM     57  C   UNL A   1      40.801  30.471  34.776  1.00  0.00     0.049 A 
ATOM     58  H   UNL A   1      41.041  29.560  32.886  1.00  0.00     0.167 HD
ATOM     59  C   UNL A   1      38.941  31.375  33.413  1.00  0.00     0.074 A 
ATOM     60  C   UNL A   1      37.756  32.182  33.229  1.00  0.00     0.031 C 
ATOM     61  C   UNL A   1      39.625  31.281  34.581  1.00  0.00     0.037 A 
BRANCH  48  62
ATOM     62  C   UNL A   1      44.454  27.438  34.327  1.00  0.00     0.057 A 
ATOM     63  C   UNL A   1      45.708  28.051  34.445  1.00  0.00     0.134 A 
ATOM     64  C   UNL A   1      44.283  26.194  34.947  1.00  0.00     0.134 A 
ATOM     65  F   UNL A   1      45.943  29.237  33.864  1.00  0.00    -0.206 F 
ATOM     66  C   UNL A   1      46.757  27.440  35.134  1.00  0.00     0.040 A 
ATOM     67  C   UNL A   1      45.314  25.586  35.664  1.00  0.00     0.040 A 
ATOM     68  F   UNL A   1      43.106  25.553  34.878  1.00  0.00    -0.206 F 
ATOM     69  C   UNL A   1      46.559  26.206  35.753  1.00  0.00     0.006 A 
ENDBRANCH  48  62
BRANCH  49  70
ATOM     70  C   UNL A   1      36.904  31.419  29.177  1.00  0.00     0.057 A 
ATOM     71  C   UNL A   1      35.757  30.660  28.916  1.00  0.00     0.134 A 
ATOM     72  C   UNL A   1      36.936  32.728  28.679  1.00  0.00     0.134 A 
ATOM     73  F   UNL A   1      35.677  29.391  29.341  1.00  0.00    -0.206 F 
ATOM     74  C   UNL A   1      34.693  31.173  28.171  1.00  0.00     0.040 A 
ATOM     75  C   UNL A   1      35.868  33.263  27.957  1.00  0.00     0.040 A 
ATOM     76  F   UNL A   1      38.006  33.508  28.891  1.00  0.00    -0.206 F 
ATOM     77  C   UNL A   1      34.745  32.481  27.693  1.00  0.00     0.006 A 
ENDBRANCH  49  70
BRANCH  61  78
ATOM     78  C   UNL A   1      39.142  32.106  35.741  1.00  0.00     0.057 A 
ATOM     79  C   UNL A   1      38.295  31.586  36.726  1.00  0.00     0.134 A 
ATOM     80  C   UNL A   1      39.569  33.433  35.895  1.00  0.00     0.134 A 
ATOM     81  F   UNL A   1      37.839  30.326  36.636  1.00  0.00    -0.206 F 
ATOM     82  C   UNL A   1      37.869  32.359  37.809  1.00  0.00     0.040 A 
ATOM     83  C   UNL A   1      39.177  34.206  36.988  1.00  0.00     0.040 A 
ATOM     84  F   UNL A   1      40.392  33.993  34.995  1.00  0.00    -0.206 F 
ATOM     85  C   UNL A   1      38.318  33.672  37.945  1.00  0.00     0.006 A 
ENDBRANCH  61  78
ENDBRANCH  35  36
ENDBRANCH  28  30
ENDBRANCH  27  28
ENDBRANCH  26  27
ENDBRANCH  25  26
ENDBRANCH  24  25
ENDBRANCH  23  24
ENDBRANCH   1  23
TORSDOF 20
ENDMDL
MODEL 2
REMARK VINA RESULT:     -10.1      1.733      3.102
REMARK SMILES C[C@H](C(=O)OCCOCCOCCOC(=O)c1ccc(-c2c3nc(c(-c4c(F)cccc4F)c4ccc([nH]4)c(-c4c(F)cccc4F)c4nc(c(-c5c(F)cccc5F)c5ccc2[nH]5)C=C4)C=C3)cc1)[C@H](C)[NH+]1CCN(S(C)(=O)=O)CC1
REMARK SMILES IDX 9 1 8 2 7 3 6 4 5 5 3 6 4 7 2 8 1 9 71 10 72 11 73 12 74 13
REMARK SMILES IDX 82 14 75 16 81 17 76 18 77 19 78 20 79 21 80 22 10 23 11 24
REMARK SMILES IDX 12 25 13 26 14 27 15 28 16 29 17 30 18 31 70 32 19 33 69 34
REMARK SMILES IDX 20 35 21 36 22 37 63 38 23 39 68 40 62 41 64 42 24 43 67 44
REMARK SMILES IDX 61 45 60 46 25 48 51 49 34 50 50 51 35 52 38 53 49 54 65 55
REMARK SMILES IDX 36 56 37 57 48 59 66 60 39 61 26 62 27 63 32 64 28 65 29 66
REMARK SMILES IDX 31 67 33 68 30 69 52 70 53 71 58 72 54 73 55 74 57 75 59 76
REMARK SMILES IDX 56 77 40 78 41 79 46 80 42 81 43 82 45 83 47 84 44 85
REMARK H PARENT 73 15 64 47 38 58
REMARK Flexibility Score: inf
ROOT
ATOM      1  C   UNL A   1      40.201  20.189  26.065  1.00  0.00     0.188 C 
ENDROOT
BRANCH   1   2
ATOM      2  O   UNL A   1      40.246  21.606  26.108  1.00  0.00    -0.376 OA
BRANCH   2   3
ATOM      3  C   UNL A   1      38.998  22.263  26.289  1.00  0.00     0.202 C 
BRANCH   3   4
ATOM      4  C   UNL A   1      37.864  21.845  25.339  1.00  0.00     0.261 C 
BRANCH   4   5
ATOM      5  O   UNL A   1      36.576  21.710  25.963  1.00  0.00    -0.463 OA
BRANCH   5   6
ATOM      6  C   UNL A   1      35.607  21.066  25.263  1.00  0.00     0.314 C 
ATOM      7  O   UNL A   1      35.708  19.914  24.863  1.00  0.00    -0.252 OA
BRANCH   6   8
ATOM      8  C   UNL A   1      34.320  21.897  25.240  1.00  0.00     0.154 C 
ATOM      9  C   UNL A   1      33.070  21.060  24.958  1.00  0.00     0.026 C 
BRANCH   8  10
ATOM     10  C   UNL A   1      34.225  22.820  26.478  1.00  0.00     0.195 C 
ATOM     11  C   UNL A   1      33.044  22.445  27.382  1.00  0.00     0.076 C 
BRANCH  10  12
ATOM     12  N   UNL A   1      34.318  24.223  26.001  1.00  0.00    -0.330 N 
ATOM     13  C   UNL A   1      35.201  24.490  24.853  1.00  0.00     0.279 C 
ATOM     14  C   UNL A   1      33.004  24.861  25.786  1.00  0.00     0.279 C 
ATOM     15  H   UNL A   1      34.783  24.659  26.797  1.00  0.00     0.348 HD
ATOM     16  C   UNL A   1      34.608  24.189  23.461  1.00  0.00     0.163 C 
ATOM     17  C   UNL A   1      32.339  24.492  24.451  1.00  0.00     0.163 C 
ATOM     18  N   UNL A   1      33.245  24.748  23.303  1.00  0.00    -0.191 NA
BRANCH  18  19
ATOM     19  S   UNL A   1      33.015  26.087  22.322  1.00  0.00     0.211 S 
ATOM     20  C   UNL A   1      31.268  26.404  22.463  1.00  0.00     0.176 C 
ATOM     21  O   UNL A   1      33.708  27.201  22.926  1.00  0.00    -0.212 OA
ATOM     22  O   UNL A   1      33.282  25.691  20.954  1.00  0.00    -0.212 OA
ENDBRANCH  18  19
ENDBRANCH  10  12
ENDBRANCH   8  10
ENDBRANCH   6   8
ENDBRANCH   5   6
ENDBRANCH   4   5
ENDBRANCH   3   4
ENDBRANCH   2   3
ENDBRANCH   1   2
BRANCH   1  23
ATOM     23  C   UNL A   1      41.567  19.507  26.311  1.00  0.00     0.188 C 
BRANCH  23  24
ATOM     24  O   UNL A   1      42.523  19.421  25.270  1.00  0.00    -0.376 OA
BRANCH  24  25
ATOM     25  C   UNL A   1      43.809  19.984  25.472  1.00  0.00     0.202 C 
BRANCH  25  26
ATOM     26  C   UNL A   1      44.135  21.415  24.992  1.00  0.00     0.261 C 
BRANCH  26  27
ATOM     27  O   UNL A   1      43.741  22.507  25.845  1.00  0.00    -0.460 OA
BRANCH  27  28
ATOM     28  C   UNL A   1      43.975  23.755  25.365  1.00  0.00     0.338 C 
ATOM     29  O   UNL A   1      44.541  24.055  24.329  1.00  0.00    -0.246 OA
BRANCH  28  30
ATOM     30  C   UNL A   1      43.276  24.751  26.210  1.00  0.00     0.060 A 
ATOM     31  C   UNL A   1      43.752  26.072  26.246  1.00  0.00     0.016 A 
ATOM     32  C   UNL A   1      42.200  24.375  27.013  1.00  0.00     0.016 A 
ATOM     33  C   UNL A   1      43.166  27.013  27.097  1.00  0.00     0.010 A 
ATOM     34  C   UNL A   1      41.632  25.312  27.886  1.00  0.00     0.010 A 
ATOM     35  C   UNL A   1      42.130  26.627  27.955  1.00  0.00    -0.014 A 
BRANCH  35  36
ATOM     36  C   UNL A   1      41.691  27.532  29.049  1.00  0.00     0.031 A 
ATOM     37  C   UNL A   1      42.415  27.473  30.366  1.00  0.00     0.074 A 
ATOM     38  C   UNL A   1      40.671  28.394  28.884  1.00  0.00     0.049 A 
ATOM     39  N   UNL A   1      42.159  28.098  31.487  1.00  0.00    -0.248 NA
ATOM     40  C   UNL A   1      43.586  26.584  30.427  1.00  0.00     0.031 C 
ATOM     41  C   UNL A   1      39.913  28.585  27.650  1.00  0.00     0.029 A 
ATOM     42  N   UNL A   1      40.087  29.259  29.777  1.00  0.00    -0.354 N 
ATOM     43  C   UNL A   1      43.125  27.668  32.389  1.00  0.00     0.074 A 
ATOM     44  C   UNL A   1      43.956  26.709  31.692  1.00  0.00     0.031 C 
ATOM     45  C   UNL A   1      38.948  29.497  27.870  1.00  0.00     0.029 A 
ATOM     46  C   UNL A   1      38.998  29.925  29.267  1.00  0.00     0.049 A 
ATOM     47  H   UNL A   1      40.417  29.391  30.696  1.00  0.00     0.167 HD
ATOM     48  C   UNL A   1      43.310  28.042  33.678  1.00  0.00     0.037 A 
ATOM     49  C   UNL A   1      38.125  30.759  29.869  1.00  0.00     0.037 A 
ATOM     50  C   UNL A   1      42.482  28.991  34.374  1.00  0.00     0.049 A 
ATOM     51  C   UNL A   1      38.301  31.095  31.329  1.00  0.00     0.074 A 
ATOM     52  C   UNL A   1      42.601  29.448  35.675  1.00  0.00     0.029 A 
ATOM     53  N   UNL A   1      41.374  29.623  33.830  1.00  0.00    -0.354 N 
ATOM     54  N   UNL A   1      39.231  30.703  32.166  1.00  0.00    -0.248 NA
ATOM     55  C   UNL A   1      37.301  31.994  31.928  1.00  0.00     0.031 C 
ATOM     56  C   UNL A   1      41.532  30.309  35.938  1.00  0.00     0.029 A 
ATOM     57  C   UNL A   1      40.783  30.442  34.779  1.00  0.00     0.049 A 
ATOM     58  H   UNL A   1      41.054  29.507  32.906  1.00  0.00     0.167 HD
ATOM     59  C   UNL A   1      38.950  31.333  33.374  1.00  0.00     0.074 A 
ATOM     60  C   UNL A   1      37.770  32.142  33.159  1.00  0.00     0.031 C 
ATOM     61  C   UNL A   1      39.614  31.253  34.554  1.00  0.00     0.037 A 
BRANCH  48  62
ATOM     62  C   UNL A   1      44.436  27.395  34.432  1.00  0.00     0.057 A 
ATOM     63  C   UNL A   1      44.276  26.179  35.109  1.00  0.00     0.134 A 
ATOM     64  C   UNL A   1      45.708  27.981  34.450  1.00  0.00     0.134 A 
ATOM     65  F   UNL A   1      43.080  25.572  35.142  1.00  0.00    -0.206 F 
ATOM     66  C   UNL A   1      45.334  25.582  35.796  1.00  0.00     0.040 A 
ATOM     67  C   UNL A   1      46.782  27.379  35.108  1.00  0.00     0.040 A 
ATOM     68  F   UNL A   1      45.934  29.143  33.818  1.00  0.00    -0.206 F 
ATOM     69  C   UNL A   1      46.593  26.178  35.790  1.00  0.00     0.006 A 
ENDBRANCH  48  62
BRANCH  49  70
ATOM     70  C   UNL A   1      36.985  31.329  29.103  1.00  0.00     0.057 A 
ATOM     71  C   UNL A   1      36.994  32.660  28.671  1.00  0.00     0.134 A 
ATOM     72  C   UNL A   1      35.844  30.568  28.818  1.00  0.00     0.134 A 
ATOM     73  F   UNL A   1      38.046  33.448  28.939  1.00  0.00    -0.206 F 
ATOM     74  C   UNL A   1      35.904  33.221  28.005  1.00  0.00     0.040 A 
ATOM     75  C   UNL A   1      34.758  31.108  28.127  1.00  0.00     0.040 A 
ATOM     76  F   UNL A   1      35.770  29.286  29.205  1.00  0.00    -0.206 F 
ATOM     77  C   UNL A   1      34.783  32.442  27.726  1.00  0.00     0.006 A 
ENDBRANCH  49  70
BRANCH  61  78
ATOM     78  C   UNL A   1      39.113  32.094  35.694  1.00  0.00     0.057 A 
ATOM     79  C   UNL A   1      38.267  31.582  36.686  1.00  0.00     0.134 A 
ATOM     80  C   UNL A   1      39.522  33.429  35.825  1.00  0.00     0.134 A 
ATOM     81  F   UNL A   1      37.829  30.315  36.617  1.00  0.00    -0.206 F 
ATOM     82  C   UNL A   1      37.825  32.371  37.750  1.00  0.00     0.040 A 
ATOM     83  C   UNL A   1      39.113  34.218  36.901  1.00  0.00     0.040 A 
ATOM     84  F   UNL A   1      40.342  33.982  34.919  1.00  0.00    -0.206 F 
ATOM     85  C   UNL A   1      38.256  33.691  37.864  1.00  0.00     0.006 A 
ENDBRANCH  61  78
ENDBRANCH  35  36
ENDBRANCH  28  30
ENDBRANCH  27  28
ENDBRANCH  26  27
ENDBRANCH  25  26
ENDBRANCH  24  25
ENDBRANCH  23  24
ENDBRANCH   1  23
TORSDOF 20
ENDMDL
MODEL 3
REMARK VINA RESULT:     -10.1      2.014      3.214
REMARK SMILES C[C@H](C(=O)OCCOCCOCCOC(=O)c1ccc(-c2c3nc(c(-c4c(F)cccc4F)c4ccc([nH]4)c(-c4c(F)cccc4F)c4nc(c(-c5c(F)cccc5F)c5ccc2[nH]5)C=C4)C=C3)cc1)[C@H](C)[NH+]1CCN(S(C)(=O)=O)CC1
REMARK SMILES IDX 9 1 8 2 7 3 6 4 5 5 3 6 4 7 2 8 1 9 71 10 72 11 73 12 74 13
REMARK SMILES IDX 82 14 75 16 81 17 76 18 77 19 78 20 79 21 80 22 10 23 11 24
REMARK SMILES IDX 12 25 13 26 14 27 15 28 16 29 17 30 18 31 70 32 19 33 69 34
REMARK SMILES IDX 20 35 21 36 22 37 63 38 23 39 68 40 62 41 64 42 24 43 67 44
REMARK SMILES IDX 61 45 60 46 25 48 51 49 34 50 50 51 35 52 38 53 49 54 65 55
REMARK SMILES IDX 36 56 37 57 48 59 66 60 39 61 26 62 27 63 32 64 28 65 29 66
REMARK SMILES IDX 31 67 33 68 30 69 52 70 53 71 58 72 54 73 55 74 57 75 59 76
REMARK SMILES IDX 56 77 40 78 41 79 46 80 42 81 43 82 45 83 47 84 44 85
REMARK H PARENT 73 15 64 47 38 58
REMARK Flexibility Score: inf
ROOT
ATOM      1  C   UNL A   1      39.577  20.489  25.810  1.00  0.00     0.188 C 
ENDROOT
BRANCH   1   2
ATOM      2  O   UNL A   1      39.687  21.903  25.805  1.00  0.00    -0.376 OA
BRANCH   2   3
ATOM      3  C   UNL A   1      38.497  22.621  26.111  1.00  0.00     0.202 C 
BRANCH   3   4
ATOM      4  C   UNL A   1      37.180  21.989  25.635  1.00  0.00     0.261 C 
BRANCH   4   5
ATOM      5  O   UNL A   1      36.023  22.356  26.406  1.00  0.00    -0.463 OA
BRANCH   5   6
ATOM      6  C   UNL A   1      34.919  21.576  26.286  1.00  0.00     0.314 C 
ATOM      7  O   UNL A   1      34.165  21.317  27.215  1.00  0.00    -0.252 OA
BRANCH   6   8
ATOM      8  C   UNL A   1      34.643  21.257  24.813  1.00  0.00     0.154 C 
ATOM      9  C   UNL A   1      34.062  19.858  24.600  1.00  0.00     0.026 C 
BRANCH   8  10
ATOM     10  C   UNL A   1      33.860  22.404  24.128  1.00  0.00     0.195 C 
ATOM     11  C   UNL A   1      34.718  23.144  23.096  1.00  0.00     0.076 C 
BRANCH  10  12
ATOM     12  N   UNL A   1      33.210  23.205  25.196  1.00  0.00    -0.330 N 
ATOM     13  C   UNL A   1      33.578  24.629  25.291  1.00  0.00     0.279 C 
ATOM     14  C   UNL A   1      31.742  23.061  25.232  1.00  0.00     0.279 C 
ATOM     15  H   UNL A   1      33.616  22.774  26.026  1.00  0.00     0.348 HD
ATOM     16  C   UNL A   1      32.857  25.579  24.313  1.00  0.00     0.163 C 
ATOM     17  C   UNL A   1      31.002  23.917  24.192  1.00  0.00     0.163 C 
ATOM     18  N   UNL A   1      31.394  25.345  24.285  1.00  0.00    -0.191 NA
BRANCH  18  19
ATOM     19  S   UNL A   1      30.370  26.461  25.002  1.00  0.00     0.211 S 
ATOM     20  C   UNL A   1      28.866  26.301  24.062  1.00  0.00     0.176 C 
ATOM     21  O   UNL A   1      30.093  26.008  26.345  1.00  0.00    -0.212 OA
ATOM     22  O   UNL A   1      30.906  27.785  24.754  1.00  0.00    -0.212 OA
ENDBRANCH  18  19
ENDBRANCH  10  12
ENDBRANCH   8  10
ENDBRANCH   6   8
ENDBRANCH   5   6
ENDBRANCH   4   5
ENDBRANCH   3   4
ENDBRANCH   2   3
ENDBRANCH   1   2
BRANCH   1  23
ATOM     23  C   UNL A   1      40.841  19.761  26.326  1.00  0.00     0.188 C 
BRANCH  23  24
ATOM     24  O   UNL A   1      41.878  19.405  25.430  1.00  0.00    -0.376 OA
BRANCH  24  25
ATOM     25  C   UNL A   1      43.189  19.887  25.676  1.00  0.00     0.202 C 
BRANCH  25  26
ATOM     26  C   UNL A   1      43.651  21.254  25.129  1.00  0.00     0.261 C 
BRANCH  26  27
ATOM     27  O   UNL A   1      43.645  22.370  26.040  1.00  0.00    -0.460 OA
BRANCH  27  28
ATOM     28  C   UNL A   1      43.838  23.595  25.488  1.00  0.00     0.338 C 
ATOM     29  O   UNL A   1      44.341  23.848  24.408  1.00  0.00    -0.246 OA
BRANCH  28  30
ATOM     30  C   UNL A   1      43.178  24.626  26.322  1.00  0.00     0.060 A 
ATOM     31  C   UNL A   1      43.722  25.919  26.369  1.00  0.00     0.016 A 
ATOM     32  C   UNL A   1      42.069  24.306  27.105  1.00  0.00     0.016 A 
ATOM     33  C   UNL A   1      43.172  26.889  27.211  1.00  0.00     0.010 A 
ATOM     34  C   UNL A   1      41.536  25.271  27.970  1.00  0.00     0.010 A 
ATOM     35  C   UNL A   1      42.102  26.557  28.050  1.00  0.00    -0.014 A 
BRANCH  35  36
ATOM     36  C   UNL A   1      41.692  27.484  29.137  1.00  0.00     0.031 A 
ATOM     37  C   UNL A   1      42.428  27.426  30.448  1.00  0.00     0.074 A 
ATOM     38  C   UNL A   1      40.687  28.364  28.973  1.00  0.00     0.049 A 
ATOM     39  N   UNL A   1      42.196  28.069  31.564  1.00  0.00    -0.248 NA
ATOM     40  C   UNL A   1      43.582  26.515  30.508  1.00  0.00     0.031 C 
ATOM     41  C   UNL A   1      39.920  28.556  27.745  1.00  0.00     0.029 A 
ATOM     42  N   UNL A   1      40.129  29.250  29.862  1.00  0.00    -0.354 N 
ATOM     43  C   UNL A   1      43.162  27.630  32.461  1.00  0.00     0.074 A 
ATOM     44  C   UNL A   1      43.967  26.647  31.767  1.00  0.00     0.031 C 
ATOM     45  C   UNL A   1      38.976  29.488  27.964  1.00  0.00     0.029 A 
ATOM     46  C   UNL A   1      39.048  29.931  29.355  1.00  0.00     0.049 A 
ATOM     47  H   UNL A   1      40.471  29.386  30.776  1.00  0.00     0.167 HD
ATOM     48  C   UNL A   1      43.367  28.015  33.743  1.00  0.00     0.037 A 
ATOM     49  C   UNL A   1      38.198  30.789  29.956  1.00  0.00     0.037 A 
ATOM     50  C   UNL A   1      42.566  28.988  34.437  1.00  0.00     0.049 A 
ATOM     51  C   UNL A   1      38.395  31.139  31.410  1.00  0.00     0.074 A 
ATOM     52  C   UNL A   1      42.707  29.457  35.731  1.00  0.00     0.029 A 
ATOM     53  N   UNL A   1      41.464  29.635  33.897  1.00  0.00    -0.354 N 
ATOM     54  N   UNL A   1      39.326  30.738  32.242  1.00  0.00    -0.248 NA
ATOM     55  C   UNL A   1      37.419  32.063  32.008  1.00  0.00     0.031 C 
ATOM     56  C   UNL A   1      41.658  30.342  35.995  1.00  0.00     0.029 A 
ATOM     57  C   UNL A   1      40.900  30.477  34.842  1.00  0.00     0.049 A 
ATOM     58  H   UNL A   1      41.133  29.515  32.978  1.00  0.00     0.167 HD
ATOM     59  C   UNL A   1      39.070  31.387  33.445  1.00  0.00     0.074 A 
ATOM     60  C   UNL A   1      37.904  32.216  33.233  1.00  0.00     0.031 C 
ATOM     61  C   UNL A   1      39.744  31.307  34.619  1.00  0.00     0.037 A 
BRANCH  48  62
ATOM     62  C   UNL A   1      44.489  27.355  34.494  1.00  0.00     0.057 A 
ATOM     63  C   UNL A   1      45.816  27.784  34.374  1.00  0.00     0.134 A 
ATOM     64  C   UNL A   1      44.229  26.298  35.376  1.00  0.00     0.134 A 
ATOM     65  F   UNL A   1      46.136  28.782  33.536  1.00  0.00    -0.206 F 
ATOM     66  C   UNL A   1      46.848  27.171  35.087  1.00  0.00     0.040 A 
ATOM     67  C   UNL A   1      45.247  25.696  36.117  1.00  0.00     0.040 A 
ATOM     68  F   UNL A   1      42.978  25.840  35.543  1.00  0.00    -0.206 F 
ATOM     69  C   UNL A   1      46.564  26.128  35.967  1.00  0.00     0.006 A 
ENDBRANCH  48  62
BRANCH  49  70
ATOM     70  C   UNL A   1      37.062  31.372  29.195  1.00  0.00     0.057 A 
ATOM     71  C   UNL A   1      37.127  32.670  28.674  1.00  0.00     0.134 A 
ATOM     72  C   UNL A   1      35.869  30.662  29.004  1.00  0.00     0.134 A 
ATOM     73  F   UNL A   1      38.230  33.411  28.849  1.00  0.00    -0.206 F 
ATOM     74  C   UNL A   1      36.043  33.248  28.011  1.00  0.00     0.040 A 
ATOM     75  C   UNL A   1      34.788  31.217  28.318  1.00  0.00     0.040 A 
ATOM     76  F   UNL A   1      35.740  29.415  29.480  1.00  0.00    -0.206 F 
ATOM     77  C   UNL A   1      34.870  32.518  27.827  1.00  0.00     0.006 A 
ENDBRANCH  49  70
BRANCH  61  78
ATOM     78  C   UNL A   1      39.272  32.171  35.755  1.00  0.00     0.057 A 
ATOM     79  C   UNL A   1      39.726  33.484  35.934  1.00  0.00     0.134 A 
ATOM     80  C   UNL A   1      38.313  31.694  36.660  1.00  0.00     0.134 A 
ATOM     81  F   UNL A   1      40.652  34.001  35.111  1.00  0.00    -0.206 F 
ATOM     82  C   UNL A   1      39.263  34.281  36.984  1.00  0.00     0.040 A 
ATOM     83  C   UNL A   1      37.819  32.491  37.693  1.00  0.00     0.040 A 
ATOM     84  F   UNL A   1      37.824  30.450  36.541  1.00  0.00    -0.206 F 
ATOM     85  C   UNL A   1      38.301  33.787  37.862  1.00  0.00     0.006 A 
ENDBRANCH  61  78
ENDBRANCH  35  36
ENDBRANCH  28  30
ENDBRANCH  27  28
ENDBRANCH  26  27
ENDBRANCH  25  26
ENDBRANCH  24  25
ENDBRANCH  23  24
ENDBRANCH   1  23
TORSDOF 20
ENDMDL
