MODEL 1
REMARK VINA RESULT:     -10.1      0.000      0.000
REMARK SMILES O=C(OCCOCCOCCOC(=O)[C@H](CO)NC(=O)[C@H]1CC(=O)N(CC(F)(F)F)C1)c1ccc(-c2c3nc(c(-c4c(F)cccc4F)c4ccc([nH]4)c(-c4c(F)cccc4F)c4nc(c(-c5c(F)cccc5F)c5ccc2[nH]5)C=C4)C=C3)cc1
REMARK SMILES IDX 8 1 7 2 6 3 5 4 4 5 3 6 2 7 1 8 32 9 33 10 85 11 34 12 84 13
REMARK SMILES IDX 35 14 36 15 37 16 78 17 38 18 83 19 77 20 79 21 39 22 82 23
REMARK SMILES IDX 76 24 75 25 40 27 66 28 49 29 65 30 50 31 53 32 64 33 80 34
REMARK SMILES IDX 51 35 52 36 63 38 81 39 54 40 41 41 42 42 47 43 43 44 44 45
REMARK SMILES IDX 46 46 48 47 45 48 67 49 68 50 73 51 69 52 70 53 72 54 74 55
REMARK SMILES IDX 71 56 55 57 56 58 61 59 57 60 58 61 60 62 62 63 59 64 9 65
REMARK SMILES IDX 10 66 11 67 12 68 13 69 14 70 15 71 18 72 19 73 20 75 21 76
REMARK SMILES IDX 22 77 31 78 23 79 25 80 24 81 26 82 27 83 28 84 29 85 30 86
REMARK SMILES IDX 16 87 17 88
REMARK H PARENT 79 26 53 37 18 74 17 89
REMARK Flexibility Score: inf
ROOT
ATOM      1  C   UNL A   1      40.974  21.569  27.130  1.00  0.00     0.188 C 
ENDROOT
BRANCH   1   2
ATOM      2  C   UNL A   1      41.252  20.256  26.392  1.00  0.00     0.188 C 
BRANCH   2   3
ATOM      3  O   UNL A   1      42.285  20.354  25.403  1.00  0.00    -0.376 OA
BRANCH   3   4
ATOM      4  C   UNL A   1      43.409  21.119  25.845  1.00  0.00     0.202 C 
BRANCH   4   5
ATOM      5  C   UNL A   1      44.094  21.990  24.780  1.00  0.00     0.261 C 
BRANCH   5   6
ATOM      6  O   UNL A   1      43.548  23.310  24.647  1.00  0.00    -0.460 OA
BRANCH   6   7
ATOM      7  C   UNL A   1      44.027  24.508  25.056  1.00  0.00     0.338 C 
ATOM      8  O   UNL A   1      45.123  24.857  24.616  1.00  0.00    -0.246 OA
BRANCH   7   9
ATOM      9  C   UNL A   1      43.344  25.431  26.026  1.00  0.00     0.060 A 
ATOM     10  C   UNL A   1      43.708  26.749  26.309  1.00  0.00     0.016 A 
ATOM     11  C   UNL A   1      42.224  24.909  26.707  1.00  0.00     0.016 A 
ATOM     12  C   UNL A   1      43.020  27.510  27.253  1.00  0.00     0.010 A 
ATOM     13  C   UNL A   1      41.523  25.664  27.656  1.00  0.00     0.010 A 
ATOM     14  C   UNL A   1      41.941  26.965  27.948  1.00  0.00    -0.014 A 
BRANCH  14  15
ATOM     15  C   UNL A   1      41.420  27.714  29.109  1.00  0.00     0.031 A 
ATOM     16  C   UNL A   1      42.191  27.613  30.383  1.00  0.00     0.074 A 
ATOM     17  C   UNL A   1      40.386  28.565  28.987  1.00  0.00     0.049 A 
ATOM     18  N   UNL A   1      42.010  28.252  31.504  1.00  0.00    -0.248 NA
ATOM     19  C   UNL A   1      43.344  26.695  30.382  1.00  0.00     0.031 C 
ATOM     20  C   UNL A   1      39.657  28.791  27.752  1.00  0.00     0.029 A 
ATOM     21  N   UNL A   1      39.780  29.409  29.875  1.00  0.00    -0.354 N 
ATOM     22  C   UNL A   1      43.030  27.823  32.339  1.00  0.00     0.074 A 
ATOM     23  C   UNL A   1      43.815  26.856  31.606  1.00  0.00     0.031 C 
ATOM     24  C   UNL A   1      38.692  29.699  27.941  1.00  0.00     0.029 A 
ATOM     25  C   UNL A   1      38.720  30.106  29.337  1.00  0.00     0.049 A 
ATOM     26  H   UNL A   1      40.072  29.511  30.810  1.00  0.00     0.167 HD
ATOM     27  C   UNL A   1      43.275  28.208  33.610  1.00  0.00     0.037 A 
ATOM     28  C   UNL A   1      37.859  30.962  29.912  1.00  0.00     0.037 A 
ATOM     29  C   UNL A   1      42.436  29.130  34.324  1.00  0.00     0.049 A 
ATOM     30  C   UNL A   1      38.086  31.288  31.358  1.00  0.00     0.074 A 
ATOM     31  C   UNL A   1      42.534  29.552  35.634  1.00  0.00     0.029 A 
ATOM     32  N   UNL A   1      41.318  29.755  33.780  1.00  0.00    -0.354 N 
ATOM     33  N   UNL A   1      39.047  30.867  32.149  1.00  0.00    -0.248 NA
ATOM     34  C   UNL A   1      37.129  32.196  31.997  1.00  0.00     0.031 C 
ATOM     35  C   UNL A   1      41.443  30.387  35.900  1.00  0.00     0.029 A 
ATOM     36  C   UNL A   1      40.699  30.537  34.739  1.00  0.00     0.049 A 
ATOM     37  H   UNL A   1      41.013  29.655  32.850  1.00  0.00     0.167 HD
ATOM     38  C   UNL A   1      38.819  31.465  33.376  1.00  0.00     0.074 A 
ATOM     39  C   UNL A   1      37.639  32.298  33.216  1.00  0.00     0.031 C 
ATOM     40  C   UNL A   1      39.516  31.339  34.533  1.00  0.00     0.037 A 
BRANCH  27  41
ATOM     41  C   UNL A   1      44.434  27.550  34.295  1.00  0.00     0.057 A 
ATOM     42  C   UNL A   1      44.281  26.407  35.092  1.00  0.00     0.134 A 
ATOM     43  C   UNL A   1      45.711  28.119  34.218  1.00  0.00     0.134 A 
ATOM     44  F   UNL A   1      43.075  25.838  35.241  1.00  0.00    -0.206 F 
ATOM     45  C   UNL A   1      45.351  25.872  35.813  1.00  0.00     0.040 A 
ATOM     46  C   UNL A   1      46.794  27.578  34.913  1.00  0.00     0.040 A 
ATOM     47  F   UNL A   1      45.922  29.223  33.488  1.00  0.00    -0.206 F 
ATOM     48  C   UNL A   1      46.613  26.458  35.723  1.00  0.00     0.006 A 
ENDBRANCH  27  41
BRANCH  28  49
ATOM     49  C   UNL A   1      36.719  31.524  29.137  1.00  0.00     0.057 A 
ATOM     50  C   UNL A   1      36.692  32.859  28.720  1.00  0.00     0.134 A 
ATOM     51  C   UNL A   1      35.625  30.722  28.777  1.00  0.00     0.134 A 
ATOM     52  F   UNL A   1      37.701  33.685  29.035  1.00  0.00    -0.206 F 
ATOM     53  C   UNL A   1      35.620  33.379  27.989  1.00  0.00     0.040 A 
ATOM     54  C   UNL A   1      34.560  31.220  28.024  1.00  0.00     0.040 A 
ATOM     55  F   UNL A   1      35.589  29.427  29.128  1.00  0.00    -0.206 F 
ATOM     56  C   UNL A   1      34.552  32.556  27.633  1.00  0.00     0.006 A 
ENDBRANCH  28  49
BRANCH  40  57
ATOM     57  C   UNL A   1      39.020  32.139  35.697  1.00  0.00     0.057 A 
ATOM     58  C   UNL A   1      38.195  31.578  36.679  1.00  0.00     0.134 A 
ATOM     59  C   UNL A   1      39.404  33.476  35.851  1.00  0.00     0.134 A 
ATOM     60  F   UNL A   1      37.779  30.306  36.574  1.00  0.00    -0.206 F 
ATOM     61  C   UNL A   1      37.749  32.329  37.765  1.00  0.00     0.040 A 
ATOM     62  C   UNL A   1      38.990  34.228  36.948  1.00  0.00     0.040 A 
ATOM     63  F   UNL A   1      40.199  34.065  34.945  1.00  0.00    -0.206 F 
ATOM     64  C   UNL A   1      38.154  33.656  37.905  1.00  0.00     0.006 A 
ENDBRANCH  40  57
ENDBRANCH  14  15
ENDBRANCH   7   9
ENDBRANCH   6   7
ENDBRANCH   5   6
ENDBRANCH   4   5
ENDBRANCH   3   4
ENDBRANCH   2   3
ENDBRANCH   1   2
BRANCH   1  65
ATOM     65  O   UNL A   1      39.746  22.248  26.896  1.00  0.00    -0.376 OA
BRANCH  65  66
ATOM     66  C   UNL A   1      38.894  21.808  25.849  1.00  0.00     0.202 C 
BRANCH  66  67
ATOM     67  C   UNL A   1      37.470  22.379  25.734  1.00  0.00     0.261 C 
BRANCH  67  68
ATOM     68  O   UNL A   1      36.722  21.902  24.611  1.00  0.00    -0.462 OA
BRANCH  68  69
ATOM     69  C   UNL A   1      35.789  20.949  24.876  1.00  0.00     0.331 C 
ATOM     70  O   UNL A   1      36.023  19.753  25.002  1.00  0.00    -0.250 OA
BRANCH  69  71
ATOM     71  C   UNL A   1      34.388  21.543  25.043  1.00  0.00     0.218 C 
BRANCH  71  72
ATOM     72  N   UNL A   1      33.473  21.130  23.963  1.00  0.00    -0.341 N 
ATOM     73  C   UNL A   1      32.561  21.892  23.295  1.00  0.00     0.226 C 
ATOM     74  H   UNL A   1      33.527  20.185  23.691  1.00  0.00     0.164 HD
ATOM     75  O   UNL A   1      31.687  21.347  22.629  1.00  0.00    -0.275 OA
BRANCH  73  76
ATOM     76  C   UNL A   1      32.694  23.383  23.418  1.00  0.00     0.107 C 
ATOM     77  C   UNL A   1      33.554  23.943  22.284  1.00  0.00     0.115 C 
ATOM     78  C   UNL A   1      31.384  24.131  23.264  1.00  0.00     0.133 C 
ATOM     79  C   UNL A   1      33.064  25.358  22.178  1.00  0.00     0.223 C 
ATOM     80  N   UNL A   1      31.837  25.425  22.808  1.00  0.00    -0.333 N 
ATOM     81  O   UNL A   1      33.651  26.275  21.627  1.00  0.00    -0.275 OA
BRANCH  80  82
ATOM     82  C   UNL A   1      30.994  26.617  22.824  1.00  0.00     0.234 C 
BRANCH  82  83
ATOM     83  C   UNL A   1      31.161  27.506  24.052  1.00  0.00     0.406 C 
ATOM     84  F   UNL A   1      32.446  27.915  24.179  1.00  0.00    -0.169 F 
ATOM     85  F   UNL A   1      30.394  28.615  23.945  1.00  0.00    -0.169 F 
ATOM     86  F   UNL A   1      30.814  26.871  25.191  1.00  0.00    -0.169 F 
ENDBRANCH  82  83
ENDBRANCH  80  82
ENDBRANCH  73  76
ENDBRANCH  71  72
BRANCH  71  87
ATOM     87  C   UNL A   1      33.727  21.230  26.379  1.00  0.00     0.193 C 
BRANCH  87  88
ATOM     88  O   UNL A   1      33.279  19.872  26.414  1.00  0.00    -0.394 OA
ATOM     89  H   UNL A   1      34.046  19.279  26.419  1.00  0.00     0.210 HD
ENDBRANCH  87  88
ENDBRANCH  71  87
ENDBRANCH  69  71
ENDBRANCH  68  69
ENDBRANCH  67  68
ENDBRANCH  66  67
ENDBRANCH  65  66
ENDBRANCH   1  65
TORSDOF 23
ENDMDL
MODEL 2
REMARK VINA RESULT:      -9.8      4.721      9.908
REMARK SMILES O=C(OCCOCCOCCOC(=O)[C@H](CO)NC(=O)[C@H]1CC(=O)N(CC(F)(F)F)C1)c1ccc(-c2c3nc(c(-c4c(F)cccc4F)c4ccc([nH]4)c(-c4c(F)cccc4F)c4nc(c(-c5c(F)cccc5F)c5ccc2[nH]5)C=C4)C=C3)cc1
REMARK SMILES IDX 8 1 7 2 6 3 5 4 4 5 3 6 2 7 1 8 32 9 33 10 85 11 34 12 84 13
REMARK SMILES IDX 35 14 36 15 37 16 78 17 38 18 83 19 77 20 79 21 39 22 82 23
REMARK SMILES IDX 76 24 75 25 40 27 66 28 49 29 65 30 50 31 53 32 64 33 80 34
REMARK SMILES IDX 51 35 52 36 63 38 81 39 54 40 41 41 42 42 47 43 43 44 44 45
REMARK SMILES IDX 46 46 48 47 45 48 67 49 68 50 73 51 69 52 70 53 72 54 74 55
REMARK SMILES IDX 71 56 55 57 56 58 61 59 57 60 58 61 60 62 62 63 59 64 9 65
REMARK SMILES IDX 10 66 11 67 12 68 13 69 14 70 15 71 18 72 19 73 20 75 21 76
REMARK SMILES IDX 22 77 31 78 23 79 25 80 24 81 26 82 27 83 28 84 29 85 30 86
REMARK SMILES IDX 16 87 17 88
REMARK H PARENT 79 26 53 37 18 74 17 89
REMARK Flexibility Score: inf
ROOT
ATOM      1  C   UNL A   1      35.064  32.176  27.889  1.00  0.00     0.188 C 
ENDROOT
BRANCH   1   2
ATOM      2  C   UNL A   1      34.597  33.563  28.341  1.00  0.00     0.188 C 
BRANCH   2   3
ATOM      3  O   UNL A   1      35.144  33.978  29.600  1.00  0.00    -0.376 OA
BRANCH   3   4
ATOM      4  C   UNL A   1      34.140  34.353  30.547  1.00  0.00     0.202 C 
BRANCH   4   5
ATOM      5  C   UNL A   1      34.413  33.964  32.008  1.00  0.00     0.261 C 
BRANCH   5   6
ATOM      6  O   UNL A   1      34.906  32.628  32.189  1.00  0.00    -0.460 OA
BRANCH   6   7
ATOM      7  C   UNL A   1      36.048  32.180  32.759  1.00  0.00     0.338 C 
ATOM      8  O   UNL A   1      36.220  32.432  33.952  1.00  0.00    -0.246 OA
BRANCH   7   9
ATOM      9  C   UNL A   1      37.136  31.426  32.046  1.00  0.00     0.060 A 
ATOM     10  C   UNL A   1      38.231  30.796  32.641  1.00  0.00     0.016 A 
ATOM     11  C   UNL A   1      37.029  31.346  30.641  1.00  0.00     0.016 A 
ATOM     12  C   UNL A   1      39.202  30.147  31.879  1.00  0.00     0.010 A 
ATOM     13  C   UNL A   1      37.996  30.694  29.866  1.00  0.00     0.010 A 
ATOM     14  C   UNL A   1      39.103  30.113  30.489  1.00  0.00    -0.014 A 
BRANCH  14  15
ATOM     15  C   UNL A   1      40.278  29.646  29.726  1.00  0.00     0.031 A 
ATOM     16  C   UNL A   1      41.409  30.607  29.568  1.00  0.00     0.074 A 
ATOM     17  C   UNL A   1      40.388  28.369  29.321  1.00  0.00     0.049 A 
ATOM     18  N   UNL A   1      42.585  30.410  29.042  1.00  0.00    -0.248 NA
ATOM     19  C   UNL A   1      41.200  31.962  30.106  1.00  0.00     0.031 C 
ATOM     20  C   UNL A   1      39.371  27.355  29.534  1.00  0.00     0.029 A 
ATOM     21  N   UNL A   1      41.386  27.690  28.678  1.00  0.00    -0.354 N 
ATOM     22  C   UNL A   1      43.260  31.610  29.196  1.00  0.00     0.074 A 
ATOM     23  C   UNL A   1      42.361  32.537  29.844  1.00  0.00     0.031 C 
ATOM     24  C   UNL A   1      39.771  26.181  29.029  1.00  0.00     0.029 A 
ATOM     25  C   UNL A   1      41.081  26.370  28.427  1.00  0.00     0.049 A 
ATOM     26  H   UNL A   1      42.241  28.104  28.419  1.00  0.00     0.167 HD
ATOM     27  C   UNL A   1      44.524  31.902  28.817  1.00  0.00     0.037 A 
ATOM     28  C   UNL A   1      41.775  25.426  27.769  1.00  0.00     0.037 A 
ATOM     29  C   UNL A   1      45.368  30.970  28.123  1.00  0.00     0.049 A 
ATOM     30  C   UNL A   1      43.132  25.810  27.259  1.00  0.00     0.074 A 
ATOM     31  C   UNL A   1      46.642  31.161  27.627  1.00  0.00     0.029 A 
ATOM     32  N   UNL A   1      45.001  29.666  27.806  1.00  0.00    -0.354 N 
ATOM     33  N   UNL A   1      43.762  26.955  27.395  1.00  0.00    -0.248 NA
ATOM     34  C   UNL A   1      43.877  24.793  26.512  1.00  0.00     0.031 C 
ATOM     35  C   UNL A   1      47.022  29.991  26.958  1.00  0.00     0.029 A 
ATOM     36  C   UNL A   1      46.013  29.049  27.092  1.00  0.00     0.049 A 
ATOM     37  H   UNL A   1      44.147  29.244  28.053  1.00  0.00     0.167 HD
ATOM     38  C   UNL A   1      44.982  26.795  26.762  1.00  0.00     0.074 A 
ATOM     39  C   UNL A   1      45.011  25.432  26.261  1.00  0.00     0.031 C 
ATOM     40  C   UNL A   1      45.988  27.691  26.604  1.00  0.00     0.037 A 
BRANCH  27  41
ATOM     41  C   UNL A   1      44.991  33.302  29.077  1.00  0.00     0.057 A 
ATOM     42  C   UNL A   1      44.786  34.341  28.158  1.00  0.00     0.134 A 
ATOM     43  C   UNL A   1      45.730  33.595  30.230  1.00  0.00     0.134 A 
ATOM     44  F   UNL A   1      44.122  34.116  27.014  1.00  0.00    -0.206 F 
ATOM     45  C   UNL A   1      45.324  35.613  28.363  1.00  0.00     0.040 A 
ATOM     46  C   UNL A   1      46.251  34.869  30.458  1.00  0.00     0.040 A 
ATOM     47  F   UNL A   1      45.978  32.642  31.139  1.00  0.00    -0.206 F 
ATOM     48  C   UNL A   1      46.058  35.880  29.518  1.00  0.00     0.006 A 
ENDBRANCH  27  41
BRANCH  28  49
ATOM     49  C   UNL A   1      41.188  24.078  27.540  1.00  0.00     0.057 A 
ATOM     50  C   UNL A   1      40.128  23.871  26.650  1.00  0.00     0.134 A 
ATOM     51  C   UNL A   1      41.694  22.948  28.202  1.00  0.00     0.134 A 
ATOM     52  F   UNL A   1      39.591  24.906  25.989  1.00  0.00    -0.206 F 
ATOM     53  C   UNL A   1      39.585  22.601  26.438  1.00  0.00     0.040 A 
ATOM     54  C   UNL A   1      41.179  21.670  27.979  1.00  0.00     0.040 A 
ATOM     55  F   UNL A   1      42.721  23.067  29.057  1.00  0.00    -0.206 F 
ATOM     56  C   UNL A   1      40.115  21.494  27.099  1.00  0.00     0.006 A 
ENDBRANCH  28  49
BRANCH  40  57
ATOM     57  C   UNL A   1      47.202  27.203  25.875  1.00  0.00     0.057 A 
ATOM     58  C   UNL A   1      47.365  27.400  24.499  1.00  0.00     0.134 A 
ATOM     59  C   UNL A   1      48.233  26.560  26.571  1.00  0.00     0.134 A 
ATOM     60  F   UNL A   1      46.402  27.994  23.777  1.00  0.00    -0.206 F 
ATOM     61  C   UNL A   1      48.505  26.952  23.834  1.00  0.00     0.040 A 
ATOM     62  C   UNL A   1      49.390  26.135  25.922  1.00  0.00     0.040 A 
ATOM     63  F   UNL A   1      48.135  26.349  27.892  1.00  0.00    -0.206 F 
ATOM     64  C   UNL A   1      49.525  26.326  24.548  1.00  0.00     0.006 A 
ENDBRANCH  40  57
ENDBRANCH  14  15
ENDBRANCH   7   9
ENDBRANCH   6   7
ENDBRANCH   5   6
ENDBRANCH   4   5
ENDBRANCH   3   4
ENDBRANCH   2   3
ENDBRANCH   1   2
BRANCH   1  65
ATOM     65  O   UNL A   1      34.199  31.062  28.070  1.00  0.00    -0.376 OA
BRANCH  65  66
ATOM     66  C   UNL A   1      33.170  30.816  27.123  1.00  0.00     0.202 C 
BRANCH  66  67
ATOM     67  C   UNL A   1      33.016  29.413  26.512  1.00  0.00     0.261 C 
BRANCH  67  68
ATOM     68  O   UNL A   1      32.249  29.366  25.304  1.00  0.00    -0.462 OA
BRANCH  68  69
ATOM     69  C   UNL A   1      32.630  28.434  24.390  1.00  0.00     0.331 C 
ATOM     70  O   UNL A   1      33.766  28.307  23.946  1.00  0.00    -0.250 OA
BRANCH  69  71
ATOM     71  C   UNL A   1      31.475  27.512  23.991  1.00  0.00     0.218 C 
BRANCH  71  72
ATOM     72  N   UNL A   1      30.676  27.082  25.154  1.00  0.00    -0.341 N 
ATOM     73  C   UNL A   1      30.593  25.837  25.703  1.00  0.00     0.226 C 
ATOM     74  H   UNL A   1      30.135  27.781  25.587  1.00  0.00     0.164 HD
ATOM     75  O   UNL A   1      29.681  25.577  26.481  1.00  0.00    -0.275 OA
BRANCH  73  76
ATOM     76  C   UNL A   1      31.653  24.846  25.315  1.00  0.00     0.107 C 
ATOM     77  C   UNL A   1      32.923  25.063  26.139  1.00  0.00     0.115 C 
ATOM     78  C   UNL A   1      31.285  23.406  25.615  1.00  0.00     0.133 C 
ATOM     79  C   UNL A   1      33.558  23.703  26.114  1.00  0.00     0.223 C 
ATOM     80  N   UNL A   1      32.586  22.793  25.750  1.00  0.00    -0.333 N 
ATOM     81  O   UNL A   1      34.725  23.458  26.374  1.00  0.00    -0.275 OA
BRANCH  80  82
ATOM     82  C   UNL A   1      32.795  21.348  25.717  1.00  0.00     0.234 C 
BRANCH  82  83
ATOM     83  C   UNL A   1      33.393  20.815  24.419  1.00  0.00     0.406 C 
ATOM     84  F   UNL A   1      33.564  21.814  23.522  1.00  0.00    -0.169 F 
ATOM     85  F   UNL A   1      34.608  20.264  24.645  1.00  0.00    -0.169 F 
ATOM     86  F   UNL A   1      32.612  19.874  23.848  1.00  0.00    -0.169 F 
ENDBRANCH  82  83
ENDBRANCH  80  82
ENDBRANCH  73  76
ENDBRANCH  71  72
BRANCH  71  87
ATOM     87  C   UNL A   1      30.531  28.101  22.951  1.00  0.00     0.193 C 
BRANCH  87  88
ATOM     88  O   UNL A   1      30.905  27.683  21.635  1.00  0.00    -0.394 OA
ATOM     89  H   UNL A   1      31.813  27.345  21.650  1.00  0.00     0.210 HD
ENDBRANCH  87  88
ENDBRANCH  71  87
ENDBRANCH  69  71
ENDBRANCH  68  69
ENDBRANCH  67  68
ENDBRANCH  66  67
ENDBRANCH  65  66
ENDBRANCH   1  65
TORSDOF 23
ENDMDL
MODEL 3
REMARK VINA RESULT:      -9.8      3.201      8.261
REMARK SMILES O=C(OCCOCCOCCOC(=O)[C@H](CO)NC(=O)[C@H]1CC(=O)N(CC(F)(F)F)C1)c1ccc(-c2c3nc(c(-c4c(F)cccc4F)c4ccc([nH]4)c(-c4c(F)cccc4F)c4nc(c(-c5c(F)cccc5F)c5ccc2[nH]5)C=C4)C=C3)cc1
REMARK SMILES IDX 8 1 7 2 6 3 5 4 4 5 3 6 2 7 1 8 32 9 33 10 85 11 34 12 84 13
REMARK SMILES IDX 35 14 36 15 37 16 78 17 38 18 83 19 77 20 79 21 39 22 82 23
REMARK SMILES IDX 76 24 75 25 40 27 66 28 49 29 65 30 50 31 53 32 64 33 80 34
REMARK SMILES IDX 51 35 52 36 63 38 81 39 54 40 41 41 42 42 47 43 43 44 44 45
REMARK SMILES IDX 46 46 48 47 45 48 67 49 68 50 73 51 69 52 70 53 72 54 74 55
REMARK SMILES IDX 71 56 55 57 56 58 61 59 57 60 58 61 60 62 62 63 59 64 9 65
REMARK SMILES IDX 10 66 11 67 12 68 13 69 14 70 15 71 18 72 19 73 20 75 21 76
REMARK SMILES IDX 22 77 31 78 23 79 25 80 24 81 26 82 27 83 28 84 29 85 30 86
REMARK SMILES IDX 16 87 17 88
REMARK H PARENT 79 26 53 37 18 74 17 89
REMARK Flexibility Score: inf
ROOT
ATOM      1  C   UNL A   1      33.583  28.035  25.470  1.00  0.00     0.188 C 
ENDROOT
BRANCH   1   2
ATOM      2  C   UNL A   1      33.993  29.113  26.477  1.00  0.00     0.188 C 
BRANCH   2   3
ATOM      3  O   UNL A   1      32.890  29.849  27.021  1.00  0.00    -0.376 OA
BRANCH   3   4
ATOM      4  C   UNL A   1      33.234  31.195  27.363  1.00  0.00     0.202 C 
BRANCH   4   5
ATOM      5  C   UNL A   1      32.346  32.293  26.757  1.00  0.00     0.261 C 
BRANCH   5   6
ATOM      6  O   UNL A   1      32.064  33.388  27.640  1.00  0.00    -0.460 OA
BRANCH   6   7
ATOM      7  C   UNL A   1      32.897  34.226  28.300  1.00  0.00     0.338 C 
ATOM      8  O   UNL A   1      32.560  35.407  28.384  1.00  0.00    -0.246 OA
BRANCH   7   9
ATOM      9  C   UNL A   1      34.214  33.836  28.910  1.00  0.00     0.060 A 
ATOM     10  C   UNL A   1      35.480  34.097  28.382  1.00  0.00     0.016 A 
ATOM     11  C   UNL A   1      34.157  33.145  30.140  1.00  0.00     0.016 A 
ATOM     12  C   UNL A   1      36.642  33.662  29.019  1.00  0.00     0.010 A 
ATOM     13  C   UNL A   1      35.316  32.705  30.790  1.00  0.00     0.010 A 
ATOM     14  C   UNL A   1      36.565  32.944  30.212  1.00  0.00    -0.014 A 
BRANCH  14  15
ATOM     15  C   UNL A   1      37.795  32.288  30.701  1.00  0.00     0.031 A 
ATOM     16  C   UNL A   1      38.392  32.819  31.962  1.00  0.00     0.074 A 
ATOM     17  C   UNL A   1      38.272  31.173  30.120  1.00  0.00     0.049 A 
ATOM     18  N   UNL A   1      39.396  32.356  32.652  1.00  0.00    -0.248 NA
ATOM     19  C   UNL A   1      37.747  34.009  32.543  1.00  0.00     0.031 C 
ATOM     20  C   UNL A   1      37.680  30.544  28.953  1.00  0.00     0.029 A 
ATOM     21  N   UNL A   1      39.326  30.357  30.423  1.00  0.00    -0.354 N 
ATOM     22  C   UNL A   1      39.498  33.191  33.753  1.00  0.00     0.074 A 
ATOM     23  C   UNL A   1      38.471  34.199  33.633  1.00  0.00     0.031 C 
ATOM     24  C   UNL A   1      38.370  29.447  28.616  1.00  0.00     0.029 A 
ATOM     25  C   UNL A   1      39.482  29.309  29.542  1.00  0.00     0.049 A 
ATOM     26  H   UNL A   1      39.918  30.503  31.196  1.00  0.00     0.167 HD
ATOM     27  C   UNL A   1      40.385  33.113  34.769  1.00  0.00     0.037 A 
ATOM     28  C   UNL A   1      40.429  28.357  29.481  1.00  0.00     0.037 A 
ATOM     29  C   UNL A   1      41.429  32.128  34.824  1.00  0.00     0.049 A 
ATOM     30  C   UNL A   1      41.469  28.360  30.560  1.00  0.00     0.074 A 
ATOM     31  C   UNL A   1      42.431  31.981  35.761  1.00  0.00     0.029 A 
ATOM     32  N   UNL A   1      41.616  31.131  33.872  1.00  0.00    -0.354 N 
ATOM     33  N   UNL A   1      41.570  29.163  31.595  1.00  0.00    -0.248 NA
ATOM     34  C   UNL A   1      42.521  27.343  30.478  1.00  0.00     0.031 C 
ATOM     35  C   UNL A   1      43.258  30.931  35.346  1.00  0.00     0.029 A 
ATOM     36  C   UNL A   1      42.737  30.382  34.183  1.00  0.00     0.049 A 
ATOM     37  H   UNL A   1      41.036  30.980  33.091  1.00  0.00     0.167 HD
ATOM     38  C   UNL A   1      42.688  28.744  32.295  1.00  0.00     0.074 A 
ATOM     39  C   UNL A   1      43.219  27.599  31.575  1.00  0.00     0.031 C 
ATOM     40  C   UNL A   1      43.232  29.257  33.426  1.00  0.00     0.037 A 
BRANCH  27  41
ATOM     41  C   UNL A   1      40.290  34.177  35.820  1.00  0.00     0.057 A 
ATOM     42  C   UNL A   1      39.518  34.015  36.980  1.00  0.00     0.134 A 
ATOM     43  C   UNL A   1      40.917  35.414  35.629  1.00  0.00     0.134 A 
ATOM     44  F   UNL A   1      38.857  32.869  37.203  1.00  0.00    -0.206 F 
ATOM     45  C   UNL A   1      39.350  35.056  37.896  1.00  0.00     0.040 A 
ATOM     46  C   UNL A   1      40.778  36.453  36.550  1.00  0.00     0.040 A 
ATOM     47  F   UNL A   1      41.655  35.640  34.532  1.00  0.00    -0.206 F 
ATOM     48  C   UNL A   1      39.983  36.280  37.681  1.00  0.00     0.006 A 
ENDBRANCH  27  41
BRANCH  28  49
ATOM     49  C   UNL A   1      40.441  27.374  28.364  1.00  0.00     0.057 A 
ATOM     50  C   UNL A   1      39.702  26.186  28.413  1.00  0.00     0.134 A 
ATOM     51  C   UNL A   1      41.188  27.612  27.200  1.00  0.00     0.134 A 
ATOM     52  F   UNL A   1      38.971  25.890  29.497  1.00  0.00    -0.206 F 
ATOM     53  C   UNL A   1      39.716  25.269  27.358  1.00  0.00     0.040 A 
ATOM     54  C   UNL A   1      41.190  26.718  26.128  1.00  0.00     0.040 A 
ATOM     55  F   UNL A   1      41.908  28.737  27.074  1.00  0.00    -0.206 F 
ATOM     56  C   UNL A   1      40.456  25.537  26.207  1.00  0.00     0.006 A 
ENDBRANCH  28  49
BRANCH  40  57
ATOM     57  C   UNL A   1      44.449  28.561  33.951  1.00  0.00     0.057 A 
ATOM     58  C   UNL A   1      44.356  27.465  34.817  1.00  0.00     0.134 A 
ATOM     59  C   UNL A   1      45.727  28.975  33.555  1.00  0.00     0.134 A 
ATOM     60  F   UNL A   1      43.159  27.035  35.246  1.00  0.00    -0.206 F 
ATOM     61  C   UNL A   1      45.496  26.817  35.290  1.00  0.00     0.040 A 
ATOM     62  C   UNL A   1      46.872  28.316  33.996  1.00  0.00     0.040 A 
ATOM     63  F   UNL A   1      45.877  30.015  32.721  1.00  0.00    -0.206 F 
ATOM     64  C   UNL A   1      46.758  27.238  34.872  1.00  0.00     0.006 A 
ENDBRANCH  40  57
ENDBRANCH  14  15
ENDBRANCH   7   9
ENDBRANCH   6   7
ENDBRANCH   5   6
ENDBRANCH   4   5
ENDBRANCH   3   4
ENDBRANCH   2   3
ENDBRANCH   1   2
BRANCH   1  65
ATOM     65  O   UNL A   1      33.136  28.428  24.178  1.00  0.00    -0.376 OA
BRANCH  65  66
ATOM     66  C   UNL A   1      31.873  29.061  24.039  1.00  0.00     0.202 C 
BRANCH  66  67
ATOM     67  C   UNL A   1      30.656  28.241  23.578  1.00  0.00     0.261 C 
BRANCH  67  68
ATOM     68  O   UNL A   1      30.955  27.192  22.651  1.00  0.00    -0.462 OA
BRANCH  68  69
ATOM     69  C   UNL A   1      30.970  25.931  23.160  1.00  0.00     0.331 C 
ATOM     70  O   UNL A   1      30.136  25.475  23.933  1.00  0.00    -0.250 OA
BRANCH  69  71
ATOM     71  C   UNL A   1      32.144  25.107  22.623  1.00  0.00     0.218 C 
BRANCH  71  72
ATOM     72  N   UNL A   1      31.774  23.700  22.379  1.00  0.00    -0.341 N 
ATOM     73  C   UNL A   1      32.360  22.578  22.884  1.00  0.00     0.226 C 
ATOM     74  H   UNL A   1      31.011  23.554  21.776  1.00  0.00     0.164 HD
ATOM     75  O   UNL A   1      32.124  21.488  22.373  1.00  0.00    -0.275 OA
BRANCH  73  76
ATOM     76  C   UNL A   1      33.271  22.753  24.065  1.00  0.00     0.107 C 
ATOM     77  C   UNL A   1      32.721  22.015  25.286  1.00  0.00     0.115 C 
ATOM     78  C   UNL A   1      34.645  22.140  23.877  1.00  0.00     0.133 C 
ATOM     79  C   UNL A   1      33.963  21.750  26.087  1.00  0.00     0.223 C 
ATOM     80  N   UNL A   1      35.046  21.892  25.242  1.00  0.00    -0.333 N 
ATOM     81  O   UNL A   1      33.997  21.459  27.272  1.00  0.00    -0.275 OA
BRANCH  80  82
ATOM     82  C   UNL A   1      36.425  21.610  25.632  1.00  0.00     0.234 C 
BRANCH  82  83
ATOM     83  C   UNL A   1      37.351  22.822  25.639  1.00  0.00     0.406 C 
ATOM     84  F   UNL A   1      37.407  23.391  24.412  1.00  0.00    -0.169 F 
ATOM     85  F   UNL A   1      36.898  23.762  26.500  1.00  0.00    -0.169 F 
ATOM     86  F   UNL A   1      38.609  22.498  26.003  1.00  0.00    -0.169 F 
ENDBRANCH  82  83
ENDBRANCH  80  82
ENDBRANCH  73  76
ENDBRANCH  71  72
BRANCH  71  87
ATOM     87  C   UNL A   1      32.774  25.665  21.353  1.00  0.00     0.193 C 
BRANCH  87  88
ATOM     88  O   UNL A   1      33.621  26.776  21.656  1.00  0.00    -0.394 OA
ATOM     89  H   UNL A   1      33.467  27.485  21.013  1.00  0.00     0.210 HD
ENDBRANCH  87  88
ENDBRANCH  71  87
ENDBRANCH  69  71
ENDBRANCH  68  69
ENDBRANCH  67  68
ENDBRANCH  66  67
ENDBRANCH  65  66
ENDBRANCH   1  65
TORSDOF 23
ENDMDL
