MODEL 1
REMARK VINA RESULT:     -10.6      0.000      0.000
REMARK SMILES C[C@@H](C(=O)OCCOCCOCCOC(=O)c1ccc(-c2c3nc(c(-c4c(F)cccc4F)c4ccc([nH]4)c(-c4c(F)cccc4F)c4nc(c(-c5c(F)cccc5F)c5ccc2[nH]5)C=C4)C=C3)cc1)c1ccc(Cc2ccoc2)cc1F
REMARK SMILES IDX 9 1 8 2 7 3 6 4 5 5 3 6 4 7 2 8 1 9 71 10 72 11 82 12 73 13
REMARK SMILES IDX 81 14 83 15 74 16 75 17 76 18 77 19 80 20 78 21 79 22 10 23
REMARK SMILES IDX 11 24 12 25 13 26 14 27 15 28 16 29 17 30 18 31 70 32 19 33
REMARK SMILES IDX 69 34 20 35 21 36 22 37 63 38 23 39 68 40 62 41 64 42 24 43
REMARK SMILES IDX 67 44 61 45 60 46 25 48 51 49 34 50 50 51 35 52 38 53 49 54
REMARK SMILES IDX 65 55 36 56 37 57 48 59 66 60 39 61 26 62 27 63 32 64 28 65
REMARK SMILES IDX 29 66 31 67 33 68 30 69 52 70 53 71 58 72 54 73 55 74 57 75
REMARK SMILES IDX 59 76 56 77 40 78 41 79 46 80 42 81 43 82 45 83 47 84 44 85
REMARK H PARENT 64 47 38 58
REMARK Flexibility Score: inf
ROOT
ATOM      1  C   UNL A   1      34.089  33.964  28.229  1.00  0.00     0.188 C 
ENDROOT
BRANCH   1   2
ATOM      2  O   UNL A   1      33.703  32.662  28.654  1.00  0.00    -0.376 OA
BRANCH   2   3
ATOM      3  C   UNL A   1      34.051  31.549  27.829  1.00  0.00     0.202 C 
BRANCH   3   4
ATOM      4  C   UNL A   1      32.936  30.791  27.080  1.00  0.00     0.261 C 
BRANCH   4   5
ATOM      5  O   UNL A   1      32.866  29.378  27.373  1.00  0.00    -0.463 OA
BRANCH   5   6
ATOM      6  C   UNL A   1      33.612  28.544  26.599  1.00  0.00     0.313 C 
ATOM      7  O   UNL A   1      34.809  28.711  26.382  1.00  0.00    -0.252 OA
BRANCH   6   8
ATOM      8  C   UNL A   1      32.847  27.306  26.089  1.00  0.00     0.129 C 
ATOM      9  C   UNL A   1      33.754  26.104  25.765  1.00  0.00     0.025 C 
BRANCH   8  10
ATOM     10  C   UNL A   1      31.763  27.608  25.040  1.00  0.00     0.002 A 
ATOM     11  C   UNL A   1      31.880  28.671  24.129  1.00  0.00     0.008 A 
ATOM     12  C   UNL A   1      30.545  26.911  25.021  1.00  0.00     0.127 A 
ATOM     13  C   UNL A   1      30.835  29.016  23.259  1.00  0.00     0.004 A 
ATOM     14  C   UNL A   1      29.484  27.274  24.181  1.00  0.00     0.043 A 
ATOM     15  F   UNL A   1      30.351  25.870  25.844  1.00  0.00    -0.207 F 
ATOM     16  C   UNL A   1      29.598  28.363  23.309  1.00  0.00    -0.041 A 
BRANCH  16  17
ATOM     17  C   UNL A   1      28.435  28.774  22.430  1.00  0.00     0.074 C 
BRANCH  17  18
ATOM     18  C   UNL A   1      28.299  30.265  22.453  1.00  0.00    -0.005 A 
ATOM     19  C   UNL A   1      28.621  31.223  21.442  1.00  0.00     0.046 A 
ATOM     20  C   UNL A   1      27.713  31.011  23.460  1.00  0.00     0.198 A 
ATOM     21  C   UNL A   1      28.257  32.457  21.925  1.00  0.00     0.195 A 
ATOM     22  O   UNL A   1      27.695  32.333  23.151  1.00  0.00    -0.472 OA
ENDBRANCH  17  18
ENDBRANCH  16  17
ENDBRANCH   8  10
ENDBRANCH   6   8
ENDBRANCH   5   6
ENDBRANCH   4   5
ENDBRANCH   3   4
ENDBRANCH   2   3
ENDBRANCH   1   2
BRANCH   1  23
ATOM     23  C   UNL A   1      33.255  35.172  28.684  1.00  0.00     0.188 C 
BRANCH  23  24
ATOM     24  O   UNL A   1      33.737  35.810  29.841  1.00  0.00    -0.376 OA
BRANCH  24  25
ATOM     25  C   UNL A   1      33.604  35.164  31.092  1.00  0.00     0.202 C 
BRANCH  25  26
ATOM     26  C   UNL A   1      34.821  34.589  31.844  1.00  0.00     0.261 C 
BRANCH  26  27
ATOM     27  O   UNL A   1      35.198  33.232  31.568  1.00  0.00    -0.460 OA
BRANCH  27  28
ATOM     28  C   UNL A   1      35.900  32.575  32.518  1.00  0.00     0.338 C 
ATOM     29  O   UNL A   1      35.610  32.457  33.700  1.00  0.00    -0.246 OA
BRANCH  28  30
ATOM     30  C   UNL A   1      36.969  31.813  31.835  1.00  0.00     0.060 A 
ATOM     31  C   UNL A   1      37.899  31.097  32.605  1.00  0.00     0.016 A 
ATOM     32  C   UNL A   1      37.038  31.784  30.441  1.00  0.00     0.016 A 
ATOM     33  C   UNL A   1      38.913  30.366  31.981  1.00  0.00     0.010 A 
ATOM     34  C   UNL A   1      38.071  31.076  29.819  1.00  0.00     0.010 A 
ATOM     35  C   UNL A   1      39.028  30.387  30.585  1.00  0.00    -0.014 A 
BRANCH  35  36
ATOM     36  C   UNL A   1      40.250  29.857  29.931  1.00  0.00     0.031 A 
ATOM     37  C   UNL A   1      41.423  30.781  29.753  1.00  0.00     0.074 A 
ATOM     38  C   UNL A   1      40.321  28.586  29.495  1.00  0.00     0.049 A 
ATOM     39  N   UNL A   1      42.563  30.571  29.149  1.00  0.00    -0.248 NA
ATOM     40  C   UNL A   1      41.280  32.130  30.323  1.00  0.00     0.031 C 
ATOM     41  C   UNL A   1      39.263  27.589  29.623  1.00  0.00     0.029 A 
ATOM     42  N   UNL A   1      41.337  27.922  28.855  1.00  0.00    -0.354 N 
ATOM     43  C   UNL A   1      43.261  31.769  29.237  1.00  0.00     0.074 A 
ATOM     44  C   UNL A   1      42.412  32.704  29.942  1.00  0.00     0.031 C 
ATOM     45  C   UNL A   1      39.691  26.431  29.086  1.00  0.00     0.029 A 
ATOM     46  C   UNL A   1      41.037  26.619  28.543  1.00  0.00     0.049 A 
ATOM     47  H   UNL A   1      42.202  28.341  28.638  1.00  0.00     0.167 HD
ATOM     48  C   UNL A   1      44.496  32.067  28.768  1.00  0.00     0.037 A 
ATOM     49  C   UNL A   1      41.757  25.693  27.879  1.00  0.00     0.037 A 
ATOM     50  C   UNL A   1      45.341  31.136  28.066  1.00  0.00     0.049 A 
ATOM     51  C   UNL A   1      43.113  26.063  27.327  1.00  0.00     0.074 A 
ATOM     52  C   UNL A   1      46.617  31.339  27.571  1.00  0.00     0.029 A 
ATOM     53  N   UNL A   1      44.991  29.832  27.751  1.00  0.00    -0.354 N 
ATOM     54  N   UNL A   1      43.774  27.191  27.435  1.00  0.00    -0.248 NA
ATOM     55  C   UNL A   1      43.815  25.034  26.547  1.00  0.00     0.031 C 
ATOM     56  C   UNL A   1      47.015  30.177  26.904  1.00  0.00     0.029 A 
ATOM     57  C   UNL A   1      46.017  29.227  27.042  1.00  0.00     0.049 A 
ATOM     58  H   UNL A   1      44.141  29.400  27.995  1.00  0.00     0.167 HD
ATOM     59  C   UNL A   1      44.974  26.998  26.758  1.00  0.00     0.074 A 
ATOM     60  C   UNL A   1      44.960  25.638  26.263  1.00  0.00     0.031 C 
ATOM     61  C   UNL A   1      45.995  27.868  26.562  1.00  0.00     0.037 A 
BRANCH  48  62
ATOM     62  C   UNL A   1      44.990  33.470  28.961  1.00  0.00     0.057 A 
ATOM     63  C   UNL A   1      44.844  34.455  27.976  1.00  0.00     0.134 A 
ATOM     64  C   UNL A   1      45.596  33.848  30.167  1.00  0.00     0.134 A 
ATOM     65  F   UNL A   1      44.287  34.156  26.792  1.00  0.00    -0.206 F 
ATOM     66  C   UNL A   1      45.302  35.759  28.174  1.00  0.00     0.040 A 
ATOM     67  C   UNL A   1      46.029  35.156  30.389  1.00  0.00     0.040 A 
ATOM     68  F   UNL A   1      45.764  32.956  31.154  1.00  0.00    -0.206 F 
ATOM     69  C   UNL A   1      45.889  36.114  29.387  1.00  0.00     0.006 A 
ENDBRANCH  48  62
BRANCH  49  70
ATOM     70  C   UNL A   1      41.217  24.323  27.674  1.00  0.00     0.057 A 
ATOM     71  C   UNL A   1      41.698  23.238  28.418  1.00  0.00     0.134 A 
ATOM     72  C   UNL A   1      40.241  24.056  26.706  1.00  0.00     0.134 A 
ATOM     73  F   UNL A   1      42.657  23.422  29.337  1.00  0.00    -0.206 F 
ATOM     74  C   UNL A   1      41.245  21.937  28.193  1.00  0.00     0.040 A 
ATOM     75  C   UNL A   1      39.757  22.764  26.491  1.00  0.00     0.040 A 
ATOM     76  F   UNL A   1      39.739  25.048  25.957  1.00  0.00    -0.206 F 
ATOM     77  C   UNL A   1      40.267  21.698  27.229  1.00  0.00     0.006 A 
ENDBRANCH  49  70
BRANCH  61  78
ATOM     78  C   UNL A   1      47.204  27.370  25.818  1.00  0.00     0.057 A 
ATOM     79  C   UNL A   1      48.256  26.708  26.464  1.00  0.00     0.134 A 
ATOM     80  C   UNL A   1      47.291  27.514  24.427  1.00  0.00     0.134 A 
ATOM     81  F   UNL A   1      48.242  26.543  27.796  1.00  0.00    -0.206 F 
ATOM     82  C   UNL A   1      49.362  26.231  25.756  1.00  0.00     0.040 A 
ATOM     83  C   UNL A   1      48.377  27.014  23.705  1.00  0.00     0.040 A 
ATOM     84  F   UNL A   1      46.313  28.126  23.742  1.00  0.00    -0.206 F 
ATOM     85  C   UNL A   1      49.420  26.377  24.371  1.00  0.00     0.006 A 
ENDBRANCH  61  78
ENDBRANCH  35  36
ENDBRANCH  28  30
ENDBRANCH  27  28
ENDBRANCH  26  27
ENDBRANCH  25  26
ENDBRANCH  24  25
ENDBRANCH  23  24
ENDBRANCH   1  23
TORSDOF 20
ENDMDL
MODEL 2
REMARK VINA RESULT:     -10.4      2.034      3.438
REMARK SMILES C[C@@H](C(=O)OCCOCCOCCOC(=O)c1ccc(-c2c3nc(c(-c4c(F)cccc4F)c4ccc([nH]4)c(-c4c(F)cccc4F)c4nc(c(-c5c(F)cccc5F)c5ccc2[nH]5)C=C4)C=C3)cc1)c1ccc(Cc2ccoc2)cc1F
REMARK SMILES IDX 9 1 8 2 7 3 6 4 5 5 3 6 4 7 2 8 1 9 71 10 72 11 82 12 73 13
REMARK SMILES IDX 81 14 83 15 74 16 75 17 76 18 77 19 80 20 78 21 79 22 10 23
REMARK SMILES IDX 11 24 12 25 13 26 14 27 15 28 16 29 17 30 18 31 70 32 19 33
REMARK SMILES IDX 69 34 20 35 21 36 22 37 63 38 23 39 68 40 62 41 64 42 24 43
REMARK SMILES IDX 67 44 61 45 60 46 25 48 51 49 34 50 50 51 35 52 38 53 49 54
REMARK SMILES IDX 65 55 36 56 37 57 48 59 66 60 39 61 26 62 27 63 32 64 28 65
REMARK SMILES IDX 29 66 31 67 33 68 30 69 52 70 53 71 58 72 54 73 55 74 57 75
REMARK SMILES IDX 59 76 56 77 40 78 41 79 46 80 42 81 43 82 45 83 47 84 44 85
REMARK H PARENT 64 47 38 58
REMARK Flexibility Score: inf
ROOT
ATOM      1  C   UNL A   1      32.990  35.851  29.550  1.00  0.00     0.188 C 
ENDROOT
BRANCH   1   2
ATOM      2  O   UNL A   1      33.256  34.629  28.873  1.00  0.00    -0.376 OA
BRANCH   2   3
ATOM      3  C   UNL A   1      34.550  34.439  28.300  1.00  0.00     0.202 C 
BRANCH   3   4
ATOM      4  C   UNL A   1      35.021  33.010  27.962  1.00  0.00     0.261 C 
BRANCH   4   5
ATOM      5  O   UNL A   1      34.135  31.961  28.412  1.00  0.00    -0.463 OA
BRANCH   5   6
ATOM      6  C   UNL A   1      34.290  30.732  27.850  1.00  0.00     0.313 C 
ATOM      7  O   UNL A   1      35.112  29.907  28.241  1.00  0.00    -0.252 OA
BRANCH   6   8
ATOM      8  C   UNL A   1      33.274  30.417  26.733  1.00  0.00     0.129 C 
ATOM      9  C   UNL A   1      31.947  31.188  26.862  1.00  0.00     0.025 C 
BRANCH   8  10
ATOM     10  C   UNL A   1      33.132  28.923  26.397  1.00  0.00     0.002 A 
ATOM     11  C   UNL A   1      33.882  28.311  25.378  1.00  0.00     0.008 A 
ATOM     12  C   UNL A   1      32.157  28.122  27.010  1.00  0.00     0.127 A 
ATOM     13  C   UNL A   1      33.660  26.980  24.995  1.00  0.00     0.004 A 
ATOM     14  C   UNL A   1      31.906  26.803  26.607  1.00  0.00     0.043 A 
ATOM     15  F   UNL A   1      31.406  28.615  28.005  1.00  0.00    -0.207 F 
ATOM     16  C   UNL A   1      32.629  26.220  25.562  1.00  0.00    -0.041 A 
BRANCH  16  17
ATOM     17  C   UNL A   1      32.328  24.808  25.105  1.00  0.00     0.074 C 
BRANCH  17  18
ATOM     18  C   UNL A   1      33.456  23.907  25.501  1.00  0.00    -0.005 A 
ATOM     19  C   UNL A   1      33.693  23.237  26.741  1.00  0.00     0.046 A 
ATOM     20  C   UNL A   1      34.465  23.455  24.668  1.00  0.00     0.198 A 
ATOM     21  C   UNL A   1      34.831  22.483  26.581  1.00  0.00     0.195 A 
ATOM     22  O   UNL A   1      35.300  22.605  25.317  1.00  0.00    -0.472 OA
ENDBRANCH  17  18
ENDBRANCH  16  17
ENDBRANCH   8  10
ENDBRANCH   6   8
ENDBRANCH   5   6
ENDBRANCH   4   5
ENDBRANCH   3   4
ENDBRANCH   2   3
ENDBRANCH   1   2
BRANCH   1  23
ATOM     23  C   UNL A   1      32.518  35.805  31.011  1.00  0.00     0.188 C 
BRANCH  23  24
ATOM     24  O   UNL A   1      33.493  36.184  31.951  1.00  0.00    -0.376 OA
BRANCH  24  25
ATOM     25  C   UNL A   1      34.408  35.216  32.426  1.00  0.00     0.202 C 
BRANCH  25  26
ATOM     26  C   UNL A   1      34.118  33.705  32.328  1.00  0.00     0.261 C 
BRANCH  26  27
ATOM     27  O   UNL A   1      35.165  32.853  31.843  1.00  0.00    -0.460 OA
BRANCH  27  28
ATOM     28  C   UNL A   1      36.048  32.374  32.747  1.00  0.00     0.338 C 
ATOM     29  O   UNL A   1      35.931  32.376  33.965  1.00  0.00    -0.246 OA
BRANCH  28  30
ATOM     30  C   UNL A   1      37.087  31.625  32.004  1.00  0.00     0.060 A 
ATOM     31  C   UNL A   1      37.997  30.829  32.715  1.00  0.00     0.016 A 
ATOM     32  C   UNL A   1      37.144  31.690  30.611  1.00  0.00     0.016 A 
ATOM     33  C   UNL A   1      38.981  30.109  32.033  1.00  0.00     0.010 A 
ATOM     34  C   UNL A   1      38.148  30.993  29.933  1.00  0.00     0.010 A 
ATOM     35  C   UNL A   1      39.087  30.221  30.641  1.00  0.00    -0.014 A 
BRANCH  35  36
ATOM     36  C   UNL A   1      40.286  29.697  29.941  1.00  0.00     0.031 A 
ATOM     37  C   UNL A   1      41.453  30.622  29.732  1.00  0.00     0.074 A 
ATOM     38  C   UNL A   1      40.341  28.431  29.490  1.00  0.00     0.049 A 
ATOM     39  N   UNL A   1      42.572  30.417  29.088  1.00  0.00    -0.248 NA
ATOM     40  C   UNL A   1      41.331  31.966  30.320  1.00  0.00     0.031 C 
ATOM     41  C   UNL A   1      39.287  27.433  29.643  1.00  0.00     0.029 A 
ATOM     42  N   UNL A   1      41.335  27.773  28.809  1.00  0.00    -0.354 N 
ATOM     43  C   UNL A   1      43.273  31.614  29.164  1.00  0.00     0.074 A 
ATOM     44  C   UNL A   1      42.449  32.543  29.907  1.00  0.00     0.031 C 
ATOM     45  C   UNL A   1      39.696  26.280  29.081  1.00  0.00     0.029 A 
ATOM     46  C   UNL A   1      41.023  26.473  28.494  1.00  0.00     0.049 A 
ATOM     47  H   UNL A   1      42.192  28.193  28.568  1.00  0.00     0.167 HD
ATOM     48  C   UNL A   1      44.492  31.916  28.657  1.00  0.00     0.037 A 
ATOM     49  C   UNL A   1      41.720  25.553  27.798  1.00  0.00     0.037 A 
ATOM     50  C   UNL A   1      45.312  30.992  27.918  1.00  0.00     0.049 A 
ATOM     51  C   UNL A   1      43.057  25.928  27.204  1.00  0.00     0.074 A 
ATOM     52  C   UNL A   1      46.571  31.200  27.382  1.00  0.00     0.029 A 
ATOM     53  N   UNL A   1      44.951  29.692  27.602  1.00  0.00    -0.354 N 
ATOM     54  N   UNL A   1      43.721  27.055  27.301  1.00  0.00    -0.248 NA
ATOM     55  C   UNL A   1      43.731  24.906  26.390  1.00  0.00     0.031 C 
ATOM     56  C   UNL A   1      46.946  30.044  26.690  1.00  0.00     0.029 A 
ATOM     57  C   UNL A   1      45.952  29.093  26.853  1.00  0.00     0.049 A 
ATOM     58  H   UNL A   1      44.109  29.258  27.870  1.00  0.00     0.167 HD
ATOM     59  C   UNL A   1      44.898  26.868  26.582  1.00  0.00     0.074 A 
ATOM     60  C   UNL A   1      44.866  25.513  26.074  1.00  0.00     0.031 C 
ATOM     61  C   UNL A   1      45.913  27.740  26.361  1.00  0.00     0.037 A 
BRANCH  48  62
ATOM     62  C   UNL A   1      44.994  33.317  28.847  1.00  0.00     0.057 A 
ATOM     63  C   UNL A   1      45.824  33.675  29.917  1.00  0.00     0.134 A 
ATOM     64  C   UNL A   1      44.664  34.319  27.924  1.00  0.00     0.134 A 
ATOM     65  F   UNL A   1      46.166  32.768  30.846  1.00  0.00    -0.206 F 
ATOM     66  C   UNL A   1      46.289  34.982  30.076  1.00  0.00     0.040 A 
ATOM     67  C   UNL A   1      45.148  35.622  28.055  1.00  0.00     0.040 A 
ATOM     68  F   UNL A   1      43.875  34.046  26.874  1.00  0.00    -0.206 F 
ATOM     69  C   UNL A   1      45.957  35.957  29.138  1.00  0.00     0.006 A 
ENDBRANCH  48  62
BRANCH  49  70
ATOM     70  C   UNL A   1      41.172  24.186  27.598  1.00  0.00     0.057 A 
ATOM     71  C   UNL A   1      41.698  23.088  28.290  1.00  0.00     0.134 A 
ATOM     72  C   UNL A   1      40.141  23.934  26.684  1.00  0.00     0.134 A 
ATOM     73  F   UNL A   1      42.710  23.257  29.154  1.00  0.00    -0.206 F 
ATOM     74  C   UNL A   1      41.236  21.789  28.066  1.00  0.00     0.040 A 
ATOM     75  C   UNL A   1      39.648  22.645  26.472  1.00  0.00     0.040 A 
ATOM     76  F   UNL A   1      39.594  24.939  25.985  1.00  0.00    -0.206 F 
ATOM     77  C   UNL A   1      40.204  21.566  27.156  1.00  0.00     0.006 A 
ENDBRANCH  49  70
BRANCH  61  78
ATOM     78  C   UNL A   1      47.095  27.248  25.571  1.00  0.00     0.057 A 
ATOM     79  C   UNL A   1      47.246  27.523  24.206  1.00  0.00     0.134 A 
ATOM     80  C   UNL A   1      48.121  26.530  26.200  1.00  0.00     0.134 A 
ATOM     81  F   UNL A   1      46.298  28.199  23.538  1.00  0.00    -0.206 F 
ATOM     82  C   UNL A   1      48.361  27.079  23.490  1.00  0.00     0.040 A 
ATOM     83  C   UNL A   1      49.254  26.108  25.503  1.00  0.00     0.040 A 
ATOM     84  F   UNL A   1      48.049  26.243  27.509  1.00  0.00    -0.206 F 
ATOM     85  C   UNL A   1      49.373  26.376  24.142  1.00  0.00     0.006 A 
ENDBRANCH  61  78
ENDBRANCH  35  36
ENDBRANCH  28  30
ENDBRANCH  27  28
ENDBRANCH  26  27
ENDBRANCH  25  26
ENDBRANCH  24  25
ENDBRANCH  23  24
ENDBRANCH   1  23
TORSDOF 20
ENDMDL
MODEL 3
REMARK VINA RESULT:     -10.3      2.134      3.698
REMARK SMILES C[C@@H](C(=O)OCCOCCOCCOC(=O)c1ccc(-c2c3nc(c(-c4c(F)cccc4F)c4ccc([nH]4)c(-c4c(F)cccc4F)c4nc(c(-c5c(F)cccc5F)c5ccc2[nH]5)C=C4)C=C3)cc1)c1ccc(Cc2ccoc2)cc1F
REMARK SMILES IDX 9 1 8 2 7 3 6 4 5 5 3 6 4 7 2 8 1 9 71 10 72 11 82 12 73 13
REMARK SMILES IDX 81 14 83 15 74 16 75 17 76 18 77 19 80 20 78 21 79 22 10 23
REMARK SMILES IDX 11 24 12 25 13 26 14 27 15 28 16 29 17 30 18 31 70 32 19 33
REMARK SMILES IDX 69 34 20 35 21 36 22 37 63 38 23 39 68 40 62 41 64 42 24 43
REMARK SMILES IDX 67 44 61 45 60 46 25 48 51 49 34 50 50 51 35 52 38 53 49 54
REMARK SMILES IDX 65 55 36 56 37 57 48 59 66 60 39 61 26 62 27 63 32 64 28 65
REMARK SMILES IDX 29 66 31 67 33 68 30 69 52 70 53 71 58 72 54 73 55 74 57 75
REMARK SMILES IDX 59 76 56 77 40 78 41 79 46 80 42 81 43 82 45 83 47 84 44 85
REMARK H PARENT 64 47 38 58
REMARK Flexibility Score: inf
ROOT
ATOM      1  C   UNL A   1      33.966  34.605  29.024  1.00  0.00     0.188 C 
ENDROOT
BRANCH   1   2
ATOM      2  O   UNL A   1      33.729  33.205  29.101  1.00  0.00    -0.376 OA
BRANCH   2   3
ATOM      3  C   UNL A   1      33.923  32.418  27.925  1.00  0.00     0.202 C 
BRANCH   3   4
ATOM      4  C   UNL A   1      32.702  31.761  27.250  1.00  0.00     0.261 C 
BRANCH   4   5
ATOM      5  O   UNL A   1      33.018  30.644  26.390  1.00  0.00    -0.463 OA
BRANCH   5   6
ATOM      6  C   UNL A   1      32.586  29.415  26.782  1.00  0.00     0.313 C 
ATOM      7  O   UNL A   1      31.402  29.132  26.940  1.00  0.00    -0.252 OA
BRANCH   6   8
ATOM      8  C   UNL A   1      33.710  28.367  26.919  1.00  0.00     0.129 C 
ATOM      9  C   UNL A   1      35.111  28.977  27.109  1.00  0.00     0.025 C 
BRANCH   8  10
ATOM     10  C   UNL A   1      33.632  27.207  25.912  1.00  0.00     0.002 A 
ATOM     11  C   UNL A   1      33.377  25.885  26.314  1.00  0.00     0.008 A 
ATOM     12  C   UNL A   1      33.934  27.391  24.555  1.00  0.00     0.127 A 
ATOM     13  C   UNL A   1      33.429  24.815  25.408  1.00  0.00     0.004 A 
ATOM     14  C   UNL A   1      34.024  26.322  23.652  1.00  0.00     0.043 A 
ATOM     15  F   UNL A   1      34.173  28.621  24.078  1.00  0.00    -0.207 F 
ATOM     16  C   UNL A   1      33.810  25.005  24.074  1.00  0.00    -0.041 A 
BRANCH  16  17
ATOM     17  C   UNL A   1      33.946  23.851  23.104  1.00  0.00     0.074 C 
BRANCH  17  18
ATOM     18  C   UNL A   1      34.960  22.881  23.625  1.00  0.00    -0.005 A 
ATOM     19  C   UNL A   1      36.387  22.958  23.604  1.00  0.00     0.046 A 
ATOM     20  C   UNL A   1      34.689  21.733  24.348  1.00  0.00     0.198 A 
ATOM     21  C   UNL A   1      36.861  21.847  24.260  1.00  0.00     0.195 A 
ATOM     22  O   UNL A   1      35.830  21.102  24.724  1.00  0.00    -0.472 OA
ENDBRANCH  17  18
ENDBRANCH  16  17
ENDBRANCH   8  10
ENDBRANCH   6   8
ENDBRANCH   5   6
ENDBRANCH   4   5
ENDBRANCH   3   4
ENDBRANCH   2   3
ENDBRANCH   1   2
BRANCH   1  23
ATOM     23  C   UNL A   1      33.142  35.549  29.914  1.00  0.00     0.188 C 
BRANCH  23  24
ATOM     24  O   UNL A   1      33.131  35.202  31.277  1.00  0.00    -0.376 OA
BRANCH  24  25
ATOM     25  C   UNL A   1      34.084  35.784  32.145  1.00  0.00     0.202 C 
BRANCH  25  26
ATOM     26  C   UNL A   1      35.157  34.938  32.860  1.00  0.00     0.261 C 
BRANCH  26  27
ATOM     27  O   UNL A   1      35.941  34.041  32.061  1.00  0.00    -0.460 OA
BRANCH  27  28
ATOM     28  C   UNL A   1      35.561  32.744  32.025  1.00  0.00     0.338 C 
ATOM     29  O   UNL A   1      34.446  32.296  32.252  1.00  0.00    -0.246 OA
BRANCH  28  30
ATOM     30  C   UNL A   1      36.673  31.969  31.431  1.00  0.00     0.060 A 
ATOM     31  C   UNL A   1      37.598  31.338  32.278  1.00  0.00     0.016 A 
ATOM     32  C   UNL A   1      36.787  31.843  30.046  1.00  0.00     0.016 A 
ATOM     33  C   UNL A   1      38.651  30.596  31.738  1.00  0.00     0.010 A 
ATOM     34  C   UNL A   1      37.858  31.125  29.507  1.00  0.00     0.010 A 
ATOM     35  C   UNL A   1      38.810  30.521  30.349  1.00  0.00    -0.014 A 
BRANCH  35  36
ATOM     36  C   UNL A   1      40.066  29.983  29.771  1.00  0.00     0.031 A 
ATOM     37  C   UNL A   1      41.249  30.904  29.653  1.00  0.00     0.074 A 
ATOM     38  C   UNL A   1      40.160  28.709  29.352  1.00  0.00     0.049 A 
ATOM     39  N   UNL A   1      42.422  30.687  29.117  1.00  0.00    -0.248 NA
ATOM     40  C   UNL A   1      41.077  32.259  30.201  1.00  0.00     0.031 C 
ATOM     41  C   UNL A   1      39.095  27.714  29.427  1.00  0.00     0.029 A 
ATOM     42  N   UNL A   1      41.211  28.037  28.777  1.00  0.00    -0.354 N 
ATOM     43  C   UNL A   1      43.116  31.885  29.234  1.00  0.00     0.074 A 
ATOM     44  C   UNL A   1      42.229  32.828  29.881  1.00  0.00     0.031 C 
ATOM     45  C   UNL A   1      39.551  26.551  28.927  1.00  0.00     0.029 A 
ATOM     46  C   UNL A   1      40.926  26.732  28.460  1.00  0.00     0.049 A 
ATOM     47  H   UNL A   1      42.087  28.453  28.607  1.00  0.00     0.167 HD
ATOM     48  C   UNL A   1      44.377  32.177  28.834  1.00  0.00     0.037 A 
ATOM     49  C   UNL A   1      41.682  25.799  27.847  1.00  0.00     0.037 A 
ATOM     50  C   UNL A   1      45.259  31.239  28.191  1.00  0.00     0.049 A 
ATOM     51  C   UNL A   1      43.068  26.162  27.371  1.00  0.00     0.074 A 
ATOM     52  C   UNL A   1      46.561  31.436  27.768  1.00  0.00     0.029 A 
ATOM     53  N   UNL A   1      44.925  29.932  27.868  1.00  0.00    -0.354 N 
ATOM     54  N   UNL A   1      43.723  27.291  27.506  1.00  0.00    -0.248 NA
ATOM     55  C   UNL A   1      43.812  25.125  26.641  1.00  0.00     0.031 C 
ATOM     56  C   UNL A   1      46.996  30.267  27.135  1.00  0.00     0.029 A 
ATOM     57  C   UNL A   1      45.989  29.320  27.225  1.00  0.00     0.049 A 
ATOM     58  H   UNL A   1      44.062  29.504  28.066  1.00  0.00     0.167 HD
ATOM     59  C   UNL A   1      44.961  27.089  26.902  1.00  0.00     0.074 A 
ATOM     60  C   UNL A   1      44.973  25.725  26.419  1.00  0.00     0.031 C 
ATOM     61  C   UNL A   1      45.993  27.957  26.757  1.00  0.00     0.037 A 
BRANCH  48  62
ATOM     62  C   UNL A   1      44.861  33.581  29.043  1.00  0.00     0.057 A 
ATOM     63  C   UNL A   1      44.660  34.590  28.092  1.00  0.00     0.134 A 
ATOM     64  C   UNL A   1      45.515  33.936  30.231  1.00  0.00     0.134 A 
ATOM     65  F   UNL A   1      44.055  34.314  26.926  1.00  0.00    -0.206 F 
ATOM     66  C   UNL A   1      45.110  35.895  28.305  1.00  0.00     0.040 A 
ATOM     67  C   UNL A   1      45.942  35.244  30.468  1.00  0.00     0.040 A 
ATOM     68  F   UNL A   1      45.738  33.021  31.185  1.00  0.00    -0.206 F 
ATOM     69  C   UNL A   1      45.746  36.225  29.499  1.00  0.00     0.006 A 
ENDBRANCH  48  62
BRANCH  49  70
ATOM     70  C   UNL A   1      41.152  24.428  27.624  1.00  0.00     0.057 A 
ATOM     71  C   UNL A   1      40.144  24.187  26.681  1.00  0.00     0.134 A 
ATOM     72  C   UNL A   1      41.605  23.335  28.373  1.00  0.00     0.134 A 
ATOM     73  F   UNL A   1      39.643  25.198  25.957  1.00  0.00    -0.206 F 
ATOM     74  C   UNL A   1      39.592  22.917  26.506  1.00  0.00     0.040 A 
ATOM     75  C   UNL A   1      41.084  22.052  28.186  1.00  0.00     0.040 A 
ATOM     76  F   UNL A   1      42.565  23.495  29.294  1.00  0.00    -0.206 F 
ATOM     77  C   UNL A   1      40.066  21.843  27.258  1.00  0.00     0.006 A 
ENDBRANCH  49  70
BRANCH  61  78
ATOM     78  C   UNL A   1      47.241  27.450  26.088  1.00  0.00     0.057 A 
ATOM     79  C   UNL A   1      47.399  27.463  24.697  1.00  0.00     0.134 A 
ATOM     80  C   UNL A   1      48.320  26.988  26.853  1.00  0.00     0.134 A 
ATOM     81  F   UNL A   1      46.403  27.885  23.902  1.00  0.00    -0.206 F 
ATOM     82  C   UNL A   1      48.573  27.010  24.090  1.00  0.00     0.040 A 
ATOM     83  C   UNL A   1      49.510  26.562  26.261  1.00  0.00     0.040 A 
ATOM     84  F   UNL A   1      48.243  26.961  28.193  1.00  0.00    -0.206 F 
ATOM     85  C   UNL A   1      49.636  26.565  24.874  1.00  0.00     0.006 A 
ENDBRANCH  61  78
ENDBRANCH  35  36
ENDBRANCH  28  30
ENDBRANCH  27  28
ENDBRANCH  26  27
ENDBRANCH  25  26
ENDBRANCH  24  25
ENDBRANCH  23  24
ENDBRANCH   1  23
TORSDOF 20
ENDMDL
