MODEL 1
REMARK VINA RESULT:     -11.3      0.000      0.000
REMARK SMILES Cc1cc2c(c(C)c1Cl)C=C(C(=O)OCCOCCOCCOC(=O)c1ccc(-c3c4nc(c(-c5c(F)cccc5F)c5ccc([nH]5)c(-c5c(F)cccc5F)c5nc(c(-c6c(F)cccc6F)c6ccc3[nH]6)C=C5)C=C4)cc1)[C@@H](C(F)(F)F)O2
REMARK SMILES IDX 19 1 18 2 17 3 16 4 15 5 14 6 12 7 13 8 11 9 1 10 2 11 3 12
REMARK SMILES IDX 8 13 4 14 6 15 9 16 5 17 85 18 7 19 10 20 80 21 81 22 82 23
REMARK SMILES IDX 83 24 84 25 20 26 21 27 22 28 23 29 24 30 25 31 26 32 27 33
REMARK SMILES IDX 79 34 28 35 78 36 29 37 30 38 31 39 72 40 32 41 77 42 71 43
REMARK SMILES IDX 73 44 33 45 76 46 70 47 69 48 34 50 60 51 43 52 59 53 44 54
REMARK SMILES IDX 47 55 58 56 74 57 45 58 46 59 57 61 75 62 48 63 35 64 36 65
REMARK SMILES IDX 41 66 37 67 38 68 40 69 42 70 39 71 61 72 62 73 67 74 63 75
REMARK SMILES IDX 64 76 66 77 68 78 65 79 49 80 50 81 55 82 51 83 52 84 54 85
REMARK SMILES IDX 56 86 53 87
REMARK H PARENT 73 49 47 60
REMARK Flexibility Score: inf
ROOT
ATOM      1  C   UNL A   1      40.778  20.887  27.248  1.00  0.00     0.188 C 
ENDROOT
BRANCH   1   2
ATOM      2  C   UNL A   1      40.017  21.737  26.211  1.00  0.00     0.188 C 
BRANCH   2   3
ATOM      3  O   UNL A   1      38.760  21.314  25.725  1.00  0.00    -0.376 OA
BRANCH   3   4
ATOM      4  C   UNL A   1      37.610  22.130  25.865  1.00  0.00     0.202 C 
BRANCH   4   5
ATOM      5  C   UNL A   1      37.452  23.503  25.194  1.00  0.00     0.261 C 
BRANCH   5   6
ATOM      6  O   UNL A   1      36.112  23.900  24.880  1.00  0.00    -0.460 OA
BRANCH   6   7
ATOM      7  C   UNL A   1      35.689  23.571  23.636  1.00  0.00     0.338 C 
ATOM      8  O   UNL A   1      36.308  22.938  22.796  1.00  0.00    -0.246 OA
BRANCH   7   9
ATOM      9  C   UNL A   1      34.273  23.957  23.479  1.00  0.00     0.087 C 
ATOM     10  C   UNL A   1      28.444  26.718  23.909  1.00  0.00     0.046 C 
ATOM     11  C   UNL A   1      29.899  26.408  23.668  1.00  0.00    -0.028 A 
ATOM     12  C   UNL A   1      30.283  25.074  23.485  1.00  0.00     0.052 A 
ATOM     13  C   UNL A   1      30.888  27.411  23.651  1.00  0.00     0.047 A 
ATOM     14  C   UNL A   1      31.627  24.729  23.375  1.00  0.00     0.128 A 
ATOM     15  C   UNL A   1      32.256  27.083  23.508  1.00  0.00    -0.021 A 
ATOM     16  Cl  UNL A   1      30.389  29.065  23.844  1.00  0.00    -0.084 Cl
ATOM     17  C   UNL A   1      32.620  25.714  23.430  1.00  0.00     0.022 A 
ATOM     18  O   UNL A   1      31.868  23.393  23.226  1.00  0.00    -0.475 OA
ATOM     19  C   UNL A   1      33.327  28.148  23.454  1.00  0.00     0.047 C 
ATOM     20  C   UNL A   1      34.011  25.271  23.482  1.00  0.00     0.027 C 
ATOM     21  C   UNL A   1      33.226  22.894  23.328  1.00  0.00     0.316 C 
BRANCH  21  22
ATOM     22  C   UNL A   1      33.276  21.857  24.459  1.00  0.00     0.430 C 
ATOM     23  F   UNL A   1      32.096  21.201  24.578  1.00  0.00    -0.167 F 
ATOM     24  F   UNL A   1      34.222  20.915  24.236  1.00  0.00    -0.167 F 
ATOM     25  F   UNL A   1      33.547  22.427  25.655  1.00  0.00    -0.167 F 
ENDBRANCH  21  22
ENDBRANCH   7   9
ENDBRANCH   6   7
ENDBRANCH   5   6
ENDBRANCH   4   5
ENDBRANCH   3   4
ENDBRANCH   2   3
ENDBRANCH   1   2
BRANCH   1  26
ATOM     26  O   UNL A   1      42.176  20.770  27.149  1.00  0.00    -0.376 OA
BRANCH  26  27
ATOM     27  C   UNL A   1      42.796  20.690  25.876  1.00  0.00     0.202 C 
BRANCH  27  28
ATOM     28  C   UNL A   1      43.734  21.755  25.267  1.00  0.00     0.261 C 
BRANCH  28  29
ATOM     29  O   UNL A   1      43.157  23.000  24.859  1.00  0.00    -0.460 OA
BRANCH  29  30
ATOM     30  C   UNL A   1      43.935  24.096  25.055  1.00  0.00     0.338 C 
ATOM     31  O   UNL A   1      44.950  24.401  24.460  1.00  0.00    -0.246 OA
BRANCH  30  32
ATOM     32  C   UNL A   1      43.245  25.004  25.993  1.00  0.00     0.060 A 
ATOM     33  C   UNL A   1      43.697  26.327  26.101  1.00  0.00     0.016 A 
ATOM     34  C   UNL A   1      42.182  24.550  26.774  1.00  0.00     0.016 A 
ATOM     35  C   UNL A   1      43.085  27.203  26.997  1.00  0.00     0.010 A 
ATOM     36  C   UNL A   1      41.592  25.421  27.696  1.00  0.00     0.010 A 
ATOM     37  C   UNL A   1      42.054  26.744  27.826  1.00  0.00    -0.014 A 
BRANCH  37  38
ATOM     38  C   UNL A   1      41.599  27.587  28.958  1.00  0.00     0.031 A 
ATOM     39  C   UNL A   1      42.343  27.491  30.260  1.00  0.00     0.074 A 
ATOM     40  C   UNL A   1      40.577  28.451  28.825  1.00  0.00     0.049 A 
ATOM     41  N   UNL A   1      42.105  28.090  31.398  1.00  0.00    -0.248 NA
ATOM     42  C   UNL A   1      43.518  26.604  30.281  1.00  0.00     0.031 C 
ATOM     43  C   UNL A   1      39.819  28.686  27.597  1.00  0.00     0.029 A 
ATOM     44  N   UNL A   1      40.000  29.293  29.744  1.00  0.00    -0.354 N 
ATOM     45  C   UNL A   1      43.103  27.661  32.263  1.00  0.00     0.074 A 
ATOM     46  C   UNL A   1      43.928  26.725  31.534  1.00  0.00     0.031 C 
ATOM     47  C   UNL A   1      38.871  29.609  27.842  1.00  0.00     0.029 A 
ATOM     48  C   UNL A   1      38.932  30.001  29.250  1.00  0.00     0.049 A 
ATOM     49  H   UNL A   1      40.323  29.382  30.670  1.00  0.00     0.167 HD
ATOM     50  C   UNL A   1      43.320  28.026  33.548  1.00  0.00     0.037 A 
ATOM     51  C   UNL A   1      38.088  30.850  29.873  1.00  0.00     0.037 A 
ATOM     52  C   UNL A   1      42.497  28.951  34.278  1.00  0.00     0.049 A 
ATOM     53  C   UNL A   1      38.282  31.147  31.340  1.00  0.00     0.074 A 
ATOM     54  C   UNL A   1      42.631  29.371  35.589  1.00  0.00     0.029 A 
ATOM     55  N   UNL A   1      41.385  29.599  33.761  1.00  0.00    -0.354 N 
ATOM     56  N   UNL A   1      39.227  30.737  32.151  1.00  0.00    -0.248 NA
ATOM     57  C   UNL A   1      37.287  32.022  31.980  1.00  0.00     0.031 C 
ATOM     58  C   UNL A   1      41.573  30.233  35.883  1.00  0.00     0.029 A 
ATOM     59  C   UNL A   1      40.811  30.396  34.736  1.00  0.00     0.049 A 
ATOM     60  H   UNL A   1      41.055  29.505  32.838  1.00  0.00     0.167 HD
ATOM     61  C   UNL A   1      38.961  31.329  33.380  1.00  0.00     0.074 A 
ATOM     62  C   UNL A   1      37.773  32.136  33.209  1.00  0.00     0.031 C 
ATOM     63  C   UNL A   1      39.639  31.211  34.549  1.00  0.00     0.037 A 
BRANCH  50  64
ATOM     64  C   UNL A   1      44.492  27.420  34.260  1.00  0.00     0.057 A 
ATOM     65  C   UNL A   1      44.393  26.187  34.918  1.00  0.00     0.134 A 
ATOM     66  C   UNL A   1      45.749  28.034  34.217  1.00  0.00     0.134 A 
ATOM     67  F   UNL A   1      43.212  25.558  35.008  1.00  0.00    -0.206 F 
ATOM     68  C   UNL A   1      45.505  25.586  35.508  1.00  0.00     0.040 A 
ATOM     69  C   UNL A   1      46.875  27.431  34.782  1.00  0.00     0.040 A 
ATOM     70  F   UNL A   1      45.911  29.215  33.602  1.00  0.00    -0.206 F 
ATOM     71  C   UNL A   1      46.753  26.202  35.429  1.00  0.00     0.006 A 
ENDBRANCH  50  64
BRANCH  51  72
ATOM     72  C   UNL A   1      36.967  31.480  29.125  1.00  0.00     0.057 A 
ATOM     73  C   UNL A   1      37.034  32.814  28.708  1.00  0.00     0.134 A 
ATOM     74  C   UNL A   1      35.787  30.778  28.847  1.00  0.00     0.134 A 
ATOM     75  F   UNL A   1      38.125  33.549  28.969  1.00  0.00    -0.206 F 
ATOM     76  C   UNL A   1      35.965  33.434  28.058  1.00  0.00     0.040 A 
ATOM     77  C   UNL A   1      34.720  31.378  28.172  1.00  0.00     0.040 A 
ATOM     78  F   UNL A   1      35.653  29.499  29.226  1.00  0.00    -0.206 F 
ATOM     79  C   UNL A   1      34.805  32.712  27.782  1.00  0.00     0.006 A 
ENDBRANCH  51  72
BRANCH  63  80
ATOM     80  C   UNL A   1      39.146  31.993  35.733  1.00  0.00     0.057 A 
ATOM     81  C   UNL A   1      39.485  33.338  35.922  1.00  0.00     0.134 A 
ATOM     82  C   UNL A   1      38.248  31.420  36.644  1.00  0.00     0.134 A 
ATOM     83  F   UNL A   1      40.345  33.947  35.090  1.00  0.00    -0.206 F 
ATOM     84  C   UNL A   1      38.958  34.082  36.980  1.00  0.00     0.040 A 
ATOM     85  C   UNL A   1      37.692  32.161  37.688  1.00  0.00     0.040 A 
ATOM     86  F   UNL A   1      37.869  30.140  36.513  1.00  0.00    -0.206 F 
ATOM     87  C   UNL A   1      38.049  33.496  37.860  1.00  0.00     0.006 A 
ENDBRANCH  63  80
ENDBRANCH  37  38
ENDBRANCH  30  32
ENDBRANCH  29  30
ENDBRANCH  28  29
ENDBRANCH  27  28
ENDBRANCH  26  27
ENDBRANCH   1  26
TORSDOF 18
ENDMDL
MODEL 2
REMARK VINA RESULT:     -11.2      4.662      9.635
REMARK SMILES Cc1cc2c(c(C)c1Cl)C=C(C(=O)OCCOCCOCCOC(=O)c1ccc(-c3c4nc(c(-c5c(F)cccc5F)c5ccc([nH]5)c(-c5c(F)cccc5F)c5nc(c(-c6c(F)cccc6F)c6ccc3[nH]6)C=C5)C=C4)cc1)[C@@H](C(F)(F)F)O2
REMARK SMILES IDX 19 1 18 2 17 3 16 4 15 5 14 6 12 7 13 8 11 9 1 10 2 11 3 12
REMARK SMILES IDX 8 13 4 14 6 15 9 16 5 17 85 18 7 19 10 20 80 21 81 22 82 23
REMARK SMILES IDX 83 24 84 25 20 26 21 27 22 28 23 29 24 30 25 31 26 32 27 33
REMARK SMILES IDX 79 34 28 35 78 36 29 37 30 38 31 39 72 40 32 41 77 42 71 43
REMARK SMILES IDX 73 44 33 45 76 46 70 47 69 48 34 50 60 51 43 52 59 53 44 54
REMARK SMILES IDX 47 55 58 56 74 57 45 58 46 59 57 61 75 62 48 63 35 64 36 65
REMARK SMILES IDX 41 66 37 67 38 68 40 69 42 70 39 71 61 72 62 73 67 74 63 75
REMARK SMILES IDX 64 76 66 77 68 78 65 79 49 80 50 81 55 82 51 83 52 84 54 85
REMARK SMILES IDX 56 86 53 87
REMARK H PARENT 73 49 47 60
REMARK Flexibility Score: inf
ROOT
ATOM      1  C   UNL A   1      34.720  33.527  28.189  1.00  0.00     0.188 C 
ENDROOT
BRANCH   1   2
ATOM      2  C   UNL A   1      34.911  32.081  27.688  1.00  0.00     0.188 C 
BRANCH   2   3
ATOM      3  O   UNL A   1      34.006  31.067  28.071  1.00  0.00    -0.376 OA
BRANCH   3   4
ATOM      4  C   UNL A   1      32.900  30.727  27.252  1.00  0.00     0.202 C 
BRANCH   4   5
ATOM      5  C   UNL A   1      33.014  29.886  25.971  1.00  0.00     0.261 C 
BRANCH   5   6
ATOM      6  O   UNL A   1      33.373  28.511  26.150  1.00  0.00    -0.460 OA
BRANCH   6   7
ATOM      7  C   UNL A   1      33.537  27.804  25.007  1.00  0.00     0.338 C 
ATOM      8  O   UNL A   1      34.015  28.206  23.959  1.00  0.00    -0.246 OA
BRANCH   7   9
ATOM      9  C   UNL A   1      33.192  26.389  25.249  1.00  0.00     0.087 C 
ATOM     10  C   UNL A   1      32.742  19.942  25.147  1.00  0.00     0.046 C 
ATOM     11  C   UNL A   1      33.191  21.371  25.299  1.00  0.00    -0.028 A 
ATOM     12  C   UNL A   1      32.223  22.366  25.480  1.00  0.00     0.052 A 
ATOM     13  C   UNL A   1      34.548  21.743  25.235  1.00  0.00     0.047 A 
ATOM     14  C   UNL A   1      32.582  23.712  25.509  1.00  0.00     0.128 A 
ATOM     15  C   UNL A   1      34.935  23.103  25.295  1.00  0.00    -0.021 A 
ATOM     16  Cl  UNL A   1      35.739  20.492  25.046  1.00  0.00    -0.084 Cl
ATOM     17  C   UNL A   1      33.922  24.092  25.374  1.00  0.00     0.022 A 
ATOM     18  O   UNL A   1      31.540  24.582  25.666  1.00  0.00    -0.475 OA
ATOM     19  C   UNL A   1      36.388  23.517  25.262  1.00  0.00     0.047 C 
ATOM     20  C   UNL A   1      34.210  25.518  25.240  1.00  0.00     0.027 C 
ATOM     21  C   UNL A   1      31.761  26.004  25.485  1.00  0.00     0.316 C 
BRANCH  21  22
ATOM     22  C   UNL A   1      30.829  26.500  24.371  1.00  0.00     0.430 C 
ATOM     23  F   UNL A   1      31.421  26.410  23.156  1.00  0.00    -0.167 F 
ATOM     24  F   UNL A   1      29.693  25.765  24.303  1.00  0.00    -0.167 F 
ATOM     25  F   UNL A   1      30.466  27.789  24.553  1.00  0.00    -0.167 F 
ENDBRANCH  21  22
ENDBRANCH   7   9
ENDBRANCH   6   7
ENDBRANCH   5   6
ENDBRANCH   4   5
ENDBRANCH   3   4
ENDBRANCH   2   3
ENDBRANCH   1   2
BRANCH   1  26
ATOM     26  O   UNL A   1      33.752  33.792  29.174  1.00  0.00    -0.376 OA
BRANCH  26  27
ATOM     27  C   UNL A   1      34.078  34.597  30.295  1.00  0.00     0.202 C 
BRANCH  27  28
ATOM     28  C   UNL A   1      34.486  34.073  31.688  1.00  0.00     0.261 C 
BRANCH  28  29
ATOM     29  O   UNL A   1      34.757  32.673  31.823  1.00  0.00    -0.460 OA
BRANCH  29  30
ATOM     30  C   UNL A   1      35.752  32.352  32.690  1.00  0.00     0.338 C 
ATOM     31  O   UNL A   1      35.754  32.485  33.898  1.00  0.00    -0.246 OA
BRANCH  30  32
ATOM     32  C   UNL A   1      36.794  31.606  31.958  1.00  0.00     0.060 A 
ATOM     33  C   UNL A   1      37.750  30.891  32.694  1.00  0.00     0.016 A 
ATOM     34  C   UNL A   1      36.844  31.630  30.564  1.00  0.00     0.016 A 
ATOM     35  C   UNL A   1      38.764  30.198  32.035  1.00  0.00     0.010 A 
ATOM     36  C   UNL A   1      37.882  30.962  29.906  1.00  0.00     0.010 A 
ATOM     37  C   UNL A   1      38.857  30.261  30.639  1.00  0.00    -0.014 A 
BRANCH  37  38
ATOM     38  C   UNL A   1      40.081  29.761  29.967  1.00  0.00     0.031 A 
ATOM     39  C   UNL A   1      41.236  30.708  29.796  1.00  0.00     0.074 A 
ATOM     40  C   UNL A   1      40.187  28.485  29.555  1.00  0.00     0.049 A 
ATOM     41  N   UNL A   1      42.386  30.516  29.203  1.00  0.00    -0.248 NA
ATOM     42  C   UNL A   1      41.075  32.050  30.378  1.00  0.00     0.031 C 
ATOM     43  C   UNL A   1      39.165  27.453  29.722  1.00  0.00     0.029 A 
ATOM     44  N   UNL A   1      41.212  27.843  28.905  1.00  0.00    -0.354 N 
ATOM     45  C   UNL A   1      43.086  31.706  29.348  1.00  0.00     0.074 A 
ATOM     46  C   UNL A   1      42.222  32.627  30.053  1.00  0.00     0.031 C 
ATOM     47  C   UNL A   1      39.615  26.305  29.181  1.00  0.00     0.029 A 
ATOM     48  C   UNL A   1      40.937  26.532  28.599  1.00  0.00     0.049 A 
ATOM     49  H   UNL A   1      42.065  28.280  28.680  1.00  0.00     0.167 HD
ATOM     50  C   UNL A   1      44.342  32.001  28.943  1.00  0.00     0.037 A 
ATOM     51  C   UNL A   1      41.663  25.629  27.908  1.00  0.00     0.037 A 
ATOM     52  C   UNL A   1      45.201  31.090  28.236  1.00  0.00     0.049 A 
ATOM     53  C   UNL A   1      43.014  26.023  27.362  1.00  0.00     0.074 A 
ATOM     54  C   UNL A   1      46.486  31.306  27.772  1.00  0.00     0.029 A 
ATOM     55  N   UNL A   1      44.861  29.792  27.889  1.00  0.00    -0.354 N 
ATOM     56  N   UNL A   1      43.669  27.151  27.504  1.00  0.00    -0.248 NA
ATOM     57  C   UNL A   1      43.726  25.019  26.555  1.00  0.00     0.031 C 
ATOM     58  C   UNL A   1      46.906  30.157  27.099  1.00  0.00     0.029 A 
ATOM     59  C   UNL A   1      45.905  29.203  27.196  1.00  0.00     0.049 A 
ATOM     60  H   UNL A   1      44.006  29.354  28.105  1.00  0.00     0.167 HD
ATOM     61  C   UNL A   1      44.876  26.979  26.837  1.00  0.00     0.074 A 
ATOM     62  C   UNL A   1      44.872  25.637  26.299  1.00  0.00     0.031 C 
ATOM     63  C   UNL A   1      45.897  27.859  26.681  1.00  0.00     0.037 A 
BRANCH  50  64
ATOM     64  C   UNL A   1      44.873  33.371  29.245  1.00  0.00     0.057 A 
ATOM     65  C   UNL A   1      45.624  33.628  30.399  1.00  0.00     0.134 A 
ATOM     66  C   UNL A   1      44.702  34.420  28.334  1.00  0.00     0.134 A 
ATOM     67  F   UNL A   1      45.808  32.668  31.318  1.00  0.00    -0.206 F 
ATOM     68  C   UNL A   1      46.187  34.882  30.636  1.00  0.00     0.040 A 
ATOM     69  C   UNL A   1      45.282  35.672  28.547  1.00  0.00     0.040 A 
ATOM     70  F   UNL A   1      43.994  34.238  27.209  1.00  0.00    -0.206 F 
ATOM     71  C   UNL A   1      46.027  35.905  29.702  1.00  0.00     0.006 A 
ENDBRANCH  50  64
BRANCH  51  72
ATOM     72  C   UNL A   1      41.134  24.259  27.673  1.00  0.00     0.057 A 
ATOM     73  C   UNL A   1      41.645  23.156  28.367  1.00  0.00     0.134 A 
ATOM     74  C   UNL A   1      40.136  24.013  26.721  1.00  0.00     0.134 A 
ATOM     75  F   UNL A   1      42.622  23.321  29.271  1.00  0.00    -0.206 F 
ATOM     76  C   UNL A   1      41.198  21.858  28.113  1.00  0.00     0.040 A 
ATOM     77  C   UNL A   1      39.659  22.723  26.477  1.00  0.00     0.040 A 
ATOM     78  F   UNL A   1      39.608  25.023  26.015  1.00  0.00    -0.206 F 
ATOM     79  C   UNL A   1      40.196  21.639  27.168  1.00  0.00     0.006 A 
ENDBRANCH  51  72
BRANCH  63  80
ATOM     80  C   UNL A   1      47.115  27.400  25.930  1.00  0.00     0.057 A 
ATOM     81  C   UNL A   1      48.171  26.740  26.570  1.00  0.00     0.134 A 
ATOM     82  C   UNL A   1      47.190  27.537  24.538  1.00  0.00     0.134 A 
ATOM     83  F   UNL A   1      48.166  26.580  27.903  1.00  0.00    -0.206 F 
ATOM     84  C   UNL A   1      49.263  26.244  25.855  1.00  0.00     0.040 A 
ATOM     85  C   UNL A   1      48.261  27.021  23.808  1.00  0.00     0.040 A 
ATOM     86  F   UNL A   1      46.205  28.147  23.860  1.00  0.00    -0.206 F 
ATOM     87  C   UNL A   1      49.303  26.374  24.467  1.00  0.00     0.006 A 
ENDBRANCH  63  80
ENDBRANCH  37  38
ENDBRANCH  30  32
ENDBRANCH  29  30
ENDBRANCH  28  29
ENDBRANCH  27  28
ENDBRANCH  26  27
ENDBRANCH   1  26
TORSDOF 18
ENDMDL
MODEL 3
REMARK VINA RESULT:     -11.2      1.013      6.120
REMARK SMILES Cc1cc2c(c(C)c1Cl)C=C(C(=O)OCCOCCOCCOC(=O)c1ccc(-c3c4nc(c(-c5c(F)cccc5F)c5ccc([nH]5)c(-c5c(F)cccc5F)c5nc(c(-c6c(F)cccc6F)c6ccc3[nH]6)C=C5)C=C4)cc1)[C@@H](C(F)(F)F)O2
REMARK SMILES IDX 19 1 18 2 17 3 16 4 15 5 14 6 12 7 13 8 11 9 1 10 2 11 3 12
REMARK SMILES IDX 8 13 4 14 6 15 9 16 5 17 85 18 7 19 10 20 80 21 81 22 82 23
REMARK SMILES IDX 83 24 84 25 20 26 21 27 22 28 23 29 24 30 25 31 26 32 27 33
REMARK SMILES IDX 79 34 28 35 78 36 29 37 30 38 31 39 72 40 32 41 77 42 71 43
REMARK SMILES IDX 73 44 33 45 76 46 70 47 69 48 34 50 60 51 43 52 59 53 44 54
REMARK SMILES IDX 47 55 58 56 74 57 45 58 46 59 57 61 75 62 48 63 35 64 36 65
REMARK SMILES IDX 41 66 37 67 38 68 40 69 42 70 39 71 61 72 62 73 67 74 63 75
REMARK SMILES IDX 64 76 66 77 68 78 65 79 49 80 50 81 55 82 51 83 52 84 54 85
REMARK SMILES IDX 56 86 53 87
REMARK H PARENT 73 49 47 60
REMARK Flexibility Score: inf
ROOT
ATOM      1  C   UNL A   1      41.429  20.859  26.934  1.00  0.00     0.188 C 
ENDROOT
BRANCH   1   2
ATOM      2  C   UNL A   1      40.609  22.075  27.408  1.00  0.00     0.188 C 
BRANCH   2   3
ATOM      3  O   UNL A   1      39.981  22.923  26.470  1.00  0.00    -0.376 OA
BRANCH   3   4
ATOM      4  C   UNL A   1      38.581  23.143  26.507  1.00  0.00     0.202 C 
BRANCH   4   5
ATOM      5  C   UNL A   1      37.602  22.582  25.464  1.00  0.00     0.261 C 
BRANCH   5   6
ATOM      6  O   UNL A   1      36.653  23.511  24.927  1.00  0.00    -0.460 OA
BRANCH   6   7
ATOM      7  C   UNL A   1      35.420  23.463  25.484  1.00  0.00     0.338 C 
ATOM      8  O   UNL A   1      35.101  22.881  26.508  1.00  0.00    -0.246 OA
BRANCH   7   9
ATOM      9  C   UNL A   1      34.511  24.365  24.749  1.00  0.00     0.087 C 
ATOM     10  C   UNL A   1      30.001  28.650  22.995  1.00  0.00     0.046 C 
ATOM     11  C   UNL A   1      31.214  27.954  23.554  1.00  0.00    -0.028 A 
ATOM     12  C   UNL A   1      31.636  26.756  22.964  1.00  0.00     0.052 A 
ATOM     13  C   UNL A   1      31.918  28.451  24.668  1.00  0.00     0.047 A 
ATOM     14  C   UNL A   1      32.680  26.019  23.518  1.00  0.00     0.128 A 
ATOM     15  C   UNL A   1      33.002  27.732  25.225  1.00  0.00    -0.021 A 
ATOM     16  Cl  UNL A   1      31.403  29.957  25.366  1.00  0.00    -0.084 Cl
ATOM     17  C   UNL A   1      33.337  26.472  24.667  1.00  0.00     0.022 A 
ATOM     18  O   UNL A   1      32.976  24.858  22.861  1.00  0.00    -0.475 OA
ATOM     19  C   UNL A   1      33.790  28.267  26.399  1.00  0.00     0.047 C 
ATOM     20  C   UNL A   1      34.302  25.571  25.294  1.00  0.00     0.027 C 
ATOM     21  C   UNL A   1      33.883  23.903  23.468  1.00  0.00     0.316 C 
BRANCH  21  22
ATOM     22  C   UNL A   1      33.144  22.567  23.625  1.00  0.00     0.430 C 
ATOM     23  F   UNL A   1      32.328  22.329  22.570  1.00  0.00    -0.167 F 
ATOM     24  F   UNL A   1      34.003  21.523  23.694  1.00  0.00    -0.167 F 
ATOM     25  F   UNL A   1      32.383  22.540  24.742  1.00  0.00    -0.167 F 
ENDBRANCH  21  22
ENDBRANCH   7   9
ENDBRANCH   6   7
ENDBRANCH   5   6
ENDBRANCH   4   5
ENDBRANCH   3   4
ENDBRANCH   2   3
ENDBRANCH   1   2
BRANCH   1  26
ATOM     26  O   UNL A   1      42.182  20.955  25.750  1.00  0.00    -0.376 OA
BRANCH  26  27
ATOM     27  C   UNL A   1      43.427  21.635  25.750  1.00  0.00     0.202 C 
BRANCH  27  28
ATOM     28  C   UNL A   1      43.913  22.616  24.661  1.00  0.00     0.261 C 
BRANCH  28  29
ATOM     29  O   UNL A   1      43.371  23.941  24.663  1.00  0.00    -0.460 OA
BRANCH  29  30
ATOM     30  C   UNL A   1      44.202  24.911  25.124  1.00  0.00     0.338 C 
ATOM     31  O   UNL A   1      45.286  25.232  24.677  1.00  0.00    -0.246 OA
BRANCH  30  32
ATOM     32  C   UNL A   1      43.494  25.688  26.160  1.00  0.00     0.060 A 
ATOM     33  C   UNL A   1      43.919  26.998  26.425  1.00  0.00     0.016 A 
ATOM     34  C   UNL A   1      42.441  25.124  26.880  1.00  0.00     0.016 A 
ATOM     35  C   UNL A   1      43.290  27.750  27.416  1.00  0.00     0.010 A 
ATOM     36  C   UNL A   1      41.834  25.868  27.897  1.00  0.00     0.010 A 
ATOM     37  C   UNL A   1      42.268  27.175  28.183  1.00  0.00    -0.014 A 
BRANCH  37  38
ATOM     38  C   UNL A   1      41.797  27.870  29.406  1.00  0.00     0.031 A 
ATOM     39  C   UNL A   1      40.595  28.766  29.296  1.00  0.00     0.074 A 
ATOM     40  C   UNL A   1      42.391  27.678  30.597  1.00  0.00     0.049 A 
ATOM     41  N   UNL A   1      40.029  29.510  30.210  1.00  0.00    -0.248 NA
ATOM     42  C   UNL A   1      39.941  28.827  27.979  1.00  0.00     0.031 C 
ATOM     43  C   UNL A   1      43.519  26.784  30.848  1.00  0.00     0.029 A 
ATOM     44  N   UNL A   1      42.122  28.233  31.824  1.00  0.00    -0.354 N 
ATOM     45  C   UNL A   1      38.950  30.119  29.582  1.00  0.00     0.074 A 
ATOM     46  C   UNL A   1      38.959  29.687  28.203  1.00  0.00     0.031 C 
ATOM     47  C   UNL A   1      43.851  26.857  32.150  1.00  0.00     0.029 A 
ATOM     48  C   UNL A   1      42.982  27.828  32.815  1.00  0.00     0.049 A 
ATOM     49  H   UNL A   1      41.380  28.863  31.979  1.00  0.00     0.167 HD
ATOM     50  C   UNL A   1      38.025  30.952  30.112  1.00  0.00     0.037 A 
ATOM     51  C   UNL A   1      43.069  28.217  34.104  1.00  0.00     0.037 A 
ATOM     52  C   UNL A   1      38.018  31.388  31.482  1.00  0.00     0.049 A 
ATOM     53  C   UNL A   1      42.097  29.240  34.639  1.00  0.00     0.074 A 
ATOM     54  C   UNL A   1      37.128  32.244  32.107  1.00  0.00     0.029 A 
ATOM     55  N   UNL A   1      38.945  31.005  32.439  1.00  0.00    -0.354 N 
ATOM     56  N   UNL A   1      41.080  29.810  34.039  1.00  0.00    -0.248 NA
ATOM     57  C   UNL A   1      42.289  29.678  36.031  1.00  0.00     0.031 C 
ATOM     58  C   UNL A   1      37.545  32.419  33.428  1.00  0.00     0.029 A 
ATOM     59  C   UNL A   1      38.661  31.627  33.643  1.00  0.00     0.049 A 
ATOM     60  H   UNL A   1      39.693  30.383  32.285  1.00  0.00     0.167 HD
ATOM     61  C   UNL A   1      40.495  30.643  34.986  1.00  0.00     0.074 A 
ATOM     62  C   UNL A   1      41.260  30.497  36.204  1.00  0.00     0.031 C 
ATOM     63  C   UNL A   1      39.420  31.459  34.855  1.00  0.00     0.037 A 
BRANCH  50  64
ATOM     64  C   UNL A   1      36.940  31.459  29.211  1.00  0.00     0.057 A 
ATOM     65  C   UNL A   1      35.841  30.663  28.867  1.00  0.00     0.134 A 
ATOM     66  C   UNL A   1      36.954  32.782  28.751  1.00  0.00     0.134 A 
ATOM     67  F   UNL A   1      35.778  29.383  29.263  1.00  0.00    -0.206 F 
ATOM     68  C   UNL A   1      34.791  31.165  28.097  1.00  0.00     0.040 A 
ATOM     69  C   UNL A   1      35.898  33.303  28.001  1.00  0.00     0.040 A 
ATOM     70  F   UNL A   1      37.978  33.596  29.046  1.00  0.00    -0.206 F 
ATOM     71  C   UNL A   1      34.812  32.493  27.673  1.00  0.00     0.006 A 
ENDBRANCH  50  64
BRANCH  51  72
ATOM     72  C   UNL A   1      44.123  27.653  34.990  1.00  0.00     0.057 A 
ATOM     73  C   UNL A   1      45.398  28.226  35.055  1.00  0.00     0.134 A 
ATOM     74  C   UNL A   1      43.895  26.504  35.759  1.00  0.00     0.134 A 
ATOM     75  F   UNL A   1      45.689  29.310  34.320  1.00  0.00    -0.206 F 
ATOM     76  C   UNL A   1      46.413  27.672  35.837  1.00  0.00     0.040 A 
ATOM     77  C   UNL A   1      44.893  25.956  36.568  1.00  0.00     0.040 A 
ATOM     78  F   UNL A   1      42.699  25.900  35.738  1.00  0.00    -0.206 F 
ATOM     79  C   UNL A   1      46.159  26.535  36.603  1.00  0.00     0.006 A 
ENDBRANCH  51  72
BRANCH  63  80
ATOM     80  C   UNL A   1      38.974  32.237  36.061  1.00  0.00     0.057 A 
ATOM     81  C   UNL A   1      38.168  31.664  37.052  1.00  0.00     0.134 A 
ATOM     82  C   UNL A   1      39.432  33.543  36.278  1.00  0.00     0.134 A 
ATOM     83  F   UNL A   1      37.689  30.419  36.905  1.00  0.00    -0.206 F 
ATOM     84  C   UNL A   1      37.824  32.365  38.210  1.00  0.00     0.040 A 
ATOM     85  C   UNL A   1      39.120  34.244  37.443  1.00  0.00     0.040 A 
ATOM     86  F   UNL A   1      40.221  34.147  35.376  1.00  0.00    -0.206 F 
ATOM     87  C   UNL A   1      38.311  33.656  38.412  1.00  0.00     0.006 A 
ENDBRANCH  63  80
ENDBRANCH  37  38
ENDBRANCH  30  32
ENDBRANCH  29  30
ENDBRANCH  28  29
ENDBRANCH  27  28
ENDBRANCH  26  27
ENDBRANCH   1  26
TORSDOF 18
ENDMDL
