MODEL 1
REMARK VINA RESULT:     -12.8      0.000      0.000
REMARK SMILES Cc1c(NC(=O)[C@@H]2CC=CC[C@@H]2C(=O)OCCOCCOCCOC(=O)c2ccc(-c3c4nc(c(-c5c(F)cccc5F)c5ccc([nH]5)c(-c5c(F)cccc5F)c5nc(c(-c6c(F)cccc6F)c6ccc3[nH]6)C=C5)C=C4)cc2)cccc1C(=O)N1CCOCC1
REMARK SMILES IDX 19 1 18 2 17 3 16 4 15 5 13 6 14 7 12 8 7 9 8 10 9 11 11 12
REMARK SMILES IDX 10 13 5 14 4 15 6 17 3 18 1 19 2 20 84 21 81 22 83 23 82 24
REMARK SMILES IDX 85 25 86 26 87 27 88 28 92 29 89 30 91 31 90 32 20 33 21 34
REMARK SMILES IDX 22 35 23 36 24 37 25 38 26 39 27 40 28 41 80 42 29 43 79 44
REMARK SMILES IDX 30 45 31 46 32 47 73 48 33 49 78 50 72 51 74 52 34 53 77 54
REMARK SMILES IDX 71 55 70 56 35 58 61 59 44 60 60 61 45 62 48 63 59 64 75 65
REMARK SMILES IDX 46 66 47 67 58 69 76 70 49 71 36 72 37 73 42 74 38 75 39 76
REMARK SMILES IDX 41 77 43 78 40 79 62 80 63 81 68 82 64 83 65 84 67 85 69 86
REMARK SMILES IDX 66 87 50 88 51 89 56 90 52 91 53 92 55 93 57 94 54 95
REMARK H PARENT 4 16 74 57 48 68
REMARK Flexibility Score: inf
ROOT
ATOM      1  C   UNL A   1      40.331  19.999  25.897  1.00  0.00     0.188 C 
ENDROOT
BRANCH   1   2
ATOM      2  O   UNL A   1      39.291  19.151  25.366  1.00  0.00    -0.376 OA
BRANCH   2   3
ATOM      3  C   UNL A   1      37.902  19.524  25.289  1.00  0.00     0.202 C 
BRANCH   3   4
ATOM      4  C   UNL A   1      37.313  21.075  25.116  1.00  0.00     0.261 C 
BRANCH   4   5
ATOM      5  O   UNL A   1      36.492  21.955  23.773  1.00  0.00    -0.463 OA
BRANCH   5   6
ATOM      6  C   UNL A   1      35.258  22.638  23.401  1.00  0.00     0.310 C 
ATOM      7  O   UNL A   1      35.012  23.284  22.373  1.00  0.00    -0.252 OA
BRANCH   6   8
ATOM      8  C   UNL A   1      33.981  22.632  24.213  1.00  0.00     0.116 C 
ATOM      9  C   UNL A   1      34.015  23.259  25.565  1.00  0.00     0.097 C 
ATOM     10  C   UNL A   1      34.593  22.304  26.578  1.00  0.00     0.041 C 
ATOM     11  C   UNL A   1      33.810  21.007  26.526  1.00  0.00    -0.030 C 
ATOM     12  C   UNL A   1      33.143  21.349  24.144  1.00  0.00     0.043 C 
ATOM     13  C   UNL A   1      33.140  20.592  25.436  1.00  0.00    -0.030 C 
BRANCH   9  14
ATOM     14  C   UNL A   1      34.665  24.583  25.291  1.00  0.00     0.228 C 
ATOM     15  N   UNL A   1      33.932  25.348  24.376  1.00  0.00    -0.326 N 
ATOM     16  H   UNL A   1      34.125  25.360  23.412  1.00  0.00     0.169 HD
ATOM     17  O   UNL A   1      35.801  24.884  25.638  1.00  0.00    -0.274 OA
BRANCH  15  18
ATOM     18  C   UNL A   1      32.893  26.099  24.963  1.00  0.00     0.044 A 
ATOM     19  C   UNL A   1      31.463  25.060  23.198  1.00  0.00     0.047 C 
ATOM     20  C   UNL A   1      31.648  26.046  24.322  1.00  0.00    -0.015 A 
ATOM     21  C   UNL A   1      30.685  26.994  24.697  1.00  0.00     0.045 A 
ATOM     22  C   UNL A   1      33.176  27.043  25.956  1.00  0.00     0.026 A 
ATOM     23  C   UNL A   1      31.024  28.036  25.581  1.00  0.00     0.014 A 
ATOM     24  C   UNL A   1      32.261  28.052  26.221  1.00  0.00     0.003 A 
BRANCH  21  25
ATOM     25  C   UNL A   1      29.368  27.068  24.026  1.00  0.00     0.254 C 
ATOM     26  O   UNL A   1      28.514  26.254  24.370  1.00  0.00    -0.269 OA
ATOM     27  N   UNL A   1      29.119  28.087  23.116  1.00  0.00    -0.334 N 
ATOM     28  C   UNL A   1      30.101  28.793  22.275  1.00  0.00     0.148 C 
ATOM     29  C   UNL A   1      27.731  28.452  22.862  1.00  0.00     0.148 C 
ATOM     30  C   UNL A   1      29.810  30.306  22.175  1.00  0.00     0.181 C 
ATOM     31  C   UNL A   1      27.584  29.975  22.913  1.00  0.00     0.181 C 
ATOM     32  O   UNL A   1      28.426  30.588  21.923  1.00  0.00    -0.378 OA
ENDBRANCH  21  25
ENDBRANCH  15  18
ENDBRANCH   9  14
ENDBRANCH   6   8
ENDBRANCH   5   6
ENDBRANCH   4   5
ENDBRANCH   3   4
ENDBRANCH   2   3
ENDBRANCH   1   2
BRANCH   1  33
ATOM     33  C   UNL A   1      41.654  19.430  26.405  1.00  0.00     0.188 C 
BRANCH  33  34
ATOM     34  O   UNL A   1      42.494  19.195  25.299  1.00  0.00    -0.376 OA
BRANCH  34  35
ATOM     35  C   UNL A   1      43.698  18.502  25.524  1.00  0.00     0.202 C 
BRANCH  35  36
ATOM     36  C   UNL A   1      44.850  19.073  24.683  1.00  0.00     0.261 C 
BRANCH  36  37
ATOM     37  O   UNL A   1      44.526  20.378  24.129  1.00  0.00    -0.460 OA
BRANCH  37  38
ATOM     38  C   UNL A   1      45.223  21.465  24.592  1.00  0.00     0.338 C 
ATOM     39  O   UNL A   1      46.454  21.527  24.645  1.00  0.00    -0.246 OA
BRANCH  38  40
ATOM     40  C   UNL A   1      44.305  22.507  25.140  1.00  0.00     0.060 A 
ATOM     41  C   UNL A   1      44.103  23.827  24.706  1.00  0.00     0.016 A 
ATOM     42  C   UNL A   1      43.800  22.221  26.352  1.00  0.00     0.016 A 
ATOM     43  C   UNL A   1      43.608  24.887  25.594  1.00  0.00     0.010 A 
ATOM     44  C   UNL A   1      43.581  23.291  27.200  1.00  0.00     0.010 A 
ATOM     45  C   UNL A   1      43.420  24.699  26.968  1.00  0.00    -0.014 A 
BRANCH  45  46
ATOM     46  C   UNL A   1      43.120  25.960  28.137  1.00  0.00     0.031 A 
ATOM     47  C   UNL A   1      41.688  26.952  28.529  1.00  0.00     0.074 A 
ATOM     48  C   UNL A   1      44.208  26.381  28.813  1.00  0.00     0.049 A 
ATOM     49  N   UNL A   1      41.679  28.268  28.625  1.00  0.00    -0.248 NA
ATOM     50  C   UNL A   1      40.214  26.545  28.671  1.00  0.00     0.031 C 
ATOM     51  C   UNL A   1      44.281  27.349  29.899  1.00  0.00     0.029 A 
ATOM     52  N   UNL A   1      45.544  26.060  28.550  1.00  0.00    -0.354 N 
ATOM     53  C   UNL A   1      40.368  28.703  28.927  1.00  0.00     0.074 A 
ATOM     54  C   UNL A   1      39.483  27.631  28.739  1.00  0.00     0.031 C 
ATOM     55  C   UNL A   1      45.555  27.774  29.996  1.00  0.00     0.029 A 
ATOM     56  C   UNL A   1      46.286  27.196  28.878  1.00  0.00     0.049 A 
ATOM     57  H   UNL A   1      45.890  25.206  28.203  1.00  0.00     0.167 HD
ATOM     58  C   UNL A   1      40.045  29.832  29.612  1.00  0.00     0.037 A 
ATOM     59  C   UNL A   1      46.975  27.876  27.920  1.00  0.00     0.037 A 
ATOM     60  C   UNL A   1      41.259  30.488  29.976  1.00  0.00     0.049 A 
ATOM     61  C   UNL A   1      46.550  29.321  27.860  1.00  0.00     0.074 A 
ATOM     62  C   UNL A   1      42.084  30.316  31.072  1.00  0.00     0.029 A 
ATOM     63  N   UNL A   1      42.025  31.026  28.963  1.00  0.00    -0.354 N 
ATOM     64  N   UNL A   1      45.381  29.755  28.250  1.00  0.00    -0.248 NA
ATOM     65  C   UNL A   1      47.423  30.397  27.407  1.00  0.00     0.031 C 
ATOM     66  C   UNL A   1      43.382  30.728  30.694  1.00  0.00     0.029 A 
ATOM     67  C   UNL A   1      43.321  31.187  29.390  1.00  0.00     0.049 A 
ATOM     68  H   UNL A   1      41.692  31.259  28.066  1.00  0.00     0.167 HD
ATOM     69  C   UNL A   1      45.345  31.121  28.144  1.00  0.00     0.074 A 
ATOM     70  C   UNL A   1      46.643  31.474  27.606  1.00  0.00     0.031 C 
ATOM     71  C   UNL A   1      44.263  31.858  28.526  1.00  0.00     0.037 A 
BRANCH  58  72
ATOM     72  C   UNL A   1      38.682  29.981  30.275  1.00  0.00     0.057 A 
ATOM     73  C   UNL A   1      37.733  30.885  29.772  1.00  0.00     0.134 A 
ATOM     74  C   UNL A   1      38.315  29.356  31.489  1.00  0.00     0.134 A 
ATOM     75  F   UNL A   1      37.922  31.520  28.610  1.00  0.00    -0.206 F 
ATOM     76  C   UNL A   1      36.556  31.217  30.461  1.00  0.00     0.040 A 
ATOM     77  C   UNL A   1      37.158  29.709  32.209  1.00  0.00     0.040 A 
ATOM     78  F   UNL A   1      39.107  28.429  32.057  1.00  0.00    -0.206 F 
ATOM     79  C   UNL A   1      36.278  30.654  31.698  1.00  0.00     0.006 A 
ENDBRANCH  58  72
BRANCH  59  80
ATOM     80  C   UNL A   1      47.478  27.040  26.783  1.00  0.00     0.057 A 
ATOM     81  C   UNL A   1      46.757  27.038  25.565  1.00  0.00     0.134 A 
ATOM     82  C   UNL A   1      48.755  26.471  26.741  1.00  0.00     0.134 A 
ATOM     83  F   UNL A   1      45.520  27.557  25.514  1.00  0.00    -0.206 F 
ATOM     84  C   UNL A   1      47.311  26.598  24.358  1.00  0.00     0.040 A 
ATOM     85  C   UNL A   1      49.316  26.006  25.537  1.00  0.00     0.040 A 
ATOM     86  F   UNL A   1      49.536  26.463  27.830  1.00  0.00    -0.206 F 
ATOM     87  C   UNL A   1      48.603  26.089  24.339  1.00  0.00     0.006 A 
ENDBRANCH  59  80
BRANCH  71  88
ATOM     88  C   UNL A   1      43.962  33.298  28.185  1.00  0.00     0.057 A 
ATOM     89  C   UNL A   1      43.970  34.337  29.119  1.00  0.00     0.134 A 
ATOM     90  C   UNL A   1      43.861  33.710  26.830  1.00  0.00     0.134 A 
ATOM     91  F   UNL A   1      44.161  34.110  30.425  1.00  0.00    -0.206 F 
ATOM     92  C   UNL A   1      43.845  35.680  28.742  1.00  0.00     0.040 A 
ATOM     93  C   UNL A   1      43.818  35.048  26.439  1.00  0.00     0.040 A 
ATOM     94  F   UNL A   1      43.837  32.835  25.813  1.00  0.00    -0.206 F 
ATOM     95  C   UNL A   1      43.793  36.042  27.401  1.00  0.00     0.006 A 
ENDBRANCH  71  88
ENDBRANCH  45  46
ENDBRANCH  38  40
ENDBRANCH  37  38
ENDBRANCH  36  37
ENDBRANCH  35  36
ENDBRANCH  34  35
ENDBRANCH  33  34
ENDBRANCH   1  33
TORSDOF 20
ENDMDL
MODEL 2
REMARK VINA RESULT:     -12.2      2.415      5.329
REMARK SMILES Cc1c(NC(=O)[C@@H]2CC=CC[C@@H]2C(=O)OCCOCCOCCOC(=O)c2ccc(-c3c4nc(c(-c5c(F)cccc5F)c5ccc([nH]5)c(-c5c(F)cccc5F)c5nc(c(-c6c(F)cccc6F)c6ccc3[nH]6)C=C5)C=C4)cc2)cccc1C(=O)N1CCOCC1
REMARK SMILES IDX 19 1 18 2 17 3 16 4 15 5 13 6 14 7 12 8 7 9 8 10 9 11 11 12
REMARK SMILES IDX 10 13 5 14 4 15 6 17 3 18 1 19 2 20 84 21 81 22 83 23 82 24
REMARK SMILES IDX 85 25 86 26 87 27 88 28 92 29 89 30 91 31 90 32 20 33 21 34
REMARK SMILES IDX 22 35 23 36 24 37 25 38 26 39 27 40 28 41 80 42 29 43 79 44
REMARK SMILES IDX 30 45 31 46 32 47 73 48 33 49 78 50 72 51 74 52 34 53 77 54
REMARK SMILES IDX 71 55 70 56 35 58 61 59 44 60 60 61 45 62 48 63 59 64 75 65
REMARK SMILES IDX 46 66 47 67 58 69 76 70 49 71 36 72 37 73 42 74 38 75 39 76
REMARK SMILES IDX 41 77 43 78 40 79 62 80 63 81 68 82 64 83 65 84 67 85 69 86
REMARK SMILES IDX 66 87 50 88 51 89 56 90 52 91 53 92 55 93 57 94 54 95
REMARK H PARENT 4 16 74 57 48 68
REMARK Flexibility Score: inf
ROOT
ATOM      1  C   UNL A   1      38.799  22.751  26.226  1.00  0.00     0.188 C 
ENDROOT
BRANCH   1   2
ATOM      2  O   UNL A   1      37.820  23.782  25.980  1.00  0.00    -0.376 OA
BRANCH   2   3
ATOM      3  C   UNL A   1      36.399  23.553  25.921  1.00  0.00     0.202 C 
BRANCH   3   4
ATOM      4  C   UNL A   1      35.253  24.640  25.383  1.00  0.00     0.261 C 
BRANCH   4   5
ATOM      5  O   UNL A   1      33.787  25.378  26.130  1.00  0.00    -0.463 OA
BRANCH   5   6
ATOM      6  C   UNL A   1      32.709  26.333  25.899  1.00  0.00     0.310 C 
ATOM      7  O   UNL A   1      32.194  27.125  26.700  1.00  0.00    -0.252 OA
BRANCH   6   8
ATOM      8  C   UNL A   1      32.037  26.581  24.567  1.00  0.00     0.116 C 
ATOM      9  C   UNL A   1      31.469  25.406  23.846  1.00  0.00     0.097 C 
ATOM     10  C   UNL A   1      32.550  24.672  23.096  1.00  0.00     0.041 C 
ATOM     11  C   UNL A   1      33.268  25.654  22.191  1.00  0.00    -0.030 C 
ATOM     12  C   UNL A   1      32.715  27.605  23.648  1.00  0.00     0.043 C 
ATOM     13  C   UNL A   1      33.320  26.976  22.431  1.00  0.00    -0.030 C 
BRANCH   9  14
ATOM     14  C   UNL A   1      30.671  24.724  24.918  1.00  0.00     0.228 C 
ATOM     15  N   UNL A   1      30.774  23.330  24.842  1.00  0.00    -0.326 N 
ATOM     16  H   UNL A   1      30.115  22.769  24.374  1.00  0.00     0.169 HD
ATOM     17  O   UNL A   1      29.852  25.284  25.636  1.00  0.00    -0.274 OA
BRANCH  15  18
ATOM     18  C   UNL A   1      31.906  22.804  25.499  1.00  0.00     0.044 A 
ATOM     19  C   UNL A   1      32.379  21.710  23.303  1.00  0.00     0.047 C 
ATOM     20  C   UNL A   1      32.685  21.899  24.767  1.00  0.00    -0.015 A 
ATOM     21  C   UNL A   1      33.634  21.142  25.471  1.00  0.00     0.045 A 
ATOM     22  C   UNL A   1      32.067  22.975  26.877  1.00  0.00     0.026 A 
ATOM     23  C   UNL A   1      33.685  21.204  26.877  1.00  0.00     0.014 A 
ATOM     24  C   UNL A   1      32.914  22.128  27.577  1.00  0.00     0.003 A 
BRANCH  21  25
ATOM     25  C   UNL A   1      34.451  20.107  24.801  1.00  0.00     0.254 C 
ATOM     26  O   UNL A   1      35.601  20.411  24.491  1.00  0.00    -0.269 OA
ATOM     27  N   UNL A   1      33.933  18.830  24.631  1.00  0.00    -0.334 N 
ATOM     28  C   UNL A   1      32.517  18.451  24.496  1.00  0.00     0.148 C 
ATOM     29  C   UNL A   1      34.873  17.729  24.455  1.00  0.00     0.148 C 
ATOM     30  C   UNL A   1      32.180  17.150  25.257  1.00  0.00     0.181 C 
ATOM     31  C   UNL A   1      34.472  16.564  25.362  1.00  0.00     0.181 C 
ATOM     32  O   UNL A   1      33.147  16.113  25.036  1.00  0.00    -0.378 OA
ENDBRANCH  21  25
ENDBRANCH  15  18
ENDBRANCH   9  14
ENDBRANCH   6   8
ENDBRANCH   5   6
ENDBRANCH   4   5
ENDBRANCH   3   4
ENDBRANCH   2   3
ENDBRANCH   1   2
BRANCH   1  33
ATOM     33  C   UNL A   1      38.606  21.320  25.728  1.00  0.00     0.188 C 
BRANCH  33  34
ATOM     34  O   UNL A   1      39.827  20.631  25.866  1.00  0.00    -0.376 OA
BRANCH  34  35
ATOM     35  C   UNL A   1      40.766  21.138  26.784  1.00  0.00     0.202 C 
BRANCH  35  36
ATOM     36  C   UNL A   1      42.130  21.389  26.122  1.00  0.00     0.261 C 
BRANCH  36  37
ATOM     37  O   UNL A   1      42.750  22.616  26.597  1.00  0.00    -0.460 OA
BRANCH  37  38
ATOM     38  C   UNL A   1      42.661  23.731  25.802  1.00  0.00     0.338 C 
ATOM     39  O   UNL A   1      43.284  23.880  24.747  1.00  0.00    -0.246 OA
BRANCH  38  40
ATOM     40  C   UNL A   1      41.818  24.786  26.437  1.00  0.00     0.060 A 
ATOM     41  C   UNL A   1      41.434  26.038  25.930  1.00  0.00     0.016 A 
ATOM     42  C   UNL A   1      41.617  24.618  27.755  1.00  0.00     0.016 A 
ATOM     43  C   UNL A   1      41.077  27.169  26.796  1.00  0.00     0.010 A 
ATOM     44  C   UNL A   1      41.519  25.768  28.518  1.00  0.00     0.010 A 
ATOM     45  C   UNL A   1      41.213  27.131  28.188  1.00  0.00    -0.014 A 
BRANCH  45  46
ATOM     46  C   UNL A   1      41.094  28.503  29.261  1.00  0.00     0.031 A 
ATOM     47  C   UNL A   1      39.790  29.668  29.620  1.00  0.00     0.074 A 
ATOM     48  C   UNL A   1      42.247  28.856  29.863  1.00  0.00     0.049 A 
ATOM     49  N   UNL A   1      39.921  30.981  29.610  1.00  0.00    -0.248 NA
ATOM     50  C   UNL A   1      38.289  29.431  29.844  1.00  0.00     0.031 C 
ATOM     51  C   UNL A   1      42.466  29.892  30.865  1.00  0.00     0.029 A 
ATOM     52  N   UNL A   1      43.530  28.376  29.582  1.00  0.00    -0.354 N 
ATOM     53  C   UNL A   1      38.675  31.574  29.920  1.00  0.00     0.074 A 
ATOM     54  C   UNL A   1      37.677  30.591  29.849  1.00  0.00     0.031 C 
ATOM     55  C   UNL A   1      43.780  30.185  30.885  1.00  0.00     0.029 A 
ATOM     56  C   UNL A   1      44.399  29.449  29.793  1.00  0.00     0.049 A 
ATOM     57  H   UNL A   1      43.772  27.466  29.293  1.00  0.00     0.167 HD
ATOM     58  C   UNL A   1      38.499  32.781  30.522  1.00  0.00     0.037 A 
ATOM     59  C   UNL A   1      45.113  29.976  28.760  1.00  0.00     0.037 A 
ATOM     60  C   UNL A   1      39.789  33.330  30.791  1.00  0.00     0.049 A 
ATOM     61  C   UNL A   1      44.837  31.450  28.598  1.00  0.00     0.074 A 
ATOM     62  C   UNL A   1      40.637  33.155  31.869  1.00  0.00     0.029 A 
ATOM     63  N   UNL A   1      40.563  33.704  29.712  1.00  0.00    -0.354 N 
ATOM     64  N   UNL A   1      43.737  32.034  28.991  1.00  0.00    -0.248 NA
ATOM     65  C   UNL A   1      45.797  32.389  28.031  1.00  0.00     0.031 C 
ATOM     66  C   UNL A   1      41.954  33.397  31.415  1.00  0.00     0.029 A 
ATOM     67  C   UNL A   1      41.886  33.759  30.081  1.00  0.00     0.049 A 
ATOM     68  H   UNL A   1      40.218  33.902  28.811  1.00  0.00     0.167 HD
ATOM     69  C   UNL A   1      43.837  33.384  28.776  1.00  0.00     0.074 A 
ATOM     70  C   UNL A   1      45.142  33.555  28.169  1.00  0.00     0.031 C 
ATOM     71  C   UNL A   1      42.855  34.258  29.134  1.00  0.00     0.037 A 
BRANCH  58  72
ATOM     72  C   UNL A   1      37.188  33.123  31.217  1.00  0.00     0.057 A 
ATOM     73  C   UNL A   1      36.927  32.674  32.521  1.00  0.00     0.134 A 
ATOM     74  C   UNL A   1      36.101  33.774  30.589  1.00  0.00     0.134 A 
ATOM     75  F   UNL A   1      37.873  32.078  33.256  1.00  0.00    -0.206 F 
ATOM     76  C   UNL A   1      35.664  32.775  33.124  1.00  0.00     0.040 A 
ATOM     77  C   UNL A   1      34.819  33.847  31.167  1.00  0.00     0.040 A 
ATOM     78  F   UNL A   1      36.227  34.300  29.358  1.00  0.00    -0.206 F 
ATOM     79  C   UNL A   1      34.596  33.334  32.438  1.00  0.00     0.006 A 
ENDBRANCH  58  72
BRANCH  59  80
ATOM     80  C   UNL A   1      45.480  29.007  27.678  1.00  0.00     0.057 A 
ATOM     81  C   UNL A   1      46.629  28.199  27.845  1.00  0.00     0.134 A 
ATOM     82  C   UNL A   1      44.622  28.646  26.634  1.00  0.00     0.134 A 
ATOM     83  F   UNL A   1      47.512  28.475  28.818  1.00  0.00    -0.206 F 
ATOM     84  C   UNL A   1      46.856  27.041  27.093  1.00  0.00     0.040 A 
ATOM     85  C   UNL A   1      44.851  27.495  25.856  1.00  0.00     0.040 A 
ATOM     86  F   UNL A   1      43.485  29.321  26.419  1.00  0.00    -0.206 F 
ATOM     87  C   UNL A   1      45.956  26.679  26.099  1.00  0.00     0.006 A 
ENDBRANCH  59  80
BRANCH  71  88
ATOM     88  C   UNL A   1      42.690  35.692  28.689  1.00  0.00     0.057 A 
ATOM     89  C   UNL A   1      43.068  36.794  29.459  1.00  0.00     0.134 A 
ATOM     90  C   UNL A   1      42.328  35.992  27.348  1.00  0.00     0.134 A 
ATOM     91  F   UNL A   1      43.530  36.657  30.708  1.00  0.00    -0.206 F 
ATOM     92  C   UNL A   1      43.050  38.100  28.952  1.00  0.00     0.040 A 
ATOM     93  C   UNL A   1      42.385  37.277  26.811  1.00  0.00     0.040 A 
ATOM     94  F   UNL A   1      41.938  35.045  26.482  1.00  0.00    -0.206 F 
ATOM     95  C   UNL A   1      42.732  38.343  27.621  1.00  0.00     0.006 A 
ENDBRANCH  71  88
ENDBRANCH  45  46
ENDBRANCH  38  40
ENDBRANCH  37  38
ENDBRANCH  36  37
ENDBRANCH  35  36
ENDBRANCH  34  35
ENDBRANCH  33  34
ENDBRANCH   1  33
TORSDOF 20
ENDMDL
MODEL 3
REMARK VINA RESULT:     -12.1      3.557      8.919
REMARK SMILES Cc1c(NC(=O)[C@@H]2CC=CC[C@@H]2C(=O)OCCOCCOCCOC(=O)c2ccc(-c3c4nc(c(-c5c(F)cccc5F)c5ccc([nH]5)c(-c5c(F)cccc5F)c5nc(c(-c6c(F)cccc6F)c6ccc3[nH]6)C=C5)C=C4)cc2)cccc1C(=O)N1CCOCC1
REMARK SMILES IDX 19 1 18 2 17 3 16 4 15 5 13 6 14 7 12 8 7 9 8 10 9 11 11 12
REMARK SMILES IDX 10 13 5 14 4 15 6 17 3 18 1 19 2 20 84 21 81 22 83 23 82 24
REMARK SMILES IDX 85 25 86 26 87 27 88 28 92 29 89 30 91 31 90 32 20 33 21 34
REMARK SMILES IDX 22 35 23 36 24 37 25 38 26 39 27 40 28 41 80 42 29 43 79 44
REMARK SMILES IDX 30 45 31 46 32 47 73 48 33 49 78 50 72 51 74 52 34 53 77 54
REMARK SMILES IDX 71 55 70 56 35 58 61 59 44 60 60 61 45 62 48 63 59 64 75 65
REMARK SMILES IDX 46 66 47 67 58 69 76 70 49 71 36 72 37 73 42 74 38 75 39 76
REMARK SMILES IDX 41 77 43 78 40 79 62 80 63 81 68 82 64 83 65 84 67 85 69 86
REMARK SMILES IDX 66 87 50 88 51 89 56 90 52 91 53 92 55 93 57 94 54 95
REMARK H PARENT 4 16 74 57 48 68
REMARK Flexibility Score: inf
ROOT
ATOM      1  C   UNL A   1      31.526  27.796  27.374  1.00  0.00     0.188 C 
ENDROOT
BRANCH   1   2
ATOM      2  O   UNL A   1      30.832  26.578  27.033  1.00  0.00    -0.376 OA
BRANCH   2   3
ATOM      3  C   UNL A   1      31.443  25.453  26.374  1.00  0.00     0.202 C 
BRANCH   3   4
ATOM      4  C   UNL A   1      31.809  23.986  27.079  1.00  0.00     0.261 C 
BRANCH   4   5
ATOM      5  O   UNL A   1      33.351  23.112  27.412  1.00  0.00    -0.463 OA
BRANCH   5   6
ATOM      6  C   UNL A   1      34.493  22.466  26.775  1.00  0.00     0.310 C 
ATOM      7  O   UNL A   1      34.905  21.307  26.919  1.00  0.00    -0.252 OA
BRANCH   6   8
ATOM      8  C   UNL A   1      35.385  23.106  25.733  1.00  0.00     0.116 C 
ATOM      9  C   UNL A   1      35.545  22.401  24.428  1.00  0.00     0.097 C 
ATOM     10  C   UNL A   1      36.569  21.301  24.542  1.00  0.00     0.041 C 
ATOM     11  C   UNL A   1      37.858  21.890  25.080  1.00  0.00    -0.030 C 
ATOM     12  C   UNL A   1      36.676  23.751  26.252  1.00  0.00     0.043 C 
ATOM     13  C   UNL A   1      37.904  23.006  25.830  1.00  0.00    -0.030 C 
BRANCH   9  14
ATOM     14  C   UNL A   1      34.126  22.100  24.047  1.00  0.00     0.228 C 
ATOM     15  N   UNL A   1      33.304  23.229  24.148  1.00  0.00    -0.326 N 
ATOM     16  H   UNL A   1      32.762  23.429  24.944  1.00  0.00     0.169 HD
ATOM     17  O   UNL A   1      33.675  20.973  23.883  1.00  0.00    -0.274 OA
BRANCH  15  18
ATOM     18  C   UNL A   1      33.325  24.054  23.004  1.00  0.00     0.044 A 
ATOM     19  C   UNL A   1      33.482  25.929  24.647  1.00  0.00     0.047 C 
ATOM     20  C   UNL A   1      33.316  25.437  23.233  1.00  0.00    -0.015 A 
ATOM     21  C   UNL A   1      33.043  26.273  22.141  1.00  0.00     0.045 A 
ATOM     22  C   UNL A   1      33.091  23.512  21.736  1.00  0.00     0.026 A 
ATOM     23  C   UNL A   1      32.656  25.720  20.905  1.00  0.00     0.014 A 
ATOM     24  C   UNL A   1      32.694  24.343  20.699  1.00  0.00     0.003 A 
BRANCH  21  25
ATOM     25  C   UNL A   1      32.936  27.741  22.297  1.00  0.00     0.254 C 
ATOM     26  O   UNL A   1      33.925  28.411  22.008  1.00  0.00    -0.269 OA
ATOM     27  N   UNL A   1      31.723  28.303  22.669  1.00  0.00    -0.334 N 
ATOM     28  C   UNL A   1      30.659  27.680  23.474  1.00  0.00     0.148 C 
ATOM     29  C   UNL A   1      31.486  29.702  22.333  1.00  0.00     0.148 C 
ATOM     30  C   UNL A   1      29.247  28.017  22.946  1.00  0.00     0.181 C 
ATOM     31  C   UNL A   1      30.095  29.852  21.712  1.00  0.00     0.181 C 
ATOM     32  O   UNL A   1      29.089  29.409  22.637  1.00  0.00    -0.378 OA
ENDBRANCH  21  25
ENDBRANCH  15  18
ENDBRANCH   9  14
ENDBRANCH   6   8
ENDBRANCH   5   6
ENDBRANCH   4   5
ENDBRANCH   3   4
ENDBRANCH   2   3
ENDBRANCH   1   2
BRANCH   1  33
ATOM     33  C   UNL A   1      31.740  28.915  26.357  1.00  0.00     0.188 C 
BRANCH  33  34
ATOM     34  O   UNL A   1      32.135  30.077  27.047  1.00  0.00    -0.376 OA
BRANCH  34  35
ATOM     35  C   UNL A   1      33.515  30.300  27.219  1.00  0.00     0.202 C 
BRANCH  35  36
ATOM     36  C   UNL A   1      33.794  31.667  27.863  1.00  0.00     0.261 C 
BRANCH  36  37
ATOM     37  O   UNL A   1      35.213  31.878  28.103  1.00  0.00    -0.460 OA
BRANCH  37  38
ATOM     38  C   UNL A   1      35.728  31.478  29.310  1.00  0.00     0.338 C 
ATOM     39  O   UNL A   1      35.634  32.132  30.353  1.00  0.00    -0.246 OA
BRANCH  38  40
ATOM     40  C   UNL A   1      36.522  30.222  29.174  1.00  0.00     0.060 A 
ATOM     41  C   UNL A   1      36.996  29.360  30.177  1.00  0.00     0.016 A 
ATOM     42  C   UNL A   1      37.061  30.034  27.958  1.00  0.00     0.016 A 
ATOM     43  C   UNL A   1      38.165  28.492  29.988  1.00  0.00     0.010 A 
ATOM     44  C   UNL A   1      38.288  29.396  27.916  1.00  0.00     0.010 A 
ATOM     45  C   UNL A   1      38.974  28.545  28.848  1.00  0.00    -0.014 A 
BRANCH  45  46
ATOM     46  C   UNL A   1      40.528  27.772  28.664  1.00  0.00     0.031 A 
ATOM     47  C   UNL A   1      41.031  26.140  28.146  1.00  0.00     0.074 A 
ATOM     48  C   UNL A   1      41.577  28.488  29.117  1.00  0.00     0.049 A 
ATOM     49  N   UNL A   1      41.861  25.355  28.808  1.00  0.00    -0.248 NA
ATOM     50  C   UNL A   1      40.523  25.273  26.985  1.00  0.00     0.031 C 
ATOM     51  C   UNL A   1      42.996  28.165  29.038  1.00  0.00     0.029 A 
ATOM     52  N   UNL A   1      41.535  29.666  29.871  1.00  0.00    -0.354 N 
ATOM     53  C   UNL A   1      42.004  24.135  28.106  1.00  0.00     0.074 A 
ATOM     54  C   UNL A   1      41.011  24.063  27.119  1.00  0.00     0.031 C 
ATOM     55  C   UNL A   1      43.647  28.913  29.949  1.00  0.00     0.029 A 
ATOM     56  C   UNL A   1      42.637  29.615  30.727  1.00  0.00     0.049 A 
ATOM     57  H   UNL A   1      40.864  30.384  29.810  1.00  0.00     0.167 HD
ATOM     58  C   UNL A   1      43.102  23.333  28.129  1.00  0.00     0.037 A 
ATOM     59  C   UNL A   1      42.465  29.555  32.076  1.00  0.00     0.037 A 
ATOM     60  C   UNL A   1      44.077  23.945  28.972  1.00  0.00     0.049 A 
ATOM     61  C   UNL A   1      43.140  28.341  32.662  1.00  0.00     0.074 A 
ATOM     62  C   UNL A   1      45.042  24.895  28.693  1.00  0.00     0.029 A 
ATOM     63  N   UNL A   1      43.800  24.019  30.321  1.00  0.00    -0.354 N 
ATOM     64  N   UNL A   1      43.389  27.248  31.991  1.00  0.00    -0.248 NA
ATOM     65  C   UNL A   1      43.636  28.280  34.032  1.00  0.00     0.031 C 
ATOM     66  C   UNL A   1      45.323  25.578  29.899  1.00  0.00     0.029 A 
ATOM     67  C   UNL A   1      44.562  25.006  30.901  1.00  0.00     0.049 A 
ATOM     68  H   UNL A   1      43.153  23.451  30.798  1.00  0.00     0.167 HD
ATOM     69  C   UNL A   1      44.084  26.375  32.786  1.00  0.00     0.074 A 
ATOM     70  C   UNL A   1      44.208  27.064  34.054  1.00  0.00     0.031 C 
ATOM     71  C   UNL A   1      44.523  25.165  32.336  1.00  0.00     0.037 A 
BRANCH  58  72
ATOM     72  C   UNL A   1      43.347  22.314  27.023  1.00  0.00     0.057 A 
ATOM     73  C   UNL A   1      42.664  21.087  27.012  1.00  0.00     0.134 A 
ATOM     74  C   UNL A   1      44.346  22.442  26.030  1.00  0.00     0.134 A 
ATOM     75  F   UNL A   1      41.664  20.838  27.865  1.00  0.00    -0.206 F 
ATOM     76  C   UNL A   1      43.004  20.034  26.149  1.00  0.00     0.040 A 
ATOM     77  C   UNL A   1      44.722  21.380  25.187  1.00  0.00     0.040 A 
ATOM     78  F   UNL A   1      45.042  23.584  25.893  1.00  0.00    -0.206 F 
ATOM     79  C   UNL A   1      44.055  20.164  25.253  1.00  0.00     0.006 A 
ENDBRANCH  58  72
BRANCH  59  80
ATOM     80  C   UNL A   1      41.233  30.234  32.593  1.00  0.00     0.057 A 
ATOM     81  C   UNL A   1      40.111  29.444  32.937  1.00  0.00     0.134 A 
ATOM     82  C   UNL A   1      41.198  31.566  33.017  1.00  0.00     0.134 A 
ATOM     83  F   UNL A   1      40.054  28.154  32.565  1.00  0.00    -0.206 F 
ATOM     84  C   UNL A   1      39.071  29.916  33.744  1.00  0.00     0.040 A 
ATOM     85  C   UNL A   1      40.147  32.060  33.812  1.00  0.00     0.040 A 
ATOM     86  F   UNL A   1      42.231  32.386  32.779  1.00  0.00    -0.206 F 
ATOM     87  C   UNL A   1      39.093  31.229  34.196  1.00  0.00     0.006 A 
ENDBRANCH  59  80
BRANCH  71  88
ATOM     88  C   UNL A   1      45.010  23.997  33.160  1.00  0.00     0.057 A 
ATOM     89  C   UNL A   1      46.303  23.897  33.680  1.00  0.00     0.134 A 
ATOM     90  C   UNL A   1      44.094  23.020  33.634  1.00  0.00     0.134 A 
ATOM     91  F   UNL A   1      47.246  24.806  33.405  1.00  0.00    -0.206 F 
ATOM     92  C   UNL A   1      46.671  22.882  34.572  1.00  0.00     0.040 A 
ATOM     93  C   UNL A   1      44.431  22.055  34.583  1.00  0.00     0.040 A 
ATOM     94  F   UNL A   1      42.816  22.978  33.229  1.00  0.00    -0.206 F 
ATOM     95  C   UNL A   1      45.732  21.973  35.044  1.00  0.00     0.006 A 
ENDBRANCH  71  88
ENDBRANCH  45  46
ENDBRANCH  38  40
ENDBRANCH  37  38
ENDBRANCH  36  37
ENDBRANCH  35  36
ENDBRANCH  34  35
ENDBRANCH  33  34
ENDBRANCH   1  33
TORSDOF 20
ENDMDL
