MODEL 1
REMARK VINA RESULT:     -10.2      0.000      0.000
REMARK SMILES C[C@@H]([NH+]1CCC(n2cccc2C(=O)OCCOCCOCCOC(=O)c2ccc(-c3c4nc(c(-c5c(F)cccc5F)c5ccc([nH]5)c(-c5c(F)cccc5F)c5nc(c(-c6c(F)cccc6F)c6ccc3[nH]6)C=C5)C=C4)cc2)CC1)C1(C)CC1
REMARK SMILES IDX 18 1 17 2 16 3 15 4 14 5 12 6 13 7 11 8 7 9 8 10 9 11 10 12
REMARK SMILES IDX 6 13 3 14 4 15 81 16 5 18 80 19 2 20 1 21 82 22 83 23 84 24
REMARK SMILES IDX 85 25 19 26 20 27 21 28 22 29 23 30 24 31 25 32 26 33 27 34
REMARK SMILES IDX 79 35 28 36 78 37 29 38 30 39 31 40 72 41 32 42 77 43 71 44
REMARK SMILES IDX 73 45 33 46 76 47 70 48 69 49 34 51 60 52 43 53 59 54 44 55
REMARK SMILES IDX 47 56 58 57 74 58 45 59 46 60 57 62 75 63 48 64 35 65 36 66
REMARK SMILES IDX 41 67 37 68 38 69 40 70 42 71 39 72 61 73 62 74 67 75 63 76
REMARK SMILES IDX 64 77 66 78 68 79 65 80 49 81 50 82 55 83 51 84 52 85 54 86
REMARK SMILES IDX 56 87 53 88
REMARK H PARENT 3 17 73 50 47 61
REMARK Flexibility Score: inf
ROOT
ATOM      1  C   UNL A   1      34.314  32.506  28.009  1.00  0.00     0.188 C 
ENDROOT
BRANCH   1   2
ATOM      2  O   UNL A   1      33.663  31.572  27.176  1.00  0.00    -0.376 OA
BRANCH   2   3
ATOM      3  C   UNL A   1      33.938  30.186  27.303  1.00  0.00     0.202 C 
BRANCH   3   4
ATOM      4  C   UNL A   1      33.781  29.208  26.127  1.00  0.00     0.261 C 
BRANCH   4   5
ATOM      5  O   UNL A   1      32.507  29.277  25.495  1.00  0.00    -0.459 OA
BRANCH   5   6
ATOM      6  C   UNL A   1      32.468  29.025  24.156  1.00  0.00     0.355 C 
ATOM      7  O   UNL A   1      33.407  29.140  23.407  1.00  0.00    -0.244 OA
BRANCH   6   8
ATOM      8  C   UNL A   1      31.177  28.450  23.812  1.00  0.00     0.127 A 
ATOM      9  N   UNL A   1      30.746  27.123  23.769  1.00  0.00    -0.339 N 
ATOM     10  C   UNL A   1      29.384  27.134  23.501  1.00  0.00     0.086 A 
ATOM     11  C   UNL A   1      28.976  28.417  23.238  1.00  0.00     0.020 A 
ATOM     12  C   UNL A   1      30.090  29.241  23.452  1.00  0.00     0.035 A 
BRANCH   9  13
ATOM     13  C   UNL A   1      31.449  25.860  24.093  1.00  0.00     0.098 C 
ATOM     14  N   UNL A   1      31.927  23.317  25.540  1.00  0.00    -0.332 N 
ATOM     15  C   UNL A   1      32.681  24.511  25.901  1.00  0.00     0.264 C 
ATOM     16  C   UNL A   1      31.426  23.315  24.178  1.00  0.00     0.264 C 
ATOM     17  H   UNL A   1      31.101  23.418  26.129  1.00  0.00     0.348 HD
ATOM     18  C   UNL A   1      31.940  25.810  25.557  1.00  0.00     0.087 C 
ATOM     19  C   UNL A   1      30.670  24.578  23.823  1.00  0.00     0.087 C 
BRANCH  14  20
ATOM     20  C   UNL A   1      32.443  22.015  26.011  1.00  0.00     0.186 C 
ATOM     21  C   UNL A   1      33.212  22.228  27.334  1.00  0.00     0.076 C 
BRANCH  20  22
ATOM     22  C   UNL A   1      33.210  21.095  25.019  1.00  0.00     0.019 C 
ATOM     23  C   UNL A   1      34.615  21.547  24.666  1.00  0.00     0.018 C 
ATOM     24  C   UNL A   1      33.104  19.589  25.233  1.00  0.00     0.013 C 
ATOM     25  C   UNL A   1      32.521  20.204  23.995  1.00  0.00     0.013 C 
ENDBRANCH  20  22
ENDBRANCH  14  20
ENDBRANCH   9  13
ENDBRANCH   6   8
ENDBRANCH   5   6
ENDBRANCH   4   5
ENDBRANCH   3   4
ENDBRANCH   2   3
ENDBRANCH   1   2
BRANCH   1  26
ATOM     26  C   UNL A   1      33.508  33.799  28.265  1.00  0.00     0.188 C 
BRANCH  26  27
ATOM     27  O   UNL A   1      33.310  34.361  29.556  1.00  0.00    -0.376 OA
BRANCH  27  28
ATOM     28  C   UNL A   1      34.369  34.554  30.475  1.00  0.00     0.202 C 
BRANCH  28  29
ATOM     29  C   UNL A   1      34.392  33.726  31.761  1.00  0.00     0.261 C 
BRANCH  29  30
ATOM     30  O   UNL A   1      34.836  32.381  31.628  1.00  0.00    -0.460 OA
BRANCH  30  31
ATOM     31  C   UNL A   1      35.845  32.086  32.474  1.00  0.00     0.338 C 
ATOM     32  O   UNL A   1      36.032  32.493  33.608  1.00  0.00    -0.246 OA
BRANCH  31  33
ATOM     33  C   UNL A   1      36.802  31.221  31.795  1.00  0.00     0.060 A 
ATOM     34  C   UNL A   1      37.692  30.482  32.577  1.00  0.00     0.016 A 
ATOM     35  C   UNL A   1      36.945  31.339  30.407  1.00  0.00     0.016 A 
ATOM     36  C   UNL A   1      38.791  29.908  31.969  1.00  0.00     0.010 A 
ATOM     37  C   UNL A   1      38.066  30.798  29.806  1.00  0.00     0.010 A 
ATOM     38  C   UNL A   1      38.994  30.105  30.597  1.00  0.00    -0.014 A 
BRANCH  38  39
ATOM     39  C   UNL A   1      40.187  29.504  29.980  1.00  0.00     0.031 A 
ATOM     40  C   UNL A   1      41.330  30.510  29.842  1.00  0.00     0.074 A 
ATOM     41  C   UNL A   1      40.064  28.194  29.613  1.00  0.00     0.049 A 
ATOM     42  N   UNL A   1      42.355  30.501  29.048  1.00  0.00    -0.248 NA
ATOM     43  C   UNL A   1      41.307  31.743  30.678  1.00  0.00     0.031 C 
ATOM     44  C   UNL A   1      38.857  27.371  29.854  1.00  0.00     0.029 A 
ATOM     45  N   UNL A   1      40.886  27.290  28.973  1.00  0.00    -0.354 N 
ATOM     46  C   UNL A   1      43.191  31.567  29.438  1.00  0.00     0.074 A 
ATOM     47  C   UNL A   1      42.441  32.364  30.357  1.00  0.00     0.031 C 
ATOM     48  C   UNL A   1      38.992  26.146  29.306  1.00  0.00     0.029 A 
ATOM     49  C   UNL A   1      40.297  26.029  28.688  1.00  0.00     0.049 A 
ATOM     50  H   UNL A   1      41.816  27.504  28.730  1.00  0.00     0.167 HD
ATOM     51  C   UNL A   1      44.508  31.645  29.096  1.00  0.00     0.037 A 
ATOM     52  C   UNL A   1      40.805  24.976  27.974  1.00  0.00     0.037 A 
ATOM     53  C   UNL A   1      44.853  30.599  28.195  1.00  0.00     0.049 A 
ATOM     54  C   UNL A   1      42.193  25.348  27.665  1.00  0.00     0.074 A 
ATOM     55  C   UNL A   1      44.575  30.378  26.874  1.00  0.00     0.029 A 
ATOM     56  N   UNL A   1      45.333  29.440  28.750  1.00  0.00    -0.354 N 
ATOM     57  N   UNL A   1      43.174  25.317  28.517  1.00  0.00    -0.248 NA
ATOM     58  C   UNL A   1      42.504  25.880  26.332  1.00  0.00     0.031 C 
ATOM     59  C   UNL A   1      44.519  28.973  26.762  1.00  0.00     0.029 A 
ATOM     60  C   UNL A   1      44.879  28.396  27.985  1.00  0.00     0.049 A 
ATOM     61  H   UNL A   1      45.902  29.371  29.551  1.00  0.00     0.167 HD
ATOM     62  C   UNL A   1      44.107  26.130  27.919  1.00  0.00     0.074 A 
ATOM     63  C   UNL A   1      43.793  26.149  26.509  1.00  0.00     0.031 C 
ATOM     64  C   UNL A   1      44.701  27.117  28.637  1.00  0.00     0.037 A 
BRANCH  51  65
ATOM     65  C   UNL A   1      45.628  32.449  29.693  1.00  0.00     0.057 A 
ATOM     66  C   UNL A   1      46.345  33.329  28.849  1.00  0.00     0.134 A 
ATOM     67  C   UNL A   1      46.240  32.142  30.913  1.00  0.00     0.134 A 
ATOM     68  F   UNL A   1      45.837  33.725  27.672  1.00  0.00    -0.206 F 
ATOM     69  C   UNL A   1      47.639  33.765  29.145  1.00  0.00     0.040 A 
ATOM     70  C   UNL A   1      47.518  32.614  31.241  1.00  0.00     0.040 A 
ATOM     71  F   UNL A   1      45.675  31.303  31.792  1.00  0.00    -0.206 F 
ATOM     72  C   UNL A   1      48.238  33.390  30.338  1.00  0.00     0.006 A 
ENDBRANCH  51  65
BRANCH  52  73
ATOM     73  C   UNL A   1      40.325  23.650  27.426  1.00  0.00     0.057 A 
ATOM     74  C   UNL A   1      39.250  23.456  26.554  1.00  0.00     0.134 A 
ATOM     75  C   UNL A   1      40.990  22.440  27.778  1.00  0.00     0.134 A 
ATOM     76  F   UNL A   1      38.432  24.458  26.217  1.00  0.00    -0.206 F 
ATOM     77  C   UNL A   1      38.932  22.194  26.004  1.00  0.00     0.040 A 
ATOM     78  C   UNL A   1      40.701  21.187  27.227  1.00  0.00     0.040 A 
ATOM     79  F   UNL A   1      41.968  22.404  28.692  1.00  0.00    -0.206 F 
ATOM     80  C   UNL A   1      39.674  21.061  26.317  1.00  0.00     0.006 A 
ENDBRANCH  52  73
BRANCH  64  81
ATOM     81  C   UNL A   1      44.689  26.876  30.132  1.00  0.00     0.057 A 
ATOM     82  C   UNL A   1      45.478  25.864  30.691  1.00  0.00     0.134 A 
ATOM     83  C   UNL A   1      43.822  27.529  31.021  1.00  0.00     0.134 A 
ATOM     84  F   UNL A   1      46.345  25.185  29.924  1.00  0.00    -0.206 F 
ATOM     85  C   UNL A   1      45.393  25.513  32.046  1.00  0.00     0.040 A 
ATOM     86  C   UNL A   1      43.729  27.201  32.378  1.00  0.00     0.040 A 
ATOM     87  F   UNL A   1      43.023  28.506  30.598  1.00  0.00    -0.206 F 
ATOM     88  C   UNL A   1      44.513  26.180  32.895  1.00  0.00     0.006 A 
ENDBRANCH  64  81
ENDBRANCH  38  39
ENDBRANCH  31  33
ENDBRANCH  30  31
ENDBRANCH  29  30
ENDBRANCH  28  29
ENDBRANCH  27  28
ENDBRANCH  26  27
ENDBRANCH   1  26
TORSDOF 20
ENDMDL
MODEL 2
REMARK VINA RESULT:     -10.0      3.859      8.530
REMARK SMILES C[C@@H]([NH+]1CCC(n2cccc2C(=O)OCCOCCOCCOC(=O)c2ccc(-c3c4nc(c(-c5c(F)cccc5F)c5ccc([nH]5)c(-c5c(F)cccc5F)c5nc(c(-c6c(F)cccc6F)c6ccc3[nH]6)C=C5)C=C4)cc2)CC1)C1(C)CC1
REMARK SMILES IDX 18 1 17 2 16 3 15 4 14 5 12 6 13 7 11 8 7 9 8 10 9 11 10 12
REMARK SMILES IDX 6 13 3 14 4 15 81 16 5 18 80 19 2 20 1 21 82 22 83 23 84 24
REMARK SMILES IDX 85 25 19 26 20 27 21 28 22 29 23 30 24 31 25 32 26 33 27 34
REMARK SMILES IDX 79 35 28 36 78 37 29 38 30 39 31 40 72 41 32 42 77 43 71 44
REMARK SMILES IDX 73 45 33 46 76 47 70 48 69 49 34 51 60 52 43 53 59 54 44 55
REMARK SMILES IDX 47 56 58 57 74 58 45 59 46 60 57 62 75 63 48 64 35 65 36 66
REMARK SMILES IDX 41 67 37 68 38 69 40 70 42 71 39 72 61 73 62 74 67 75 63 76
REMARK SMILES IDX 64 77 66 78 68 79 65 80 49 81 50 82 55 83 51 84 52 85 54 86
REMARK SMILES IDX 56 87 53 88
REMARK H PARENT 3 17 73 50 47 61
REMARK Flexibility Score: inf
ROOT
ATOM      1  C   UNL A   1      39.857  21.637  26.247  1.00  0.00     0.188 C 
ENDROOT
BRANCH   1   2
ATOM      2  O   UNL A   1      39.114  20.647  25.571  1.00  0.00    -0.376 OA
BRANCH   2   3
ATOM      3  C   UNL A   1      37.768  20.892  25.199  1.00  0.00     0.202 C 
BRANCH   3   4
ATOM      4  C   UNL A   1      37.196  22.315  25.077  1.00  0.00     0.261 C 
BRANCH   4   5
ATOM      5  O   UNL A   1      35.802  22.346  24.788  1.00  0.00    -0.459 OA
BRANCH   5   6
ATOM      6  C   UNL A   1      34.967  21.806  25.719  1.00  0.00     0.355 C 
ATOM      7  O   UNL A   1      34.969  22.089  26.892  1.00  0.00    -0.244 OA
BRANCH   6   8
ATOM      8  C   UNL A   1      33.981  20.968  25.054  1.00  0.00     0.127 A 
ATOM      9  N   UNL A   1      32.684  21.245  24.621  1.00  0.00    -0.339 N 
ATOM     10  C   UNL A   1      32.224  20.129  23.934  1.00  0.00     0.086 A 
ATOM     11  C   UNL A   1      33.139  19.113  24.040  1.00  0.00     0.020 A 
ATOM     12  C   UNL A   1      34.245  19.642  24.722  1.00  0.00     0.035 A 
BRANCH   9  13
ATOM     13  C   UNL A   1      31.889  22.495  24.664  1.00  0.00     0.098 C 
ATOM     14  N   UNL A   1      31.335  25.334  25.313  1.00  0.00    -0.332 N 
ATOM     15  C   UNL A   1      30.801  24.277  26.163  1.00  0.00     0.264 C 
ATOM     16  C   UNL A   1      31.611  24.922  23.949  1.00  0.00     0.264 C 
ATOM     17  H   UNL A   1      32.250  25.487  25.736  1.00  0.00     0.348 HD
ATOM     18  C   UNL A   1      31.634  22.989  26.106  1.00  0.00     0.087 C 
ATOM     19  C   UNL A   1      32.451  23.666  23.867  1.00  0.00     0.087 C 
BRANCH  14  20
ATOM     20  C   UNL A   1      30.743  26.681  25.445  1.00  0.00     0.186 C 
ATOM     21  C   UNL A   1      30.018  27.044  24.130  1.00  0.00     0.076 C 
BRANCH  20  22
ATOM     22  C   UNL A   1      31.619  27.849  25.982  1.00  0.00     0.019 C 
ATOM     23  C   UNL A   1      31.657  29.090  25.109  1.00  0.00     0.018 C 
ATOM     24  C   UNL A   1      31.526  28.169  27.470  1.00  0.00     0.013 C 
ATOM     25  C   UNL A   1      32.814  27.648  26.904  1.00  0.00     0.013 C 
ENDBRANCH  20  22
ENDBRANCH  14  20
ENDBRANCH   9  13
ENDBRANCH   6   8
ENDBRANCH   5   6
ENDBRANCH   4   5
ENDBRANCH   3   4
ENDBRANCH   2   3
ENDBRANCH   1   2
BRANCH   1  26
ATOM     26  C   UNL A   1      41.283  21.199  26.649  1.00  0.00     0.188 C 
BRANCH  26  27
ATOM     27  O   UNL A   1      42.135  20.427  25.812  1.00  0.00    -0.376 OA
BRANCH  27  28
ATOM     28  C   UNL A   1      43.490  20.764  25.586  1.00  0.00     0.202 C 
BRANCH  28  29
ATOM     29  C   UNL A   1      43.832  22.179  25.115  1.00  0.00     0.261 C 
BRANCH  29  30
ATOM     30  O   UNL A   1      44.154  23.114  26.138  1.00  0.00    -0.460 OA
BRANCH  30  31
ATOM     31  C   UNL A   1      44.046  24.392  25.720  1.00  0.00     0.338 C 
ATOM     32  O   UNL A   1      44.224  24.845  24.601  1.00  0.00    -0.246 OA
BRANCH  31  33
ATOM     33  C   UNL A   1      43.746  25.246  26.863  1.00  0.00     0.060 A 
ATOM     34  C   UNL A   1      42.806  24.796  27.793  1.00  0.00     0.016 A 
ATOM     35  C   UNL A   1      44.228  26.561  26.862  1.00  0.00     0.016 A 
ATOM     36  C   UNL A   1      42.282  25.699  28.696  1.00  0.00     0.010 A 
ATOM     37  C   UNL A   1      43.673  27.472  27.740  1.00  0.00     0.010 A 
ATOM     38  C   UNL A   1      42.686  27.039  28.636  1.00  0.00    -0.014 A 
BRANCH  38  39
ATOM     39  C   UNL A   1      42.091  27.984  29.595  1.00  0.00     0.031 A 
ATOM     40  C   UNL A   1      42.821  27.975  30.938  1.00  0.00     0.074 A 
ATOM     41  C   UNL A   1      40.995  28.666  29.146  1.00  0.00     0.049 A 
ATOM     42  N   UNL A   1      42.410  28.345  32.111  1.00  0.00    -0.248 NA
ATOM     43  C   UNL A   1      44.203  27.423  31.000  1.00  0.00     0.031 C 
ATOM     44  C   UNL A   1      40.442  28.547  27.779  1.00  0.00     0.029 A 
ATOM     45  N   UNL A   1      40.124  29.573  29.714  1.00  0.00    -0.354 N 
ATOM     46  C   UNL A   1      43.522  28.291  32.975  1.00  0.00     0.074 A 
ATOM     47  C   UNL A   1      44.559  27.604  32.272  1.00  0.00     0.031 C 
ATOM     48  C   UNL A   1      39.310  29.269  27.652  1.00  0.00     0.029 A 
ATOM     49  C   UNL A   1      39.027  29.955  28.897  1.00  0.00     0.049 A 
ATOM     50  H   UNL A   1      40.254  29.930  30.623  1.00  0.00     0.167 HD
ATOM     51  C   UNL A   1      43.573  28.951  34.167  1.00  0.00     0.037 A 
ATOM     52  C   UNL A   1      37.946  30.737  29.207  1.00  0.00     0.037 A 
ATOM     53  C   UNL A   1      42.318  29.557  34.455  1.00  0.00     0.049 A 
ATOM     54  C   UNL A   1      38.213  31.254  30.557  1.00  0.00     0.074 A 
ATOM     55  C   UNL A   1      41.107  29.052  34.844  1.00  0.00     0.029 A 
ATOM     56  N   UNL A   1      42.148  30.853  34.041  1.00  0.00    -0.354 N 
ATOM     57  N   UNL A   1      39.052  32.207  30.831  1.00  0.00    -0.248 NA
ATOM     58  C   UNL A   1      37.565  30.605  31.705  1.00  0.00     0.031 C 
ATOM     59  C   UNL A   1      40.165  29.934  34.273  1.00  0.00     0.029 A 
ATOM     60  C   UNL A   1      40.837  31.000  33.664  1.00  0.00     0.049 A 
ATOM     61  H   UNL A   1      42.842  31.553  34.018  1.00  0.00     0.167 HD
ATOM     62  C   UNL A   1      39.268  32.029  32.177  1.00  0.00     0.074 A 
ATOM     63  C   UNL A   1      38.125  31.306  32.685  1.00  0.00     0.031 C 
ATOM     64  C   UNL A   1      40.537  31.994  32.658  1.00  0.00     0.037 A 
BRANCH  51  65
ATOM     65  C   UNL A   1      44.744  29.332  35.026  1.00  0.00     0.057 A 
ATOM     66  C   UNL A   1      44.804  28.821  36.344  1.00  0.00     0.134 A 
ATOM     67  C   UNL A   1      45.587  30.416  34.755  1.00  0.00     0.134 A 
ATOM     68  F   UNL A   1      44.070  27.757  36.706  1.00  0.00    -0.206 F 
ATOM     69  C   UNL A   1      45.551  29.432  37.354  1.00  0.00     0.040 A 
ATOM     70  C   UNL A   1      46.379  31.006  35.750  1.00  0.00     0.040 A 
ATOM     71  F   UNL A   1      45.610  31.005  33.553  1.00  0.00    -0.206 F 
ATOM     72  C   UNL A   1      46.328  30.543  37.061  1.00  0.00     0.006 A 
ENDBRANCH  51  65
BRANCH  52  73
ATOM     73  C   UNL A   1      36.628  31.137  28.581  1.00  0.00     0.057 A 
ATOM     74  C   UNL A   1      35.627  30.269  28.134  1.00  0.00     0.134 A 
ATOM     75  C   UNL A   1      36.299  32.512  28.408  1.00  0.00     0.134 A 
ATOM     76  F   UNL A   1      35.812  28.946  28.099  1.00  0.00    -0.206 F 
ATOM     77  C   UNL A   1      34.378  30.726  27.658  1.00  0.00     0.040 A 
ATOM     78  C   UNL A   1      35.060  32.980  27.957  1.00  0.00     0.040 A 
ATOM     79  F   UNL A   1      37.175  33.492  28.666  1.00  0.00    -0.206 F 
ATOM     80  C   UNL A   1      34.080  32.082  27.595  1.00  0.00     0.006 A 
ENDBRANCH  52  73
BRANCH  64  81
ATOM     81  C   UNL A   1      41.546  32.693  31.770  1.00  0.00     0.057 A 
ATOM     82  C   UNL A   1      41.543  34.088  31.660  1.00  0.00     0.134 A 
ATOM     83  C   UNL A   1      42.435  32.019  30.918  1.00  0.00     0.134 A 
ATOM     84  F   UNL A   1      40.733  34.823  32.437  1.00  0.00    -0.206 F 
ATOM     85  C   UNL A   1      42.364  34.766  30.746  1.00  0.00     0.040 A 
ATOM     86  C   UNL A   1      43.268  32.677  30.007  1.00  0.00     0.040 A 
ATOM     87  F   UNL A   1      42.519  30.691  30.936  1.00  0.00    -0.206 F 
ATOM     88  C   UNL A   1      43.228  34.061  29.912  1.00  0.00     0.006 A 
ENDBRANCH  64  81
ENDBRANCH  38  39
ENDBRANCH  31  33
ENDBRANCH  30  31
ENDBRANCH  29  30
ENDBRANCH  28  29
ENDBRANCH  27  28
ENDBRANCH  26  27
ENDBRANCH   1  26
TORSDOF 20
ENDMDL
MODEL 3
REMARK VINA RESULT:     -10.0      4.372      9.433
REMARK SMILES C[C@@H]([NH+]1CCC(n2cccc2C(=O)OCCOCCOCCOC(=O)c2ccc(-c3c4nc(c(-c5c(F)cccc5F)c5ccc([nH]5)c(-c5c(F)cccc5F)c5nc(c(-c6c(F)cccc6F)c6ccc3[nH]6)C=C5)C=C4)cc2)CC1)C1(C)CC1
REMARK SMILES IDX 18 1 17 2 16 3 15 4 14 5 12 6 13 7 11 8 7 9 8 10 9 11 10 12
REMARK SMILES IDX 6 13 3 14 4 15 81 16 5 18 80 19 2 20 1 21 82 22 83 23 84 24
REMARK SMILES IDX 85 25 19 26 20 27 21 28 22 29 23 30 24 31 25 32 26 33 27 34
REMARK SMILES IDX 79 35 28 36 78 37 29 38 30 39 31 40 72 41 32 42 77 43 71 44
REMARK SMILES IDX 73 45 33 46 76 47 70 48 69 49 34 51 60 52 43 53 59 54 44 55
REMARK SMILES IDX 47 56 58 57 74 58 45 59 46 60 57 62 75 63 48 64 35 65 36 66
REMARK SMILES IDX 41 67 37 68 38 69 40 70 42 71 39 72 61 73 62 74 67 75 63 76
REMARK SMILES IDX 64 77 66 78 68 79 65 80 49 81 50 82 55 83 51 84 52 85 54 86
REMARK SMILES IDX 56 87 53 88
REMARK H PARENT 3 17 73 50 47 61
REMARK Flexibility Score: inf
ROOT
ATOM      1  C   UNL A   1      39.664  21.877  25.967  1.00  0.00     0.188 C 
ENDROOT
BRANCH   1   2
ATOM      2  O   UNL A   1      38.266  21.753  26.111  1.00  0.00    -0.376 OA
BRANCH   2   3
ATOM      3  C   UNL A   1      37.515  20.994  25.177  1.00  0.00     0.202 C 
BRANCH   3   4
ATOM      4  C   UNL A   1      36.133  21.445  24.675  1.00  0.00     0.261 C 
BRANCH   4   5
ATOM      5  O   UNL A   1      35.273  21.906  25.711  1.00  0.00    -0.459 OA
BRANCH   5   6
ATOM      6  C   UNL A   1      34.109  21.223  25.896  1.00  0.00     0.355 C 
ATOM      7  O   UNL A   1      33.798  20.656  26.916  1.00  0.00    -0.244 OA
BRANCH   6   8
ATOM      8  C   UNL A   1      33.246  21.419  24.742  1.00  0.00     0.127 A 
ATOM      9  N   UNL A   1      32.577  22.553  24.279  1.00  0.00    -0.339 N 
ATOM     10  C   UNL A   1      31.992  22.227  23.063  1.00  0.00     0.086 A 
ATOM     11  C   UNL A   1      32.158  20.888  22.816  1.00  0.00     0.020 A 
ATOM     12  C   UNL A   1      32.958  20.387  23.853  1.00  0.00     0.035 A 
BRANCH   9  13
ATOM     13  C   UNL A   1      32.549  23.944  24.791  1.00  0.00     0.098 C 
ATOM     14  N   UNL A   1      32.675  26.899  24.614  1.00  0.00    -0.332 N 
ATOM     15  C   UNL A   1      33.848  26.147  25.041  1.00  0.00     0.264 C 
ATOM     16  C   UNL A   1      31.413  26.221  24.843  1.00  0.00     0.264 C 
ATOM     17  H   UNL A   1      32.797  26.902  23.602  1.00  0.00     0.348 HD
ATOM     18  C   UNL A   1      33.860  24.709  24.505  1.00  0.00     0.087 C 
ATOM     19  C   UNL A   1      31.393  24.808  24.302  1.00  0.00     0.087 C 
BRANCH  14  20
ATOM     20  C   UNL A   1      32.657  28.351  24.892  1.00  0.00     0.186 C 
ATOM     21  C   UNL A   1      33.564  29.071  23.869  1.00  0.00     0.076 C 
BRANCH  20  22
ATOM     22  C   UNL A   1      32.888  28.852  26.346  1.00  0.00     0.019 C 
ATOM     23  C   UNL A   1      34.194  29.587  26.582  1.00  0.00     0.018 C 
ATOM     24  C   UNL A   1      31.704  29.491  27.064  1.00  0.00     0.013 C 
ATOM     25  C   UNL A   1      32.264  28.195  27.569  1.00  0.00     0.013 C 
ENDBRANCH  20  22
ENDBRANCH  14  20
ENDBRANCH   9  13
ENDBRANCH   6   8
ENDBRANCH   5   6
ENDBRANCH   4   5
ENDBRANCH   3   4
ENDBRANCH   2   3
ENDBRANCH   1   2
BRANCH   1  26
ATOM     26  C   UNL A   1      40.478  20.791  26.704  1.00  0.00     0.188 C 
BRANCH  26  27
ATOM     27  O   UNL A   1      41.125  19.709  26.046  1.00  0.00    -0.376 OA
BRANCH  27  28
ATOM     28  C   UNL A   1      42.308  19.112  26.543  1.00  0.00     0.202 C 
BRANCH  28  29
ATOM     29  C   UNL A   1      43.379  18.654  25.550  1.00  0.00     0.261 C 
BRANCH  29  30
ATOM     30  O   UNL A   1      43.548  19.471  24.398  1.00  0.00    -0.460 OA
BRANCH  30  31
ATOM     31  C   UNL A   1      44.848  19.720  24.130  1.00  0.00     0.338 C 
ATOM     32  O   UNL A   1      45.687  18.966  23.667  1.00  0.00    -0.246 OA
BRANCH  31  33
ATOM     33  C   UNL A   1      45.176  21.071  24.567  1.00  0.00     0.060 A 
ATOM     34  C   UNL A   1      45.588  21.254  25.889  1.00  0.00     0.016 A 
ATOM     35  C   UNL A   1      44.849  22.144  23.730  1.00  0.00     0.016 A 
ATOM     36  C   UNL A   1      45.603  22.534  26.409  1.00  0.00     0.010 A 
ATOM     37  C   UNL A   1      44.826  23.420  24.263  1.00  0.00     0.010 A 
ATOM     38  C   UNL A   1      45.182  23.602  25.606  1.00  0.00    -0.014 A 
BRANCH  38  39
ATOM     39  C   UNL A   1      45.183  24.951  26.194  1.00  0.00     0.031 A 
ATOM     40  C   UNL A   1      43.769  25.506  26.361  1.00  0.00     0.074 A 
ATOM     41  C   UNL A   1      46.417  25.480  26.452  1.00  0.00     0.049 A 
ATOM     42  N   UNL A   1      43.363  26.733  26.469  1.00  0.00    -0.248 NA
ATOM     43  C   UNL A   1      42.620  24.557  26.357  1.00  0.00     0.031 C 
ATOM     44  C   UNL A   1      47.693  24.763  26.233  1.00  0.00     0.029 A 
ATOM     45  N   UNL A   1      46.865  26.694  26.930  1.00  0.00    -0.354 N 
ATOM     46  C   UNL A   1      41.987  26.689  26.769  1.00  0.00     0.074 A 
ATOM     47  C   UNL A   1      41.563  25.340  26.566  1.00  0.00     0.031 C 
ATOM     48  C   UNL A   1      48.746  25.564  26.492  1.00  0.00     0.029 A 
ATOM     49  C   UNL A   1      48.276  26.861  26.935  1.00  0.00     0.049 A 
ATOM     50  H   UNL A   1      46.250  27.396  27.244  1.00  0.00     0.167 HD
ATOM     51  C   UNL A   1      41.310  27.738  27.315  1.00  0.00     0.037 A 
ATOM     52  C   UNL A   1      49.016  27.973  27.238  1.00  0.00     0.037 A 
ATOM     53  C   UNL A   1      42.146  28.887  27.392  1.00  0.00     0.049 A 
ATOM     54  C   UNL A   1      48.046  28.967  27.720  1.00  0.00     0.074 A 
ATOM     55  C   UNL A   1      42.627  29.754  26.449  1.00  0.00     0.029 A 
ATOM     56  N   UNL A   1      42.844  29.066  28.559  1.00  0.00    -0.354 N 
ATOM     57  N   UNL A   1      47.491  28.948  28.894  1.00  0.00    -0.248 NA
ATOM     58  C   UNL A   1      47.589  30.016  26.799  1.00  0.00     0.031 C 
ATOM     59  C   UNL A   1      43.879  30.158  26.958  1.00  0.00     0.029 A 
ATOM     60  C   UNL A   1      44.057  29.619  28.236  1.00  0.00     0.049 A 
ATOM     61  H   UNL A   1      42.530  28.839  29.465  1.00  0.00     0.167 HD
ATOM     62  C   UNL A   1      46.399  29.764  28.715  1.00  0.00     0.074 A 
ATOM     63  C   UNL A   1      46.702  30.613  27.586  1.00  0.00     0.031 C 
ATOM     64  C   UNL A   1      45.171  29.348  29.117  1.00  0.00     0.037 A 
BRANCH  51  65
ATOM     65  C   UNL A   1      39.995  27.784  28.041  1.00  0.00     0.057 A 
ATOM     66  C   UNL A   1      39.101  28.839  27.743  1.00  0.00     0.134 A 
ATOM     67  C   UNL A   1      39.735  27.082  29.223  1.00  0.00     0.134 A 
ATOM     68  F   UNL A   1      39.228  29.555  26.614  1.00  0.00    -0.206 F 
ATOM     69  C   UNL A   1      38.100  29.248  28.627  1.00  0.00     0.040 A 
ATOM     70  C   UNL A   1      38.702  27.454  30.094  1.00  0.00     0.040 A 
ATOM     71  F   UNL A   1      40.520  26.076  29.630  1.00  0.00    -0.206 F 
ATOM     72  C   UNL A   1      37.912  28.566  29.820  1.00  0.00     0.006 A 
ENDBRANCH  51  65
BRANCH  52  73
ATOM     73  C   UNL A   1      50.460  28.420  27.165  1.00  0.00     0.057 A 
ATOM     74  C   UNL A   1      51.177  28.712  26.001  1.00  0.00     0.134 A 
ATOM     75  C   UNL A   1      51.222  28.592  28.356  1.00  0.00     0.134 A 
ATOM     76  F   UNL A   1      50.666  28.485  24.787  1.00  0.00    -0.206 F 
ATOM     77  C   UNL A   1      52.493  29.227  26.026  1.00  0.00     0.040 A 
ATOM     78  C   UNL A   1      52.517  29.120  28.398  1.00  0.00     0.040 A 
ATOM     79  F   UNL A   1      50.749  28.251  29.561  1.00  0.00    -0.206 F 
ATOM     80  C   UNL A   1      53.157  29.459  27.225  1.00  0.00     0.006 A 
ENDBRANCH  52  73
BRANCH  64  81
ATOM     81  C   UNL A   1      45.212  28.290  30.201  1.00  0.00     0.057 A 
ATOM     82  C   UNL A   1      44.861  26.967  29.910  1.00  0.00     0.134 A 
ATOM     83  C   UNL A   1      45.460  28.567  31.554  1.00  0.00     0.134 A 
ATOM     84  F   UNL A   1      44.611  26.600  28.644  1.00  0.00    -0.206 F 
ATOM     85  C   UNL A   1      44.749  25.987  30.907  1.00  0.00     0.040 A 
ATOM     86  C   UNL A   1      45.363  27.603  32.562  1.00  0.00     0.040 A 
ATOM     87  F   UNL A   1      45.799  29.793  31.946  1.00  0.00    -0.206 F 
ATOM     88  C   UNL A   1      44.996  26.304  32.241  1.00  0.00     0.006 A 
ENDBRANCH  64  81
ENDBRANCH  38  39
ENDBRANCH  31  33
ENDBRANCH  30  31
ENDBRANCH  29  30
ENDBRANCH  28  29
ENDBRANCH  27  28
ENDBRANCH  26  27
ENDBRANCH   1  26
TORSDOF 20
ENDMDL
