MODEL 1
REMARK VINA RESULT:     -10.7      0.000      0.000
REMARK SMILES Cc1ccccc1[C@@H](CC(=O)OCCOCCOCCOC(=O)c1ccc(-c2c3nc(c(-c4c(F)cccc4F)c4ccc([nH]4)c(-c4c(F)cccc4F)c4nc(c(-c5c(F)cccc5F)c5ccc2[nH]5)C=C4)C=C3)cc1)NC(=O)C(F)(F)F
REMARK SMILES IDX 16 1 15 2 14 3 13 4 12 5 10 6 11 7 9 8 8 9 7 10 1 11 2 12
REMARK SMILES IDX 3 13 4 14 6 15 5 16 78 17 79 18 80 20 81 21 82 22 83 23
REMARK SMILES IDX 84 24 17 25 18 26 19 27 20 28 21 29 22 30 23 31 24 32 25 33
REMARK SMILES IDX 77 34 26 35 76 36 27 37 28 38 29 39 70 40 30 41 75 42 69 43
REMARK SMILES IDX 71 44 31 45 74 46 68 47 67 48 32 50 58 51 41 52 57 53 42 54
REMARK SMILES IDX 45 55 56 56 72 57 43 58 44 59 55 61 73 62 46 63 33 64 34 65
REMARK SMILES IDX 39 66 35 67 36 68 38 69 40 70 37 71 59 72 60 73 65 74 61 75
REMARK SMILES IDX 62 76 64 77 66 78 63 79 47 80 48 81 53 82 49 83 50 84 52 85
REMARK SMILES IDX 54 86 51 87
REMARK H PARENT 78 19 71 49 45 60
REMARK Flexibility Score: inf
ROOT
ATOM      1  C   UNL A   1      34.399  32.820  28.117  1.00  0.00     0.188 C 
ENDROOT
BRANCH   1   2
ATOM      2  O   UNL A   1      34.056  31.434  27.979  1.00  0.00    -0.376 OA
BRANCH   2   3
ATOM      3  C   UNL A   1      32.932  30.925  27.225  1.00  0.00     0.202 C 
BRANCH   3   4
ATOM      4  C   UNL A   1      32.456  29.367  27.268  1.00  0.00     0.261 C 
BRANCH   4   5
ATOM      5  O   UNL A   1      33.270  27.932  26.817  1.00  0.00    -0.463 OA
BRANCH   5   6
ATOM      6  C   UNL A   1      33.693  27.259  25.625  1.00  0.00     0.308 C 
ATOM      7  O   UNL A   1      33.865  27.731  24.496  1.00  0.00    -0.252 OA
BRANCH   6   8
ATOM      8  C   UNL A   1      34.205  25.861  25.526  1.00  0.00     0.152 C 
BRANCH   8   9
ATOM      9  C   UNL A   1      33.397  24.653  25.204  1.00  0.00     0.124 C 
BRANCH   9  10
ATOM     10  C   UNL A   1      34.329  23.500  24.916  1.00  0.00    -0.022 A 
ATOM     11  C   UNL A   1      34.044  22.470  27.272  1.00  0.00     0.045 C 
ATOM     12  C   UNL A   1      34.727  22.605  25.934  1.00  0.00    -0.046 A 
ATOM     13  C   UNL A   1      35.829  21.763  25.704  1.00  0.00     0.004 A 
ATOM     14  C   UNL A   1      36.568  21.842  24.526  1.00  0.00     0.000 A 
ATOM     15  C   UNL A   1      35.020  23.474  23.690  1.00  0.00     0.006 A 
ATOM     16  C   UNL A   1      36.165  22.702  23.519  1.00  0.00     0.000 A 
ENDBRANCH   9  10
BRANCH   9  17
ATOM     17  N   UNL A   1      32.374  24.954  24.230  1.00  0.00    -0.341 N 
ATOM     18  C   UNL A   1      31.033  25.191  24.493  1.00  0.00     0.326 C 
ATOM     19  H   UNL A   1      32.654  24.994  23.287  1.00  0.00     0.164 HD
ATOM     20  O   UNL A   1      30.340  25.518  23.521  1.00  0.00    -0.265 OA
BRANCH  18  21
ATOM     21  C   UNL A   1      30.438  25.091  25.938  1.00  0.00     0.471 C 
ATOM     22  F   UNL A   1      29.144  25.515  26.018  1.00  0.00    -0.162 F 
ATOM     23  F   UNL A   1      30.447  23.817  26.422  1.00  0.00    -0.162 F 
ATOM     24  F   UNL A   1      31.130  25.837  26.845  1.00  0.00    -0.162 F 
ENDBRANCH  18  21
ENDBRANCH   9  17
ENDBRANCH   8   9
ENDBRANCH   6   8
ENDBRANCH   5   6
ENDBRANCH   4   5
ENDBRANCH   3   4
ENDBRANCH   2   3
ENDBRANCH   1   2
BRANCH   1  25
ATOM     25  C   UNL A   1      33.362  33.911  28.267  1.00  0.00     0.188 C 
BRANCH  25  26
ATOM     26  O   UNL A   1      33.836  34.945  29.103  1.00  0.00    -0.376 OA
BRANCH  26  27
ATOM     27  C   UNL A   1      32.853  35.885  29.496  1.00  0.00     0.202 C 
BRANCH  27  28
ATOM     28  C   UNL A   1      32.971  36.303  30.981  1.00  0.00     0.261 C 
BRANCH  28  29
ATOM     29  O   UNL A   1      33.335  35.159  31.813  1.00  0.00    -0.460 OA
BRANCH  29  30
ATOM     30  C   UNL A   1      34.294  35.283  32.812  1.00  0.00     0.338 C 
ATOM     31  O   UNL A   1      34.698  36.330  33.256  1.00  0.00    -0.246 OA
BRANCH  30  32
ATOM     32  C   UNL A   1      35.009  33.943  33.005  1.00  0.00     0.060 A 
ATOM     33  C   UNL A   1      35.721  33.429  34.107  1.00  0.00     0.016 A 
ATOM     34  C   UNL A   1      35.368  33.386  31.840  1.00  0.00     0.016 A 
ATOM     35  C   UNL A   1      36.868  32.479  33.946  1.00  0.00     0.010 A 
ATOM     36  C   UNL A   1      36.665  32.894  31.789  1.00  0.00     0.010 A 
ATOM     37  C   UNL A   1      37.440  32.209  32.701  1.00  0.00    -0.014 A 
BRANCH  37  38
ATOM     38  C   UNL A   1      38.820  31.521  32.154  1.00  0.00     0.031 A 
ATOM     39  C   UNL A   1      39.125  30.165  31.160  1.00  0.00     0.074 A 
ATOM     40  C   UNL A   1      39.898  32.302  32.361  1.00  0.00     0.049 A 
ATOM     41  N   UNL A   1      39.883  29.121  31.432  1.00  0.00    -0.248 NA
ATOM     42  C   UNL A   1      38.521  29.854  29.795  1.00  0.00     0.031 C 
ATOM     43  C   UNL A   1      41.258  32.190  31.860  1.00  0.00     0.029 A 
ATOM     44  N   UNL A   1      39.976  33.401  33.222  1.00  0.00    -0.354 N 
ATOM     45  C   UNL A   1      39.829  28.263  30.290  1.00  0.00     0.074 A 
ATOM     46  C   UNL A   1      38.633  28.553  29.625  1.00  0.00     0.031 C 
ATOM     47  C   UNL A   1      42.065  32.862  32.710  1.00  0.00     0.029 A 
ATOM     48  C   UNL A   1      41.243  33.339  33.820  1.00  0.00     0.049 A 
ATOM     49  H   UNL A   1      39.281  34.081  33.377  1.00  0.00     0.167 HD
ATOM     50  C   UNL A   1      40.908  27.769  29.597  1.00  0.00     0.037 A 
ATOM     51  C   UNL A   1      41.254  32.959  35.130  1.00  0.00     0.037 A 
ATOM     52  C   UNL A   1      42.097  28.265  30.245  1.00  0.00     0.049 A 
ATOM     53  C   UNL A   1      41.708  31.508  35.236  1.00  0.00     0.074 A 
ATOM     54  C   UNL A   1      42.923  29.362  30.096  1.00  0.00     0.029 A 
ATOM     55  N   UNL A   1      42.267  27.830  31.526  1.00  0.00    -0.354 N 
ATOM     56  N   UNL A   1      42.180  30.818  34.226  1.00  0.00    -0.248 NA
ATOM     57  C   UNL A   1      41.634  30.703  36.453  1.00  0.00     0.031 C 
ATOM     58  C   UNL A   1      43.428  29.675  31.413  1.00  0.00     0.029 A 
ATOM     59  C   UNL A   1      42.908  28.757  32.316  1.00  0.00     0.049 A 
ATOM     60  H   UNL A   1      41.966  26.951  31.851  1.00  0.00     0.167 HD
ATOM     61  C   UNL A   1      42.378  29.524  34.593  1.00  0.00     0.074 A 
ATOM     62  C   UNL A   1      42.037  29.501  36.007  1.00  0.00     0.031 C 
ATOM     63  C   UNL A   1      42.786  28.532  33.751  1.00  0.00     0.037 A 
BRANCH  50  64
ATOM     64  C   UNL A   1      40.885  27.080  28.214  1.00  0.00     0.057 A 
ATOM     65  C   UNL A   1      40.271  25.821  28.081  1.00  0.00     0.134 A 
ATOM     66  C   UNL A   1      41.384  27.577  26.979  1.00  0.00     0.134 A 
ATOM     67  F   UNL A   1      39.645  25.246  29.117  1.00  0.00    -0.206 F 
ATOM     68  C   UNL A   1      40.229  25.096  26.874  1.00  0.00     0.040 A 
ATOM     69  C   UNL A   1      41.421  26.830  25.784  1.00  0.00     0.040 A 
ATOM     70  F   UNL A   1      41.780  28.845  26.815  1.00  0.00    -0.206 F 
ATOM     71  C   UNL A   1      40.834  25.581  25.726  1.00  0.00     0.006 A 
ENDBRANCH  50  64
BRANCH  51  72
ATOM     72  C   UNL A   1      40.170  33.693  35.899  1.00  0.00     0.057 A 
ATOM     73  C   UNL A   1      39.080  32.922  36.387  1.00  0.00     0.134 A 
ATOM     74  C   UNL A   1      40.306  34.957  36.476  1.00  0.00     0.134 A 
ATOM     75  F   UNL A   1      38.828  31.708  35.869  1.00  0.00    -0.206 F 
ATOM     76  C   UNL A   1      38.317  33.294  37.503  1.00  0.00     0.040 A 
ATOM     77  C   UNL A   1      39.495  35.372  37.554  1.00  0.00     0.040 A 
ATOM     78  F   UNL A   1      41.297  35.782  36.111  1.00  0.00    -0.206 F 
ATOM     79  C   UNL A   1      38.549  34.515  38.115  1.00  0.00     0.006 A 
ENDBRANCH  51  72
BRANCH  63  80
ATOM     80  C   UNL A   1      43.084  27.173  34.310  1.00  0.00     0.057 A 
ATOM     81  C   UNL A   1      44.401  26.709  34.292  1.00  0.00     0.134 A 
ATOM     82  C   UNL A   1      42.106  26.258  34.743  1.00  0.00     0.134 A 
ATOM     83  F   UNL A   1      45.399  27.500  33.868  1.00  0.00    -0.206 F 
ATOM     84  C   UNL A   1      44.730  25.422  34.708  1.00  0.00     0.040 A 
ATOM     85  C   UNL A   1      42.409  24.941  35.074  1.00  0.00     0.040 A 
ATOM     86  F   UNL A   1      40.814  26.598  34.868  1.00  0.00    -0.206 F 
ATOM     87  C   UNL A   1      43.731  24.527  35.078  1.00  0.00     0.006 A 
ENDBRANCH  63  80
ENDBRANCH  37  38
ENDBRANCH  30  32
ENDBRANCH  29  30
ENDBRANCH  28  29
ENDBRANCH  27  28
ENDBRANCH  26  27
ENDBRANCH  25  26
ENDBRANCH   1  25
TORSDOF 21
ENDMDL
MODEL 2
REMARK VINA RESULT:     -10.2      1.420      2.453
REMARK SMILES Cc1ccccc1[C@@H](CC(=O)OCCOCCOCCOC(=O)c1ccc(-c2c3nc(c(-c4c(F)cccc4F)c4ccc([nH]4)c(-c4c(F)cccc4F)c4nc(c(-c5c(F)cccc5F)c5ccc2[nH]5)C=C4)C=C3)cc1)NC(=O)C(F)(F)F
REMARK SMILES IDX 16 1 15 2 14 3 13 4 12 5 10 6 11 7 9 8 8 9 7 10 1 11 2 12
REMARK SMILES IDX 3 13 4 14 6 15 5 16 78 17 79 18 80 20 81 21 82 22 83 23
REMARK SMILES IDX 84 24 17 25 18 26 19 27 20 28 21 29 22 30 23 31 24 32 25 33
REMARK SMILES IDX 77 34 26 35 76 36 27 37 28 38 29 39 70 40 30 41 75 42 69 43
REMARK SMILES IDX 71 44 31 45 74 46 68 47 67 48 32 50 58 51 41 52 57 53 42 54
REMARK SMILES IDX 45 55 56 56 72 57 43 58 44 59 55 61 73 62 46 63 33 64 34 65
REMARK SMILES IDX 39 66 35 67 36 68 38 69 40 70 37 71 59 72 60 73 65 74 61 75
REMARK SMILES IDX 62 76 64 77 66 78 63 79 47 80 48 81 53 82 49 83 50 84 52 85
REMARK SMILES IDX 54 86 51 87
REMARK H PARENT 78 19 71 49 45 60
REMARK Flexibility Score: inf
ROOT
ATOM      1  C   UNL A   1      34.376  32.732  28.045  1.00  0.00     0.188 C 
ENDROOT
BRANCH   1   2
ATOM      2  O   UNL A   1      34.011  31.353  27.899  1.00  0.00    -0.376 OA
BRANCH   2   3
ATOM      3  C   UNL A   1      32.868  30.868  27.158  1.00  0.00     0.202 C 
BRANCH   3   4
ATOM      4  C   UNL A   1      32.401  29.307  27.150  1.00  0.00     0.261 C 
BRANCH   4   5
ATOM      5  O   UNL A   1      33.190  27.903  26.577  1.00  0.00    -0.463 OA
BRANCH   5   6
ATOM      6  C   UNL A   1      33.668  27.361  25.340  1.00  0.00     0.308 C 
ATOM      7  O   UNL A   1      34.112  27.964  24.357  1.00  0.00    -0.252 OA
BRANCH   6   8
ATOM      8  C   UNL A   1      33.912  25.921  25.034  1.00  0.00     0.152 C 
BRANCH   8   9
ATOM      9  C   UNL A   1      32.915  24.961  24.484  1.00  0.00     0.124 C 
BRANCH   9  10
ATOM     10  C   UNL A   1      31.783  25.734  23.851  1.00  0.00    -0.022 A 
ATOM     11  C   UNL A   1      32.876  25.728  21.506  1.00  0.00     0.045 C 
ATOM     12  C   UNL A   1      31.868  26.205  22.523  1.00  0.00    -0.046 A 
ATOM     13  C   UNL A   1      30.954  27.182  22.089  1.00  0.00     0.004 A 
ATOM     14  C   UNL A   1      30.017  27.734  22.959  1.00  0.00     0.000 A 
ATOM     15  C   UNL A   1      30.751  26.222  24.674  1.00  0.00     0.006 A 
ATOM     16  C   UNL A   1      29.918  27.257  24.255  1.00  0.00     0.000 A 
ENDBRANCH   9  10
BRANCH   9  17
ATOM     17  N   UNL A   1      32.579  23.944  25.455  1.00  0.00    -0.341 N 
ATOM     18  C   UNL A   1      32.999  22.623  25.439  1.00  0.00     0.326 C 
ATOM     19  H   UNL A   1      31.997  24.216  26.200  1.00  0.00     0.164 HD
ATOM     20  O   UNL A   1      32.667  21.938  26.415  1.00  0.00    -0.265 OA
BRANCH  18  21
ATOM     21  C   UNL A   1      33.871  22.040  24.276  1.00  0.00     0.471 C 
ATOM     22  F   UNL A   1      34.321  20.776  24.523  1.00  0.00    -0.162 F 
ATOM     23  F   UNL A   1      33.195  21.974  23.095  1.00  0.00    -0.162 F 
ATOM     24  F   UNL A   1      34.982  22.788  24.027  1.00  0.00    -0.162 F 
ENDBRANCH  18  21
ENDBRANCH   9  17
ENDBRANCH   8   9
ENDBRANCH   6   8
ENDBRANCH   5   6
ENDBRANCH   4   5
ENDBRANCH   3   4
ENDBRANCH   2   3
ENDBRANCH   1   2
BRANCH   1  25
ATOM     25  C   UNL A   1      33.359  33.838  28.214  1.00  0.00     0.188 C 
BRANCH  25  26
ATOM     26  O   UNL A   1      33.871  34.875  29.023  1.00  0.00    -0.376 OA
BRANCH  26  27
ATOM     27  C   UNL A   1      32.906  35.814  29.462  1.00  0.00     0.202 C 
BRANCH  27  28
ATOM     28  C   UNL A   1      33.055  36.185  30.956  1.00  0.00     0.261 C 
BRANCH  28  29
ATOM     29  O   UNL A   1      33.389  35.006  31.751  1.00  0.00    -0.460 OA
BRANCH  29  30
ATOM     30  C   UNL A   1      34.363  35.069  32.741  1.00  0.00     0.338 C 
ATOM     31  O   UNL A   1      34.763  36.087  33.253  1.00  0.00    -0.246 OA
BRANCH  30  32
ATOM     32  C   UNL A   1      35.093  33.727  32.828  1.00  0.00     0.060 A 
ATOM     33  C   UNL A   1      35.745  33.100  33.909  1.00  0.00     0.016 A 
ATOM     34  C   UNL A   1      35.540  33.313  31.633  1.00  0.00     0.016 A 
ATOM     35  C   UNL A   1      36.921  32.193  33.718  1.00  0.00     0.010 A 
ATOM     36  C   UNL A   1      36.848  32.850  31.613  1.00  0.00     0.010 A 
ATOM     37  C   UNL A   1      37.578  32.077  32.491  1.00  0.00    -0.014 A 
BRANCH  37  38
ATOM     38  C   UNL A   1      39.006  31.477  31.963  1.00  0.00     0.031 A 
ATOM     39  C   UNL A   1      39.406  30.179  30.926  1.00  0.00     0.074 A 
ATOM     40  C   UNL A   1      40.038  32.298  32.236  1.00  0.00     0.049 A 
ATOM     41  N   UNL A   1      40.205  29.161  31.180  1.00  0.00    -0.248 NA
ATOM     42  C   UNL A   1      38.860  29.897  29.530  1.00  0.00     0.031 C 
ATOM     43  C   UNL A   1      41.417  32.271  31.776  1.00  0.00     0.029 A 
ATOM     44  N   UNL A   1      40.036  33.364  33.141  1.00  0.00    -0.354 N 
ATOM     45  C   UNL A   1      40.227  28.349  30.004  1.00  0.00     0.074 A 
ATOM     46  C   UNL A   1      39.040  28.610  29.312  1.00  0.00     0.031 C 
ATOM     47  C   UNL A   1      42.164  32.944  32.678  1.00  0.00     0.029 A 
ATOM     48  C   UNL A   1      41.286  33.336  33.777  1.00  0.00     0.049 A 
ATOM     49  H   UNL A   1      39.305  34.003  33.301  1.00  0.00     0.167 HD
ATOM     50  C   UNL A   1      41.349  27.936  29.328  1.00  0.00     0.037 A 
ATOM     51  C   UNL A   1      41.275  32.903  35.072  1.00  0.00     0.037 A 
ATOM     52  C   UNL A   1      42.492  28.459  30.033  1.00  0.00     0.049 A 
ATOM     53  C   UNL A   1      41.795  31.472  35.134  1.00  0.00     0.074 A 
ATOM     54  C   UNL A   1      43.269  29.599  29.956  1.00  0.00     0.029 A 
ATOM     55  N   UNL A   1      42.644  27.980  31.301  1.00  0.00    -0.354 N 
ATOM     56  N   UNL A   1      42.330  30.846  34.113  1.00  0.00    -0.248 NA
ATOM     57  C   UNL A   1      41.722  30.615  36.315  1.00  0.00     0.031 C 
ATOM     58  C   UNL A   1      43.717  29.881  31.299  1.00  0.00     0.029 A 
ATOM     59  C   UNL A   1      43.215  28.903  32.148  1.00  0.00     0.049 A 
ATOM     60  H   UNL A   1      42.375  27.075  31.581  1.00  0.00     0.167 HD
ATOM     61  C   UNL A   1      42.579  29.549  34.435  1.00  0.00     0.074 A 
ATOM     62  C   UNL A   1      42.196  29.452  35.835  1.00  0.00     0.031 C 
ATOM     63  C   UNL A   1      43.060  28.613  33.568  1.00  0.00     0.037 A 
BRANCH  50  64
ATOM     64  C   UNL A   1      41.402  27.304  27.918  1.00  0.00     0.057 A 
ATOM     65  C   UNL A   1      40.979  25.974  27.743  1.00  0.00     0.134 A 
ATOM     66  C   UNL A   1      41.798  27.916  26.698  1.00  0.00     0.134 A 
ATOM     67  F   UNL A   1      40.464  25.274  28.762  1.00  0.00    -0.206 F 
ATOM     68  C   UNL A   1      41.021  25.298  26.508  1.00  0.00     0.040 A 
ATOM     69  C   UNL A   1      41.923  27.229  25.473  1.00  0.00     0.040 A 
ATOM     70  F   UNL A   1      41.999  29.235  26.580  1.00  0.00    -0.206 F 
ATOM     71  C   UNL A   1      41.526  25.910  25.373  1.00  0.00     0.006 A 
ENDBRANCH  50  64
BRANCH  51  72
ATOM     72  C   UNL A   1      40.133  33.553  35.833  1.00  0.00     0.057 A 
ATOM     73  C   UNL A   1      39.077  32.709  36.271  1.00  0.00     0.134 A 
ATOM     74  C   UNL A   1      40.185  34.805  36.449  1.00  0.00     0.134 A 
ATOM     75  F   UNL A   1      38.906  31.498  35.713  1.00  0.00    -0.206 F 
ATOM     76  C   UNL A   1      38.269  33.005  37.378  1.00  0.00     0.040 A 
ATOM     77  C   UNL A   1      39.328  35.142  37.517  1.00  0.00     0.040 A 
ATOM     78  F   UNL A   1      41.137  35.694  36.132  1.00  0.00    -0.206 F 
ATOM     79  C   UNL A   1      38.418  34.218  38.029  1.00  0.00     0.006 A 
ENDBRANCH  51  72
BRANCH  63  80
ATOM     80  C   UNL A   1      43.405  27.248  34.082  1.00  0.00     0.057 A 
ATOM     81  C   UNL A   1      44.738  26.832  34.052  1.00  0.00     0.134 A 
ATOM     82  C   UNL A   1      42.460  26.284  34.480  1.00  0.00     0.134 A 
ATOM     83  F   UNL A   1      45.707  27.672  33.658  1.00  0.00    -0.206 F 
ATOM     84  C   UNL A   1      45.112  25.544  34.426  1.00  0.00     0.040 A 
ATOM     85  C   UNL A   1      42.810  24.968  34.768  1.00  0.00     0.040 A 
ATOM     86  F   UNL A   1      41.156  26.573  34.614  1.00  0.00    -0.206 F 
ATOM     87  C   UNL A   1      44.146  24.602  34.763  1.00  0.00     0.006 A 
ENDBRANCH  63  80
ENDBRANCH  37  38
ENDBRANCH  30  32
ENDBRANCH  29  30
ENDBRANCH  28  29
ENDBRANCH  27  28
ENDBRANCH  26  27
ENDBRANCH  25  26
ENDBRANCH   1  25
TORSDOF 21
ENDMDL
MODEL 3
REMARK VINA RESULT:     -10.1      2.201      3.201
REMARK SMILES Cc1ccccc1[C@@H](CC(=O)OCCOCCOCCOC(=O)c1ccc(-c2c3nc(c(-c4c(F)cccc4F)c4ccc([nH]4)c(-c4c(F)cccc4F)c4nc(c(-c5c(F)cccc5F)c5ccc2[nH]5)C=C4)C=C3)cc1)NC(=O)C(F)(F)F
REMARK SMILES IDX 16 1 15 2 14 3 13 4 12 5 10 6 11 7 9 8 8 9 7 10 1 11 2 12
REMARK SMILES IDX 3 13 4 14 6 15 5 16 78 17 79 18 80 20 81 21 82 22 83 23
REMARK SMILES IDX 84 24 17 25 18 26 19 27 20 28 21 29 22 30 23 31 24 32 25 33
REMARK SMILES IDX 77 34 26 35 76 36 27 37 28 38 29 39 70 40 30 41 75 42 69 43
REMARK SMILES IDX 71 44 31 45 74 46 68 47 67 48 32 50 58 51 41 52 57 53 42 54
REMARK SMILES IDX 45 55 56 56 72 57 43 58 44 59 55 61 73 62 46 63 33 64 34 65
REMARK SMILES IDX 39 66 35 67 36 68 38 69 40 70 37 71 59 72 60 73 65 74 61 75
REMARK SMILES IDX 62 76 64 77 66 78 63 79 47 80 48 81 53 82 49 83 50 84 52 85
REMARK SMILES IDX 54 86 51 87
REMARK H PARENT 78 19 71 49 45 60
REMARK Flexibility Score: inf
ROOT
ATOM      1  C   UNL A   1      34.144  32.661  28.337  1.00  0.00     0.188 C 
ENDROOT
BRANCH   1   2
ATOM      2  O   UNL A   1      34.368  31.627  27.369  1.00  0.00    -0.376 OA
BRANCH   2   3
ATOM      3  C   UNL A   1      34.949  30.333  27.652  1.00  0.00     0.202 C 
BRANCH   3   4
ATOM      4  C   UNL A   1      34.260  28.925  27.206  1.00  0.00     0.261 C 
BRANCH   4   5
ATOM      5  O   UNL A   1      34.031  28.227  25.662  1.00  0.00    -0.463 OA
BRANCH   5   6
ATOM      6  C   UNL A   1      33.377  27.097  25.072  1.00  0.00     0.308 C 
ATOM      7  O   UNL A   1      32.203  26.996  24.702  1.00  0.00    -0.252 OA
BRANCH   6   8
ATOM      8  C   UNL A   1      34.026  25.840  24.598  1.00  0.00     0.152 C 
BRANCH   8   9
ATOM      9  C   UNL A   1      33.530  24.456  24.831  1.00  0.00     0.124 C 
BRANCH   9  10
ATOM     10  C   UNL A   1      34.689  23.493  24.727  1.00  0.00    -0.022 A 
ATOM     11  C   UNL A   1      34.653  22.925  27.250  1.00  0.00     0.045 C 
ATOM     12  C   UNL A   1      35.280  22.928  25.878  1.00  0.00    -0.046 A 
ATOM     13  C   UNL A   1      36.537  22.311  25.762  1.00  0.00     0.004 A 
ATOM     14  C   UNL A   1      37.232  22.305  24.555  1.00  0.00     0.000 A 
ATOM     15  C   UNL A   1      35.359  23.368  23.496  1.00  0.00     0.006 A 
ATOM     16  C   UNL A   1      36.644  22.838  23.421  1.00  0.00     0.000 A 
ENDBRANCH   9  10
BRANCH   9  17
ATOM     17  N   UNL A   1      32.352  24.183  24.040  1.00  0.00    -0.341 N 
ATOM     18  C   UNL A   1      31.219  23.504  24.461  1.00  0.00     0.326 C 
ATOM     19  H   UNL A   1      32.353  24.512  23.112  1.00  0.00     0.164 HD
ATOM     20  O   UNL A   1      30.285  23.455  23.650  1.00  0.00    -0.265 OA
BRANCH  18  21
ATOM     21  C   UNL A   1      31.111  22.868  25.888  1.00  0.00     0.471 C 
ATOM     22  F   UNL A   1      32.050  21.906  26.121  1.00  0.00    -0.162 F 
ATOM     23  F   UNL A   1      31.259  23.787  26.883  1.00  0.00    -0.162 F 
ATOM     24  F   UNL A   1      29.906  22.273  26.108  1.00  0.00    -0.162 F 
ENDBRANCH  18  21
ENDBRANCH   9  17
ENDBRANCH   8   9
ENDBRANCH   6   8
ENDBRANCH   5   6
ENDBRANCH   4   5
ENDBRANCH   3   4
ENDBRANCH   2   3
ENDBRANCH   1   2
BRANCH   1  25
ATOM     25  C   UNL A   1      34.746  34.043  28.216  1.00  0.00     0.188 C 
BRANCH  25  26
ATOM     26  O   UNL A   1      34.154  34.932  29.139  1.00  0.00    -0.376 OA
BRANCH  26  27
ATOM     27  C   UNL A   1      34.010  34.414  30.450  1.00  0.00     0.202 C 
BRANCH  27  28
ATOM     28  C   UNL A   1      35.232  34.699  31.354  1.00  0.00     0.261 C 
BRANCH  28  29
ATOM     29  O   UNL A   1      36.173  33.582  31.319  1.00  0.00    -0.460 OA
BRANCH  29  30
ATOM     30  C   UNL A   1      35.823  32.342  31.842  1.00  0.00     0.338 C 
ATOM     31  O   UNL A   1      35.395  32.158  32.955  1.00  0.00    -0.246 OA
BRANCH  30  32
ATOM     32  C   UNL A   1      36.385  31.233  30.950  1.00  0.00     0.060 A 
ATOM     33  C   UNL A   1      36.445  29.838  31.141  1.00  0.00     0.016 A 
ATOM     34  C   UNL A   1      37.315  31.688  30.098  1.00  0.00     0.016 A 
ATOM     35  C   UNL A   1      37.545  28.998  30.569  1.00  0.00     0.010 A 
ATOM     36  C   UNL A   1      38.470  30.922  30.011  1.00  0.00     0.010 A 
ATOM     37  C   UNL A   1      38.687  29.561  29.995  1.00  0.00    -0.014 A 
BRANCH  37  38
ATOM     38  C   UNL A   1      40.177  29.039  29.561  1.00  0.00     0.031 A 
ATOM     39  C   UNL A   1      40.760  27.537  28.994  1.00  0.00     0.074 A 
ATOM     40  C   UNL A   1      41.056  30.052  29.432  1.00  0.00     0.049 A 
ATOM     41  N   UNL A   1      41.737  26.809  29.499  1.00  0.00    -0.248 NA
ATOM     42  C   UNL A   1      40.216  26.700  27.841  1.00  0.00     0.031 C 
ATOM     43  C   UNL A   1      42.397  30.076  28.873  1.00  0.00     0.029 A 
ATOM     44  N   UNL A   1      40.901  31.355  29.916  1.00  0.00    -0.354 N 
ATOM     45  C   UNL A   1      41.857  25.648  28.674  1.00  0.00     0.074 A 
ATOM     46  C   UNL A   1      40.614  25.463  28.058  1.00  0.00     0.031 C 
ATOM     47  C   UNL A   1      43.048  31.130  29.411  1.00  0.00     0.029 A 
ATOM     48  C   UNL A   1      42.160  31.745  30.394  1.00  0.00     0.049 A 
ATOM     49  H   UNL A   1      40.074  31.890  29.921  1.00  0.00     0.167 HD
ATOM     50  C   UNL A   1      43.005  25.200  28.069  1.00  0.00     0.037 A 
ATOM     51  C   UNL A   1      42.280  31.801  31.752  1.00  0.00     0.037 A 
ATOM     52  C   UNL A   1      44.065  26.107  28.435  1.00  0.00     0.049 A 
ATOM     53  C   UNL A   1      43.049  30.582  32.246  1.00  0.00     0.074 A 
ATOM     54  C   UNL A   1      44.621  27.250  27.896  1.00  0.00     0.029 A 
ATOM     55  N   UNL A   1      44.351  26.136  29.768  1.00  0.00    -0.354 N 
ATOM     56  N   UNL A   1      43.646  29.726  31.451  1.00  0.00    -0.248 NA
ATOM     57  C   UNL A   1      43.179  30.197  33.650  1.00  0.00     0.031 C 
ATOM     58  C   UNL A   1      45.067  28.053  29.010  1.00  0.00     0.029 A 
ATOM     59  C   UNL A   1      44.782  27.374  30.187  1.00  0.00     0.049 A 
ATOM     60  H   UNL A   1      44.260  25.358  30.365  1.00  0.00     0.167 HD
ATOM     61  C   UNL A   1      44.135  28.681  32.169  1.00  0.00     0.074 A 
ATOM     62  C   UNL A   1      43.833  29.026  33.549  1.00  0.00     0.031 C 
ATOM     63  C   UNL A   1      44.740  27.584  31.629  1.00  0.00     0.037 A 
BRANCH  50  64
ATOM     64  C   UNL A   1      43.113  24.127  26.961  1.00  0.00     0.057 A 
ATOM     65  C   UNL A   1      42.980  22.769  27.302  1.00  0.00     0.134 A 
ATOM     66  C   UNL A   1      43.294  24.324  25.565  1.00  0.00     0.134 A 
ATOM     67  F   UNL A   1      42.691  22.397  28.557  1.00  0.00    -0.206 F 
ATOM     68  C   UNL A   1      43.097  21.715  26.374  1.00  0.00     0.040 A 
ATOM     69  C   UNL A   1      43.495  23.280  24.640  1.00  0.00     0.040 A 
ATOM     70  F   UNL A   1      43.196  25.526  24.984  1.00  0.00    -0.206 F 
ATOM     71  C   UNL A   1      43.390  21.963  25.044  1.00  0.00     0.006 A 
ENDBRANCH  50  64
BRANCH  51  72
ATOM     72  C   UNL A   1      41.072  32.495  32.358  1.00  0.00     0.057 A 
ATOM     73  C   UNL A   1      40.130  31.683  33.046  1.00  0.00     0.134 A 
ATOM     74  C   UNL A   1      40.975  33.864  32.616  1.00  0.00     0.134 A 
ATOM     75  F   UNL A   1      40.104  30.356  32.837  1.00  0.00    -0.206 F 
ATOM     76  C   UNL A   1      39.299  32.170  34.064  1.00  0.00     0.040 A 
ATOM     77  C   UNL A   1      40.090  34.374  33.589  1.00  0.00     0.040 A 
ATOM     78  F   UNL A   1      41.809  34.739  32.037  1.00  0.00    -0.206 F 
ATOM     79  C   UNL A   1      39.303  33.523  34.363  1.00  0.00     0.006 A 
ENDBRANCH  51  72
BRANCH  63  80
ATOM     80  C   UNL A   1      45.345  26.558  32.540  1.00  0.00     0.057 A 
ATOM     81  C   UNL A   1      46.732  26.407  32.559  1.00  0.00     0.134 A 
ATOM     82  C   UNL A   1      44.605  25.630  33.297  1.00  0.00     0.134 A 
ATOM     83  F   UNL A   1      47.520  27.226  31.846  1.00  0.00    -0.206 F 
ATOM     84  C   UNL A   1      47.350  25.410  33.311  1.00  0.00     0.040 A 
ATOM     85  C   UNL A   1      45.204  24.575  33.978  1.00  0.00     0.040 A 
ATOM     86  F   UNL A   1      43.270  25.705  33.414  1.00  0.00    -0.206 F 
ATOM     87  C   UNL A   1      46.585  24.477  34.004  1.00  0.00     0.006 A 
ENDBRANCH  63  80
ENDBRANCH  37  38
ENDBRANCH  30  32
ENDBRANCH  29  30
ENDBRANCH  28  29
ENDBRANCH  27  28
ENDBRANCH  26  27
ENDBRANCH  25  26
ENDBRANCH   1  25
TORSDOF 21
ENDMDL
