MODEL 1
REMARK VINA RESULT:     -11.4      0.000      0.000
REMARK SMILES CN1C(=O)[C@@H]2CC=CC[C@]2(C(=O)OCCOCCOCCOC(=O)c2ccc(-c3c4nc(c(-c5c(F)cccc5F)c5ccc([nH]5)c(-c5c(F)cccc5F)c5nc(c(-c6c(F)cccc6F)c6ccc3[nH]6)C=C5)C=C4)cc2)[C@H]1c1ccccc1
REMARK SMILES IDX 18 1 17 2 16 3 15 4 14 5 13 6 11 7 12 8 10 9 1 10 2 11 3 12
REMARK SMILES IDX 79 13 4 14 5 15 6 16 9 17 7 18 8 19 80 20 81 21 85 22 82 23
REMARK SMILES IDX 84 24 83 25 19 26 20 27 21 28 22 29 23 30 24 31 25 32 26 33
REMARK SMILES IDX 78 34 27 35 77 36 28 37 29 38 30 39 71 40 31 41 76 42 70 43
REMARK SMILES IDX 72 44 32 45 75 46 69 47 68 48 33 50 59 51 42 52 58 53 43 54
REMARK SMILES IDX 46 55 57 56 73 57 44 58 45 59 56 61 74 62 47 63 34 64 35 65
REMARK SMILES IDX 40 66 36 67 37 68 39 69 41 70 38 71 60 72 61 73 66 74 62 75
REMARK SMILES IDX 63 76 65 77 67 78 64 79 48 80 49 81 54 82 50 83 51 84 53 85
REMARK SMILES IDX 55 86 52 87
REMARK H PARENT 72 49 46 60
REMARK Flexibility Score: inf
ROOT
ATOM      1  C   UNL A   1      40.327  20.899  26.653  1.00  0.00     0.188 C 
ENDROOT
BRANCH   1   2
ATOM      2  C   UNL A   1      39.226  21.841  26.103  1.00  0.00     0.188 C 
BRANCH   2   3
ATOM      3  O   UNL A   1      39.023  23.068  26.820  1.00  0.00    -0.376 OA
BRANCH   3   4
ATOM      4  C   UNL A   1      37.782  23.721  26.575  1.00  0.00     0.202 C 
BRANCH   4   5
ATOM      5  C   UNL A   1      37.421  23.681  25.080  1.00  0.00     0.261 C 
BRANCH   5   6
ATOM      6  O   UNL A   1      36.016  23.419  24.939  1.00  0.00    -0.463 OA
BRANCH   6   7
ATOM      7  C   UNL A   1      35.366  23.262  23.722  1.00  0.00     0.315 C 
ATOM      8  O   UNL A   1      35.866  23.403  22.620  1.00  0.00    -0.251 OA
BRANCH   7   9
ATOM      9  C   UNL A   1      33.956  22.679  24.068  1.00  0.00     0.108 C 
ATOM     10  C   UNL A   1      31.017  24.804  25.358  1.00  0.00     0.147 C 
ATOM     11  N   UNL A   1      31.910  23.864  24.697  1.00  0.00    -0.337 N 
ATOM     12  C   UNL A   1      31.546  23.078  23.636  1.00  0.00     0.227 C 
ATOM     13  C   UNL A   1      33.336  23.953  24.819  1.00  0.00     0.133 C 
ATOM     14  O   UNL A   1      30.419  23.020  23.164  1.00  0.00    -0.275 OA
ATOM     15  C   UNL A   1      32.757  22.277  23.134  1.00  0.00     0.102 C 
ATOM     16  C   UNL A   1      32.202  20.807  23.154  1.00  0.00     0.041 C 
ATOM     17  C   UNL A   1      34.586  21.344  24.565  1.00  0.00     0.049 C 
ATOM     18  C   UNL A   1      32.725  19.854  24.175  1.00  0.00    -0.030 C 
ATOM     19  C   UNL A   1      33.816  20.132  24.874  1.00  0.00    -0.030 C 
BRANCH  13  20
ATOM     20  C   UNL A   1      33.769  25.298  24.123  1.00  0.00    -0.024 A 
ATOM     21  C   UNL A   1      34.142  26.419  24.898  1.00  0.00     0.006 A 
ATOM     22  C   UNL A   1      33.527  25.493  22.754  1.00  0.00     0.006 A 
ATOM     23  C   UNL A   1      34.039  27.710  24.383  1.00  0.00     0.000 A 
ATOM     24  C   UNL A   1      33.458  26.792  22.234  1.00  0.00     0.000 A 
ATOM     25  C   UNL A   1      33.660  27.897  23.060  1.00  0.00     0.000 A 
ENDBRANCH  13  20
ENDBRANCH   7   9
ENDBRANCH   6   7
ENDBRANCH   5   6
ENDBRANCH   4   5
ENDBRANCH   3   4
ENDBRANCH   2   3
ENDBRANCH   1   2
BRANCH   1  26
ATOM     26  O   UNL A   1      41.271  20.348  25.747  1.00  0.00    -0.376 OA
BRANCH  26  27
ATOM     27  C   UNL A   1      42.631  20.335  26.144  1.00  0.00     0.202 C 
BRANCH  27  28
ATOM     28  C   UNL A   1      43.581  21.421  25.606  1.00  0.00     0.261 C 
BRANCH  28  29
ATOM     29  O   UNL A   1      42.931  22.588  25.062  1.00  0.00    -0.460 OA
BRANCH  29  30
ATOM     30  C   UNL A   1      43.656  23.736  25.077  1.00  0.00     0.338 C 
ATOM     31  O   UNL A   1      44.601  24.012  24.344  1.00  0.00    -0.246 OA
BRANCH  30  32
ATOM     32  C   UNL A   1      43.024  24.729  25.977  1.00  0.00     0.060 A 
ATOM     33  C   UNL A   1      43.408  26.074  25.870  1.00  0.00     0.016 A 
ATOM     34  C   UNL A   1      42.080  24.352  26.934  1.00  0.00     0.016 A 
ATOM     35  C   UNL A   1      42.868  27.037  26.729  1.00  0.00     0.010 A 
ATOM     36  C   UNL A   1      41.549  25.317  27.801  1.00  0.00     0.010 A 
ATOM     37  C   UNL A   1      41.951  26.663  27.718  1.00  0.00    -0.014 A 
BRANCH  37  38
ATOM     38  C   UNL A   1      41.559  27.616  28.791  1.00  0.00     0.031 A 
ATOM     39  C   UNL A   1      42.319  27.570  30.089  1.00  0.00     0.074 A 
ATOM     40  C   UNL A   1      40.546  28.491  28.647  1.00  0.00     0.049 A 
ATOM     41  N   UNL A   1      42.080  28.188  31.217  1.00  0.00    -0.248 NA
ATOM     42  C   UNL A   1      43.507  26.702  30.113  1.00  0.00     0.031 C 
ATOM     43  C   UNL A   1      39.767  28.699  27.431  1.00  0.00     0.029 A 
ATOM     44  N   UNL A   1      39.987  29.357  29.559  1.00  0.00    -0.354 N 
ATOM     45  C   UNL A   1      43.080  27.775  32.089  1.00  0.00     0.074 A 
ATOM     46  C   UNL A   1      43.914  26.840  31.365  1.00  0.00     0.031 C 
ATOM     47  C   UNL A   1      38.813  29.615  27.677  1.00  0.00     0.029 A 
ATOM     48  C   UNL A   1      38.884  30.025  29.080  1.00  0.00     0.049 A 
ATOM     49  H   UNL A   1      40.342  29.487  30.467  1.00  0.00     0.167 HD
ATOM     50  C   UNL A   1      43.285  28.137  33.377  1.00  0.00     0.037 A 
ATOM     51  C   UNL A   1      38.013  30.840  29.712  1.00  0.00     0.037 A 
ATOM     52  C   UNL A   1      42.452  29.053  34.108  1.00  0.00     0.049 A 
ATOM     53  C   UNL A   1      38.195  31.142  31.181  1.00  0.00     0.074 A 
ATOM     54  C   UNL A   1      42.585  29.478  35.419  1.00  0.00     0.029 A 
ATOM     55  N   UNL A   1      41.325  29.677  33.599  1.00  0.00    -0.354 N 
ATOM     56  N   UNL A   1      39.144  30.753  31.998  1.00  0.00    -0.248 NA
ATOM     57  C   UNL A   1      37.176  31.991  31.820  1.00  0.00     0.031 C 
ATOM     58  C   UNL A   1      41.503  30.310  35.721  1.00  0.00     0.029 A 
ATOM     59  C   UNL A   1      40.734  30.457  34.578  1.00  0.00     0.049 A 
ATOM     60  H   UNL A   1      40.992  29.580  32.676  1.00  0.00     0.167 HD
ATOM     61  C   UNL A   1      38.860  31.339  33.227  1.00  0.00     0.074 A 
ATOM     62  C   UNL A   1      37.651  32.115  33.051  1.00  0.00     0.031 C 
ATOM     63  C   UNL A   1      39.543  31.247  34.393  1.00  0.00     0.037 A 
BRANCH  50  64
ATOM     64  C   UNL A   1      44.439  27.501  34.093  1.00  0.00     0.057 A 
ATOM     65  C   UNL A   1      45.739  28.015  34.012  1.00  0.00     0.134 A 
ATOM     66  C   UNL A   1      44.241  26.370  34.896  1.00  0.00     0.134 A 
ATOM     67  F   UNL A   1      46.000  29.087  33.248  1.00  0.00    -0.206 F 
ATOM     68  C   UNL A   1      46.805  27.412  34.681  1.00  0.00     0.040 A 
ATOM     69  C   UNL A   1      45.292  25.776  35.594  1.00  0.00     0.040 A 
ATOM     70  F   UNL A   1      43.019  25.829  35.020  1.00  0.00    -0.206 F 
ATOM     71  C   UNL A   1      46.581  26.293  35.481  1.00  0.00     0.006 A 
ENDBRANCH  50  64
BRANCH  51  72
ATOM     72  C   UNL A   1      36.851  31.412  28.979  1.00  0.00     0.057 A 
ATOM     73  C   UNL A   1      36.825  32.759  28.595  1.00  0.00     0.134 A 
ATOM     74  C   UNL A   1      35.715  30.644  28.698  1.00  0.00     0.134 A 
ATOM     75  F   UNL A   1      37.867  33.558  28.866  1.00  0.00    -0.206 F 
ATOM     76  C   UNL A   1      35.707  33.324  27.978  1.00  0.00     0.040 A 
ATOM     77  C   UNL A   1      34.601  31.189  28.056  1.00  0.00     0.040 A 
ATOM     78  F   UNL A   1      35.668  29.350  29.048  1.00  0.00    -0.206 F 
ATOM     79  C   UNL A   1      34.591  32.536  27.703  1.00  0.00     0.006 A 
ENDBRANCH  51  72
BRANCH  63  80
ATOM     80  C   UNL A   1      39.049  32.043  35.569  1.00  0.00     0.057 A 
ATOM     81  C   UNL A   1      38.279  31.469  36.589  1.00  0.00     0.134 A 
ATOM     82  C   UNL A   1      39.418  33.387  35.721  1.00  0.00     0.134 A 
ATOM     83  F   UNL A   1      37.881  30.191  36.504  1.00  0.00    -0.206 F 
ATOM     84  C   UNL A   1      37.886  32.206  37.709  1.00  0.00     0.040 A 
ATOM     85  C   UNL A   1      39.056  34.125  36.849  1.00  0.00     0.040 A 
ATOM     86  F   UNL A   1      40.165  33.996  34.787  1.00  0.00    -0.206 F 
ATOM     87  C   UNL A   1      38.284  33.534  37.846  1.00  0.00     0.006 A 
ENDBRANCH  63  80
ENDBRANCH  37  38
ENDBRANCH  30  32
ENDBRANCH  29  30
ENDBRANCH  28  29
ENDBRANCH  27  28
ENDBRANCH  26  27
ENDBRANCH   1  26
TORSDOF 18
ENDMDL
MODEL 2
REMARK VINA RESULT:     -11.1      3.771      8.821
REMARK SMILES CN1C(=O)[C@@H]2CC=CC[C@]2(C(=O)OCCOCCOCCOC(=O)c2ccc(-c3c4nc(c(-c5c(F)cccc5F)c5ccc([nH]5)c(-c5c(F)cccc5F)c5nc(c(-c6c(F)cccc6F)c6ccc3[nH]6)C=C5)C=C4)cc2)[C@H]1c1ccccc1
REMARK SMILES IDX 18 1 17 2 16 3 15 4 14 5 13 6 11 7 12 8 10 9 1 10 2 11 3 12
REMARK SMILES IDX 79 13 4 14 5 15 6 16 9 17 7 18 8 19 80 20 81 21 85 22 82 23
REMARK SMILES IDX 84 24 83 25 19 26 20 27 21 28 22 29 23 30 24 31 25 32 26 33
REMARK SMILES IDX 78 34 27 35 77 36 28 37 29 38 30 39 71 40 31 41 76 42 70 43
REMARK SMILES IDX 72 44 32 45 75 46 69 47 68 48 33 50 59 51 42 52 58 53 43 54
REMARK SMILES IDX 46 55 57 56 73 57 44 58 45 59 56 61 74 62 47 63 34 64 35 65
REMARK SMILES IDX 40 66 36 67 37 68 39 69 41 70 38 71 60 72 61 73 66 74 62 75
REMARK SMILES IDX 63 76 65 77 67 78 64 79 48 80 49 81 54 82 50 83 51 84 53 85
REMARK SMILES IDX 55 86 52 87
REMARK H PARENT 72 49 46 60
REMARK Flexibility Score: inf
ROOT
ATOM      1  C   UNL A   1      35.103  33.252  28.098  1.00  0.00     0.188 C 
ENDROOT
BRANCH   1   2
ATOM      2  C   UNL A   1      35.252  31.711  28.180  1.00  0.00     0.188 C 
BRANCH   2   3
ATOM      3  O   UNL A   1      34.034  30.952  28.154  1.00  0.00    -0.376 OA
BRANCH   3   4
ATOM      4  C   UNL A   1      33.689  30.395  26.891  1.00  0.00     0.202 C 
BRANCH   4   5
ATOM      5  C   UNL A   1      34.129  28.924  26.795  1.00  0.00     0.261 C 
BRANCH   5   6
ATOM      6  O   UNL A   1      33.298  28.241  25.844  1.00  0.00    -0.463 OA
BRANCH   6   7
ATOM      7  C   UNL A   1      32.201  27.458  26.180  1.00  0.00     0.315 C 
ATOM      8  O   UNL A   1      31.781  27.261  27.306  1.00  0.00    -0.251 OA
BRANCH   7   9
ATOM      9  C   UNL A   1      31.525  27.074  24.823  1.00  0.00     0.108 C 
ATOM     10  C   UNL A   1      32.748  24.215  22.553  1.00  0.00     0.147 C 
ATOM     11  N   UNL A   1      32.003  25.186  23.342  1.00  0.00    -0.337 N 
ATOM     12  C   UNL A   1      30.660  25.102  23.591  1.00  0.00     0.227 C 
ATOM     13  C   UNL A   1      32.651  26.084  24.254  1.00  0.00     0.133 C 
ATOM     14  O   UNL A   1      29.916  24.248  23.128  1.00  0.00    -0.275 OA
ATOM     15  C   UNL A   1      30.225  26.239  24.527  1.00  0.00     0.102 C 
ATOM     16  C   UNL A   1      29.041  26.886  23.721  1.00  0.00     0.041 C 
ATOM     17  C   UNL A   1      31.160  28.561  24.537  1.00  0.00     0.049 C 
ATOM     18  C   UNL A   1      29.234  28.235  23.115  1.00  0.00    -0.030 C 
ATOM     19  C   UNL A   1      30.260  28.999  23.462  1.00  0.00    -0.030 C 
BRANCH  13  20
ATOM     20  C   UNL A   1      33.273  25.201  25.399  1.00  0.00    -0.024 A 
ATOM     21  C   UNL A   1      34.672  25.031  25.494  1.00  0.00     0.006 A 
ATOM     22  C   UNL A   1      32.452  24.354  26.162  1.00  0.00     0.006 A 
ATOM     23  C   UNL A   1      35.215  23.914  26.128  1.00  0.00     0.000 A 
ATOM     24  C   UNL A   1      33.007  23.253  26.825  1.00  0.00     0.000 A 
ATOM     25  C   UNL A   1      34.377  23.005  26.761  1.00  0.00     0.000 A 
ENDBRANCH  13  20
ENDBRANCH   7   9
ENDBRANCH   6   7
ENDBRANCH   5   6
ENDBRANCH   4   5
ENDBRANCH   3   4
ENDBRANCH   2   3
ENDBRANCH   1   2
BRANCH   1  26
ATOM     26  O   UNL A   1      34.011  33.870  28.761  1.00  0.00    -0.376 OA
BRANCH  26  27
ATOM     27  C   UNL A   1      33.740  35.226  28.456  1.00  0.00     0.202 C 
BRANCH  27  28
ATOM     28  C   UNL A   1      32.914  36.069  29.446  1.00  0.00     0.261 C 
BRANCH  28  29
ATOM     29  O   UNL A   1      32.331  35.331  30.541  1.00  0.00    -0.460 OA
BRANCH  29  30
ATOM     30  C   UNL A   1      32.607  35.795  31.786  1.00  0.00     0.338 C 
ATOM     31  O   UNL A   1      31.942  36.604  32.428  1.00  0.00    -0.246 OA
BRANCH  30  32
ATOM     32  C   UNL A   1      33.731  35.034  32.379  1.00  0.00     0.060 A 
ATOM     33  C   UNL A   1      35.024  35.573  32.300  1.00  0.00     0.016 A 
ATOM     34  C   UNL A   1      33.534  33.793  32.988  1.00  0.00     0.016 A 
ATOM     35  C   UNL A   1      36.120  34.868  32.809  1.00  0.00     0.010 A 
ATOM     36  C   UNL A   1      34.636  33.083  33.486  1.00  0.00     0.010 A 
ATOM     37  C   UNL A   1      35.939  33.606  33.386  1.00  0.00    -0.014 A 
BRANCH  37  38
ATOM     38  C   UNL A   1      37.106  32.740  33.701  1.00  0.00     0.031 A 
ATOM     39  C   UNL A   1      37.870  33.017  34.968  1.00  0.00     0.074 A 
ATOM     40  C   UNL A   1      37.509  31.744  32.890  1.00  0.00     0.049 A 
ATOM     41  N   UNL A   1      38.997  32.505  35.391  1.00  0.00    -0.248 NA
ATOM     42  C   UNL A   1      37.279  34.013  35.875  1.00  0.00     0.031 C 
ATOM     43  C   UNL A   1      36.833  31.314  31.670  1.00  0.00     0.029 A 
ATOM     44  N   UNL A   1      38.612  30.926  32.970  1.00  0.00    -0.354 N 
ATOM     45  C   UNL A   1      39.257  33.125  36.607  1.00  0.00     0.074 A 
ATOM     46  C   UNL A   1      38.181  34.062  36.843  1.00  0.00     0.031 C 
ATOM     47  C   UNL A   1      37.548  30.327  31.101  1.00  0.00     0.029 A 
ATOM     48  C   UNL A   1      38.756  30.086  31.891  1.00  0.00     0.049 A 
ATOM     49  H   UNL A   1      39.239  30.939  33.729  1.00  0.00     0.167 HD
ATOM     50  C   UNL A   1      40.298  32.934  37.451  1.00  0.00     0.037 A 
ATOM     51  C   UNL A   1      39.765  29.252  31.561  1.00  0.00     0.037 A 
ATOM     52  C   UNL A   1      41.379  32.015  37.216  1.00  0.00     0.049 A 
ATOM     53  C   UNL A   1      40.973  29.139  32.461  1.00  0.00     0.074 A 
ATOM     54  C   UNL A   1      42.478  31.757  38.019  1.00  0.00     0.029 A 
ATOM     55  N   UNL A   1      41.507  31.213  36.094  1.00  0.00    -0.354 N 
ATOM     56  N   UNL A   1      41.210  29.722  33.611  1.00  0.00    -0.248 NA
ATOM     57  C   UNL A   1      42.061  28.254  32.011  1.00  0.00     0.031 C 
ATOM     58  C   UNL A   1      43.301  30.844  37.352  1.00  0.00     0.029 A 
ATOM     59  C   UNL A   1      42.681  30.484  36.166  1.00  0.00     0.049 A 
ATOM     60  H   UNL A   1      40.858  31.168  35.354  1.00  0.00     0.167 HD
ATOM     61  C   UNL A   1      42.446  29.247  34.037  1.00  0.00     0.074 A 
ATOM     62  C   UNL A   1      42.912  28.323  33.025  1.00  0.00     0.031 C 
ATOM     63  C   UNL A   1      43.131  29.546  35.168  1.00  0.00     0.037 A 
BRANCH  50  64
ATOM     64  C   UNL A   1      40.338  33.774  38.693  1.00  0.00     0.057 A 
ATOM     65  C   UNL A   1      41.109  34.940  38.779  1.00  0.00     0.134 A 
ATOM     66  C   UNL A   1      39.573  33.422  39.812  1.00  0.00     0.134 A 
ATOM     67  F   UNL A   1      41.878  35.323  37.748  1.00  0.00    -0.206 F 
ATOM     68  C   UNL A   1      41.140  35.709  39.941  1.00  0.00     0.040 A 
ATOM     69  C   UNL A   1      39.571  34.200  40.970  1.00  0.00     0.040 A 
ATOM     70  F   UNL A   1      38.808  32.320  39.795  1.00  0.00    -0.206 F 
ATOM     71  C   UNL A   1      40.362  35.344  41.039  1.00  0.00     0.006 A 
ENDBRANCH  50  64
BRANCH  51  72
ATOM     72  C   UNL A   1      39.712  28.472  30.294  1.00  0.00     0.057 A 
ATOM     73  C   UNL A   1      39.102  27.212  30.241  1.00  0.00     0.134 A 
ATOM     74  C   UNL A   1      40.321  28.940  29.123  1.00  0.00     0.134 A 
ATOM     75  F   UNL A   1      38.531  26.692  31.337  1.00  0.00    -0.206 F 
ATOM     76  C   UNL A   1      39.117  26.439  29.078  1.00  0.00     0.040 A 
ATOM     77  C   UNL A   1      40.319  28.189  27.946  1.00  0.00     0.040 A 
ATOM     78  F   UNL A   1      40.933  30.133  29.107  1.00  0.00    -0.206 F 
ATOM     79  C   UNL A   1      39.724  26.930  27.924  1.00  0.00     0.006 A 
ENDBRANCH  51  72
BRANCH  63  80
ATOM     80  C   UNL A   1      44.431  28.835  35.419  1.00  0.00     0.057 A 
ATOM     81  C   UNL A   1      45.664  29.370  35.024  1.00  0.00     0.134 A 
ATOM     82  C   UNL A   1      44.452  27.632  36.140  1.00  0.00     0.134 A 
ATOM     83  F   UNL A   1      45.716  30.512  34.322  1.00  0.00    -0.206 F 
ATOM     84  C   UNL A   1      46.867  28.729  35.326  1.00  0.00     0.040 A 
ATOM     85  C   UNL A   1      45.650  26.998  36.472  1.00  0.00     0.040 A 
ATOM     86  F   UNL A   1      43.308  27.070  36.559  1.00  0.00    -0.206 F 
ATOM     87  C   UNL A   1      46.863  27.545  36.061  1.00  0.00     0.006 A 
ENDBRANCH  63  80
ENDBRANCH  37  38
ENDBRANCH  30  32
ENDBRANCH  29  30
ENDBRANCH  28  29
ENDBRANCH  27  28
ENDBRANCH  26  27
ENDBRANCH   1  26
TORSDOF 18
ENDMDL
MODEL 3
REMARK VINA RESULT:     -10.9      1.428      2.459
REMARK SMILES CN1C(=O)[C@@H]2CC=CC[C@]2(C(=O)OCCOCCOCCOC(=O)c2ccc(-c3c4nc(c(-c5c(F)cccc5F)c5ccc([nH]5)c(-c5c(F)cccc5F)c5nc(c(-c6c(F)cccc6F)c6ccc3[nH]6)C=C5)C=C4)cc2)[C@H]1c1ccccc1
REMARK SMILES IDX 18 1 17 2 16 3 15 4 14 5 13 6 11 7 12 8 10 9 1 10 2 11 3 12
REMARK SMILES IDX 79 13 4 14 5 15 6 16 9 17 7 18 8 19 80 20 81 21 85 22 82 23
REMARK SMILES IDX 84 24 83 25 19 26 20 27 21 28 22 29 23 30 24 31 25 32 26 33
REMARK SMILES IDX 78 34 27 35 77 36 28 37 29 38 30 39 71 40 31 41 76 42 70 43
REMARK SMILES IDX 72 44 32 45 75 46 69 47 68 48 33 50 59 51 42 52 58 53 43 54
REMARK SMILES IDX 46 55 57 56 73 57 44 58 45 59 56 61 74 62 47 63 34 64 35 65
REMARK SMILES IDX 40 66 36 67 37 68 39 69 41 70 38 71 60 72 61 73 66 74 62 75
REMARK SMILES IDX 63 76 65 77 67 78 64 79 48 80 49 81 54 82 50 83 51 84 53 85
REMARK SMILES IDX 55 86 52 87
REMARK H PARENT 72 49 46 60
REMARK Flexibility Score: inf
ROOT
ATOM      1  C   UNL A   1      38.361  20.724  25.007  1.00  0.00     0.188 C 
ENDROOT
BRANCH   1   2
ATOM      2  C   UNL A   1      36.821  20.892  25.066  1.00  0.00     0.188 C 
BRANCH   2   3
ATOM      3  O   UNL A   1      36.313  21.719  26.124  1.00  0.00    -0.376 OA
BRANCH   3   4
ATOM      4  C   UNL A   1      34.917  21.598  26.376  1.00  0.00     0.202 C 
BRANCH   4   5
ATOM      5  C   UNL A   1      34.434  22.686  27.351  1.00  0.00     0.261 C 
BRANCH   5   6
ATOM      6  O   UNL A   1      33.878  23.778  26.604  1.00  0.00    -0.463 OA
BRANCH   6   7
ATOM      7  C   UNL A   1      32.526  23.931  26.325  1.00  0.00     0.315 C 
ATOM      8  O   UNL A   1      31.637  24.064  27.146  1.00  0.00    -0.251 OA
BRANCH   7   9
ATOM      9  C   UNL A   1      32.431  24.099  24.772  1.00  0.00     0.108 C 
ATOM     10  C   UNL A   1      31.523  27.406  23.025  1.00  0.00     0.147 C 
ATOM     11  N   UNL A   1      32.079  26.133  23.460  1.00  0.00    -0.337 N 
ATOM     12  C   UNL A   1      33.217  25.577  22.942  1.00  0.00     0.227 C 
ATOM     13  C   UNL A   1      31.730  25.539  24.718  1.00  0.00     0.133 C 
ATOM     14  O   UNL A   1      33.862  26.044  22.013  1.00  0.00    -0.275 OA
ATOM     15  C   UNL A   1      33.559  24.281  23.691  1.00  0.00     0.102 C 
ATOM     16  C   UNL A   1      33.693  23.252  22.512  1.00  0.00     0.041 C 
ATOM     17  C   UNL A   1      31.903  22.642  24.606  1.00  0.00     0.049 C 
ATOM     18  C   UNL A   1      32.648  22.201  22.351  1.00  0.00    -0.030 C 
ATOM     19  C   UNL A   1      31.775  21.952  23.316  1.00  0.00    -0.030 C 
BRANCH  13  20
ATOM     20  C   UNL A   1      32.287  26.493  25.841  1.00  0.00    -0.024 A 
ATOM     21  C   UNL A   1      31.405  27.139  26.736  1.00  0.00     0.006 A 
ATOM     22  C   UNL A   1      33.621  26.931  25.796  1.00  0.00     0.006 A 
ATOM     23  C   UNL A   1      31.775  28.322  27.374  1.00  0.00     0.000 A 
ATOM     24  C   UNL A   1      33.995  28.102  26.467  1.00  0.00     0.000 A 
ATOM     25  C   UNL A   1      33.060  28.823  27.208  1.00  0.00     0.000 A 
ENDBRANCH  13  20
ENDBRANCH   7   9
ENDBRANCH   6   7
ENDBRANCH   5   6
ENDBRANCH   4   5
ENDBRANCH   3   4
ENDBRANCH   2   3
ENDBRANCH   1   2
BRANCH   1  26
ATOM     26  O   UNL A   1      39.145  21.214  26.084  1.00  0.00    -0.376 OA
BRANCH  26  27
ATOM     27  C   UNL A   1      40.373  20.561  26.352  1.00  0.00     0.202 C 
BRANCH  27  28
ATOM     28  C   UNL A   1      41.695  21.295  26.056  1.00  0.00     0.261 C 
BRANCH  28  29
ATOM     29  O   UNL A   1      41.549  22.607  25.473  1.00  0.00    -0.460 OA
BRANCH  29  30
ATOM     30  C   UNL A   1      42.653  23.397  25.500  1.00  0.00     0.338 C 
ATOM     31  O   UNL A   1      43.542  23.438  24.655  1.00  0.00    -0.246 OA
BRANCH  30  32
ATOM     32  C   UNL A   1      42.552  24.379  26.604  1.00  0.00     0.060 A 
ATOM     33  C   UNL A   1      41.749  24.067  27.712  1.00  0.00     0.016 A 
ATOM     34  C   UNL A   1      43.217  25.606  26.554  1.00  0.00     0.016 A 
ATOM     35  C   UNL A   1      41.593  24.984  28.757  1.00  0.00     0.010 A 
ATOM     36  C   UNL A   1      43.049  26.528  27.597  1.00  0.00     0.010 A 
ATOM     37  C   UNL A   1      42.223  26.233  28.698  1.00  0.00    -0.014 A 
BRANCH  37  38
ATOM     38  C   UNL A   1      41.873  27.307  29.665  1.00  0.00     0.031 A 
ATOM     39  C   UNL A   1      42.616  27.350  30.973  1.00  0.00     0.074 A 
ATOM     40  C   UNL A   1      40.910  28.215  29.421  1.00  0.00     0.049 A 
ATOM     41  N   UNL A   1      42.401  28.089  32.031  1.00  0.00    -0.248 NA
ATOM     42  C   UNL A   1      43.756  26.428  31.100  1.00  0.00     0.031 C 
ATOM     43  C   UNL A   1      40.154  28.341  28.179  1.00  0.00     0.029 A 
ATOM     44  N   UNL A   1      40.389  29.195  30.234  1.00  0.00    -0.354 N 
ATOM     45  C   UNL A   1      43.369  27.713  32.954  1.00  0.00     0.074 A 
ATOM     46  C   UNL A   1      44.158  26.669  32.338  1.00  0.00     0.031 C 
ATOM     47  C   UNL A   1      39.249  29.326  28.319  1.00  0.00     0.029 A 
ATOM     48  C   UNL A   1      39.329  29.870  29.675  1.00  0.00     0.049 A 
ATOM     49  H   UNL A   1      40.743  29.397  31.130  1.00  0.00     0.167 HD
ATOM     50  C   UNL A   1      43.581  28.190  34.202  1.00  0.00     0.037 A 
ATOM     51  C   UNL A   1      38.497  30.788  30.210  1.00  0.00     0.037 A 
ATOM     52  C   UNL A   1      42.791  29.218  34.827  1.00  0.00     0.049 A 
ATOM     53  C   UNL A   1      38.681  31.225  31.645  1.00  0.00     0.074 A 
ATOM     54  C   UNL A   1      42.935  29.763  36.091  1.00  0.00     0.029 A 
ATOM     55  N   UNL A   1      41.704  29.846  34.242  1.00  0.00    -0.354 N 
ATOM     56  N   UNL A   1      39.600  30.870  32.510  1.00  0.00    -0.248 NA
ATOM     57  C   UNL A   1      37.703  32.186  32.181  1.00  0.00     0.031 C 
ATOM     58  C   UNL A   1      41.896  30.678  36.293  1.00  0.00     0.029 A 
ATOM     59  C   UNL A   1      41.148  30.750  35.130  1.00  0.00     0.049 A 
ATOM     60  H   UNL A   1      41.376  29.675  33.328  1.00  0.00     0.167 HD
ATOM     61  C   UNL A   1      39.336  31.591  33.670  1.00  0.00     0.074 A 
ATOM     62  C   UNL A   1      38.172  32.407  33.401  1.00  0.00     0.031 C 
ATOM     63  C   UNL A   1      40.002  31.579  34.850  1.00  0.00     0.037 A 
BRANCH  50  64
ATOM     64  C   UNL A   1      44.693  27.570  34.995  1.00  0.00     0.057 A 
ATOM     65  C   UNL A   1      44.494  26.435  35.792  1.00  0.00     0.134 A 
ATOM     66  C   UNL A   1      45.987  28.104  34.941  1.00  0.00     0.134 A 
ATOM     67  F   UNL A   1      43.275  25.885  35.901  1.00  0.00    -0.206 F 
ATOM     68  C   UNL A   1      45.536  25.870  36.527  1.00  0.00     0.040 A 
ATOM     69  C   UNL A   1      47.044  27.529  35.647  1.00  0.00     0.040 A 
ATOM     70  F   UNL A   1      46.246  29.187  34.193  1.00  0.00    -0.206 F 
ATOM     71  C   UNL A   1      46.818  26.413  36.450  1.00  0.00     0.006 A 
ENDBRANCH  50  64
BRANCH  51  72
ATOM     72  C   UNL A   1      37.374  31.345  29.407  1.00  0.00     0.057 A 
ATOM     73  C   UNL A   1      37.433  32.640  28.875  1.00  0.00     0.134 A 
ATOM     74  C   UNL A   1      36.193  30.621  29.203  1.00  0.00     0.134 A 
ATOM     75  F   UNL A   1      38.522  33.398  29.065  1.00  0.00    -0.206 F 
ATOM     76  C   UNL A   1      36.353  33.199  28.188  1.00  0.00     0.040 A 
ATOM     77  C   UNL A   1      35.117  31.158  28.494  1.00  0.00     0.040 A 
ATOM     78  F   UNL A   1      36.066  29.380  29.694  1.00  0.00    -0.206 F 
ATOM     79  C   UNL A   1      35.191  32.455  27.992  1.00  0.00     0.006 A 
ENDBRANCH  51  72
BRANCH  63  80
ATOM     80  C   UNL A   1      39.540  32.513  35.934  1.00  0.00     0.057 A 
ATOM     81  C   UNL A   1      40.062  33.805  36.080  1.00  0.00     0.134 A 
ATOM     82  C   UNL A   1      38.499  32.138  36.796  1.00  0.00     0.134 A 
ATOM     83  F   UNL A   1      41.066  34.225  35.296  1.00  0.00    -0.206 F 
ATOM     84  C   UNL A   1      39.573  34.684  37.049  1.00  0.00     0.040 A 
ATOM     85  C   UNL A   1      37.983  33.018  37.749  1.00  0.00     0.040 A 
ATOM     86  F   UNL A   1      37.945  30.920  36.703  1.00  0.00    -0.206 F 
ATOM     87  C   UNL A   1      38.523  34.295  37.879  1.00  0.00     0.006 A 
ENDBRANCH  63  80
ENDBRANCH  37  38
ENDBRANCH  30  32
ENDBRANCH  29  30
ENDBRANCH  28  29
ENDBRANCH  27  28
ENDBRANCH  26  27
ENDBRANCH   1  26
TORSDOF 18
ENDMDL
