MODEL 1
REMARK VINA RESULT:     -12.9      0.000      0.000
REMARK SMILES O=C(OCCOCCOCCOC(=O)c1ccc(-c2c3nc(c(-c4c(F)cccc4F)c4ccc([nH]4)c(-c4c(F)cccc4F)c4nc(c(-c5c(F)cccc5F)c5ccc2[nH]5)C=C4)C=C3)cc1)C1=Cc2cc(Cl)cc(-c3ccc(Cl)cc3)c2O[C@@H]1C(F)(F)F
REMARK SMILES IDX 8 1 7 2 6 3 5 4 4 5 3 6 2 7 1 8 69 9 70 10 86 11 71 12 85 13
REMARK SMILES IDX 72 14 84 15 73 16 76 17 74 18 75 19 87 20 88 21 89 22 90 23
REMARK SMILES IDX 77 24 78 25 83 26 79 27 82 28 80 29 81 30 9 31 10 32 11 33
REMARK SMILES IDX 12 34 13 35 14 36 15 37 16 38 68 39 17 40 67 41 18 42 19 43
REMARK SMILES IDX 20 44 61 45 21 46 66 47 60 48 62 49 22 50 65 51 59 52 58 53
REMARK SMILES IDX 23 55 49 56 32 57 48 58 33 59 36 60 47 61 63 62 34 63 35 64
REMARK SMILES IDX 46 66 64 67 37 68 24 69 25 70 30 71 26 72 27 73 29 74 31 75
REMARK SMILES IDX 28 76 50 77 51 78 56 79 52 80 53 81 55 82 57 83 54 84 38 85
REMARK SMILES IDX 39 86 44 87 40 88 41 89 43 90 45 91 42 92
REMARK H PARENT 62 54 36 65
REMARK Flexibility Score: inf
ROOT
ATOM      1  C   UNL A   1      34.283  34.167  28.037  1.00  0.00     0.188 C 
ENDROOT
BRANCH   1   2
ATOM      2  C   UNL A   1      33.213  33.067  27.938  1.00  0.00     0.188 C 
BRANCH   2   3
ATOM      3  O   UNL A   1      33.513  31.630  27.530  1.00  0.00    -0.376 OA
BRANCH   3   4
ATOM      4  C   UNL A   1      32.364  30.458  26.850  1.00  0.00     0.202 C 
BRANCH   4   5
ATOM      5  C   UNL A   1      33.040  28.650  25.840  1.00  0.00     0.261 C 
BRANCH   5   6
ATOM      6  O   UNL A   1      33.380  27.313  26.521  1.00  0.00    -0.460 OA
BRANCH   6   7
ATOM      7  C   UNL A   1      32.481  26.356  26.250  1.00  0.00     0.338 C 
ATOM      8  O   UNL A   1      31.698  25.817  26.992  1.00  0.00    -0.246 OA
BRANCH   7   9
ATOM      9  C   UNL A   1      33.123  25.891  25.037  1.00  0.00     0.087 C 
ATOM     10  C   UNL A   1      34.526  25.568  25.147  1.00  0.00     0.027 C 
ATOM     11  C   UNL A   1      31.731  24.651  24.603  1.00  0.00     0.316 C 
ATOM     12  C   UNL A   1      35.157  23.902  25.199  1.00  0.00     0.019 A 
ATOM     13  O   UNL A   1      32.372  22.798  24.821  1.00  0.00    -0.475 OA
ATOM     14  C   UNL A   1      36.485  23.768  25.514  1.00  0.00     0.032 A 
ATOM     15  C   UNL A   1      34.155  22.493  25.107  1.00  0.00     0.135 A 
ATOM     16  C   UNL A   1      36.932  22.458  25.677  1.00  0.00     0.042 A 
ATOM     17  C   UNL A   1      34.707  21.224  25.219  1.00  0.00     0.026 A 
ATOM     18  Cl  UNL A   1      38.594  22.228  26.106  1.00  0.00    -0.084 Cl
ATOM     19  C   UNL A   1      36.110  21.284  25.520  1.00  0.00     0.033 A 
BRANCH  11  20
ATOM     20  C   UNL A   1      31.307  25.586  23.212  1.00  0.00     0.430 C 
ATOM     21  F   UNL A   1      32.238  26.196  22.463  1.00  0.00    -0.167 F 
ATOM     22  F   UNL A   1      30.564  24.815  22.376  1.00  0.00    -0.167 F 
ATOM     23  F   UNL A   1      30.477  26.626  23.549  1.00  0.00    -0.167 F 
ENDBRANCH  11  20
BRANCH  17  24
ATOM     24  C   UNL A   1      34.194  19.873  25.000  1.00  0.00    -0.015 A 
ATOM     25  C   UNL A   1      32.924  19.487  25.444  1.00  0.00     0.010 A 
ATOM     26  C   UNL A   1      35.089  18.848  24.625  1.00  0.00     0.010 A 
ATOM     27  C   UNL A   1      32.528  18.141  25.417  1.00  0.00     0.021 A 
ATOM     28  C   UNL A   1      34.689  17.507  24.564  1.00  0.00     0.021 A 
ATOM     29  C   UNL A   1      33.398  17.162  24.942  1.00  0.00     0.041 A 
ATOM     30  Cl  UNL A   1      32.884  15.525  24.834  1.00  0.00    -0.084 Cl
ENDBRANCH  17  24
ENDBRANCH   7   9
ENDBRANCH   6   7
ENDBRANCH   5   6
ENDBRANCH   4   5
ENDBRANCH   3   4
ENDBRANCH   2   3
ENDBRANCH   1   2
BRANCH   1  31
ATOM     31  O   UNL A   1      35.431  33.924  28.800  1.00  0.00    -0.376 OA
BRANCH  31  32
ATOM     32  C   UNL A   1      35.183  33.696  30.170  1.00  0.00     0.202 C 
BRANCH  32  33
ATOM     33  C   UNL A   1      35.090  32.260  30.697  1.00  0.00     0.261 C 
BRANCH  33  34
ATOM     34  O   UNL A   1      36.100  31.376  30.190  1.00  0.00    -0.460 OA
BRANCH  34  35
ATOM     35  C   UNL A   1      36.561  30.442  31.053  1.00  0.00     0.338 C 
ATOM     36  O   UNL A   1      36.060  30.078  32.102  1.00  0.00    -0.246 OA
BRANCH  35  37
ATOM     37  C   UNL A   1      37.712  29.767  30.430  1.00  0.00     0.060 A 
ATOM     38  C   UNL A   1      38.585  29.005  31.221  1.00  0.00     0.016 A 
ATOM     39  C   UNL A   1      37.948  29.946  29.070  1.00  0.00     0.016 A 
ATOM     40  C   UNL A   1      39.703  28.409  30.648  1.00  0.00     0.010 A 
ATOM     41  C   UNL A   1      39.095  29.392  28.505  1.00  0.00     0.010 A 
ATOM     42  C   UNL A   1      39.986  28.648  29.299  1.00  0.00    -0.014 A 
BRANCH  42  43
ATOM     43  C   UNL A   1      41.341  28.364  28.788  1.00  0.00     0.031 A 
ATOM     44  C   UNL A   1      41.629  26.960  28.341  1.00  0.00     0.074 A 
ATOM     45  C   UNL A   1      42.284  29.317  28.735  1.00  0.00     0.049 A 
ATOM     46  N   UNL A   1      42.751  26.430  27.935  1.00  0.00    -0.248 NA
ATOM     47  C   UNL A   1      40.492  26.024  28.367  1.00  0.00     0.031 C 
ATOM     48  C   UNL A   1      42.093  30.718  29.104  1.00  0.00     0.029 A 
ATOM     49  N   UNL A   1      43.602  29.237  28.367  1.00  0.00    -0.354 N 
ATOM     50  C   UNL A   1      42.458  25.099  27.668  1.00  0.00     0.074 A 
ATOM     51  C   UNL A   1      41.063  24.894  27.985  1.00  0.00     0.031 C 
ATOM     52  C   UNL A   1      43.265  31.364  28.965  1.00  0.00     0.029 A 
ATOM     53  C   UNL A   1      44.289  30.413  28.535  1.00  0.00     0.049 A 
ATOM     54  H   UNL A   1      44.014  28.415  28.015  1.00  0.00     0.167 HD
ATOM     55  C   UNL A   1      43.282  24.135  27.199  1.00  0.00     0.037 A 
ATOM     56  C   UNL A   1      45.603  30.671  28.389  1.00  0.00     0.037 A 
ATOM     57  C   UNL A   1      44.675  24.349  26.917  1.00  0.00     0.049 A 
ATOM     58  C   UNL A   1      46.522  29.559  27.946  1.00  0.00     0.074 A 
ATOM     59  C   UNL A   1      45.603  23.448  26.429  1.00  0.00     0.029 A 
ATOM     60  N   UNL A   1      45.345  25.547  27.121  1.00  0.00    -0.354 N 
ATOM     61  N   UNL A   1      46.236  28.310  27.660  1.00  0.00    -0.248 NA
ATOM     62  C   UNL A   1      47.946  29.892  27.804  1.00  0.00     0.031 C 
ATOM     63  C   UNL A   1      46.850  24.080  26.409  1.00  0.00     0.029 A 
ATOM     64  C   UNL A   1      46.683  25.398  26.804  1.00  0.00     0.049 A 
ATOM     65  H   UNL A   1      44.929  26.379  27.443  1.00  0.00     0.167 HD
ATOM     66  C   UNL A   1      47.433  27.720  27.272  1.00  0.00     0.074 A 
ATOM     67  C   UNL A   1      48.448  28.752  27.350  1.00  0.00     0.031 C 
ATOM     68  C   UNL A   1      47.676  26.443  26.883  1.00  0.00     0.037 A 
BRANCH  55  69
ATOM     69  C   UNL A   1      42.705  22.761  27.022  1.00  0.00     0.057 A 
ATOM     70  C   UNL A   1      42.425  22.225  25.757  1.00  0.00     0.134 A 
ATOM     71  C   UNL A   1      42.424  21.960  28.136  1.00  0.00     0.134 A 
ATOM     72  F   UNL A   1      42.651  22.946  24.647  1.00  0.00    -0.206 F 
ATOM     73  C   UNL A   1      41.855  20.959  25.609  1.00  0.00     0.040 A 
ATOM     74  C   UNL A   1      41.887  20.679  28.000  1.00  0.00     0.040 A 
ATOM     75  F   UNL A   1      42.666  22.409  29.377  1.00  0.00    -0.206 F 
ATOM     76  C   UNL A   1      41.592  20.180  26.733  1.00  0.00     0.006 A 
ENDBRANCH  55  69
BRANCH  56  77
ATOM     77  C   UNL A   1      46.134  32.028  28.683  1.00  0.00     0.057 A 
ATOM     78  C   UNL A   1      46.326  32.972  27.668  1.00  0.00     0.134 A 
ATOM     79  C   UNL A   1      46.485  32.406  29.986  1.00  0.00     0.134 A 
ATOM     80  F   UNL A   1      46.033  32.665  26.396  1.00  0.00    -0.206 F 
ATOM     81  C   UNL A   1      46.867  34.232  27.932  1.00  0.00     0.040 A 
ATOM     82  C   UNL A   1      46.997  33.673  30.268  1.00  0.00     0.040 A 
ATOM     83  F   UNL A   1      46.328  31.550  31.007  1.00  0.00    -0.206 F 
ATOM     84  C   UNL A   1      47.197  34.588  29.237  1.00  0.00     0.006 A 
ENDBRANCH  56  77
BRANCH  68  85
ATOM     85  C   UNL A   1      49.076  26.097  26.465  1.00  0.00     0.057 A 
ATOM     86  C   UNL A   1      49.579  26.419  25.198  1.00  0.00     0.134 A 
ATOM     87  C   UNL A   1      49.955  25.486  27.371  1.00  0.00     0.134 A 
ATOM     88  F   UNL A   1      48.792  26.999  24.280  1.00  0.00    -0.206 F 
ATOM     89  C   UNL A   1      50.897  26.123  24.839  1.00  0.00     0.040 A 
ATOM     90  C   UNL A   1      51.282  25.218  27.036  1.00  0.00     0.040 A 
ATOM     91  F   UNL A   1      49.544  25.163  28.606  1.00  0.00    -0.206 F 
ATOM     92  C   UNL A   1      51.754  25.529  25.764  1.00  0.00     0.006 A 
ENDBRANCH  68  85
ENDBRANCH  42  43
ENDBRANCH  35  37
ENDBRANCH  34  35
ENDBRANCH  33  34
ENDBRANCH  32  33
ENDBRANCH  31  32
ENDBRANCH   1  31
TORSDOF 19
ENDMDL
MODEL 2
REMARK VINA RESULT:     -12.5      1.052      5.917
REMARK SMILES O=C(OCCOCCOCCOC(=O)c1ccc(-c2c3nc(c(-c4c(F)cccc4F)c4ccc([nH]4)c(-c4c(F)cccc4F)c4nc(c(-c5c(F)cccc5F)c5ccc2[nH]5)C=C4)C=C3)cc1)C1=Cc2cc(Cl)cc(-c3ccc(Cl)cc3)c2O[C@@H]1C(F)(F)F
REMARK SMILES IDX 8 1 7 2 6 3 5 4 4 5 3 6 2 7 1 8 69 9 70 10 86 11 71 12 85 13
REMARK SMILES IDX 72 14 84 15 73 16 76 17 74 18 75 19 87 20 88 21 89 22 90 23
REMARK SMILES IDX 77 24 78 25 83 26 79 27 82 28 80 29 81 30 9 31 10 32 11 33
REMARK SMILES IDX 12 34 13 35 14 36 15 37 16 38 68 39 17 40 67 41 18 42 19 43
REMARK SMILES IDX 20 44 61 45 21 46 66 47 60 48 62 49 22 50 65 51 59 52 58 53
REMARK SMILES IDX 23 55 49 56 32 57 48 58 33 59 36 60 47 61 63 62 34 63 35 64
REMARK SMILES IDX 46 66 64 67 37 68 24 69 25 70 30 71 26 72 27 73 29 74 31 75
REMARK SMILES IDX 28 76 50 77 51 78 56 79 52 80 53 81 55 82 57 83 54 84 38 85
REMARK SMILES IDX 39 86 44 87 40 88 41 89 43 90 45 91 42 92
REMARK H PARENT 62 54 36 65
REMARK Flexibility Score: inf
ROOT
ATOM      1  C   UNL A   1      34.281  32.978  27.737  1.00  0.00     0.188 C 
ENDROOT
BRANCH   1   2
ATOM      2  C   UNL A   1      34.046  31.501  28.092  1.00  0.00     0.188 C 
BRANCH   2   3
ATOM      3  O   UNL A   1      35.038  30.388  27.777  1.00  0.00    -0.376 OA
BRANCH   3   4
ATOM      4  C   UNL A   1      34.736  28.947  26.781  1.00  0.00     0.202 C 
BRANCH   4   5
ATOM      5  C   UNL A   1      32.851  27.860  26.884  1.00  0.00     0.261 C 
BRANCH   5   6
ATOM      6  O   UNL A   1      32.232  27.024  25.750  1.00  0.00    -0.460 OA
BRANCH   6   7
ATOM      7  C   UNL A   1      32.123  25.726  26.071  1.00  0.00     0.338 C 
ATOM      8  O   UNL A   1      32.025  25.219  27.160  1.00  0.00    -0.246 OA
BRANCH   7   9
ATOM      9  C   UNL A   1      32.669  25.222  24.827  1.00  0.00     0.087 C 
ATOM     10  C   UNL A   1      34.090  24.962  24.818  1.00  0.00     0.027 C 
ATOM     11  C   UNL A   1      31.300  23.905  24.593  1.00  0.00     0.316 C 
ATOM     12  C   UNL A   1      34.797  23.327  24.894  1.00  0.00     0.019 A 
ATOM     13  O   UNL A   1      32.042  22.094  24.842  1.00  0.00    -0.475 OA
ATOM     14  C   UNL A   1      36.154  23.265  25.087  1.00  0.00     0.032 A 
ATOM     15  C   UNL A   1      33.855  21.877  24.971  1.00  0.00     0.135 A 
ATOM     16  C   UNL A   1      36.672  21.984  25.273  1.00  0.00     0.042 A 
ATOM     17  C   UNL A   1      34.472  20.639  25.093  1.00  0.00     0.026 A 
ATOM     18  Cl  UNL A   1      38.376  21.845  25.550  1.00  0.00    -0.084 Cl
ATOM     19  C   UNL A   1      35.893  20.772  25.255  1.00  0.00     0.033 A 
BRANCH  11  20
ATOM     20  C   UNL A   1      30.705  24.744  23.203  1.00  0.00     0.430 C 
ATOM     21  F   UNL A   1      30.328  26.031  23.266  1.00  0.00    -0.167 F 
ATOM     22  F   UNL A   1      31.622  24.646  22.206  1.00  0.00    -0.167 F 
ATOM     23  F   UNL A   1      29.583  24.136  22.700  1.00  0.00    -0.167 F 
ENDBRANCH  11  20
BRANCH  17  24
ATOM     24  C   UNL A   1      34.002  19.259  24.994  1.00  0.00    -0.015 A 
ATOM     25  C   UNL A   1      32.864  18.818  25.679  1.00  0.00     0.010 A 
ATOM     26  C   UNL A   1      34.864  18.273  24.467  1.00  0.00     0.010 A 
ATOM     27  C   UNL A   1      32.545  17.453  25.744  1.00  0.00     0.021 A 
ATOM     28  C   UNL A   1      34.534  16.912  24.500  1.00  0.00     0.021 A 
ATOM     29  C   UNL A   1      33.361  16.509  25.123  1.00  0.00     0.041 A 
ATOM     30  Cl  UNL A   1      32.927  14.846  25.136  1.00  0.00    -0.084 Cl
ENDBRANCH  17  24
ENDBRANCH   7   9
ENDBRANCH   6   7
ENDBRANCH   5   6
ENDBRANCH   4   5
ENDBRANCH   3   4
ENDBRANCH   2   3
ENDBRANCH   1   2
BRANCH   1  31
ATOM     31  O   UNL A   1      35.578  33.496  27.830  1.00  0.00    -0.376 OA
BRANCH  31  32
ATOM     32  C   UNL A   1      35.804  34.303  28.964  1.00  0.00     0.202 C 
BRANCH  32  33
ATOM     33  C   UNL A   1      35.626  33.712  30.366  1.00  0.00     0.261 C 
BRANCH  33  34
ATOM     34  O   UNL A   1      36.789  33.047  30.881  1.00  0.00    -0.460 OA
BRANCH  34  35
ATOM     35  C   UNL A   1      36.606  31.778  31.313  1.00  0.00     0.338 C 
ATOM     36  O   UNL A   1      35.647  31.320  31.909  1.00  0.00    -0.246 OA
BRANCH  35  37
ATOM     37  C   UNL A   1      37.699  30.947  30.781  1.00  0.00     0.060 A 
ATOM     38  C   UNL A   1      38.486  30.185  31.657  1.00  0.00     0.016 A 
ATOM     39  C   UNL A   1      37.972  30.980  29.416  1.00  0.00     0.016 A 
ATOM     40  C   UNL A   1      39.553  29.441  31.167  1.00  0.00     0.010 A 
ATOM     41  C   UNL A   1      39.071  30.275  28.931  1.00  0.00     0.010 A 
ATOM     42  C   UNL A   1      39.878  29.529  29.809  1.00  0.00    -0.014 A 
BRANCH  42  43
ATOM     43  C   UNL A   1      41.208  29.078  29.358  1.00  0.00     0.031 A 
ATOM     44  C   UNL A   1      42.299  30.106  29.290  1.00  0.00     0.074 A 
ATOM     45  C   UNL A   1      41.434  27.802  29.006  1.00  0.00     0.049 A 
ATOM     46  N   UNL A   1      43.523  29.993  28.850  1.00  0.00    -0.248 NA
ATOM     47  C   UNL A   1      41.954  31.452  29.780  1.00  0.00     0.031 C 
ATOM     48  C   UNL A   1      40.455  26.719  29.078  1.00  0.00     0.029 A 
ATOM     49  N   UNL A   1      42.562  27.211  28.500  1.00  0.00    -0.354 N 
ATOM     50  C   UNL A   1      44.089  31.252  28.999  1.00  0.00     0.074 A 
ATOM     51  C   UNL A   1      43.069  32.121  29.542  1.00  0.00     0.031 C 
ATOM     52  C   UNL A   1      41.021  25.595  28.604  1.00  0.00     0.029 A 
ATOM     53  C   UNL A   1      42.385  25.891  28.167  1.00  0.00     0.049 A 
ATOM     54  H   UNL A   1      43.416  27.688  28.387  1.00  0.00     0.167 HD
ATOM     55  C   UNL A   1      45.350  31.647  28.709  1.00  0.00     0.037 A 
ATOM     56  C   UNL A   1      43.224  25.039  27.548  1.00  0.00     0.037 A 
ATOM     57  C   UNL A   1      46.343  30.776  28.141  1.00  0.00     0.049 A 
ATOM     58  C   UNL A   1      44.599  25.523  27.155  1.00  0.00     0.074 A 
ATOM     59  C   UNL A   1      47.655  31.065  27.816  1.00  0.00     0.029 A 
ATOM     60  N   UNL A   1      46.124  29.451  27.795  1.00  0.00    -0.354 N 
ATOM     61  N   UNL A   1      45.144  26.705  27.330  1.00  0.00    -0.248 NA
ATOM     62  C   UNL A   1      45.475  24.556  26.480  1.00  0.00     0.031 C 
ATOM     63  C   UNL A   1      48.207  29.936  27.203  1.00  0.00     0.029 A 
ATOM     64  C   UNL A   1      47.266  28.918  27.223  1.00  0.00     0.049 A 
ATOM     65  H   UNL A   1      45.281  28.962  27.936  1.00  0.00     0.167 HD
ATOM     66  C   UNL A   1      46.434  26.612  26.820  1.00  0.00     0.074 A 
ATOM     67  C   UNL A   1      46.593  25.255  26.338  1.00  0.00     0.031 C 
ATOM     68  C   UNL A   1      47.403  27.560  26.757  1.00  0.00     0.037 A 
BRANCH  55  69
ATOM     69  C   UNL A   1      45.693  33.087  28.949  1.00  0.00     0.057 A 
ATOM     70  C   UNL A   1      45.478  34.079  27.982  1.00  0.00     0.134 A 
ATOM     71  C   UNL A   1      46.249  33.491  30.170  1.00  0.00     0.134 A 
ATOM     72  F   UNL A   1      44.966  33.760  26.782  1.00  0.00    -0.206 F 
ATOM     73  C   UNL A   1      45.834  35.410  28.207  1.00  0.00     0.040 A 
ATOM     74  C   UNL A   1      46.577  34.823  30.420  1.00  0.00     0.040 A 
ATOM     75  F   UNL A   1      46.484  32.595  31.141  1.00  0.00    -0.206 F 
ATOM     76  C   UNL A   1      46.379  35.786  29.433  1.00  0.00     0.006 A 
ENDBRANCH  55  69
BRANCH  56  77
ATOM     77  C   UNL A   1      42.788  23.652  27.240  1.00  0.00     0.057 A 
ATOM     78  C   UNL A   1      42.447  23.268  25.938  1.00  0.00     0.134 A 
ATOM     79  C   UNL A   1      42.679  22.682  28.244  1.00  0.00     0.134 A 
ATOM     80  F   UNL A   1      42.505  24.156  24.935  1.00  0.00    -0.206 F 
ATOM     81  C   UNL A   1      41.993  21.979  25.650  1.00  0.00     0.040 A 
ATOM     82  C   UNL A   1      42.257  21.381  27.965  1.00  0.00     0.040 A 
ATOM     83  F   UNL A   1      42.990  22.982  29.515  1.00  0.00    -0.206 F 
ATOM     84  C   UNL A   1      41.904  21.029  26.664  1.00  0.00     0.006 A 
ENDBRANCH  56  77
BRANCH  68  85
ATOM     85  C   UNL A   1      48.736  27.156  26.193  1.00  0.00     0.057 A 
ATOM     86  C   UNL A   1      49.029  27.250  24.827  1.00  0.00     0.134 A 
ATOM     87  C   UNL A   1      49.763  26.723  27.045  1.00  0.00     0.134 A 
ATOM     88  F   UNL A   1      48.092  27.649  23.955  1.00  0.00    -0.206 F 
ATOM     89  C   UNL A   1      50.287  26.904  24.325  1.00  0.00     0.040 A 
ATOM     90  C   UNL A   1      51.032  26.411  26.560  1.00  0.00     0.040 A 
ATOM     91  F   UNL A   1      49.555  26.624  28.366  1.00  0.00    -0.206 F 
ATOM     92  C   UNL A   1      51.295  26.493  25.195  1.00  0.00     0.006 A 
ENDBRANCH  68  85
ENDBRANCH  42  43
ENDBRANCH  35  37
ENDBRANCH  34  35
ENDBRANCH  33  34
ENDBRANCH  32  33
ENDBRANCH  31  32
ENDBRANCH   1  31
TORSDOF 19
ENDMDL
MODEL 3
REMARK VINA RESULT:     -12.5      5.333     10.793
REMARK SMILES O=C(OCCOCCOCCOC(=O)c1ccc(-c2c3nc(c(-c4c(F)cccc4F)c4ccc([nH]4)c(-c4c(F)cccc4F)c4nc(c(-c5c(F)cccc5F)c5ccc2[nH]5)C=C4)C=C3)cc1)C1=Cc2cc(Cl)cc(-c3ccc(Cl)cc3)c2O[C@@H]1C(F)(F)F
REMARK SMILES IDX 8 1 7 2 6 3 5 4 4 5 3 6 2 7 1 8 69 9 70 10 86 11 71 12 85 13
REMARK SMILES IDX 72 14 84 15 73 16 76 17 74 18 75 19 87 20 88 21 89 22 90 23
REMARK SMILES IDX 77 24 78 25 83 26 79 27 82 28 80 29 81 30 9 31 10 32 11 33
REMARK SMILES IDX 12 34 13 35 14 36 15 37 16 38 68 39 17 40 67 41 18 42 19 43
REMARK SMILES IDX 20 44 61 45 21 46 66 47 60 48 62 49 22 50 65 51 59 52 58 53
REMARK SMILES IDX 23 55 49 56 32 57 48 58 33 59 36 60 47 61 63 62 34 63 35 64
REMARK SMILES IDX 46 66 64 67 37 68 24 69 25 70 30 71 26 72 27 73 29 74 31 75
REMARK SMILES IDX 28 76 50 77 51 78 56 79 52 80 53 81 55 82 57 83 54 84 38 85
REMARK SMILES IDX 39 86 44 87 40 88 41 89 43 90 45 91 42 92
REMARK H PARENT 62 54 36 65
REMARK Flexibility Score: inf
ROOT
ATOM      1  C   UNL A   1      41.068  19.727  26.249  1.00  0.00     0.188 C 
ENDROOT
BRANCH   1   2
ATOM      2  C   UNL A   1      39.716  20.228  25.718  1.00  0.00     0.188 C 
BRANCH   2   3
ATOM      3  O   UNL A   1      38.919  21.354  26.366  1.00  0.00    -0.376 OA
BRANCH   3   4
ATOM      4  C   UNL A   1      38.496  22.916  25.630  1.00  0.00     0.202 C 
BRANCH   4   5
ATOM      5  C   UNL A   1      36.644  23.190  24.516  1.00  0.00     0.261 C 
BRANCH   5   6
ATOM      6  O   UNL A   1      35.517  24.176  24.874  1.00  0.00    -0.460 OA
BRANCH   6   7
ATOM      7  C   UNL A   1      34.573  24.242  23.924  1.00  0.00     0.338 C 
ATOM      8  O   UNL A   1      34.697  24.451  22.744  1.00  0.00    -0.246 OA
BRANCH   7   9
ATOM      9  C   UNL A   1      33.472  24.499  24.830  1.00  0.00     0.087 C 
ATOM     10  C   UNL A   1      33.697  25.520  25.826  1.00  0.00     0.027 C 
ATOM     11  C   UNL A   1      32.158  24.578  23.440  1.00  0.00     0.316 C 
ATOM     12  C   UNL A   1      32.997  27.157  25.741  1.00  0.00     0.019 A 
ATOM     13  O   UNL A   1      31.498  26.425  23.225  1.00  0.00    -0.475 OA
ATOM     14  C   UNL A   1      33.474  28.066  26.651  1.00  0.00     0.032 A 
ATOM     15  C   UNL A   1      31.960  27.693  24.463  1.00  0.00     0.135 A 
ATOM     16  C   UNL A   1      33.013  29.372  26.489  1.00  0.00     0.042 A 
ATOM     17  C   UNL A   1      31.502  29.002  24.426  1.00  0.00     0.026 A 
ATOM     18  Cl  UNL A   1      33.605  30.570  27.591  1.00  0.00    -0.084 Cl
ATOM     19  C   UNL A   1      32.086  29.795  25.471  1.00  0.00     0.033 A 
BRANCH  11  20
ATOM     20  C   UNL A   1      31.418  23.133  24.033  1.00  0.00     0.430 C 
ATOM     21  F   UNL A   1      32.126  22.011  24.236  1.00  0.00    -0.167 F 
ATOM     22  F   UNL A   1      30.776  23.414  25.197  1.00  0.00    -0.167 F 
ATOM     23  F   UNL A   1      30.425  22.702  23.189  1.00  0.00    -0.167 F 
ENDBRANCH  11  20
BRANCH  17  24
ATOM     24  C   UNL A   1      30.497  29.702  23.627  1.00  0.00    -0.015 A 
ATOM     25  C   UNL A   1      30.379  29.496  22.248  1.00  0.00     0.010 A 
ATOM     26  C   UNL A   1      29.845  30.830  24.173  1.00  0.00     0.010 A 
ATOM     27  C   UNL A   1      29.560  30.321  21.463  1.00  0.00     0.021 A 
ATOM     28  C   UNL A   1      29.000  31.637  23.400  1.00  0.00     0.021 A 
ATOM     29  C   UNL A   1      28.845  31.364  22.048  1.00  0.00     0.041 A 
ATOM     30  Cl  UNL A   1      27.780  32.324  21.099  1.00  0.00    -0.084 Cl
ENDBRANCH  17  24
ENDBRANCH   7   9
ENDBRANCH   6   7
ENDBRANCH   5   6
ENDBRANCH   4   5
ENDBRANCH   3   4
ENDBRANCH   2   3
ENDBRANCH   1   2
BRANCH   1  31
ATOM     31  O   UNL A   1      41.928  20.638  26.874  1.00  0.00    -0.376 OA
BRANCH  31  32
ATOM     32  C   UNL A   1      42.520  21.575  26.002  1.00  0.00     0.202 C 
BRANCH  32  33
ATOM     33  C   UNL A   1      42.840  22.986  26.504  1.00  0.00     0.261 C 
BRANCH  33  34
ATOM     34  O   UNL A   1      41.704  23.859  26.583  1.00  0.00    -0.460 OA
BRANCH  34  35
ATOM     35  C   UNL A   1      41.848  25.075  26.007  1.00  0.00     0.338 C 
ATOM     36  O   UNL A   1      42.157  25.329  24.857  1.00  0.00    -0.246 OA
BRANCH  35  37
ATOM     37  C   UNL A   1      41.381  26.095  26.962  1.00  0.00     0.060 A 
ATOM     38  C   UNL A   1      42.005  27.351  27.002  1.00  0.00     0.016 A 
ATOM     39  C   UNL A   1      40.363  25.772  27.855  1.00  0.00     0.016 A 
ATOM     40  C   UNL A   1      41.605  28.298  27.938  1.00  0.00     0.010 A 
ATOM     41  C   UNL A   1      39.996  26.701  28.826  1.00  0.00     0.010 A 
ATOM     42  C   UNL A   1      40.635  27.953  28.885  1.00  0.00    -0.014 A 
BRANCH  42  43
ATOM     43  C   UNL A   1      40.489  28.779  30.098  1.00  0.00     0.031 A 
ATOM     44  C   UNL A   1      39.417  29.830  30.092  1.00  0.00     0.074 A 
ATOM     45  C   UNL A   1      41.291  28.611  31.162  1.00  0.00     0.049 A 
ATOM     46  N   UNL A   1      39.137  30.738  30.988  1.00  0.00    -0.248 NA
ATOM     47  C   UNL A   1      38.548  29.864  28.904  1.00  0.00     0.031 C 
ATOM     48  C   UNL A   1      42.331  27.592  31.284  1.00  0.00     0.029 A 
ATOM     49  N   UNL A   1      41.361  29.314  32.336  1.00  0.00    -0.354 N 
ATOM     50  C   UNL A   1      38.069  31.456  30.467  1.00  0.00     0.074 A 
ATOM     51  C   UNL A   1      37.770  30.900  29.167  1.00  0.00     0.031 C 
ATOM     52  C   UNL A   1      42.956  27.754  32.464  1.00  0.00     0.029 A 
ATOM     53  C   UNL A   1      42.382  28.907  33.157  1.00  0.00     0.049 A 
ATOM     54  H   UNL A   1      40.738  30.041  32.567  1.00  0.00     0.167 HD
ATOM     55  C   UNL A   1      37.398  32.488  31.027  1.00  0.00     0.037 A 
ATOM     56  C   UNL A   1      42.817  29.434  34.318  1.00  0.00     0.037 A 
ATOM     57  C   UNL A   1      37.728  33.048  32.309  1.00  0.00     0.049 A 
ATOM     58  C   UNL A   1      42.107  30.639  34.884  1.00  0.00     0.074 A 
ATOM     59  C   UNL A   1      37.111  34.088  32.979  1.00  0.00     0.029 A 
ATOM     60  N   UNL A   1      38.783  32.626  33.104  1.00  0.00    -0.354 N 
ATOM     61  N   UNL A   1      41.074  31.295  34.407  1.00  0.00    -0.248 NA
ATOM     62  C   UNL A   1      42.622  31.178  36.151  1.00  0.00     0.031 C 
ATOM     63  C   UNL A   1      37.839  34.344  34.144  1.00  0.00     0.029 A 
ATOM     64  C   UNL A   1      38.859  33.410  34.242  1.00  0.00     0.049 A 
ATOM     65  H   UNL A   1      39.389  31.880  32.891  1.00  0.00     0.167 HD
ATOM     66  C   UNL A   1      40.796  32.297  35.329  1.00  0.00     0.074 A 
ATOM     67  C   UNL A   1      41.762  32.156  36.399  1.00  0.00     0.031 C 
ATOM     68  C   UNL A   1      39.827  33.247  35.299  1.00  0.00     0.037 A 
BRANCH  55  69
ATOM     69  C   UNL A   1      36.287  33.102  30.227  1.00  0.00     0.057 A 
ATOM     70  C   UNL A   1      36.530  33.929  29.121  1.00  0.00     0.134 A 
ATOM     71  C   UNL A   1      34.949  32.862  30.568  1.00  0.00     0.134 A 
ATOM     72  F   UNL A   1      37.787  34.217  28.750  1.00  0.00    -0.206 F 
ATOM     73  C   UNL A   1      35.486  34.520  28.407  1.00  0.00     0.040 A 
ATOM     74  C   UNL A   1      33.897  33.419  29.841  1.00  0.00     0.040 A 
ATOM     75  F   UNL A   1      34.643  32.081  31.615  1.00  0.00    -0.206 F 
ATOM     76  C   UNL A   1      34.165  34.260  28.763  1.00  0.00     0.006 A 
ENDBRANCH  55  69
BRANCH  56  77
ATOM     77  C   UNL A   1      43.992  28.845  35.011  1.00  0.00     0.057 A 
ATOM     78  C   UNL A   1      43.838  27.921  36.051  1.00  0.00     0.134 A 
ATOM     79  C   UNL A   1      45.300  29.209  34.666  1.00  0.00     0.134 A 
ATOM     80  F   UNL A   1      42.612  27.549  36.447  1.00  0.00    -0.206 F 
ATOM     81  C   UNL A   1      44.937  27.399  36.737  1.00  0.00     0.040 A 
ATOM     82  C   UNL A   1      46.408  28.671  35.321  1.00  0.00     0.040 A 
ATOM     83  F   UNL A   1      45.521  30.090  33.678  1.00  0.00    -0.206 F 
ATOM     84  C   UNL A   1      46.228  27.769  36.366  1.00  0.00     0.006 A 
ENDBRANCH  56  77
BRANCH  68  85
ATOM     85  C   UNL A   1      39.729  34.178  36.474  1.00  0.00     0.057 A 
ATOM     86  C   UNL A   1      40.356  35.430  36.490  1.00  0.00     0.134 A 
ATOM     87  C   UNL A   1      38.941  33.837  37.583  1.00  0.00     0.134 A 
ATOM     88  F   UNL A   1      41.130  35.817  35.466  1.00  0.00    -0.206 F 
ATOM     89  C   UNL A   1      40.223  36.299  37.576  1.00  0.00     0.040 A 
ATOM     90  C   UNL A   1      38.772  34.711  38.657  1.00  0.00     0.040 A 
ATOM     91  F   UNL A   1      38.301  32.660  37.627  1.00  0.00    -0.206 F 
ATOM     92  C   UNL A   1      39.421  35.943  38.659  1.00  0.00     0.006 A 
ENDBRANCH  68  85
ENDBRANCH  42  43
ENDBRANCH  35  37
ENDBRANCH  34  35
ENDBRANCH  33  34
ENDBRANCH  32  33
ENDBRANCH  31  32
ENDBRANCH   1  31
TORSDOF 19
ENDMDL
