MODEL 1
REMARK VINA RESULT:     -11.8      0.000      0.000
REMARK SMILES C[C@@H](C(=O)OCCOCCOCCOC(=O)c1ccc(-c2c3nc(c(-c4c(F)cccc4F)c4ccc([nH]4)c(-c4c(F)cccc4F)c4nc(c(-c5c(F)cccc5F)c5ccc2[nH]5)C=C4)C=C3)cc1)c1ccc(-c2cccc(OC(=O)Nc3ccccc3)c2)c(F)c1
REMARK SMILES IDX 8 1 7 2 6 3 5 4 3 5 4 6 2 7 1 8 71 9 72 10 93 11 73 12 91 13
REMARK SMILES IDX 74 14 92 15 75 16 76 17 90 18 77 19 79 20 78 21 80 22 81 23
REMARK SMILES IDX 82 24 83 25 84 27 85 28 89 29 86 30 88 31 87 32 9 33 10 34
REMARK SMILES IDX 11 35 12 36 13 37 14 38 15 39 16 40 17 41 18 42 70 43 19 44
REMARK SMILES IDX 69 45 20 46 21 47 22 48 63 49 23 50 68 51 62 52 64 53 24 54
REMARK SMILES IDX 67 55 61 56 60 57 25 59 51 60 34 61 50 62 35 63 38 64 49 65
REMARK SMILES IDX 65 66 36 67 37 68 48 70 66 71 39 72 26 73 27 74 32 75 28 76
REMARK SMILES IDX 29 77 31 78 33 79 30 80 52 81 53 82 58 83 54 84 55 85 57 86
REMARK SMILES IDX 59 87 56 88 40 89 41 90 46 91 42 92 43 93 45 94 47 95 44 96
REMARK H PARENT 83 26 64 58 38 69
REMARK Flexibility Score: inf
ROOT
ATOM      1  O   UNL A   1      37.829  22.606  26.320  1.00  0.00    -0.376 OA
ENDROOT
BRANCH   1   2
ATOM      2  C   UNL A   1      37.239  22.824  25.042  1.00  0.00     0.202 C 
BRANCH   2   3
ATOM      3  C   UNL A   1      36.534  21.651  24.353  1.00  0.00     0.261 C 
BRANCH   3   4
ATOM      4  O   UNL A   1      35.219  21.398  24.893  1.00  0.00    -0.463 OA
BRANCH   4   5
ATOM      5  C   UNL A   1      34.790  20.108  24.836  1.00  0.00     0.313 C 
ATOM      6  O   UNL A   1      35.551  19.146  24.788  1.00  0.00    -0.252 OA
BRANCH   5   7
ATOM      7  C   UNL A   1      33.259  19.947  24.849  1.00  0.00     0.126 C 
ATOM      8  C   UNL A   1      32.646  18.819  24.015  1.00  0.00     0.025 C 
BRANCH   7   9
ATOM      9  C   UNL A   1      32.522  21.256  24.579  1.00  0.00    -0.031 A 
ATOM     10  C   UNL A   1      32.268  21.717  23.280  1.00  0.00     0.005 A 
ATOM     11  C   UNL A   1      32.080  22.043  25.649  1.00  0.00     0.044 A 
ATOM     12  C   UNL A   1      31.664  22.958  23.054  1.00  0.00     0.012 A 
ATOM     13  C   UNL A   1      31.478  23.282  25.418  1.00  0.00     0.131 A 
ATOM     14  C   UNL A   1      31.287  23.776  24.122  1.00  0.00     0.018 A 
ATOM     15  F   UNL A   1      31.127  24.023  26.479  1.00  0.00    -0.206 F 
BRANCH  14  16
ATOM     16  C   UNL A   1      30.861  25.157  23.875  1.00  0.00    -0.012 A 
ATOM     17  C   UNL A   1      29.543  25.590  24.066  1.00  0.00     0.009 A 
ATOM     18  C   UNL A   1      31.802  26.063  23.355  1.00  0.00     0.056 A 
ATOM     19  C   UNL A   1      29.179  26.904  23.760  1.00  0.00     0.004 A 
ATOM     20  C   UNL A   1      31.435  27.361  23.026  1.00  0.00     0.133 A 
ATOM     21  C   UNL A   1      30.127  27.791  23.245  1.00  0.00     0.047 A 
BRANCH  20  22
ATOM     22  O   UNL A   1      32.316  28.310  22.449  1.00  0.00    -0.410 OA
BRANCH  22  23
ATOM     23  C   UNL A   1      33.693  28.373  22.656  1.00  0.00     0.417 C 
ATOM     24  O   UNL A   1      34.557  28.305  21.783  1.00  0.00    -0.224 OA
ATOM     25  N   UNL A   1      34.091  28.624  23.944  1.00  0.00    -0.291 N 
ATOM     26  H   UNL A   1      35.063  28.746  24.050  1.00  0.00     0.173 HD
BRANCH  25  27
ATOM     27  C   UNL A   1      33.363  28.738  25.136  1.00  0.00     0.044 A 
ATOM     28  C   UNL A   1      32.591  29.898  25.288  1.00  0.00     0.026 A 
ATOM     29  C   UNL A   1      33.352  27.779  26.148  1.00  0.00     0.026 A 
ATOM     30  C   UNL A   1      31.776  30.068  26.409  1.00  0.00     0.002 A 
ATOM     31  C   UNL A   1      32.550  27.958  27.278  1.00  0.00     0.002 A 
ATOM     32  C   UNL A   1      31.754  29.095  27.403  1.00  0.00     0.000 A 
ENDBRANCH  25  27
ENDBRANCH  22  23
ENDBRANCH  20  22
ENDBRANCH  14  16
ENDBRANCH   7   9
ENDBRANCH   5   7
ENDBRANCH   4   5
ENDBRANCH   3   4
ENDBRANCH   2   3
ENDBRANCH   1   2
BRANCH   1  33
ATOM     33  C   UNL A   1      39.238  22.653  26.435  1.00  0.00     0.188 C 
BRANCH  33  34
ATOM     34  C   UNL A   1      40.061  21.378  26.198  1.00  0.00     0.188 C 
BRANCH  34  35
ATOM     35  O   UNL A   1      41.337  21.179  26.774  1.00  0.00    -0.376 OA
BRANCH  35  36
ATOM     36  C   UNL A   1      42.415  20.766  25.958  1.00  0.00     0.202 C 
BRANCH  36  37
ATOM     37  C   UNL A   1      43.481  21.779  25.528  1.00  0.00     0.261 C 
BRANCH  37  38
ATOM     38  O   UNL A   1      42.985  22.961  24.892  1.00  0.00    -0.460 OA
BRANCH  38  39
ATOM     39  C   UNL A   1      43.769  24.058  25.035  1.00  0.00     0.338 C 
ATOM     40  O   UNL A   1      44.790  24.326  24.428  1.00  0.00    -0.246 OA
BRANCH  39  41
ATOM     41  C   UNL A   1      43.104  24.999  25.958  1.00  0.00     0.060 A 
ATOM     42  C   UNL A   1      43.673  26.266  26.145  1.00  0.00     0.016 A 
ATOM     43  C   UNL A   1      41.952  24.630  26.656  1.00  0.00     0.016 A 
ATOM     44  C   UNL A   1      43.103  27.160  27.048  1.00  0.00     0.010 A 
ATOM     45  C   UNL A   1      41.397  25.517  27.582  1.00  0.00     0.010 A 
ATOM     46  C   UNL A   1      41.985  26.775  27.800  1.00  0.00    -0.014 A 
BRANCH  46  47
ATOM     47  C   UNL A   1      41.545  27.610  28.943  1.00  0.00     0.031 A 
ATOM     48  C   UNL A   1      42.321  27.530  30.226  1.00  0.00     0.074 A 
ATOM     49  C   UNL A   1      40.484  28.430  28.845  1.00  0.00     0.049 A 
ATOM     50  N   UNL A   1      42.115  28.147  31.360  1.00  0.00    -0.248 NA
ATOM     51  C   UNL A   1      43.482  26.625  30.231  1.00  0.00     0.031 C 
ATOM     52  C   UNL A   1      39.671  28.609  27.647  1.00  0.00     0.029 A 
ATOM     53  N   UNL A   1      39.918  29.274  29.767  1.00  0.00    -0.354 N 
ATOM     54  C   UNL A   1      43.105  27.689  32.220  1.00  0.00     0.074 A 
ATOM     55  C   UNL A   1      43.909  26.742  31.479  1.00  0.00     0.031 C 
ATOM     56  C   UNL A   1      38.731  29.537  27.893  1.00  0.00     0.029 A 
ATOM     57  C   UNL A   1      38.834  29.971  29.287  1.00  0.00     0.049 A 
ATOM     58  H   UNL A   1      40.255  29.372  30.687  1.00  0.00     0.167 HD
ATOM     59  C   UNL A   1      43.319  28.022  33.514  1.00  0.00     0.037 A 
ATOM     60  C   UNL A   1      38.016  30.846  29.908  1.00  0.00     0.037 A 
ATOM     61  C   UNL A   1      42.512  28.954  34.256  1.00  0.00     0.049 A 
ATOM     62  C   UNL A   1      38.264  31.173  31.362  1.00  0.00     0.074 A 
ATOM     63  C   UNL A   1      42.643  29.346  35.576  1.00  0.00     0.029 A 
ATOM     64  N   UNL A   1      41.418  29.632  33.741  1.00  0.00    -0.354 N 
ATOM     65  N   UNL A   1      39.236  30.777  32.149  1.00  0.00    -0.248 NA
ATOM     66  C   UNL A   1      37.297  32.068  32.017  1.00  0.00     0.031 C 
ATOM     67  C   UNL A   1      41.601  30.231  35.873  1.00  0.00     0.029 A 
ATOM     68  C   UNL A   1      40.852  30.425  34.724  1.00  0.00     0.049 A 
ATOM     69  H   UNL A   1      41.093  29.561  32.815  1.00  0.00     0.167 HD
ATOM     70  C   UNL A   1      39.008  31.388  33.377  1.00  0.00     0.074 A 
ATOM     71  C   UNL A   1      37.831  32.215  33.220  1.00  0.00     0.031 C 
ATOM     72  C   UNL A   1      39.698  31.266  34.538  1.00  0.00     0.037 A 
BRANCH  59  73
ATOM     73  C   UNL A   1      44.445  27.333  34.222  1.00  0.00     0.057 A 
ATOM     74  C   UNL A   1      44.279  26.089  34.844  1.00  0.00     0.134 A 
ATOM     75  C   UNL A   1      45.719  27.915  34.267  1.00  0.00     0.134 A 
ATOM     76  F   UNL A   1      43.079  25.489  34.854  1.00  0.00    -0.206 F 
ATOM     77  C   UNL A   1      45.335  25.458  35.504  1.00  0.00     0.040 A 
ATOM     78  C   UNL A   1      46.788  27.282  34.902  1.00  0.00     0.040 A 
ATOM     79  F   UNL A   1      45.944  29.105  33.691  1.00  0.00    -0.206 F 
ATOM     80  C   UNL A   1      46.595  26.052  35.528  1.00  0.00     0.006 A 
ENDBRANCH  59  73
BRANCH  60  81
ATOM     81  C   UNL A   1      36.879  31.474  29.177  1.00  0.00     0.057 A 
ATOM     82  C   UNL A   1      35.719  30.750  28.877  1.00  0.00     0.134 A 
ATOM     83  C   UNL A   1      36.939  32.794  28.709  1.00  0.00     0.134 A 
ATOM     84  F   UNL A   1      35.613  29.462  29.233  1.00  0.00    -0.206 F 
ATOM     85  C   UNL A   1      34.677  31.305  28.135  1.00  0.00     0.040 A 
ATOM     86  C   UNL A   1      35.882  33.375  28.005  1.00  0.00     0.040 A 
ATOM     87  F   UNL A   1      38.030  33.542  28.926  1.00  0.00    -0.206 F 
ATOM     88  C   UNL A   1      34.747  32.627  27.711  1.00  0.00     0.006 A 
ENDBRANCH  60  81
BRANCH  72  89
ATOM     89  C   UNL A   1      39.222  32.070  35.715  1.00  0.00     0.057 A 
ATOM     90  C   UNL A   1      38.347  31.537  36.671  1.00  0.00     0.134 A 
ATOM     91  C   UNL A   1      39.682  33.377  35.920  1.00  0.00     0.134 A 
ATOM     92  F   UNL A   1      37.861  30.294  36.529  1.00  0.00    -0.206 F 
ATOM     93  C   UNL A   1      37.929  32.282  37.774  1.00  0.00     0.040 A 
ATOM     94  C   UNL A   1      39.293  34.123  37.034  1.00  0.00     0.040 A 
ATOM     95  F   UNL A   1      40.530  33.945  35.049  1.00  0.00    -0.206 F 
ATOM     96  C   UNL A   1      38.408  33.576  37.962  1.00  0.00     0.006 A 
ENDBRANCH  72  89
ENDBRANCH  46  47
ENDBRANCH  39  41
ENDBRANCH  38  39
ENDBRANCH  37  38
ENDBRANCH  36  37
ENDBRANCH  35  36
ENDBRANCH  34  35
ENDBRANCH  33  34
ENDBRANCH   1  33
TORSDOF 22
ENDMDL
MODEL 2
REMARK VINA RESULT:     -11.4      1.170      2.317
REMARK SMILES C[C@@H](C(=O)OCCOCCOCCOC(=O)c1ccc(-c2c3nc(c(-c4c(F)cccc4F)c4ccc([nH]4)c(-c4c(F)cccc4F)c4nc(c(-c5c(F)cccc5F)c5ccc2[nH]5)C=C4)C=C3)cc1)c1ccc(-c2cccc(OC(=O)Nc3ccccc3)c2)c(F)c1
REMARK SMILES IDX 8 1 7 2 6 3 5 4 3 5 4 6 2 7 1 8 71 9 72 10 93 11 73 12 91 13
REMARK SMILES IDX 74 14 92 15 75 16 76 17 90 18 77 19 79 20 78 21 80 22 81 23
REMARK SMILES IDX 82 24 83 25 84 27 85 28 89 29 86 30 88 31 87 32 9 33 10 34
REMARK SMILES IDX 11 35 12 36 13 37 14 38 15 39 16 40 17 41 18 42 70 43 19 44
REMARK SMILES IDX 69 45 20 46 21 47 22 48 63 49 23 50 68 51 62 52 64 53 24 54
REMARK SMILES IDX 67 55 61 56 60 57 25 59 51 60 34 61 50 62 35 63 38 64 49 65
REMARK SMILES IDX 65 66 36 67 37 68 48 70 66 71 39 72 26 73 27 74 32 75 28 76
REMARK SMILES IDX 29 77 31 78 33 79 30 80 52 81 53 82 58 83 54 84 55 85 57 86
REMARK SMILES IDX 59 87 56 88 40 89 41 90 46 91 42 92 43 93 45 94 47 95 44 96
REMARK H PARENT 83 26 64 58 38 69
REMARK Flexibility Score: inf
ROOT
ATOM      1  O   UNL A   1      37.700  22.202  25.188  1.00  0.00    -0.376 OA
ENDROOT
BRANCH   1   2
ATOM      2  C   UNL A   1      37.135  20.954  24.798  1.00  0.00     0.202 C 
BRANCH   2   3
ATOM      3  C   UNL A   1      35.808  20.523  25.431  1.00  0.00     0.261 C 
BRANCH   3   4
ATOM      4  O   UNL A   1      34.738  20.424  24.466  1.00  0.00    -0.463 OA
BRANCH   4   5
ATOM      5  C   UNL A   1      33.518  20.083  24.963  1.00  0.00     0.313 C 
ATOM      6  O   UNL A   1      33.355  19.204  25.804  1.00  0.00    -0.252 OA
BRANCH   5   7
ATOM      7  C   UNL A   1      32.347  20.901  24.389  1.00  0.00     0.126 C 
ATOM      8  C   UNL A   1      32.178  20.947  22.869  1.00  0.00     0.025 C 
BRANCH   7   9
ATOM      9  C   UNL A   1      32.270  22.312  24.967  1.00  0.00    -0.031 A 
ATOM     10  C   UNL A   1      31.057  22.897  25.356  1.00  0.00     0.005 A 
ATOM     11  C   UNL A   1      33.438  23.069  25.118  1.00  0.00     0.044 A 
ATOM     12  C   UNL A   1      30.999  24.219  25.806  1.00  0.00     0.012 A 
ATOM     13  C   UNL A   1      33.373  24.391  25.567  1.00  0.00     0.131 A 
ATOM     14  C   UNL A   1      32.154  24.999  25.890  1.00  0.00     0.018 A 
ATOM     15  F   UNL A   1      34.515  25.091  25.638  1.00  0.00    -0.206 F 
BRANCH  14  16
ATOM     16  C   UNL A   1      32.053  26.438  26.150  1.00  0.00    -0.012 A 
ATOM     17  C   UNL A   1      31.665  26.959  27.390  1.00  0.00     0.009 A 
ATOM     18  C   UNL A   1      32.285  27.326  25.085  1.00  0.00     0.056 A 
ATOM     19  C   UNL A   1      31.529  28.339  27.566  1.00  0.00     0.004 A 
ATOM     20  C   UNL A   1      32.124  28.695  25.252  1.00  0.00     0.133 A 
ATOM     21  C   UNL A   1      31.764  29.207  26.498  1.00  0.00     0.047 A 
BRANCH  20  22
ATOM     22  O   UNL A   1      32.288  29.644  24.211  1.00  0.00    -0.410 OA
BRANCH  22  23
ATOM     23  C   UNL A   1      32.440  29.348  22.857  1.00  0.00     0.417 C 
ATOM     24  O   UNL A   1      33.491  29.025  22.304  1.00  0.00    -0.224 OA
ATOM     25  N   UNL A   1      31.286  29.334  22.118  1.00  0.00    -0.291 N 
ATOM     26  H   UNL A   1      31.408  29.042  21.185  1.00  0.00     0.173 HD
BRANCH  25  27
ATOM     27  C   UNL A   1      29.965  29.661  22.451  1.00  0.00     0.044 A 
ATOM     28  C   UNL A   1      29.085  28.587  22.645  1.00  0.00     0.026 A 
ATOM     29  C   UNL A   1      29.491  30.962  22.611  1.00  0.00     0.026 A 
ATOM     30  C   UNL A   1      27.768  28.811  23.048  1.00  0.00     0.002 A 
ATOM     31  C   UNL A   1      28.167  31.187  22.998  1.00  0.00     0.002 A 
ATOM     32  C   UNL A   1      27.310  30.112  23.228  1.00  0.00     0.000 A 
ENDBRANCH  25  27
ENDBRANCH  22  23
ENDBRANCH  20  22
ENDBRANCH  14  16
ENDBRANCH   7   9
ENDBRANCH   5   7
ENDBRANCH   4   5
ENDBRANCH   3   4
ENDBRANCH   2   3
ENDBRANCH   1   2
BRANCH   1  33
ATOM     33  C   UNL A   1      38.801  22.203  26.075  1.00  0.00     0.188 C 
BRANCH  33  34
ATOM     34  C   UNL A   1      39.806  21.042  26.037  1.00  0.00     0.188 C 
BRANCH  34  35
ATOM     35  O   UNL A   1      41.041  21.083  26.724  1.00  0.00    -0.376 OA
BRANCH  35  36
ATOM     36  C   UNL A   1      42.197  20.540  26.117  1.00  0.00     0.202 C 
BRANCH  36  37
ATOM     37  C   UNL A   1      43.247  21.471  25.503  1.00  0.00     0.261 C 
BRANCH  37  38
ATOM     38  O   UNL A   1      42.734  22.662  24.898  1.00  0.00    -0.460 OA
BRANCH  38  39
ATOM     39  C   UNL A   1      43.549  23.743  24.985  1.00  0.00     0.338 C 
ATOM     40  O   UNL A   1      44.559  23.967  24.344  1.00  0.00    -0.246 OA
BRANCH  39  41
ATOM     41  C   UNL A   1      42.932  24.729  25.896  1.00  0.00     0.060 A 
ATOM     42  C   UNL A   1      43.560  25.971  26.059  1.00  0.00     0.016 A 
ATOM     43  C   UNL A   1      41.769  24.424  26.606  1.00  0.00     0.016 A 
ATOM     44  C   UNL A   1      43.036  26.905  26.950  1.00  0.00     0.010 A 
ATOM     45  C   UNL A   1      41.260  25.350  27.519  1.00  0.00     0.010 A 
ATOM     46  C   UNL A   1      41.905  26.584  27.714  1.00  0.00    -0.014 A 
BRANCH  46  47
ATOM     47  C   UNL A   1      41.510  27.456  28.845  1.00  0.00     0.031 A 
ATOM     48  C   UNL A   1      42.309  27.386  30.114  1.00  0.00     0.074 A 
ATOM     49  C   UNL A   1      40.470  28.302  28.747  1.00  0.00     0.049 A 
ATOM     50  N   UNL A   1      42.143  28.035  31.237  1.00  0.00    -0.248 NA
ATOM     51  C   UNL A   1      43.447  26.451  30.118  1.00  0.00     0.031 C 
ATOM     52  C   UNL A   1      39.638  28.474  27.562  1.00  0.00     0.029 A 
ATOM     53  N   UNL A   1      39.944  29.182  29.660  1.00  0.00    -0.354 N 
ATOM     54  C   UNL A   1      43.138  27.571  32.088  1.00  0.00     0.074 A 
ATOM     55  C   UNL A   1      43.901  26.586  31.355  1.00  0.00     0.031 C 
ATOM     56  C   UNL A   1      38.727  29.432  27.804  1.00  0.00     0.029 A 
ATOM     57  C   UNL A   1      38.869  29.896  29.184  1.00  0.00     0.049 A 
ATOM     58  H   UNL A   1      40.302  29.292  30.571  1.00  0.00     0.167 HD
ATOM     59  C   UNL A   1      43.386  27.928  33.370  1.00  0.00     0.037 A 
ATOM     60  C   UNL A   1      38.087  30.807  29.800  1.00  0.00     0.037 A 
ATOM     61  C   UNL A   1      42.619  28.898  34.104  1.00  0.00     0.049 A 
ATOM     62  C   UNL A   1      38.373  31.161  31.241  1.00  0.00     0.074 A 
ATOM     63  C   UNL A   1      42.786  29.318  35.412  1.00  0.00     0.029 A 
ATOM     64  N   UNL A   1      41.532  29.593  33.595  1.00  0.00    -0.354 N 
ATOM     65  N   UNL A   1      39.350  30.757  32.018  1.00  0.00    -0.248 NA
ATOM     66  C   UNL A   1      37.442  32.096  31.893  1.00  0.00     0.031 C 
ATOM     67  C   UNL A   1      41.773  30.236  35.708  1.00  0.00     0.029 A 
ATOM     68  C   UNL A   1      41.006  30.423  34.569  1.00  0.00     0.049 A 
ATOM     69  H   UNL A   1      41.187  29.509  32.677  1.00  0.00     0.167 HD
ATOM     70  C   UNL A   1      39.162  31.403  33.235  1.00  0.00     0.074 A 
ATOM     71  C   UNL A   1      38.004  32.257  33.082  1.00  0.00     0.031 C 
ATOM     72  C   UNL A   1      39.871  31.290  34.386  1.00  0.00     0.037 A 
BRANCH  59  73
ATOM     73  C   UNL A   1      44.508  27.226  34.072  1.00  0.00     0.057 A 
ATOM     74  C   UNL A   1      44.328  25.989  34.702  1.00  0.00     0.134 A 
ATOM     75  C   UNL A   1      45.790  27.789  34.103  1.00  0.00     0.134 A 
ATOM     76  F   UNL A   1      43.119  25.407  34.726  1.00  0.00    -0.206 F 
ATOM     77  C   UNL A   1      45.380  25.345  35.357  1.00  0.00     0.040 A 
ATOM     78  C   UNL A   1      46.855  27.144  34.732  1.00  0.00     0.040 A 
ATOM     79  F   UNL A   1      46.028  28.972  33.518  1.00  0.00    -0.206 F 
ATOM     80  C   UNL A   1      46.649  25.920  35.367  1.00  0.00     0.006 A 
ENDBRANCH  59  73
BRANCH  60  81
ATOM     81  C   UNL A   1      36.952  31.447  29.077  1.00  0.00     0.057 A 
ATOM     82  C   UNL A   1      37.020  32.779  28.652  1.00  0.00     0.134 A 
ATOM     83  C   UNL A   1      35.750  30.767  28.838  1.00  0.00     0.134 A 
ATOM     84  F   UNL A   1      38.112  33.515  28.901  1.00  0.00    -0.206 F 
ATOM     85  C   UNL A   1      35.939  33.410  28.035  1.00  0.00     0.040 A 
ATOM     86  C   UNL A   1      34.678  31.375  28.179  1.00  0.00     0.040 A 
ATOM     87  F   UNL A   1      35.594  29.499  29.245  1.00  0.00    -0.206 F 
ATOM     88  C   UNL A   1      34.769  32.704  27.780  1.00  0.00     0.006 A 
ENDBRANCH  60  81
BRANCH  72  89
ATOM     89  C   UNL A   1      39.440  32.134  35.552  1.00  0.00     0.057 A 
ATOM     90  C   UNL A   1      39.938  33.427  35.754  1.00  0.00     0.134 A 
ATOM     91  C   UNL A   1      38.479  31.664  36.456  1.00  0.00     0.134 A 
ATOM     92  F   UNL A   1      40.868  33.934  34.930  1.00  0.00    -0.206 F 
ATOM     93  C   UNL A   1      39.514  34.213  36.826  1.00  0.00     0.040 A 
ATOM     94  C   UNL A   1      38.025  32.451  37.516  1.00  0.00     0.040 A 
ATOM     95  F   UNL A   1      37.951  30.438  36.315  1.00  0.00    -0.206 F 
ATOM     96  C   UNL A   1      38.549  33.728  37.706  1.00  0.00     0.006 A 
ENDBRANCH  72  89
ENDBRANCH  46  47
ENDBRANCH  39  41
ENDBRANCH  38  39
ENDBRANCH  37  38
ENDBRANCH  36  37
ENDBRANCH  35  36
ENDBRANCH  34  35
ENDBRANCH  33  34
ENDBRANCH   1  33
TORSDOF 22
ENDMDL
MODEL 3
REMARK VINA RESULT:     -11.1      4.555     10.253
REMARK SMILES C[C@@H](C(=O)OCCOCCOCCOC(=O)c1ccc(-c2c3nc(c(-c4c(F)cccc4F)c4ccc([nH]4)c(-c4c(F)cccc4F)c4nc(c(-c5c(F)cccc5F)c5ccc2[nH]5)C=C4)C=C3)cc1)c1ccc(-c2cccc(OC(=O)Nc3ccccc3)c2)c(F)c1
REMARK SMILES IDX 8 1 7 2 6 3 5 4 3 5 4 6 2 7 1 8 71 9 72 10 93 11 73 12 91 13
REMARK SMILES IDX 74 14 92 15 75 16 76 17 90 18 77 19 79 20 78 21 80 22 81 23
REMARK SMILES IDX 82 24 83 25 84 27 85 28 89 29 86 30 88 31 87 32 9 33 10 34
REMARK SMILES IDX 11 35 12 36 13 37 14 38 15 39 16 40 17 41 18 42 70 43 19 44
REMARK SMILES IDX 69 45 20 46 21 47 22 48 63 49 23 50 68 51 62 52 64 53 24 54
REMARK SMILES IDX 67 55 61 56 60 57 25 59 51 60 34 61 50 62 35 63 38 64 49 65
REMARK SMILES IDX 65 66 36 67 37 68 48 70 66 71 39 72 26 73 27 74 32 75 28 76
REMARK SMILES IDX 29 77 31 78 33 79 30 80 52 81 53 82 58 83 54 84 55 85 57 86
REMARK SMILES IDX 59 87 56 88 40 89 41 90 46 91 42 92 43 93 45 94 47 95 44 96
REMARK H PARENT 83 26 64 58 38 69
REMARK Flexibility Score: inf
ROOT
ATOM      1  O   UNL A   1      34.769  34.430  29.262  1.00  0.00    -0.376 OA
ENDROOT
BRANCH   1   2
ATOM      2  C   UNL A   1      33.882  33.375  28.901  1.00  0.00     0.202 C 
BRANCH   2   3
ATOM      3  C   UNL A   1      34.349  32.350  27.864  1.00  0.00     0.261 C 
BRANCH   3   4
ATOM      4  O   UNL A   1      33.254  31.618  27.272  1.00  0.00    -0.463 OA
BRANCH   4   5
ATOM      5  C   UNL A   1      33.473  30.293  27.050  1.00  0.00     0.313 C 
ATOM      6  O   UNL A   1      34.231  29.612  27.734  1.00  0.00    -0.252 OA
BRANCH   5   7
ATOM      7  C   UNL A   1      32.680  29.708  25.868  1.00  0.00     0.126 C 
ATOM      8  C   UNL A   1      31.258  30.221  25.630  1.00  0.00     0.025 C 
BRANCH   7   9
ATOM      9  C   UNL A   1      32.696  28.181  25.841  1.00  0.00    -0.031 A 
ATOM     10  C   UNL A   1      31.707  27.411  26.469  1.00  0.00     0.005 A 
ATOM     11  C   UNL A   1      33.726  27.505  25.176  1.00  0.00     0.044 A 
ATOM     12  C   UNL A   1      31.784  26.016  26.502  1.00  0.00     0.012 A 
ATOM     13  C   UNL A   1      33.798  26.110  25.213  1.00  0.00     0.131 A 
ATOM     14  C   UNL A   1      32.850  25.343  25.900  1.00  0.00     0.018 A 
ATOM     15  F   UNL A   1      34.838  25.515  24.610  1.00  0.00    -0.206 F 
BRANCH  14  16
ATOM     16  C   UNL A   1      33.036  23.907  26.128  1.00  0.00    -0.012 A 
ATOM     17  C   UNL A   1      33.213  23.358  27.405  1.00  0.00     0.009 A 
ATOM     18  C   UNL A   1      33.113  23.058  25.011  1.00  0.00     0.056 A 
ATOM     19  C   UNL A   1      33.444  21.989  27.560  1.00  0.00     0.004 A 
ATOM     20  C   UNL A   1      33.369  21.701  25.162  1.00  0.00     0.133 A 
ATOM     21  C   UNL A   1      33.516  21.160  26.439  1.00  0.00     0.047 A 
BRANCH  20  22
ATOM     22  O   UNL A   1      33.512  20.797  24.080  1.00  0.00    -0.410 OA
BRANCH  22  23
ATOM     23  C   UNL A   1      32.512  20.448  23.174  1.00  0.00     0.417 C 
ATOM     24  O   UNL A   1      31.890  21.225  22.451  1.00  0.00    -0.224 OA
ATOM     25  N   UNL A   1      32.284  19.104  23.029  1.00  0.00    -0.291 N 
ATOM     26  H   UNL A   1      31.632  18.878  22.325  1.00  0.00     0.173 HD
BRANCH  25  27
ATOM     27  C   UNL A   1      32.810  17.994  23.703  1.00  0.00     0.044 A 
ATOM     28  C   UNL A   1      32.295  17.736  24.981  1.00  0.00     0.026 A 
ATOM     29  C   UNL A   1      33.784  17.144  23.181  1.00  0.00     0.026 A 
ATOM     30  C   UNL A   1      32.706  16.612  25.700  1.00  0.00     0.002 A 
ATOM     31  C   UNL A   1      34.208  16.029  23.909  1.00  0.00     0.002 A 
ATOM     32  C   UNL A   1      33.661  15.756  25.162  1.00  0.00     0.000 A 
ENDBRANCH  25  27
ENDBRANCH  22  23
ENDBRANCH  20  22
ENDBRANCH  14  16
ENDBRANCH   7   9
ENDBRANCH   5   7
ENDBRANCH   4   5
ENDBRANCH   3   4
ENDBRANCH   2   3
ENDBRANCH   1   2
BRANCH   1  33
ATOM     33  C   UNL A   1      34.248  35.553  29.945  1.00  0.00     0.188 C 
BRANCH  33  34
ATOM     34  C   UNL A   1      33.292  35.344  31.130  1.00  0.00     0.188 C 
BRANCH  34  35
ATOM     35  O   UNL A   1      33.461  36.004  32.368  1.00  0.00    -0.376 OA
BRANCH  35  36
ATOM     36  C   UNL A   1      34.684  35.878  33.066  1.00  0.00     0.202 C 
BRANCH  36  37
ATOM     37  C   UNL A   1      35.121  34.513  33.605  1.00  0.00     0.261 C 
BRANCH  37  38
ATOM     38  O   UNL A   1      35.990  33.764  32.749  1.00  0.00    -0.460 OA
BRANCH  38  39
ATOM     39  C   UNL A   1      35.474  32.598  32.289  1.00  0.00     0.338 C 
ATOM     40  O   UNL A   1      34.303  32.264  32.259  1.00  0.00    -0.246 OA
BRANCH  39  41
ATOM     41  C   UNL A   1      36.556  31.815  31.660  1.00  0.00     0.060 A 
ATOM     42  C   UNL A   1      37.545  31.262  32.484  1.00  0.00     0.016 A 
ATOM     43  C   UNL A   1      36.616  31.653  30.275  1.00  0.00     0.016 A 
ATOM     44  C   UNL A   1      38.610  30.562  31.921  1.00  0.00     0.010 A 
ATOM     45  C   UNL A   1      37.698  30.974  29.709  1.00  0.00     0.010 A 
ATOM     46  C   UNL A   1      38.713  30.449  30.528  1.00  0.00    -0.014 A 
BRANCH  46  47
ATOM     47  C   UNL A   1      39.969  29.948  29.922  1.00  0.00     0.031 A 
ATOM     48  C   UNL A   1      41.135  30.888  29.816  1.00  0.00     0.074 A 
ATOM     49  C   UNL A   1      40.079  28.682  29.482  1.00  0.00     0.049 A 
ATOM     50  N   UNL A   1      42.323  30.683  29.309  1.00  0.00    -0.248 NA
ATOM     51  C   UNL A   1      40.930  32.245  30.349  1.00  0.00     0.031 C 
ATOM     52  C   UNL A   1      39.026  27.675  29.553  1.00  0.00     0.029 A 
ATOM     53  N   UNL A   1      41.134  28.027  28.897  1.00  0.00    -0.354 N 
ATOM     54  C   UNL A   1      42.999  31.890  29.440  1.00  0.00     0.074 A 
ATOM     55  C   UNL A   1      42.090  32.821  30.071  1.00  0.00     0.031 C 
ATOM     56  C   UNL A   1      39.498  26.515  29.067  1.00  0.00     0.029 A 
ATOM     57  C   UNL A   1      40.867  26.713  28.590  1.00  0.00     0.049 A 
ATOM     58  H   UNL A   1      42.001  28.457  28.714  1.00  0.00     0.167 HD
ATOM     59  C   UNL A   1      44.261  32.196  29.059  1.00  0.00     0.037 A 
ATOM     60  C   UNL A   1      41.638  25.787  27.982  1.00  0.00     0.037 A 
ATOM     61  C   UNL A   1      45.161  31.274  28.419  1.00  0.00     0.049 A 
ATOM     62  C   UNL A   1      43.031  26.170  27.543  1.00  0.00     0.074 A 
ATOM     63  C   UNL A   1      46.456  31.495  27.985  1.00  0.00     0.029 A 
ATOM     64  N   UNL A   1      44.854  29.956  28.115  1.00  0.00    -0.354 N 
ATOM     65  N   UNL A   1      43.680  27.297  27.722  1.00  0.00    -0.248 NA
ATOM     66  C   UNL A   1      43.801  25.152  26.811  1.00  0.00     0.031 C 
ATOM     67  C   UNL A   1      46.918  30.323  27.378  1.00  0.00     0.029 A 
ATOM     68  C   UNL A   1      45.928  29.358  27.479  1.00  0.00     0.049 A 
ATOM     69  H   UNL A   1      44.000  29.513  28.321  1.00  0.00     0.167 HD
ATOM     70  C   UNL A   1      44.932  27.114  27.146  1.00  0.00     0.074 A 
ATOM     71  C   UNL A   1      44.970  25.755  26.650  1.00  0.00     0.031 C 
ATOM     72  C   UNL A   1      45.957  27.993  27.021  1.00  0.00     0.037 A 
BRANCH  59  73
ATOM     73  C   UNL A   1      44.722  33.603  29.283  1.00  0.00     0.057 A 
ATOM     74  C   UNL A   1      45.439  33.975  30.427  1.00  0.00     0.134 A 
ATOM     75  C   UNL A   1      44.457  34.598  28.332  1.00  0.00     0.134 A 
ATOM     76  F   UNL A   1      45.706  33.074  31.385  1.00  0.00    -0.206 F 
ATOM     77  C   UNL A   1      45.860  35.291  30.627  1.00  0.00     0.040 A 
ATOM     78  C   UNL A   1      44.895  35.910  28.509  1.00  0.00     0.040 A 
ATOM     79  F   UNL A   1      43.774  34.306  27.215  1.00  0.00    -0.206 F 
ATOM     80  C   UNL A   1      45.593  36.261  29.662  1.00  0.00     0.006 A 
ENDBRANCH  59  73
BRANCH  60  81
ATOM     81  C   UNL A   1      41.121  24.411  27.738  1.00  0.00     0.057 A 
ATOM     82  C   UNL A   1      41.608  23.313  28.457  1.00  0.00     0.134 A 
ATOM     83  C   UNL A   1      40.169  24.144  26.744  1.00  0.00     0.134 A 
ATOM     84  F   UNL A   1      42.567  23.478  29.379  1.00  0.00    -0.206 F 
ATOM     85  C   UNL A   1      41.183  22.012  28.190  1.00  0.00     0.040 A 
ATOM     86  C   UNL A   1      39.701  22.850  26.500  1.00  0.00     0.040 A 
ATOM     87  F   UNL A   1      39.679  25.138  25.989  1.00  0.00    -0.206 F 
ATOM     88  C   UNL A   1      40.213  21.777  27.222  1.00  0.00     0.006 A 
ENDBRANCH  60  81
BRANCH  72  89
ATOM     89  C   UNL A   1      47.213  27.505  26.358  1.00  0.00     0.057 A 
ATOM     90  C   UNL A   1      47.425  27.643  24.980  1.00  0.00     0.134 A 
ATOM     91  C   UNL A   1      48.244  26.932  27.115  1.00  0.00     0.134 A 
ATOM     92  F   UNL A   1      46.474  28.174  24.197  1.00  0.00    -0.206 F 
ATOM     93  C   UNL A   1      48.605  27.209  24.376  1.00  0.00     0.040 A 
ATOM     94  C   UNL A   1      49.441  26.520  26.526  1.00  0.00     0.040 A 
ATOM     95  F   UNL A   1      48.112  26.780  28.441  1.00  0.00    -0.206 F 
ATOM     96  C   UNL A   1      49.620  26.652  25.151  1.00  0.00     0.006 A 
ENDBRANCH  72  89
ENDBRANCH  46  47
ENDBRANCH  39  41
ENDBRANCH  38  39
ENDBRANCH  37  38
ENDBRANCH  36  37
ENDBRANCH  35  36
ENDBRANCH  34  35
ENDBRANCH  33  34
ENDBRANCH   1  33
TORSDOF 22
ENDMDL
