MODEL 1
REMARK VINA RESULT:     -10.7      0.000      0.000
REMARK SMILES O=C(C[NH+]1CCN(c2ncc(C(F)(F)F)cc2Cl)CC1)OCCOCCOCCOC(=O)c1ccc(-c2c3nc(c(-c4c(F)cccc4F)c4ccc([nH]4)c(-c4c(F)cccc4F)c4nc(c(-c5c(F)cccc5F)c5ccc2[nH]5)C=C4)C=C3)cc1
REMARK SMILES IDX 25 1 24 2 23 3 22 4 21 5 2 6 1 7 3 8 4 9 5 10 20 11 6 13
REMARK SMILES IDX 19 14 7 15 8 16 9 17 17 18 10 19 16 20 18 21 11 22 12 23
REMARK SMILES IDX 13 24 14 25 15 26 26 27 27 28 28 29 29 30 30 31 31 32 32 33
REMARK SMILES IDX 33 34 34 35 86 36 35 37 85 38 36 39 37 40 38 41 79 42 39 43
REMARK SMILES IDX 84 44 78 45 80 46 40 47 83 48 77 49 76 50 41 52 67 53 50 54
REMARK SMILES IDX 66 55 51 56 54 57 65 58 81 59 52 60 53 61 64 63 82 64 55 65
REMARK SMILES IDX 42 66 43 67 48 68 44 69 45 70 47 71 49 72 46 73 68 74 69 75
REMARK SMILES IDX 74 76 70 77 71 78 73 79 75 80 72 81 56 82 57 83 62 84 58 85
REMARK SMILES IDX 59 86 61 87 63 88 60 89
REMARK H PARENT 4 12 80 51 54 62
REMARK Flexibility Score: inf
ROOT
ATOM      1  C   UNL A   1      33.656  31.555  27.498  1.00  0.00     0.188 C 
ENDROOT
BRANCH   1   2
ATOM      2  O   UNL A   1      33.249  30.202  27.681  1.00  0.00    -0.376 OA
BRANCH   2   3
ATOM      3  C   UNL A   1      33.390  29.327  26.565  1.00  0.00     0.202 C 
BRANCH   3   4
ATOM      4  C   UNL A   1      32.650  29.804  25.316  1.00  0.00     0.261 C 
BRANCH   4   5
ATOM      5  O   UNL A   1      31.453  29.041  25.123  1.00  0.00    -0.459 OA
BRANCH   5   6
ATOM      6  C   UNL A   1      31.023  28.866  23.844  1.00  0.00     0.361 C 
ATOM      7  O   UNL A   1      29.926  29.287  23.490  1.00  0.00    -0.245 OA
BRANCH   6   8
ATOM      8  C   UNL A   1      31.860  27.913  22.982  1.00  0.00     0.386 C 
BRANCH   8   9
ATOM      9  N   UNL A   1      31.172  26.640  22.690  1.00  0.00    -0.323 N 
ATOM     10  C   UNL A   1      32.011  25.703  21.894  1.00  0.00     0.284 C 
ATOM     11  C   UNL A   1      30.791  25.942  23.948  1.00  0.00     0.284 C 
ATOM     12  H   UNL A   1      30.346  26.892  22.147  1.00  0.00     0.348 HD
ATOM     13  C   UNL A   1      33.254  25.139  22.613  1.00  0.00     0.179 C 
ATOM     14  C   UNL A   1      31.945  25.246  24.728  1.00  0.00     0.179 C 
ATOM     15  N   UNL A   1      32.811  24.485  23.835  1.00  0.00    -0.344 N 
BRANCH  15  16
ATOM     16  C   UNL A   1      33.109  23.153  23.964  1.00  0.00     0.147 A 
ATOM     17  N   UNL A   1      32.206  22.300  23.413  1.00  0.00    -0.237 NA
ATOM     18  C   UNL A   1      34.188  22.656  24.710  1.00  0.00     0.084 A 
ATOM     19  C   UNL A   1      32.377  20.967  23.574  1.00  0.00     0.126 A 
ATOM     20  C   UNL A   1      34.327  21.276  24.884  1.00  0.00     0.039 A 
ATOM     21  Cl  UNL A   1      35.316  23.659  25.547  1.00  0.00    -0.080 Cl
ATOM     22  C   UNL A   1      33.406  20.404  24.308  1.00  0.00     0.075 A 
BRANCH  22  23
ATOM     23  C   UNL A   1      33.485  18.920  24.473  1.00  0.00     0.417 C 
ATOM     24  F   UNL A   1      34.749  18.445  24.305  1.00  0.00    -0.166 F 
ATOM     25  F   UNL A   1      33.089  18.511  25.707  1.00  0.00    -0.166 F 
ATOM     26  F   UNL A   1      32.710  18.238  23.586  1.00  0.00    -0.166 F 
ENDBRANCH  22  23
ENDBRANCH  15  16
ENDBRANCH   8   9
ENDBRANCH   6   8
ENDBRANCH   5   6
ENDBRANCH   4   5
ENDBRANCH   3   4
ENDBRANCH   2   3
ENDBRANCH   1   2
BRANCH   1  27
ATOM     27  C   UNL A   1      34.446  32.239  28.619  1.00  0.00     0.188 C 
BRANCH  27  28
ATOM     28  O   UNL A   1      33.907  33.307  29.386  1.00  0.00    -0.376 OA
BRANCH  28  29
ATOM     29  C   UNL A   1      34.726  34.061  30.259  1.00  0.00     0.202 C 
BRANCH  29  30
ATOM     30  C   UNL A   1      34.473  33.784  31.742  1.00  0.00     0.261 C 
BRANCH  30  31
ATOM     31  O   UNL A   1      34.694  32.414  32.117  1.00  0.00    -0.460 OA
BRANCH  31  32
ATOM     32  C   UNL A   1      35.802  32.202  32.866  1.00  0.00     0.338 C 
ATOM     33  O   UNL A   1      36.037  32.638  33.980  1.00  0.00    -0.246 OA
BRANCH  32  34
ATOM     34  C   UNL A   1      36.731  31.285  32.173  1.00  0.00     0.060 A 
ATOM     35  C   UNL A   1      37.880  30.879  32.862  1.00  0.00     0.016 A 
ATOM     36  C   UNL A   1      36.556  30.945  30.829  1.00  0.00     0.016 A 
ATOM     37  C   UNL A   1      38.894  30.199  32.188  1.00  0.00     0.010 A 
ATOM     38  C   UNL A   1      37.577  30.268  30.152  1.00  0.00     0.010 A 
ATOM     39  C   UNL A   1      38.771  29.940  30.816  1.00  0.00    -0.014 A 
BRANCH  39  40
ATOM     40  C   UNL A   1      39.968  29.509  30.050  1.00  0.00     0.031 A 
ATOM     41  C   UNL A   1      41.103  30.482  29.866  1.00  0.00     0.074 A 
ATOM     42  C   UNL A   1      40.074  28.259  29.570  1.00  0.00     0.049 A 
ATOM     43  N   UNL A   1      42.254  30.315  29.264  1.00  0.00    -0.248 NA
ATOM     44  C   UNL A   1      40.914  31.825  30.438  1.00  0.00     0.031 C 
ATOM     45  C   UNL A   1      39.062  27.213  29.700  1.00  0.00     0.029 A 
ATOM     46  N   UNL A   1      41.095  27.660  28.876  1.00  0.00    -0.354 N 
ATOM     47  C   UNL A   1      42.923  31.526  29.383  1.00  0.00     0.074 A 
ATOM     48  C   UNL A   1      42.039  32.430  30.088  1.00  0.00     0.031 C 
ATOM     49  C   UNL A   1      39.519  26.093  29.112  1.00  0.00     0.029 A 
ATOM     50  C   UNL A   1      40.840  26.353  28.543  1.00  0.00     0.049 A 
ATOM     51  H   UNL A   1      41.931  28.123  28.639  1.00  0.00     0.167 HD
ATOM     52  C   UNL A   1      44.165  31.857  28.955  1.00  0.00     0.037 A 
ATOM     53  C   UNL A   1      41.588  25.472  27.849  1.00  0.00     0.037 A 
ATOM     54  C   UNL A   1      45.051  30.965  28.257  1.00  0.00     0.049 A 
ATOM     55  C   UNL A   1      42.939  25.883  27.329  1.00  0.00     0.074 A 
ATOM     56  C   UNL A   1      46.337  31.205  27.805  1.00  0.00     0.029 A 
ATOM     57  N   UNL A   1      44.740  29.662  27.903  1.00  0.00    -0.354 N 
ATOM     58  N   UNL A   1      43.575  27.020  27.477  1.00  0.00    -0.248 NA
ATOM     59  C   UNL A   1      43.678  24.883  26.543  1.00  0.00     0.031 C 
ATOM     60  C   UNL A   1      46.788  30.059  27.141  1.00  0.00     0.029 A 
ATOM     61  C   UNL A   1      45.799  29.093  27.216  1.00  0.00     0.049 A 
ATOM     62  H   UNL A   1      43.890  29.209  28.108  1.00  0.00     0.167 HD
ATOM     63  C   UNL A   1      44.796  26.861  26.832  1.00  0.00     0.074 A 
ATOM     64  C   UNL A   1      44.816  25.517  26.296  1.00  0.00     0.031 C 
ATOM     65  C   UNL A   1      45.811  27.750  26.696  1.00  0.00     0.037 A 
BRANCH  52  66
ATOM     66  C   UNL A   1      44.629  33.259  29.215  1.00  0.00     0.057 A 
ATOM     67  C   UNL A   1      45.312  33.604  30.389  1.00  0.00     0.134 A 
ATOM     68  C   UNL A   1      44.408  34.270  28.273  1.00  0.00     0.134 A 
ATOM     69  F   UNL A   1      45.541  32.684  31.337  1.00  0.00    -0.206 F 
ATOM     70  C   UNL A   1      45.740  34.912  30.625  1.00  0.00     0.040 A 
ATOM     71  C   UNL A   1      44.851  35.576  28.486  1.00  0.00     0.040 A 
ATOM     72  F   UNL A   1      43.763  34.004  27.126  1.00  0.00    -0.206 F 
ATOM     73  C   UNL A   1      45.514  35.901  29.669  1.00  0.00     0.006 A 
ENDBRANCH  52  66
BRANCH  53  74
ATOM     74  C   UNL A   1      41.079  24.101  27.602  1.00  0.00     0.057 A 
ATOM     75  C   UNL A   1      41.600  23.002  28.294  1.00  0.00     0.134 A 
ATOM     76  C   UNL A   1      40.085  23.853  26.648  1.00  0.00     0.134 A 
ATOM     77  F   UNL A   1      42.572  23.174  29.201  1.00  0.00    -0.206 F 
ATOM     78  C   UNL A   1      41.162  21.702  28.037  1.00  0.00     0.040 A 
ATOM     79  C   UNL A   1      39.623  22.561  26.395  1.00  0.00     0.040 A 
ATOM     80  F   UNL A   1      39.549  24.865  25.949  1.00  0.00    -0.206 F 
ATOM     81  C   UNL A   1      40.167  21.480  27.086  1.00  0.00     0.006 A 
ENDBRANCH  53  74
BRANCH  65  82
ATOM     82  C   UNL A   1      47.043  27.286  25.975  1.00  0.00     0.057 A 
ATOM     83  C   UNL A   1      48.096  26.652  26.644  1.00  0.00     0.134 A 
ATOM     84  C   UNL A   1      47.158  27.444  24.588  1.00  0.00     0.134 A 
ATOM     85  F   UNL A   1      48.052  26.480  27.974  1.00  0.00    -0.206 F 
ATOM     86  C   UNL A   1      49.232  26.211  25.962  1.00  0.00     0.040 A 
ATOM     87  C   UNL A   1      48.278  26.988  23.892  1.00  0.00     0.040 A 
ATOM     88  F   UNL A   1      46.180  28.036  23.887  1.00  0.00    -0.206 F 
ATOM     89  C   UNL A   1      49.322  26.374  24.581  1.00  0.00     0.006 A 
ENDBRANCH  65  82
ENDBRANCH  39  40
ENDBRANCH  32  34
ENDBRANCH  31  32
ENDBRANCH  30  31
ENDBRANCH  29  30
ENDBRANCH  28  29
ENDBRANCH  27  28
ENDBRANCH   1  27
TORSDOF 20
ENDMDL
MODEL 2
REMARK VINA RESULT:     -10.7      5.375     10.054
REMARK SMILES O=C(C[NH+]1CCN(c2ncc(C(F)(F)F)cc2Cl)CC1)OCCOCCOCCOC(=O)c1ccc(-c2c3nc(c(-c4c(F)cccc4F)c4ccc([nH]4)c(-c4c(F)cccc4F)c4nc(c(-c5c(F)cccc5F)c5ccc2[nH]5)C=C4)C=C3)cc1
REMARK SMILES IDX 25 1 24 2 23 3 22 4 21 5 2 6 1 7 3 8 4 9 5 10 20 11 6 13
REMARK SMILES IDX 19 14 7 15 8 16 9 17 17 18 10 19 16 20 18 21 11 22 12 23
REMARK SMILES IDX 13 24 14 25 15 26 26 27 27 28 28 29 29 30 30 31 31 32 32 33
REMARK SMILES IDX 33 34 34 35 86 36 35 37 85 38 36 39 37 40 38 41 79 42 39 43
REMARK SMILES IDX 84 44 78 45 80 46 40 47 83 48 77 49 76 50 41 52 67 53 50 54
REMARK SMILES IDX 66 55 51 56 54 57 65 58 81 59 52 60 53 61 64 63 82 64 55 65
REMARK SMILES IDX 42 66 43 67 48 68 44 69 45 70 47 71 49 72 46 73 68 74 69 75
REMARK SMILES IDX 74 76 70 77 71 78 73 79 75 80 72 81 56 82 57 83 62 84 58 85
REMARK SMILES IDX 59 86 61 87 63 88 60 89
REMARK H PARENT 4 12 80 51 54 62
REMARK Flexibility Score: inf
ROOT
ATOM      1  C   UNL A   1      40.704  19.578  26.086  1.00  0.00     0.188 C 
ENDROOT
BRANCH   1   2
ATOM      2  O   UNL A   1      39.398  19.688  25.526  1.00  0.00    -0.376 OA
BRANCH   2   3
ATOM      3  C   UNL A   1      38.702  20.912  25.745  1.00  0.00     0.202 C 
BRANCH   3   4
ATOM      4  C   UNL A   1      37.513  21.117  24.806  1.00  0.00     0.261 C 
BRANCH   4   5
ATOM      5  O   UNL A   1      36.449  21.793  25.487  1.00  0.00    -0.459 OA
BRANCH   5   6
ATOM      6  C   UNL A   1      36.352  23.138  25.313  1.00  0.00     0.361 C 
ATOM      7  O   UNL A   1      36.872  23.911  26.113  1.00  0.00    -0.245 OA
BRANCH   6   8
ATOM      8  C   UNL A   1      35.366  23.605  24.236  1.00  0.00     0.386 C 
BRANCH   8   9
ATOM      9  N   UNL A   1      33.972  23.670  24.716  1.00  0.00    -0.323 N 
ATOM     10  C   UNL A   1      33.673  24.933  25.444  1.00  0.00     0.284 C 
ATOM     11  C   UNL A   1      33.014  23.571  23.580  1.00  0.00     0.284 C 
ATOM     12  H   UNL A   1      33.863  22.882  25.354  1.00  0.00     0.348 HD
ATOM     13  C   UNL A   1      33.688  26.220  24.591  1.00  0.00     0.179 C 
ATOM     14  C   UNL A   1      32.866  24.839  22.690  1.00  0.00     0.179 C 
ATOM     15  N   UNL A   1      32.745  26.048  23.498  1.00  0.00    -0.344 N 
BRANCH  15  16
ATOM     16  C   UNL A   1      31.719  26.954  23.421  1.00  0.00     0.147 A 
ATOM     17  N   UNL A   1      30.472  26.433  23.558  1.00  0.00    -0.237 NA
ATOM     18  C   UNL A   1      31.888  28.310  23.100  1.00  0.00     0.084 A 
ATOM     19  C   UNL A   1      29.399  27.244  23.405  1.00  0.00     0.126 A 
ATOM     20  C   UNL A   1      30.763  29.119  22.921  1.00  0.00     0.039 A 
ATOM     21  Cl  UNL A   1      33.422  29.035  22.786  1.00  0.00    -0.080 Cl
ATOM     22  C   UNL A   1      29.486  28.584  23.074  1.00  0.00     0.075 A 
BRANCH  22  23
ATOM     23  C   UNL A   1      28.242  29.390  22.876  1.00  0.00     0.417 C 
ATOM     24  F   UNL A   1      28.331  30.628  23.433  1.00  0.00    -0.166 F 
ATOM     25  F   UNL A   1      27.953  29.587  21.562  1.00  0.00    -0.166 F 
ATOM     26  F   UNL A   1      27.135  28.814  23.421  1.00  0.00    -0.166 F 
ENDBRANCH  22  23
ENDBRANCH  15  16
ENDBRANCH   8   9
ENDBRANCH   6   8
ENDBRANCH   5   6
ENDBRANCH   4   5
ENDBRANCH   3   4
ENDBRANCH   2   3
ENDBRANCH   1   2
BRANCH   1  27
ATOM     27  C   UNL A   1      41.331  20.820  26.729  1.00  0.00     0.188 C 
BRANCH  27  28
ATOM     28  O   UNL A   1      42.731  21.057  26.717  1.00  0.00    -0.376 OA
BRANCH  28  29
ATOM     29  C   UNL A   1      43.512  20.742  25.579  1.00  0.00     0.202 C 
BRANCH  29  30
ATOM     30  C   UNL A   1      44.440  21.871  25.130  1.00  0.00     0.261 C 
BRANCH  30  31
ATOM     31  O   UNL A   1      44.581  22.921  26.103  1.00  0.00    -0.460 OA
BRANCH  31  32
ATOM     32  C   UNL A   1      44.618  24.172  25.586  1.00  0.00     0.338 C 
ATOM     33  O   UNL A   1      45.255  24.556  24.622  1.00  0.00    -0.246 OA
BRANCH  32  34
ATOM     34  C   UNL A   1      43.703  25.067  26.326  1.00  0.00     0.060 A 
ATOM     35  C   UNL A   1      44.063  26.415  26.442  1.00  0.00     0.016 A 
ATOM     36  C   UNL A   1      42.592  24.570  27.013  1.00  0.00     0.016 A 
ATOM     37  C   UNL A   1      43.360  27.252  27.307  1.00  0.00     0.010 A 
ATOM     38  C   UNL A   1      41.890  25.410  27.886  1.00  0.00     0.010 A 
ATOM     39  C   UNL A   1      42.305  26.739  28.075  1.00  0.00    -0.014 A 
BRANCH  39  40
ATOM     40  C   UNL A   1      41.778  27.542  29.208  1.00  0.00     0.031 A 
ATOM     41  C   UNL A   1      42.490  27.483  30.534  1.00  0.00     0.074 A 
ATOM     42  C   UNL A   1      40.717  28.351  29.053  1.00  0.00     0.049 A 
ATOM     43  N   UNL A   1      42.228  28.120  31.649  1.00  0.00    -0.248 NA
ATOM     44  C   UNL A   1      43.653  26.586  30.615  1.00  0.00     0.031 C 
ATOM     45  C   UNL A   1      39.954  28.521  27.819  1.00  0.00     0.029 A 
ATOM     46  N   UNL A   1      40.103  29.189  29.950  1.00  0.00    -0.354 N 
ATOM     47  C   UNL A   1      43.189  27.700  32.559  1.00  0.00     0.074 A 
ATOM     48  C   UNL A   1      44.022  26.731  31.878  1.00  0.00     0.031 C 
ATOM     49  C   UNL A   1      38.976  29.418  28.035  1.00  0.00     0.029 A 
ATOM     50  C   UNL A   1      39.030  29.864  29.426  1.00  0.00     0.049 A 
ATOM     51  H   UNL A   1      40.404  29.296  30.882  1.00  0.00     0.167 HD
ATOM     52  C   UNL A   1      43.372  28.091  33.843  1.00  0.00     0.037 A 
ATOM     53  C   UNL A   1      38.182  30.735  30.009  1.00  0.00     0.037 A 
ATOM     54  C   UNL A   1      42.552  29.054  34.527  1.00  0.00     0.049 A 
ATOM     55  C   UNL A   1      38.368  31.106  31.456  1.00  0.00     0.074 A 
ATOM     56  C   UNL A   1      42.676  29.530  35.821  1.00  0.00     0.029 A 
ATOM     57  N   UNL A   1      41.449  29.684  33.973  1.00  0.00    -0.354 N 
ATOM     58  N   UNL A   1      39.301  30.729  32.296  1.00  0.00    -0.248 NA
ATOM     59  C   UNL A   1      37.379  32.028  32.035  1.00  0.00     0.031 C 
ATOM     60  C   UNL A   1      41.622  30.418  36.063  1.00  0.00     0.029 A 
ATOM     61  C   UNL A   1      40.868  30.526  34.907  1.00  0.00     0.049 A 
ATOM     62  H   UNL A   1      41.127  29.552  33.053  1.00  0.00     0.167 HD
ATOM     63  C   UNL A   1      39.029  31.388  33.489  1.00  0.00     0.074 A 
ATOM     64  C   UNL A   1      37.849  32.195  33.263  1.00  0.00     0.031 C 
ATOM     65  C   UNL A   1      39.699  31.332  34.667  1.00  0.00     0.037 A 
BRANCH  52  66
ATOM     66  C   UNL A   1      44.499  27.453  34.601  1.00  0.00     0.057 A 
ATOM     67  C   UNL A   1      45.778  28.024  34.640  1.00  0.00     0.134 A 
ATOM     68  C   UNL A   1      44.297  26.266  35.313  1.00  0.00     0.134 A 
ATOM     69  F   UNL A   1      46.039  29.153  33.965  1.00  0.00    -0.206 F 
ATOM     70  C   UNL A   1      46.822  27.424  35.347  1.00  0.00     0.040 A 
ATOM     71  C   UNL A   1      45.326  25.668  36.042  1.00  0.00     0.040 A 
ATOM     72  F   UNL A   1      43.094  25.669  35.318  1.00  0.00    -0.206 F 
ATOM     73  C   UNL A   1      46.595  26.244  36.054  1.00  0.00     0.006 A 
ENDBRANCH  52  66
BRANCH  53  74
ATOM     74  C   UNL A   1      37.072  31.328  29.224  1.00  0.00     0.057 A 
ATOM     75  C   UNL A   1      37.132  32.652  28.775  1.00  0.00     0.134 A 
ATOM     76  C   UNL A   1      35.915  30.597  28.931  1.00  0.00     0.134 A 
ATOM     77  F   UNL A   1      38.204  33.409  29.047  1.00  0.00    -0.206 F 
ATOM     78  C   UNL A   1      36.074  33.234  28.076  1.00  0.00     0.040 A 
ATOM     79  C   UNL A   1      34.858  31.159  28.215  1.00  0.00     0.040 A 
ATOM     80  F   UNL A   1      35.796  29.324  29.338  1.00  0.00    -0.206 F 
ATOM     81  C   UNL A   1      34.933  32.485  27.791  1.00  0.00     0.006 A 
ENDBRANCH  53  74
BRANCH  65  82
ATOM     82  C   UNL A   1      39.196  32.194  35.788  1.00  0.00     0.057 A 
ATOM     83  C   UNL A   1      38.323  31.701  36.765  1.00  0.00     0.134 A 
ATOM     84  C   UNL A   1      39.620  33.523  35.910  1.00  0.00     0.134 A 
ATOM     85  F   UNL A   1      37.871  30.439  36.698  1.00  0.00    -0.206 F 
ATOM     86  C   UNL A   1      37.871  32.505  37.812  1.00  0.00     0.040 A 
ATOM     87  C   UNL A   1      39.193  34.331  36.965  1.00  0.00     0.040 A 
ATOM     88  F   UNL A   1      40.463  34.054  35.013  1.00  0.00    -0.206 F 
ATOM     89  C   UNL A   1      38.311  33.824  37.917  1.00  0.00     0.006 A 
ENDBRANCH  65  82
ENDBRANCH  39  40
ENDBRANCH  32  34
ENDBRANCH  31  32
ENDBRANCH  30  31
ENDBRANCH  29  30
ENDBRANCH  28  29
ENDBRANCH  27  28
ENDBRANCH   1  27
TORSDOF 20
ENDMDL
MODEL 3
REMARK VINA RESULT:     -10.6      1.674      6.435
REMARK SMILES O=C(C[NH+]1CCN(c2ncc(C(F)(F)F)cc2Cl)CC1)OCCOCCOCCOC(=O)c1ccc(-c2c3nc(c(-c4c(F)cccc4F)c4ccc([nH]4)c(-c4c(F)cccc4F)c4nc(c(-c5c(F)cccc5F)c5ccc2[nH]5)C=C4)C=C3)cc1
REMARK SMILES IDX 25 1 24 2 23 3 22 4 21 5 2 6 1 7 3 8 4 9 5 10 20 11 6 13
REMARK SMILES IDX 19 14 7 15 8 16 9 17 17 18 10 19 16 20 18 21 11 22 12 23
REMARK SMILES IDX 13 24 14 25 15 26 26 27 27 28 28 29 29 30 30 31 31 32 32 33
REMARK SMILES IDX 33 34 34 35 86 36 35 37 85 38 36 39 37 40 38 41 79 42 39 43
REMARK SMILES IDX 84 44 78 45 80 46 40 47 83 48 77 49 76 50 41 52 67 53 50 54
REMARK SMILES IDX 66 55 51 56 54 57 65 58 81 59 52 60 53 61 64 63 82 64 55 65
REMARK SMILES IDX 42 66 43 67 48 68 44 69 45 70 47 71 49 72 46 73 68 74 69 75
REMARK SMILES IDX 74 76 70 77 71 78 73 79 75 80 72 81 56 82 57 83 62 84 58 85
REMARK SMILES IDX 59 86 61 87 63 88 60 89
REMARK H PARENT 4 12 80 51 54 62
REMARK Flexibility Score: inf
ROOT
ATOM      1  C   UNL A   1      33.971  28.894  25.768  1.00  0.00     0.188 C 
ENDROOT
BRANCH   1   2
ATOM      2  O   UNL A   1      32.623  28.634  25.387  1.00  0.00    -0.376 OA
BRANCH   2   3
ATOM      3  C   UNL A   1      31.713  29.730  25.436  1.00  0.00     0.202 C 
BRANCH   3   4
ATOM      4  C   UNL A   1      30.700  29.737  24.291  1.00  0.00     0.261 C 
BRANCH   4   5
ATOM      5  O   UNL A   1      31.301  29.237  23.090  1.00  0.00    -0.459 OA
BRANCH   5   6
ATOM      6  C   UNL A   1      30.585  28.337  22.363  1.00  0.00     0.361 C 
ATOM      7  O   UNL A   1      29.430  28.582  22.027  1.00  0.00    -0.245 OA
BRANCH   6   8
ATOM      8  C   UNL A   1      31.207  26.943  22.222  1.00  0.00     0.386 C 
BRANCH   8   9
ATOM      9  N   UNL A   1      31.804  26.445  23.477  1.00  0.00    -0.323 N 
ATOM     10  C   UNL A   1      30.969  25.406  24.138  1.00  0.00     0.284 C 
ATOM     11  C   UNL A   1      33.145  25.849  23.226  1.00  0.00     0.284 C 
ATOM     12  H   UNL A   1      31.875  27.258  24.089  1.00  0.00     0.348 HD
ATOM     13  C   UNL A   1      30.847  24.063  23.386  1.00  0.00     0.179 C 
ATOM     14  C   UNL A   1      33.162  24.446  22.553  1.00  0.00     0.179 C 
ATOM     15  N   UNL A   1      32.189  23.548  23.164  1.00  0.00    -0.344 N 
BRANCH  15  16
ATOM     16  C   UNL A   1      32.472  22.317  23.699  1.00  0.00     0.147 A 
ATOM     17  N   UNL A   1      32.154  21.255  22.915  1.00  0.00    -0.237 NA
ATOM     18  C   UNL A   1      32.939  22.116  25.007  1.00  0.00     0.084 A 
ATOM     19  C   UNL A   1      32.317  20.003  23.404  1.00  0.00     0.126 A 
ATOM     20  C   UNL A   1      33.073  20.814  25.498  1.00  0.00     0.039 A 
ATOM     21  Cl  UNL A   1      33.253  23.399  26.119  1.00  0.00    -0.080 Cl
ATOM     22  C   UNL A   1      32.757  19.727  24.686  1.00  0.00     0.075 A 
BRANCH  22  23
ATOM     23  C   UNL A   1      32.858  18.311  25.156  1.00  0.00     0.417 C 
ATOM     24  F   UNL A   1      34.064  17.751  24.865  1.00  0.00    -0.166 F 
ATOM     25  F   UNL A   1      32.703  18.196  26.501  1.00  0.00    -0.166 F 
ATOM     26  F   UNL A   1      31.923  17.492  24.600  1.00  0.00    -0.166 F 
ENDBRANCH  22  23
ENDBRANCH  15  16
ENDBRANCH   8   9
ENDBRANCH   6   8
ENDBRANCH   5   6
ENDBRANCH   4   5
ENDBRANCH   3   4
ENDBRANCH   2   3
ENDBRANCH   1   2
BRANCH   1  27
ATOM     27  C   UNL A   1      34.276  29.139  27.250  1.00  0.00     0.188 C 
BRANCH  27  28
ATOM     28  O   UNL A   1      33.828  30.299  27.937  1.00  0.00    -0.376 OA
BRANCH  28  29
ATOM     29  C   UNL A   1      34.374  31.572  27.647  1.00  0.00     0.202 C 
BRANCH  29  30
ATOM     30  C   UNL A   1      34.842  32.342  28.883  1.00  0.00     0.261 C 
BRANCH  30  31
ATOM     31  O   UNL A   1      36.223  32.117  29.212  1.00  0.00    -0.460 OA
BRANCH  31  32
ATOM     32  C   UNL A   1      36.436  31.150  30.136  1.00  0.00     0.338 C 
ATOM     33  O   UNL A   1      35.795  30.941  31.150  1.00  0.00    -0.246 OA
BRANCH  32  34
ATOM     34  C   UNL A   1      37.563  30.283  29.730  1.00  0.00     0.060 A 
ATOM     35  C   UNL A   1      38.381  29.763  30.740  1.00  0.00     0.016 A 
ATOM     36  C   UNL A   1      37.898  30.101  28.385  1.00  0.00     0.016 A 
ATOM     37  C   UNL A   1      39.577  29.127  30.411  1.00  0.00     0.010 A 
ATOM     38  C   UNL A   1      39.103  29.468  28.056  1.00  0.00     0.010 A 
ATOM     39  C   UNL A   1      39.971  29.027  29.069  1.00  0.00    -0.014 A 
BRANCH  39  40
ATOM     40  C   UNL A   1      41.369  28.641  28.752  1.00  0.00     0.031 A 
ATOM     41  C   UNL A   1      41.656  27.220  28.344  1.00  0.00     0.074 A 
ATOM     42  C   UNL A   1      42.362  29.545  28.772  1.00  0.00     0.049 A 
ATOM     43  N   UNL A   1      42.791  26.667  27.993  1.00  0.00    -0.248 NA
ATOM     44  C   UNL A   1      40.510  26.297  28.331  1.00  0.00     0.031 C 
ATOM     45  C   UNL A   1      42.217  30.955  29.123  1.00  0.00     0.029 A 
ATOM     46  N   UNL A   1      43.696  29.402  28.483  1.00  0.00    -0.354 N 
ATOM     47  C   UNL A   1      42.496  25.337  27.720  1.00  0.00     0.074 A 
ATOM     48  C   UNL A   1      41.082  25.157  27.975  1.00  0.00     0.031 C 
ATOM     49  C   UNL A   1      43.417  31.553  29.019  1.00  0.00     0.029 A 
ATOM     50  C   UNL A   1      44.416  30.563  28.621  1.00  0.00     0.049 A 
ATOM     51  H   UNL A   1      44.100  28.549  28.204  1.00  0.00     0.167 HD
ATOM     52  C   UNL A   1      43.321  24.355  27.287  1.00  0.00     0.037 A 
ATOM     53  C   UNL A   1      45.733  30.794  28.453  1.00  0.00     0.037 A 
ATOM     54  C   UNL A   1      44.726  24.526  27.029  1.00  0.00     0.049 A 
ATOM     55  C   UNL A   1      46.642  29.670  28.031  1.00  0.00     0.074 A 
ATOM     56  C   UNL A   1      45.637  23.593  26.565  1.00  0.00     0.029 A 
ATOM     57  N   UNL A   1      45.425  25.707  27.220  1.00  0.00    -0.354 N 
ATOM     58  N   UNL A   1      46.345  28.426  27.743  1.00  0.00    -0.248 NA
ATOM     59  C   UNL A   1      48.074  29.987  27.911  1.00  0.00     0.031 C 
ATOM     60  C   UNL A   1      46.897  24.200  26.514  1.00  0.00     0.029 A 
ATOM     61  C   UNL A   1      46.761  25.521  26.907  1.00  0.00     0.049 A 
ATOM     62  H   UNL A   1      45.029  26.552  27.533  1.00  0.00     0.167 HD
ATOM     63  C   UNL A   1      47.544  27.823  27.380  1.00  0.00     0.074 A 
ATOM     64  C   UNL A   1      48.571  28.838  27.477  1.00  0.00     0.031 C 
ATOM     65  C   UNL A   1      47.772  26.542  26.998  1.00  0.00     0.037 A 
BRANCH  52  66
ATOM     66  C   UNL A   1      42.722  22.995  27.085  1.00  0.00     0.057 A 
ATOM     67  C   UNL A   1      42.432  22.499  25.807  1.00  0.00     0.134 A 
ATOM     68  C   UNL A   1      42.452  22.165  28.179  1.00  0.00     0.134 A 
ATOM     69  F   UNL A   1      42.655  23.252  24.719  1.00  0.00    -0.206 F 
ATOM     70  C   UNL A   1      41.874  21.232  25.627  1.00  0.00     0.040 A 
ATOM     71  C   UNL A   1      41.915  20.888  28.011  1.00  0.00     0.040 A 
ATOM     72  F   UNL A   1      42.710  22.579  29.429  1.00  0.00    -0.206 F 
ATOM     73  C   UNL A   1      41.618  20.421  26.731  1.00  0.00     0.006 A 
ENDBRANCH  52  66
BRANCH  53  74
ATOM     74  C   UNL A   1      46.282  32.153  28.681  1.00  0.00     0.057 A 
ATOM     75  C   UNL A   1      46.467  33.044  27.618  1.00  0.00     0.134 A 
ATOM     76  C   UNL A   1      46.664  32.579  29.958  1.00  0.00     0.134 A 
ATOM     77  F   UNL A   1      46.143  32.682  26.369  1.00  0.00    -0.206 F 
ATOM     78  C   UNL A   1      47.027  34.307  27.814  1.00  0.00     0.040 A 
ATOM     79  C   UNL A   1      47.206  33.848  30.172  1.00  0.00     0.040 A 
ATOM     80  F   UNL A   1      46.516  31.768  31.016  1.00  0.00    -0.206 F 
ATOM     81  C   UNL A   1      47.394  34.713  29.096  1.00  0.00     0.006 A 
ENDBRANCH  53  74
BRANCH  65  82
ATOM     82  C   UNL A   1      49.178  26.176  26.619  1.00  0.00     0.057 A 
ATOM     83  C   UNL A   1      50.080  25.648  27.550  1.00  0.00     0.134 A 
ATOM     84  C   UNL A   1      49.621  26.321  25.299  1.00  0.00     0.134 A 
ATOM     85  F   UNL A   1      49.721  25.495  28.834  1.00  0.00    -0.206 F 
ATOM     86  C   UNL A   1      51.381  25.297  27.186  1.00  0.00     0.040 A 
ATOM     87  C   UNL A   1      50.912  25.953  24.917  1.00  0.00     0.040 A 
ATOM     88  F   UNL A   1      48.802  26.812  24.356  1.00  0.00    -0.206 F 
ATOM     89  C   UNL A   1      51.798  25.444  25.864  1.00  0.00     0.006 A 
ENDBRANCH  65  82
ENDBRANCH  39  40
ENDBRANCH  32  34
ENDBRANCH  31  32
ENDBRANCH  30  31
ENDBRANCH  29  30
ENDBRANCH  28  29
ENDBRANCH  27  28
ENDBRANCH   1  27
TORSDOF 20
ENDMDL
