MODEL 1
REMARK VINA RESULT:      -9.7      0.000      0.000
REMARK SMILES C[C@H](Cc1cccs1)N(C)C(=O)N1CC[C@@H](CC(=O)OCCOCCOCCOC(=O)c2ccc(-c3c4nc(c(-c5c(F)cccc5F)c5ccc([nH]5)c(-c5c(F)cccc5F)c5nc(c(-c6c(F)cccc6F)c6ccc3[nH]6)C=C5)C=C4)cc2)C1
REMARK SMILES IDX 22 1 21 2 20 3 18 4 19 5 17 6 16 7 13 8 14 9 86 10 15 11
REMARK SMILES IDX 11 12 12 13 9 14 10 15 2 16 1 17 3 18 4 19 5 20 8 21 6 22
REMARK SMILES IDX 7 23 23 24 24 25 25 26 26 27 27 28 28 29 29 30 30 31 31 32
REMARK SMILES IDX 32 33 33 34 85 35 34 36 84 37 35 38 36 39 37 40 78 41 38 42
REMARK SMILES IDX 83 43 77 44 79 45 39 46 82 47 76 48 75 49 40 51 66 52 49 53
REMARK SMILES IDX 65 54 50 55 53 56 64 57 80 58 51 59 52 60 63 62 81 63 54 64
REMARK SMILES IDX 41 65 42 66 47 67 43 68 44 69 46 70 48 71 45 72 67 73 68 74
REMARK SMILES IDX 73 75 69 76 70 77 72 78 74 79 71 80 55 81 56 82 61 83 57 84
REMARK SMILES IDX 58 85 60 86 62 87 59 88
REMARK H PARENT 79 50 53 61
REMARK Flexibility Score: inf
ROOT
ATOM      1  C   UNL A   1      38.924  22.849  26.157  1.00  0.00     0.202 C 
ENDROOT
BRANCH   1   2
ATOM      2  C   UNL A   1      37.542  22.957  25.506  1.00  0.00     0.261 C 
BRANCH   2   3
ATOM      3  O   UNL A   1      36.513  22.789  26.499  1.00  0.00    -0.463 OA
BRANCH   3   4
ATOM      4  C   UNL A   1      35.339  22.254  26.081  1.00  0.00     0.306 C 
ATOM      5  O   UNL A   1      34.565  21.634  26.797  1.00  0.00    -0.252 OA
BRANCH   4   6
ATOM      6  C   UNL A   1      35.011  22.700  24.665  1.00  0.00     0.128 C 
BRANCH   6   7
ATOM      7  C   UNL A   1      33.553  22.925  24.231  1.00  0.00     0.021 C 
ATOM      8  N   UNL A   1      32.888  24.631  22.619  1.00  0.00    -0.324 N 
ATOM      9  C   UNL A   1      32.916  23.374  21.904  1.00  0.00     0.122 C 
ATOM     10  C   UNL A   1      33.292  24.431  24.009  1.00  0.00     0.125 C 
ATOM     11  C   UNL A   1      33.045  22.272  22.948  1.00  0.00     0.027 C 
BRANCH   8  12
ATOM     12  C   UNL A   1      32.849  25.925  22.120  1.00  0.00     0.320 C 
ATOM     13  O   UNL A   1      33.309  26.136  20.992  1.00  0.00    -0.248 OA
BRANCH  12  14
ATOM     14  N   UNL A   1      32.306  26.968  22.860  1.00  0.00    -0.325 N 
ATOM     15  C   UNL A   1      30.906  27.090  23.227  1.00  0.00     0.149 C 
BRANCH  14  16
ATOM     16  C   UNL A   1      33.211  28.017  23.438  1.00  0.00     0.088 C 
ATOM     17  C   UNL A   1      34.258  28.501  22.436  1.00  0.00     0.031 C 
BRANCH  16  18
ATOM     18  C   UNL A   1      33.739  27.653  24.854  1.00  0.00     0.071 C 
BRANCH  18  19
ATOM     19  C   UNL A   1      33.736  28.773  25.862  1.00  0.00     0.007 A 
ATOM     20  C   UNL A   1      34.686  29.050  26.827  1.00  0.00     0.015 A 
ATOM     21  S   UNL A   1      32.440  29.893  25.924  1.00  0.00    -0.149 S 
ATOM     22  C   UNL A   1      34.352  30.190  27.611  1.00  0.00     0.012 A 
ATOM     23  C   UNL A   1      33.146  30.734  27.235  1.00  0.00     0.065 A 
ENDBRANCH  18  19
ENDBRANCH  16  18
ENDBRANCH  14  16
ENDBRANCH  12  14
ENDBRANCH   8  12
ENDBRANCH   6   7
ENDBRANCH   4   6
ENDBRANCH   3   4
ENDBRANCH   2   3
ENDBRANCH   1   2
BRANCH   1  24
ATOM     24  O   UNL A   1      39.532  21.562  26.068  1.00  0.00    -0.376 OA
BRANCH  24  25
ATOM     25  C   UNL A   1      40.720  21.314  26.814  1.00  0.00     0.188 C 
BRANCH  25  26
ATOM     26  C   UNL A   1      42.048  21.218  26.061  1.00  0.00     0.188 C 
BRANCH  26  27
ATOM     27  O   UNL A   1      42.325  22.383  25.298  1.00  0.00    -0.376 OA
BRANCH  27  28
ATOM     28  C   UNL A   1      42.813  23.479  26.064  1.00  0.00     0.202 C 
BRANCH  28  29
ATOM     29  C   UNL A   1      43.021  24.675  25.133  1.00  0.00     0.261 C 
BRANCH  29  30
ATOM     30  O   UNL A   1      41.926  25.612  25.168  1.00  0.00    -0.460 OA
BRANCH  30  31
ATOM     31  C   UNL A   1      42.288  26.909  25.311  1.00  0.00     0.338 C 
ATOM     32  O   UNL A   1      42.624  27.665  24.420  1.00  0.00    -0.246 OA
BRANCH  31  33
ATOM     33  C   UNL A   1      42.026  27.315  26.707  1.00  0.00     0.060 A 
ATOM     34  C   UNL A   1      41.060  26.628  27.456  1.00  0.00     0.016 A 
ATOM     35  C   UNL A   1      42.696  28.408  27.253  1.00  0.00     0.016 A 
ATOM     36  C   UNL A   1      40.718  27.065  28.738  1.00  0.00     0.010 A 
ATOM     37  C   UNL A   1      42.354  28.843  28.532  1.00  0.00     0.010 A 
ATOM     38  C   UNL A   1      41.345  28.195  29.269  1.00  0.00    -0.014 A 
BRANCH  38  39
ATOM     39  C   UNL A   1      40.903  28.815  30.540  1.00  0.00     0.031 A 
ATOM     40  C   UNL A   1      39.781  29.812  30.500  1.00  0.00     0.074 A 
ATOM     41  C   UNL A   1      41.564  28.580  31.686  1.00  0.00     0.049 A 
ATOM     42  N   UNL A   1      39.430  30.700  31.392  1.00  0.00    -0.248 NA
ATOM     43  C   UNL A   1      38.955  29.817  29.282  1.00  0.00     0.031 C 
ATOM     44  C   UNL A   1      42.625  27.591  31.867  1.00  0.00     0.029 A 
ATOM     45  N   UNL A   1      41.472  29.206  32.905  1.00  0.00    -0.354 N 
ATOM     46  C   UNL A   1      38.364  31.391  30.831  1.00  0.00     0.074 A 
ATOM     47  C   UNL A   1      38.121  30.819  29.525  1.00  0.00     0.031 C 
ATOM     48  C   UNL A   1      43.126  27.715  33.109  1.00  0.00     0.029 A 
ATOM     49  C   UNL A   1      42.461  28.829  33.782  1.00  0.00     0.049 A 
ATOM     50  H   UNL A   1      40.769  29.859  33.128  1.00  0.00     0.167 HD
ATOM     51  C   UNL A   1      37.662  32.420  31.359  1.00  0.00     0.037 A 
ATOM     52  C   UNL A   1      42.830  29.370  34.959  1.00  0.00     0.037 A 
ATOM     53  C   UNL A   1      37.904  32.979  32.659  1.00  0.00     0.049 A 
ATOM     54  C   UNL A   1      42.097  30.577  35.483  1.00  0.00     0.074 A 
ATOM     55  C   UNL A   1      37.231  34.007  33.294  1.00  0.00     0.029 A 
ATOM     56  N   UNL A   1      38.904  32.558  33.521  1.00  0.00    -0.354 N 
ATOM     57  N   UNL A   1      41.083  31.223  34.958  1.00  0.00    -0.248 NA
ATOM     58  C   UNL A   1      42.570  31.143  36.756  1.00  0.00     0.031 C 
ATOM     59  C   UNL A   1      37.852  34.239  34.525  1.00  0.00     0.029 A 
ATOM     60  C   UNL A   1      38.884  33.325  34.672  1.00  0.00     0.049 A 
ATOM     61  H   UNL A   1      39.534  31.824  33.340  1.00  0.00     0.167 HD
ATOM     62  C   UNL A   1      40.773  32.240  35.852  1.00  0.00     0.074 A 
ATOM     63  C   UNL A   1      41.708  32.132  36.952  1.00  0.00     0.031 C 
ATOM     64  C   UNL A   1      39.798  33.176  35.773  1.00  0.00     0.037 A 
BRANCH  51  65
ATOM     65  C   UNL A   1      36.586  33.034  30.519  1.00  0.00     0.057 A 
ATOM     66  C   UNL A   1      36.880  33.913  29.472  1.00  0.00     0.134 A 
ATOM     67  C   UNL A   1      35.246  32.684  30.721  1.00  0.00     0.134 A 
ATOM     68  F   UNL A   1      38.146  34.288  29.233  1.00  0.00    -0.206 F 
ATOM     69  C   UNL A   1      35.874  34.432  28.656  1.00  0.00     0.040 A 
ATOM     70  C   UNL A   1      34.233  33.181  29.901  1.00  0.00     0.040 A 
ATOM     71  F   UNL A   1      34.903  31.840  31.706  1.00  0.00    -0.206 F 
ATOM     72  C   UNL A   1      34.547  34.060  28.865  1.00  0.00     0.006 A 
ENDBRANCH  51  65
BRANCH  52  73
ATOM     73  C   UNL A   1      43.994  28.822  35.701  1.00  0.00     0.057 A 
ATOM     74  C   UNL A   1      45.291  29.288  35.459  1.00  0.00     0.134 A 
ATOM     75  C   UNL A   1      43.844  27.791  36.637  1.00  0.00     0.134 A 
ATOM     76  F   UNL A   1      45.503  30.255  34.553  1.00  0.00    -0.206 F 
ATOM     77  C   UNL A   1      46.399  28.735  36.103  1.00  0.00     0.040 A 
ATOM     78  C   UNL A   1      44.940  27.246  37.308  1.00  0.00     0.040 A 
ATOM     79  F   UNL A   1      42.628  27.297  36.912  1.00  0.00    -0.206 F 
ATOM     80  C   UNL A   1      46.223  27.712  37.034  1.00  0.00     0.006 A 
ENDBRANCH  52  73
BRANCH  64  81
ATOM     81  C   UNL A   1      39.638  34.116  36.929  1.00  0.00     0.057 A 
ATOM     82  C   UNL A   1      40.098  35.436  36.879  1.00  0.00     0.134 A 
ATOM     83  C   UNL A   1      38.935  33.714  38.073  1.00  0.00     0.134 A 
ATOM     84  F   UNL A   1      40.786  35.877  35.816  1.00  0.00    -0.206 F 
ATOM     85  C   UNL A   1      39.868  36.324  37.931  1.00  0.00     0.040 A 
ATOM     86  C   UNL A   1      38.682  34.598  39.120  1.00  0.00     0.040 A 
ATOM     87  F   UNL A   1      38.459  32.463  38.174  1.00  0.00    -0.206 F 
ATOM     88  C   UNL A   1      39.150  35.908  39.051  1.00  0.00     0.006 A 
ENDBRANCH  64  81
ENDBRANCH  38  39
ENDBRANCH  31  33
ENDBRANCH  30  31
ENDBRANCH  29  30
ENDBRANCH  28  29
ENDBRANCH  27  28
ENDBRANCH  26  27
ENDBRANCH  25  26
ENDBRANCH  24  25
ENDBRANCH   1  24
TORSDOF 23
ENDMDL
MODEL 2
REMARK VINA RESULT:      -9.7      3.819      9.227
REMARK SMILES C[C@H](Cc1cccs1)N(C)C(=O)N1CC[C@@H](CC(=O)OCCOCCOCCOC(=O)c2ccc(-c3c4nc(c(-c5c(F)cccc5F)c5ccc([nH]5)c(-c5c(F)cccc5F)c5nc(c(-c6c(F)cccc6F)c6ccc3[nH]6)C=C5)C=C4)cc2)C1
REMARK SMILES IDX 22 1 21 2 20 3 18 4 19 5 17 6 16 7 13 8 14 9 86 10 15 11
REMARK SMILES IDX 11 12 12 13 9 14 10 15 2 16 1 17 3 18 4 19 5 20 8 21 6 22
REMARK SMILES IDX 7 23 23 24 24 25 25 26 26 27 27 28 28 29 29 30 30 31 31 32
REMARK SMILES IDX 32 33 33 34 85 35 34 36 84 37 35 38 36 39 37 40 78 41 38 42
REMARK SMILES IDX 83 43 77 44 79 45 39 46 82 47 76 48 75 49 40 51 66 52 49 53
REMARK SMILES IDX 65 54 50 55 53 56 64 57 80 58 51 59 52 60 63 62 81 63 54 64
REMARK SMILES IDX 41 65 42 66 47 67 43 68 44 69 46 70 48 71 45 72 67 73 68 74
REMARK SMILES IDX 73 75 69 76 70 77 72 78 74 79 71 80 55 81 56 82 61 83 57 84
REMARK SMILES IDX 58 85 60 86 62 87 59 88
REMARK H PARENT 79 50 53 61
REMARK Flexibility Score: inf
ROOT
ATOM      1  C   UNL A   1      34.692  30.428  27.605  1.00  0.00     0.202 C 
ENDROOT
BRANCH   1   2
ATOM      2  C   UNL A   1      33.198  30.354  27.274  1.00  0.00     0.261 C 
BRANCH   2   3
ATOM      3  O   UNL A   1      32.951  29.290  26.337  1.00  0.00    -0.463 OA
BRANCH   3   4
ATOM      4  C   UNL A   1      31.911  28.462  26.610  1.00  0.00     0.306 C 
ATOM      5  O   UNL A   1      31.538  28.166  27.737  1.00  0.00    -0.252 OA
BRANCH   4   6
ATOM      6  C   UNL A   1      31.144  28.116  25.345  1.00  0.00     0.128 C 
BRANCH   6   7
ATOM      7  C   UNL A   1      30.926  26.650  24.935  1.00  0.00     0.021 C 
ATOM      8  N   UNL A   1      32.512  24.869  25.449  1.00  0.00    -0.324 N 
ATOM      9  C   UNL A   1      31.443  24.766  26.419  1.00  0.00     0.122 C 
ATOM     10  C   UNL A   1      32.274  25.999  24.554  1.00  0.00     0.125 C 
ATOM     11  C   UNL A   1      30.318  25.674  25.940  1.00  0.00     0.027 C 
BRANCH   8  12
ATOM     12  C   UNL A   1      33.773  24.291  25.467  1.00  0.00     0.320 C 
ATOM     13  O   UNL A   1      34.760  25.023  25.334  1.00  0.00    -0.248 OA
BRANCH  12  14
ATOM     14  N   UNL A   1      33.936  22.921  25.632  1.00  0.00    -0.325 N 
ATOM     15  C   UNL A   1      34.159  22.254  26.903  1.00  0.00     0.149 C 
BRANCH  14  16
ATOM     16  C   UNL A   1      33.770  22.007  24.453  1.00  0.00     0.088 C 
ATOM     17  C   UNL A   1      33.576  22.773  23.144  1.00  0.00     0.031 C 
BRANCH  16  18
ATOM     18  C   UNL A   1      32.771  20.847  24.717  1.00  0.00     0.071 C 
BRANCH  18  19
ATOM     19  C   UNL A   1      33.210  19.484  24.245  1.00  0.00     0.007 A 
ATOM     20  C   UNL A   1      34.308  18.754  24.659  1.00  0.00     0.015 A 
ATOM     21  S   UNL A   1      32.325  18.648  23.039  1.00  0.00    -0.149 S 
ATOM     22  C   UNL A   1      34.416  17.503  23.991  1.00  0.00     0.012 A 
ATOM     23  C   UNL A   1      33.409  17.326  23.070  1.00  0.00     0.065 A 
ENDBRANCH  18  19
ENDBRANCH  16  18
ENDBRANCH  14  16
ENDBRANCH  12  14
ENDBRANCH   8  12
ENDBRANCH   6   7
ENDBRANCH   4   6
ENDBRANCH   3   4
ENDBRANCH   2   3
ENDBRANCH   1   2
BRANCH   1  24
ATOM     24  O   UNL A   1      35.078  31.551  28.394  1.00  0.00    -0.376 OA
BRANCH  24  25
ATOM     25  C   UNL A   1      34.219  32.687  28.433  1.00  0.00     0.188 C 
BRANCH  25  26
ATOM     26  C   UNL A   1      34.820  34.045  28.798  1.00  0.00     0.188 C 
BRANCH  26  27
ATOM     27  O   UNL A   1      34.443  35.068  27.886  1.00  0.00    -0.376 OA
BRANCH  27  28
ATOM     28  C   UNL A   1      34.049  36.286  28.508  1.00  0.00     0.202 C 
BRANCH  28  29
ATOM     29  C   UNL A   1      32.983  35.978  29.561  1.00  0.00     0.261 C 
BRANCH  29  30
ATOM     30  O   UNL A   1      33.229  36.636  30.820  1.00  0.00    -0.460 OA
BRANCH  30  31
ATOM     31  C   UNL A   1      32.729  36.000  31.905  1.00  0.00     0.338 C 
ATOM     32  O   UNL A   1      31.558  35.938  32.227  1.00  0.00    -0.246 OA
BRANCH  31  33
ATOM     33  C   UNL A   1      33.818  35.227  32.537  1.00  0.00     0.060 A 
ATOM     34  C   UNL A   1      35.138  35.693  32.446  1.00  0.00     0.016 A 
ATOM     35  C   UNL A   1      33.540  34.016  33.168  1.00  0.00     0.016 A 
ATOM     36  C   UNL A   1      36.194  34.924  32.939  1.00  0.00     0.010 A 
ATOM     37  C   UNL A   1      34.595  33.249  33.659  1.00  0.00     0.010 A 
ATOM     38  C   UNL A   1      35.927  33.682  33.521  1.00  0.00    -0.014 A 
BRANCH  38  39
ATOM     39  C   UNL A   1      37.008  32.741  33.897  1.00  0.00     0.031 A 
ATOM     40  C   UNL A   1      37.771  32.994  35.165  1.00  0.00     0.074 A 
ATOM     41  C   UNL A   1      37.377  31.751  33.066  1.00  0.00     0.049 A 
ATOM     42  N   UNL A   1      38.927  32.521  35.544  1.00  0.00    -0.248 NA
ATOM     43  C   UNL A   1      37.150  33.919  36.127  1.00  0.00     0.031 C 
ATOM     44  C   UNL A   1      36.680  31.366  31.841  1.00  0.00     0.029 A 
ATOM     45  N   UNL A   1      38.473  30.925  33.107  1.00  0.00    -0.354 N 
ATOM     46  C   UNL A   1      39.189  33.114  36.772  1.00  0.00     0.074 A 
ATOM     47  C   UNL A   1      38.070  33.977  37.079  1.00  0.00     0.031 C 
ATOM     48  C   UNL A   1      37.396  30.415  31.216  1.00  0.00     0.029 A 
ATOM     49  C   UNL A   1      38.626  30.173  31.967  1.00  0.00     0.049 A 
ATOM     50  H   UNL A   1      39.088  30.876  33.876  1.00  0.00     0.167 HD
ATOM     51  C   UNL A   1      40.275  32.957  37.564  1.00  0.00     0.037 A 
ATOM     52  C   UNL A   1      39.671  29.433  31.548  1.00  0.00     0.037 A 
ATOM     53  C   UNL A   1      41.379  32.092  37.257  1.00  0.00     0.049 A 
ATOM     54  C   UNL A   1      40.910  29.350  32.401  1.00  0.00     0.074 A 
ATOM     55  C   UNL A   1      42.515  31.846  38.008  1.00  0.00     0.029 A 
ATOM     56  N   UNL A   1      41.487  31.337  36.101  1.00  0.00    -0.354 N 
ATOM     57  N   UNL A   1      41.152  29.902  33.566  1.00  0.00    -0.248 NA
ATOM     58  C   UNL A   1      42.030  28.555  31.873  1.00  0.00     0.031 C 
ATOM     59  C   UNL A   1      43.333  30.972  37.284  1.00  0.00     0.029 A 
ATOM     60  C   UNL A   1      42.684  30.644  36.104  1.00  0.00     0.049 A 
ATOM     61  H   UNL A   1      40.813  31.299  35.385  1.00  0.00     0.167 HD
ATOM     62  C   UNL A   1      42.429  29.488  33.927  1.00  0.00     0.074 A 
ATOM     63  C   UNL A   1      42.916  28.645  32.857  1.00  0.00     0.031 C 
ATOM     64  C   UNL A   1      43.133  29.777  35.047  1.00  0.00     0.037 A 
BRANCH  51  65
ATOM     65  C   UNL A   1      40.341  33.761  38.824  1.00  0.00     0.057 A 
ATOM     66  C   UNL A   1      39.741  33.325  40.009  1.00  0.00     0.134 A 
ATOM     67  C   UNL A   1      41.077  34.952  38.865  1.00  0.00     0.134 A 
ATOM     68  F   UNL A   1      39.021  32.193  40.030  1.00  0.00    -0.206 F 
ATOM     69  C   UNL A   1      39.860  34.052  41.194  1.00  0.00     0.040 A 
ATOM     70  C   UNL A   1      41.219  35.679  40.047  1.00  0.00     0.040 A 
ATOM     71  F   UNL A   1      41.681  35.418  37.761  1.00  0.00    -0.206 F 
ATOM     72  C   UNL A   1      40.609  35.229  41.217  1.00  0.00     0.006 A 
ENDBRANCH  51  65
BRANCH  52  73
ATOM     73  C   UNL A   1      39.628  28.760  30.225  1.00  0.00     0.057 A 
ATOM     74  C   UNL A   1      39.102  27.470  30.085  1.00  0.00     0.134 A 
ATOM     75  C   UNL A   1      40.150  29.371  29.078  1.00  0.00     0.134 A 
ATOM     76  F   UNL A   1      38.613  26.822  31.153  1.00  0.00    -0.206 F 
ATOM     77  C   UNL A   1      39.117  26.804  28.859  1.00  0.00     0.040 A 
ATOM     78  C   UNL A   1      40.148  28.726  27.840  1.00  0.00     0.040 A 
ATOM     79  F   UNL A   1      40.673  30.604  29.146  1.00  0.00    -0.206 F 
ATOM     80  C   UNL A   1      39.639  27.435  27.730  1.00  0.00     0.006 A 
ENDBRANCH  52  73
BRANCH  64  81
ATOM     81  C   UNL A   1      44.473  29.128  35.215  1.00  0.00     0.057 A 
ATOM     82  C   UNL A   1      44.616  27.865  35.800  1.00  0.00     0.134 A 
ATOM     83  C   UNL A   1      45.624  29.743  34.704  1.00  0.00     0.134 A 
ATOM     84  F   UNL A   1      43.553  27.231  36.316  1.00  0.00    -0.206 F 
ATOM     85  C   UNL A   1      45.860  27.237  35.874  1.00  0.00     0.040 A 
ATOM     86  C   UNL A   1      46.868  29.116  34.755  1.00  0.00     0.040 A 
ATOM     87  F   UNL A   1      45.549  30.950  34.122  1.00  0.00    -0.206 F 
ATOM     88  C   UNL A   1      46.988  27.859  35.342  1.00  0.00     0.006 A 
ENDBRANCH  64  81
ENDBRANCH  38  39
ENDBRANCH  31  33
ENDBRANCH  30  31
ENDBRANCH  29  30
ENDBRANCH  28  29
ENDBRANCH  27  28
ENDBRANCH  26  27
ENDBRANCH  25  26
ENDBRANCH  24  25
ENDBRANCH   1  24
TORSDOF 23
ENDMDL
MODEL 3
REMARK VINA RESULT:      -9.5      5.237     10.459
REMARK SMILES C[C@H](Cc1cccs1)N(C)C(=O)N1CC[C@@H](CC(=O)OCCOCCOCCOC(=O)c2ccc(-c3c4nc(c(-c5c(F)cccc5F)c5ccc([nH]5)c(-c5c(F)cccc5F)c5nc(c(-c6c(F)cccc6F)c6ccc3[nH]6)C=C5)C=C4)cc2)C1
REMARK SMILES IDX 22 1 21 2 20 3 18 4 19 5 17 6 16 7 13 8 14 9 86 10 15 11
REMARK SMILES IDX 11 12 12 13 9 14 10 15 2 16 1 17 3 18 4 19 5 20 8 21 6 22
REMARK SMILES IDX 7 23 23 24 24 25 25 26 26 27 27 28 28 29 29 30 30 31 31 32
REMARK SMILES IDX 32 33 33 34 85 35 34 36 84 37 35 38 36 39 37 40 78 41 38 42
REMARK SMILES IDX 83 43 77 44 79 45 39 46 82 47 76 48 75 49 40 51 66 52 49 53
REMARK SMILES IDX 65 54 50 55 53 56 64 57 80 58 51 59 52 60 63 62 81 63 54 64
REMARK SMILES IDX 41 65 42 66 47 67 43 68 44 69 46 70 48 71 45 72 67 73 68 74
REMARK SMILES IDX 73 75 69 76 70 77 72 78 74 79 71 80 55 81 56 82 61 83 57 84
REMARK SMILES IDX 58 85 60 86 62 87 59 88
REMARK H PARENT 79 50 53 61
REMARK Flexibility Score: inf
ROOT
ATOM      1  C   UNL A   1      34.378  28.881  26.501  1.00  0.00     0.202 C 
ENDROOT
BRANCH   1   2
ATOM      2  C   UNL A   1      33.274  29.283  25.518  1.00  0.00     0.261 C 
BRANCH   2   3
ATOM      3  O   UNL A   1      32.781  28.120  24.827  1.00  0.00    -0.463 OA
BRANCH   3   4
ATOM      4  C   UNL A   1      32.723  28.190  23.473  1.00  0.00     0.306 C 
ATOM      5  O   UNL A   1      32.794  29.228  22.829  1.00  0.00    -0.252 OA
BRANCH   4   6
ATOM      6  C   UNL A   1      32.766  26.803  22.854  1.00  0.00     0.128 C 
BRANCH   6   7
ATOM      7  C   UNL A   1      31.586  25.831  23.020  1.00  0.00     0.021 C 
ATOM      8  N   UNL A   1      31.179  24.562  25.063  1.00  0.00    -0.324 N 
ATOM      9  C   UNL A   1      30.269  25.685  25.085  1.00  0.00     0.122 C 
ATOM     10  C   UNL A   1      32.017  24.613  23.868  1.00  0.00     0.125 C 
ATOM     11  C   UNL A   1      30.307  26.316  23.699  1.00  0.00     0.027 C 
BRANCH   8  12
ATOM     12  C   UNL A   1      31.547  23.710  26.095  1.00  0.00     0.320 C 
ATOM     13  O   UNL A   1      31.232  24.013  27.251  1.00  0.00    -0.248 OA
BRANCH  12  14
ATOM     14  N   UNL A   1      32.253  22.539  25.846  1.00  0.00    -0.325 N 
ATOM     15  C   UNL A   1      31.789  21.447  25.008  1.00  0.00     0.149 C 
BRANCH  14  16
ATOM     16  C   UNL A   1      33.650  22.388  26.373  1.00  0.00     0.088 C 
ATOM     17  C   UNL A   1      33.685  22.212  27.891  1.00  0.00     0.031 C 
BRANCH  16  18
ATOM     18  C   UNL A   1      34.639  23.433  25.785  1.00  0.00     0.071 C 
BRANCH  18  19
ATOM     19  C   UNL A   1      36.090  23.028  25.773  1.00  0.00     0.007 A 
ATOM     20  C   UNL A   1      37.189  23.787  26.128  1.00  0.00     0.015 A 
ATOM     21  S   UNL A   1      36.557  21.460  25.259  1.00  0.00    -0.149 S 
ATOM     22  C   UNL A   1      38.413  23.077  25.986  1.00  0.00     0.012 A 
ATOM     23  C   UNL A   1      38.214  21.803  25.505  1.00  0.00     0.065 A 
ENDBRANCH  18  19
ENDBRANCH  16  18
ENDBRANCH  14  16
ENDBRANCH  12  14
ENDBRANCH   8  12
ENDBRANCH   6   7
ENDBRANCH   4   6
ENDBRANCH   3   4
ENDBRANCH   2   3
ENDBRANCH   1   2
BRANCH   1  24
ATOM     24  O   UNL A   1      34.550  29.767  27.606  1.00  0.00    -0.376 OA
BRANCH  24  25
ATOM     25  C   UNL A   1      33.942  31.054  27.551  1.00  0.00     0.188 C 
BRANCH  25  26
ATOM     26  C   UNL A   1      34.756  32.266  28.007  1.00  0.00     0.188 C 
BRANCH  26  27
ATOM     27  O   UNL A   1      34.063  33.056  28.963  1.00  0.00    -0.376 OA
BRANCH  27  28
ATOM     28  C   UNL A   1      34.830  33.378  30.118  1.00  0.00     0.202 C 
BRANCH  28  29
ATOM     29  C   UNL A   1      35.155  32.086  30.868  1.00  0.00     0.261 C 
BRANCH  29  30
ATOM     30  O   UNL A   1      36.567  31.798  30.906  1.00  0.00    -0.460 OA
BRANCH  30  31
ATOM     31  C   UNL A   1      36.895  30.626  31.499  1.00  0.00     0.338 C 
ATOM     32  O   UNL A   1      36.283  30.075  32.394  1.00  0.00    -0.246 OA
BRANCH  31  33
ATOM     33  C   UNL A   1      38.019  30.023  30.753  1.00  0.00     0.060 A 
ATOM     34  C   UNL A   1      39.040  29.366  31.456  1.00  0.00     0.016 A 
ATOM     35  C   UNL A   1      38.090  30.158  29.369  1.00  0.00     0.016 A 
ATOM     36  C   UNL A   1      40.166  28.886  30.782  1.00  0.00     0.010 A 
ATOM     37  C   UNL A   1      39.214  29.679  28.697  1.00  0.00     0.010 A 
ATOM     38  C   UNL A   1      40.270  29.070  29.401  1.00  0.00    -0.014 A 
BRANCH  38  39
ATOM     39  C   UNL A   1      41.511  28.750  28.657  1.00  0.00     0.031 A 
ATOM     40  C   UNL A   1      41.734  27.335  28.208  1.00  0.00     0.074 A 
ATOM     41  C   UNL A   1      42.469  29.677  28.487  1.00  0.00     0.049 A 
ATOM     42  N   UNL A   1      42.839  26.750  27.832  1.00  0.00    -0.248 NA
ATOM     43  C   UNL A   1      40.551  26.459  28.198  1.00  0.00     0.031 C 
ATOM     44  C   UNL A   1      42.348  31.095  28.821  1.00  0.00     0.029 A 
ATOM     45  N   UNL A   1      43.760  29.543  28.040  1.00  0.00    -0.354 N 
ATOM     46  C   UNL A   1      42.494  25.431  27.572  1.00  0.00     0.074 A 
ATOM     47  C   UNL A   1      41.076  25.300  27.827  1.00  0.00     0.031 C 
ATOM     48  C   UNL A   1      43.536  31.691  28.620  1.00  0.00     0.029 A 
ATOM     49  C   UNL A   1      44.510  30.683  28.204  1.00  0.00     0.049 A 
ATOM     50  H   UNL A   1      44.114  28.714  27.643  1.00  0.00     0.167 HD
ATOM     51  C   UNL A   1      43.296  24.419  27.167  1.00  0.00     0.037 A 
ATOM     52  C   UNL A   1      45.839  30.872  28.098  1.00  0.00     0.037 A 
ATOM     53  C   UNL A   1      44.701  24.557  26.908  1.00  0.00     0.049 A 
ATOM     54  C   UNL A   1      46.727  29.708  27.741  1.00  0.00     0.074 A 
ATOM     55  C   UNL A   1      45.596  23.596  26.471  1.00  0.00     0.029 A 
ATOM     56  N   UNL A   1      45.418  25.732  27.071  1.00  0.00    -0.354 N 
ATOM     57  N   UNL A   1      46.398  28.464  27.485  1.00  0.00    -0.248 NA
ATOM     58  C   UNL A   1      48.173  29.968  27.676  1.00  0.00     0.031 C 
ATOM     59  C   UNL A   1      46.865  24.180  26.410  1.00  0.00     0.029 A 
ATOM     60  C   UNL A   1      46.749  25.514  26.769  1.00  0.00     0.049 A 
ATOM     61  H   UNL A   1      45.035  26.592  27.358  1.00  0.00     0.167 HD
ATOM     62  C   UNL A   1      47.587  27.808  27.189  1.00  0.00     0.074 A 
ATOM     63  C   UNL A   1      48.647  28.786  27.303  1.00  0.00     0.031 C 
ATOM     64  C   UNL A   1      47.783  26.512  26.849  1.00  0.00     0.037 A 
BRANCH  51  65
ATOM     65  C   UNL A   1      42.683  23.063  27.011  1.00  0.00     0.057 A 
ATOM     66  C   UNL A   1      42.426  22.510  25.753  1.00  0.00     0.134 A 
ATOM     67  C   UNL A   1      42.413  22.275  28.137  1.00  0.00     0.134 A 
ATOM     68  F   UNL A   1      42.662  23.219  24.638  1.00  0.00    -0.206 F 
ATOM     69  C   UNL A   1      41.911  21.220  25.617  1.00  0.00     0.040 A 
ATOM     70  C   UNL A   1      41.915  20.977  28.015  1.00  0.00     0.040 A 
ATOM     71  F   UNL A   1      42.644  22.748  29.371  1.00  0.00    -0.206 F 
ATOM     72  C   UNL A   1      41.662  20.447  26.750  1.00  0.00     0.006 A 
ENDBRANCH  51  65
BRANCH  52  73
ATOM     73  C   UNL A   1      46.433  32.200  28.397  1.00  0.00     0.057 A 
ATOM     74  C   UNL A   1      46.791  32.555  29.702  1.00  0.00     0.134 A 
ATOM     75  C   UNL A   1      46.615  33.161  27.395  1.00  0.00     0.134 A 
ATOM     76  F   UNL A   1      46.615  31.687  30.710  1.00  0.00    -0.206 F 
ATOM     77  C   UNL A   1      47.288  33.823  30.004  1.00  0.00     0.040 A 
ATOM     78  C   UNL A   1      47.135  34.425  27.678  1.00  0.00     0.040 A 
ATOM     79  F   UNL A   1      46.286  32.885  26.124  1.00  0.00    -0.206 F 
ATOM     80  C   UNL A   1      47.465  34.762  28.988  1.00  0.00     0.006 A 
ENDBRANCH  52  73
BRANCH  64  81
ATOM     81  C   UNL A   1      49.177  26.085  26.505  1.00  0.00     0.057 A 
ATOM     82  C   UNL A   1      49.730  26.312  25.240  1.00  0.00     0.134 A 
ATOM     83  C   UNL A   1      50.003  25.515  27.484  1.00  0.00     0.134 A 
ATOM     84  F   UNL A   1      48.987  26.845  24.258  1.00  0.00    -0.206 F 
ATOM     85  C   UNL A   1      51.057  25.984  24.959  1.00  0.00     0.040 A 
ATOM     86  C   UNL A   1      51.335  25.202  27.220  1.00  0.00     0.040 A 
ATOM     87  F   UNL A   1      49.532  25.282  28.719  1.00  0.00    -0.206 F 
ATOM     88  C   UNL A   1      51.866  25.436  25.954  1.00  0.00     0.006 A 
ENDBRANCH  64  81
ENDBRANCH  38  39
ENDBRANCH  31  33
ENDBRANCH  30  31
ENDBRANCH  29  30
ENDBRANCH  28  29
ENDBRANCH  27  28
ENDBRANCH  26  27
ENDBRANCH  25  26
ENDBRANCH  24  25
ENDBRANCH   1  24
TORSDOF 23
ENDMDL
