MODEL 1
REMARK VINA RESULT:     -13.7      0.000      0.000
REMARK SMILES Cc1cccc(N2C(=O)/C(=C/c3ccc(C(=O)OCCOCCOCCOC(=O)c4ccc(-c5c6nc(c(-c7c(F)cccc7F)c7ccc([nH]7)c(-c7c(F)cccc7F)c7nc(c(-c8c(F)cccc8F)c8ccc5[nH]8)C=C7)C=C6)cc4)cc3)c3ccccc3C2=O)c1
REMARK SMILES IDX 22 1 21 2 20 3 19 4 18 5 16 6 17 7 15 8 12 9 13 10 85 11
REMARK SMILES IDX 14 12 84 13 11 14 7 15 8 16 92 17 9 18 10 19 91 20 93 21
REMARK SMILES IDX 86 22 90 23 87 24 89 25 88 26 6 27 1 28 2 29 3 30 94 31 4 32
REMARK SMILES IDX 5 33 23 34 24 35 25 36 26 37 27 38 28 39 29 40 30 41 31 42
REMARK SMILES IDX 83 43 32 44 82 45 33 46 34 47 35 48 76 49 36 50 81 51 75 52
REMARK SMILES IDX 77 53 37 54 80 55 74 56 73 57 38 59 64 60 47 61 63 62 48 63
REMARK SMILES IDX 51 64 62 65 78 66 49 67 50 68 61 70 79 71 52 72 39 73 40 74
REMARK SMILES IDX 45 75 41 76 42 77 44 78 46 79 43 80 65 81 66 82 71 83 67 84
REMARK SMILES IDX 68 85 70 86 72 87 69 88 53 89 54 90 59 91 55 92 56 93 58 94
REMARK SMILES IDX 60 95 57 96
REMARK H PARENT 77 58 51 69
REMARK Flexibility Score: inf
ROOT
ATOM      1  C   UNL A   1      33.183  34.405  28.419  1.00  0.00     0.188 C 
ENDROOT
BRANCH   1   2
ATOM      2  O   UNL A   1      32.212  33.792  27.554  1.00  0.00    -0.376 OA
BRANCH   2   3
ATOM      3  C   UNL A   1      32.293  32.493  26.993  1.00  0.00     0.202 C 
BRANCH   3   4
ATOM      4  C   UNL A   1      31.029  31.576  26.356  1.00  0.00     0.261 C 
BRANCH   4   5
ATOM      5  O   UNL A   1      30.258  31.392  24.835  1.00  0.00    -0.460 OA
BRANCH   5   6
ATOM      6  C   UNL A   1      29.853  30.408  23.920  1.00  0.00     0.338 C 
ATOM      7  O   UNL A   1      28.959  30.410  23.080  1.00  0.00    -0.246 OA
BRANCH   6   8
ATOM      8  C   UNL A   1      30.480  29.123  23.653  1.00  0.00     0.060 A 
ATOM      9  C   UNL A   1      30.871  26.515  22.753  1.00  0.00    -0.025 A 
ATOM     10  C   UNL A   1      31.125  27.565  21.883  1.00  0.00     0.009 A 
ATOM     11  C   UNL A   1      30.163  26.734  23.944  1.00  0.00     0.009 A 
ATOM     12  C   UNL A   1      30.906  28.860  22.331  1.00  0.00     0.016 A 
ATOM     13  C   UNL A   1      29.983  28.039  24.398  1.00  0.00     0.016 A 
BRANCH   9  14
ATOM     14  C   UNL A   1      31.689  25.321  22.590  1.00  0.00     0.022 C 
ATOM     15  N   UNL A   1      33.883  23.507  24.351  1.00  0.00    -0.242 N 
ATOM     16  C   UNL A   1      33.628  24.015  23.060  1.00  0.00     0.265 C 
ATOM     17  C   UNL A   1      33.728  24.338  25.501  1.00  0.00     0.265 C 
ATOM     18  O   UNL A   1      33.852  23.539  21.952  1.00  0.00    -0.268 OA
ATOM     19  C   UNL A   1      32.941  25.313  23.101  1.00  0.00     0.049 C 
ATOM     20  C   UNL A   1      33.740  25.817  25.289  1.00  0.00     0.048 A 
ATOM     21  O   UNL A   1      33.592  23.986  26.670  1.00  0.00    -0.268 OA
ATOM     22  C   UNL A   1      33.493  26.308  24.015  1.00  0.00    -0.000 A 
ATOM     23  C   UNL A   1      33.934  26.714  26.347  1.00  0.00     0.014 A 
ATOM     24  C   UNL A   1      33.599  27.680  23.752  1.00  0.00     0.010 A 
ATOM     25  C   UNL A   1      33.933  28.092  26.107  1.00  0.00     0.001 A 
ATOM     26  C   UNL A   1      33.793  28.574  24.806  1.00  0.00     0.001 A 
BRANCH  15  27
ATOM     27  C   UNL A   1      34.245  22.100  24.491  1.00  0.00     0.053 A 
ATOM     28  C   UNL A   1      32.519  18.677  24.394  1.00  0.00     0.044 C 
ATOM     29  C   UNL A   1      33.596  19.712  24.535  1.00  0.00    -0.049 A 
ATOM     30  C   UNL A   1      34.912  19.342  24.778  1.00  0.00     0.003 A 
ATOM     31  C   UNL A   1      33.287  21.074  24.378  1.00  0.00     0.030 A 
ATOM     32  C   UNL A   1      35.890  20.323  24.884  1.00  0.00     0.002 A 
ATOM     33  C   UNL A   1      35.559  21.678  24.746  1.00  0.00     0.027 A 
ENDBRANCH  15  27
ENDBRANCH   9  14
ENDBRANCH   6   8
ENDBRANCH   5   6
ENDBRANCH   4   5
ENDBRANCH   3   4
ENDBRANCH   2   3
ENDBRANCH   1   2
BRANCH   1  34
ATOM     34  C   UNL A   1      32.912  35.763  29.056  1.00  0.00     0.188 C 
BRANCH  34  35
ATOM     35  O   UNL A   1      32.531  35.569  30.404  1.00  0.00    -0.376 OA
BRANCH  35  36
ATOM     36  C   UNL A   1      32.950  36.577  31.304  1.00  0.00     0.202 C 
BRANCH  36  37
ATOM     37  C   UNL A   1      33.640  35.977  32.537  1.00  0.00     0.261 C 
BRANCH  37  38
ATOM     38  O   UNL A   1      34.701  35.078  32.128  1.00  0.00    -0.460 OA
BRANCH  38  39
ATOM     39  C   UNL A   1      34.607  33.765  32.521  1.00  0.00     0.338 C 
ATOM     40  O   UNL A   1      34.261  33.398  33.635  1.00  0.00    -0.246 OA
BRANCH  39  41
ATOM     41  C   UNL A   1      35.236  32.862  31.491  1.00  0.00     0.060 A 
ATOM     42  C   UNL A   1      35.541  31.505  31.672  1.00  0.00     0.016 A 
ATOM     43  C   UNL A   1      35.921  33.477  30.500  1.00  0.00     0.016 A 
ATOM     44  C   UNL A   1      36.675  30.864  30.999  1.00  0.00     0.010 A 
ATOM     45  C   UNL A   1      37.147  32.885  30.161  1.00  0.00     0.010 A 
ATOM     46  C   UNL A   1      37.650  31.567  30.272  1.00  0.00    -0.014 A 
BRANCH  46  47
ATOM     47  C   UNL A   1      39.220  31.014  29.933  1.00  0.00     0.031 A 
ATOM     48  C   UNL A   1      39.889  29.744  29.037  1.00  0.00     0.074 A 
ATOM     49  C   UNL A   1      40.228  31.608  30.613  1.00  0.00     0.049 A 
ATOM     50  N   UNL A   1      40.717  28.838  29.548  1.00  0.00    -0.248 NA
ATOM     51  C   UNL A   1      39.620  29.311  27.632  1.00  0.00     0.031 C 
ATOM     52  C   UNL A   1      41.663  31.381  30.452  1.00  0.00     0.029 A 
ATOM     53  N   UNL A   1      40.143  32.466  31.711  1.00  0.00    -0.354 N 
ATOM     54  C   UNL A   1      41.000  27.860  28.578  1.00  0.00     0.074 A 
ATOM     55  C   UNL A   1      40.176  28.123  27.474  1.00  0.00     0.031 C 
ATOM     56  C   UNL A   1      42.286  31.795  31.565  1.00  0.00     0.029 A 
ATOM     57  C   UNL A   1      41.270  32.226  32.504  1.00  0.00     0.049 A 
ATOM     58  H   UNL A   1      39.428  33.117  31.893  1.00  0.00     0.167 HD
ATOM     59  C   UNL A   1      42.008  26.949  28.583  1.00  0.00     0.037 A 
ATOM     60  C   UNL A   1      41.167  31.866  33.811  1.00  0.00     0.037 A 
ATOM     61  C   UNL A   1      42.919  27.268  29.629  1.00  0.00     0.049 A 
ATOM     62  C   UNL A   1      41.897  30.592  34.144  1.00  0.00     0.074 A 
ATOM     63  C   UNL A   1      43.963  28.173  29.652  1.00  0.00     0.029 A 
ATOM     64  N   UNL A   1      42.564  27.001  30.930  1.00  0.00    -0.354 N 
ATOM     65  N   UNL A   1      42.296  29.725  33.256  1.00  0.00    -0.248 NA
ATOM     66  C   UNL A   1      42.210  30.173  35.507  1.00  0.00     0.031 C 
ATOM     67  C   UNL A   1      44.218  28.489  31.001  1.00  0.00     0.029 A 
ATOM     68  C   UNL A   1      43.369  27.723  31.780  1.00  0.00     0.049 A 
ATOM     69  H   UNL A   1      41.846  26.388  31.210  1.00  0.00     0.167 HD
ATOM     70  C   UNL A   1      42.837  28.637  33.893  1.00  0.00     0.074 A 
ATOM     71  C   UNL A   1      42.792  28.980  35.297  1.00  0.00     0.031 C 
ATOM     72  C   UNL A   1      43.246  27.533  33.205  1.00  0.00     0.037 A 
BRANCH  59  73
ATOM     73  C   UNL A   1      42.315  26.115  27.347  1.00  0.00     0.057 A 
ATOM     74  C   UNL A   1      42.046  24.739  27.313  1.00  0.00     0.134 A 
ATOM     75  C   UNL A   1      43.005  26.612  26.220  1.00  0.00     0.134 A 
ATOM     76  F   UNL A   1      41.315  24.147  28.266  1.00  0.00    -0.206 F 
ATOM     77  C   UNL A   1      42.555  23.893  26.316  1.00  0.00     0.040 A 
ATOM     78  C   UNL A   1      43.558  25.770  25.238  1.00  0.00     0.040 A 
ATOM     79  F   UNL A   1      43.234  27.927  26.077  1.00  0.00    -0.206 F 
ATOM     80  C   UNL A   1      43.355  24.398  25.300  1.00  0.00     0.006 A 
ENDBRANCH  59  73
BRANCH  60  81
ATOM     81  C   UNL A   1      39.949  32.375  34.499  1.00  0.00     0.057 A 
ATOM     82  C   UNL A   1      39.932  33.716  34.932  1.00  0.00     0.134 A 
ATOM     83  C   UNL A   1      38.719  31.711  34.463  1.00  0.00     0.134 A 
ATOM     84  F   UNL A   1      41.074  34.422  34.984  1.00  0.00    -0.206 F 
ATOM     85  C   UNL A   1      38.744  34.392  35.225  1.00  0.00     0.040 A 
ATOM     86  C   UNL A   1      37.520  32.377  34.764  1.00  0.00     0.040 A 
ATOM     87  F   UNL A   1      38.638  30.448  34.025  1.00  0.00    -0.206 F 
ATOM     88  C   UNL A   1      37.529  33.726  35.119  1.00  0.00     0.006 A 
ENDBRANCH  60  81
BRANCH  72  89
ATOM     89  C   UNL A   1      43.599  26.174  33.754  1.00  0.00     0.057 A 
ATOM     90  C   UNL A   1      42.741  25.398  34.539  1.00  0.00     0.134 A 
ATOM     91  C   UNL A   1      44.777  25.514  33.319  1.00  0.00     0.134 A 
ATOM     92  F   UNL A   1      41.552  25.860  34.947  1.00  0.00    -0.206 F 
ATOM     93  C   UNL A   1      43.041  24.075  34.891  1.00  0.00     0.040 A 
ATOM     94  C   UNL A   1      45.056  24.177  33.610  1.00  0.00     0.040 A 
ATOM     95  F   UNL A   1      45.696  26.129  32.559  1.00  0.00    -0.206 F 
ATOM     96  C   UNL A   1      44.189  23.454  34.411  1.00  0.00     0.006 A 
ENDBRANCH  72  89
ENDBRANCH  46  47
ENDBRANCH  39  41
ENDBRANCH  38  39
ENDBRANCH  37  38
ENDBRANCH  36  37
ENDBRANCH  35  36
ENDBRANCH  34  35
ENDBRANCH   1  34
TORSDOF 19
ENDMDL
MODEL 2
REMARK VINA RESULT:     -13.6      1.892      2.919
REMARK SMILES Cc1cccc(N2C(=O)/C(=C/c3ccc(C(=O)OCCOCCOCCOC(=O)c4ccc(-c5c6nc(c(-c7c(F)cccc7F)c7ccc([nH]7)c(-c7c(F)cccc7F)c7nc(c(-c8c(F)cccc8F)c8ccc5[nH]8)C=C7)C=C6)cc4)cc3)c3ccccc3C2=O)c1
REMARK SMILES IDX 22 1 21 2 20 3 19 4 18 5 16 6 17 7 15 8 12 9 13 10 85 11
REMARK SMILES IDX 14 12 84 13 11 14 7 15 8 16 92 17 9 18 10 19 91 20 93 21
REMARK SMILES IDX 86 22 90 23 87 24 89 25 88 26 6 27 1 28 2 29 3 30 94 31 4 32
REMARK SMILES IDX 5 33 23 34 24 35 25 36 26 37 27 38 28 39 29 40 30 41 31 42
REMARK SMILES IDX 83 43 32 44 82 45 33 46 34 47 35 48 76 49 36 50 81 51 75 52
REMARK SMILES IDX 77 53 37 54 80 55 74 56 73 57 38 59 64 60 47 61 63 62 48 63
REMARK SMILES IDX 51 64 62 65 78 66 49 67 50 68 61 70 79 71 52 72 39 73 40 74
REMARK SMILES IDX 45 75 41 76 42 77 44 78 46 79 43 80 65 81 66 82 71 83 67 84
REMARK SMILES IDX 68 85 70 86 72 87 69 88 53 89 54 90 59 91 55 92 56 93 58 94
REMARK SMILES IDX 60 95 57 96
REMARK H PARENT 77 58 51 69
REMARK Flexibility Score: inf
ROOT
ATOM      1  C   UNL A   1      34.250  32.516  28.692  1.00  0.00     0.188 C 
ENDROOT
BRANCH   1   2
ATOM      2  O   UNL A   1      33.707  31.742  27.609  1.00  0.00    -0.376 OA
BRANCH   2   3
ATOM      3  C   UNL A   1      34.089  30.426  27.247  1.00  0.00     0.202 C 
BRANCH   3   4
ATOM      4  C   UNL A   1      33.124  29.043  27.265  1.00  0.00     0.261 C 
BRANCH   4   5
ATOM      5  O   UNL A   1      31.670  28.520  26.521  1.00  0.00    -0.460 OA
BRANCH   5   6
ATOM      6  C   UNL A   1      31.194  27.873  25.369  1.00  0.00     0.338 C 
ATOM      7  O   UNL A   1      30.640  28.316  24.370  1.00  0.00    -0.246 OA
BRANCH   6   8
ATOM      8  C   UNL A   1      31.335  26.471  25.010  1.00  0.00     0.060 A 
ATOM      9  C   UNL A   1      30.732  23.785  24.580  1.00  0.00    -0.025 A 
ATOM     10  C   UNL A   1      30.458  24.698  23.573  1.00  0.00     0.009 A 
ATOM     11  C   UNL A   1      31.026  24.225  25.878  1.00  0.00     0.009 A 
ATOM     12  C   UNL A   1      30.740  26.037  23.804  1.00  0.00     0.016 A 
ATOM     13  C   UNL A   1      31.343  25.567  26.087  1.00  0.00     0.016 A 
BRANCH   9  14
ATOM     14  C   UNL A   1      31.093  22.438  24.158  1.00  0.00     0.022 C 
ATOM     15  N   UNL A   1      33.565  20.229  24.617  1.00  0.00    -0.242 N 
ATOM     16  C   UNL A   1      32.697  20.753  23.636  1.00  0.00     0.265 C 
ATOM     17  C   UNL A   1      34.246  21.099  25.521  1.00  0.00     0.265 C 
ATOM     18  O   UNL A   1      32.153  20.216  22.676  1.00  0.00    -0.268 OA
ATOM     19  C   UNL A   1      32.386  22.169  23.871  1.00  0.00     0.049 C 
ATOM     20  C   UNL A   1      34.376  22.535  25.129  1.00  0.00     0.048 A 
ATOM     21  O   UNL A   1      34.758  20.810  26.600  1.00  0.00    -0.268 OA
ATOM     22  C   UNL A   1      33.521  23.040  24.160  1.00  0.00    -0.000 A 
ATOM     23  C   UNL A   1      35.293  23.391  25.752  1.00  0.00     0.014 A 
ATOM     24  C   UNL A   1      33.679  24.351  23.690  1.00  0.00     0.010 A 
ATOM     25  C   UNL A   1      35.380  24.731  25.360  1.00  0.00     0.001 A 
ATOM     26  C   UNL A   1      34.593  25.204  24.311  1.00  0.00     0.001 A 
BRANCH  15  27
ATOM     27  C   UNL A   1      33.704  18.781  24.728  1.00  0.00     0.053 A 
ATOM     28  C   UNL A   1      31.714  15.815  26.125  1.00  0.00     0.044 C 
ATOM     29  C   UNL A   1      32.822  16.594  25.479  1.00  0.00    -0.049 A 
ATOM     30  C   UNL A   1      33.948  15.951  24.982  1.00  0.00     0.003 A 
ATOM     31  C   UNL A   1      32.708  17.986  25.329  1.00  0.00     0.030 A 
ATOM     32  C   UNL A   1      34.949  16.697  24.371  1.00  0.00     0.002 A 
ATOM     33  C   UNL A   1      34.828  18.088  24.251  1.00  0.00     0.027 A 
ENDBRANCH  15  27
ENDBRANCH   9  14
ENDBRANCH   6   8
ENDBRANCH   5   6
ENDBRANCH   4   5
ENDBRANCH   3   4
ENDBRANCH   2   3
ENDBRANCH   1   2
BRANCH   1  34
ATOM     34  C   UNL A   1      34.176  34.038  28.677  1.00  0.00     0.188 C 
BRANCH  34  35
ATOM     35  O   UNL A   1      33.073  34.450  29.460  1.00  0.00    -0.376 OA
BRANCH  35  36
ATOM     36  C   UNL A   1      33.054  35.821  29.807  1.00  0.00     0.202 C 
BRANCH  36  37
ATOM     37  C   UNL A   1      32.170  36.077  31.036  1.00  0.00     0.261 C 
BRANCH  37  38
ATOM     38  O   UNL A   1      32.557  35.198  32.122  1.00  0.00    -0.460 OA
BRANCH  38  39
ATOM     39  C   UNL A   1      33.576  35.617  32.944  1.00  0.00     0.338 C 
ATOM     40  O   UNL A   1      33.814  36.786  33.212  1.00  0.00    -0.246 OA
BRANCH  39  41
ATOM     41  C   UNL A   1      34.509  34.473  33.248  1.00  0.00     0.060 A 
ATOM     42  C   UNL A   1      35.726  34.574  33.938  1.00  0.00     0.016 A 
ATOM     43  C   UNL A   1      34.383  33.378  32.466  1.00  0.00     0.016 A 
ATOM     44  C   UNL A   1      36.859  33.687  33.656  1.00  0.00     0.010 A 
ATOM     45  C   UNL A   1      35.589  32.802  32.039  1.00  0.00     0.010 A 
ATOM     46  C   UNL A   1      36.900  32.796  32.571  1.00  0.00    -0.014 A 
BRANCH  46  47
ATOM     47  C   UNL A   1      38.309  32.154  31.873  1.00  0.00     0.031 A 
ATOM     48  C   UNL A   1      38.661  30.924  30.765  1.00  0.00     0.074 A 
ATOM     49  C   UNL A   1      39.486  32.601  32.371  1.00  0.00     0.049 A 
ATOM     50  N   UNL A   1      39.483  29.912  31.024  1.00  0.00    -0.248 NA
ATOM     51  C   UNL A   1      38.075  30.646  29.418  1.00  0.00     0.031 C 
ATOM     52  C   UNL A   1      40.831  32.278  31.899  1.00  0.00     0.029 A 
ATOM     53  N   UNL A   1      39.705  33.358  33.523  1.00  0.00    -0.354 N 
ATOM     54  C   UNL A   1      39.470  29.009  29.947  1.00  0.00     0.074 A 
ATOM     55  C   UNL A   1      38.471  29.437  29.061  1.00  0.00     0.031 C 
ATOM     56  C   UNL A   1      41.701  32.537  32.885  1.00  0.00     0.029 A 
ATOM     57  C   UNL A   1      40.940  32.958  34.045  1.00  0.00     0.049 A 
ATOM     58  H   UNL A   1      39.107  34.044  33.897  1.00  0.00     0.167 HD
ATOM     59  C   UNL A   1      40.367  28.025  29.674  1.00  0.00     0.037 A 
ATOM     60  C   UNL A   1      41.067  32.488  35.314  1.00  0.00     0.037 A 
ATOM     61  C   UNL A   1      41.496  28.173  30.529  1.00  0.00     0.049 A 
ATOM     62  C   UNL A   1      41.723  31.135  35.392  1.00  0.00     0.074 A 
ATOM     63  C   UNL A   1      42.605  28.987  30.402  1.00  0.00     0.029 A 
ATOM     64  N   UNL A   1      41.384  27.815  31.852  1.00  0.00    -0.354 N 
ATOM     65  N   UNL A   1      41.851  30.325  34.379  1.00  0.00    -0.248 NA
ATOM     66  C   UNL A   1      42.261  30.568  36.625  1.00  0.00     0.031 C 
ATOM     67  C   UNL A   1      43.155  29.155  31.688  1.00  0.00     0.029 A 
ATOM     68  C   UNL A   1      42.409  28.390  32.567  1.00  0.00     0.049 A 
ATOM     69  H   UNL A   1      40.681  27.237  32.228  1.00  0.00     0.167 HD
ATOM     70  C   UNL A   1      42.401  29.143  34.807  1.00  0.00     0.074 A 
ATOM     71  C   UNL A   1      42.672  29.358  36.211  1.00  0.00     0.031 C 
ATOM     72  C   UNL A   1      42.556  28.079  33.969  1.00  0.00     0.037 A 
BRANCH  59  73
ATOM     73  C   UNL A   1      40.339  27.287  28.343  1.00  0.00     0.057 A 
ATOM     74  C   UNL A   1      39.717  26.036  28.217  1.00  0.00     0.134 A 
ATOM     75  C   UNL A   1      41.036  27.720  27.194  1.00  0.00     0.134 A 
ATOM     76  F   UNL A   1      38.941  25.542  29.190  1.00  0.00    -0.206 F 
ATOM     77  C   UNL A   1      39.900  25.209  27.099  1.00  0.00     0.040 A 
ATOM     78  C   UNL A   1      41.264  26.883  26.086  1.00  0.00     0.040 A 
ATOM     79  F   UNL A   1      41.588  28.943  27.143  1.00  0.00    -0.206 F 
ATOM     80  C   UNL A   1      40.714  25.609  26.049  1.00  0.00     0.006 A 
ENDBRANCH  59  73
BRANCH  60  81
ATOM     81  C   UNL A   1      40.066  33.026  36.276  1.00  0.00     0.057 A 
ATOM     82  C   UNL A   1      38.889  32.287  36.506  1.00  0.00     0.134 A 
ATOM     83  C   UNL A   1      40.359  34.043  37.191  1.00  0.00     0.134 A 
ATOM     84  F   UNL A   1      38.547  31.288  35.675  1.00  0.00    -0.206 F 
ATOM     85  C   UNL A   1      38.091  32.484  37.637  1.00  0.00     0.040 A 
ATOM     86  C   UNL A   1      39.560  34.257  38.326  1.00  0.00     0.040 A 
ATOM     87  F   UNL A   1      41.480  34.766  37.072  1.00  0.00    -0.206 F 
ATOM     88  C   UNL A   1      38.440  33.459  38.564  1.00  0.00     0.006 A 
ENDBRANCH  60  81
BRANCH  72  89
ATOM     89  C   UNL A   1      42.880  26.651  34.329  1.00  0.00     0.057 A 
ATOM     90  C   UNL A   1      44.118  26.046  34.099  1.00  0.00     0.134 A 
ATOM     91  C   UNL A   1      41.980  25.897  35.125  1.00  0.00     0.134 A 
ATOM     92  F   UNL A   1      45.097  26.678  33.439  1.00  0.00    -0.206 F 
ATOM     93  C   UNL A   1      44.432  24.774  34.596  1.00  0.00     0.040 A 
ATOM     94  C   UNL A   1      42.306  24.656  35.679  1.00  0.00     0.040 A 
ATOM     95  F   UNL A   1      40.753  26.346  35.431  1.00  0.00    -0.206 F 
ATOM     96  C   UNL A   1      43.535  24.084  35.404  1.00  0.00     0.006 A 
ENDBRANCH  72  89
ENDBRANCH  46  47
ENDBRANCH  39  41
ENDBRANCH  38  39
ENDBRANCH  37  38
ENDBRANCH  36  37
ENDBRANCH  35  36
ENDBRANCH  34  35
ENDBRANCH   1  34
TORSDOF 19
ENDMDL
MODEL 3
REMARK VINA RESULT:     -13.3      1.481      2.080
REMARK SMILES Cc1cccc(N2C(=O)/C(=C/c3ccc(C(=O)OCCOCCOCCOC(=O)c4ccc(-c5c6nc(c(-c7c(F)cccc7F)c7ccc([nH]7)c(-c7c(F)cccc7F)c7nc(c(-c8c(F)cccc8F)c8ccc5[nH]8)C=C7)C=C6)cc4)cc3)c3ccccc3C2=O)c1
REMARK SMILES IDX 22 1 21 2 20 3 19 4 18 5 16 6 17 7 15 8 12 9 13 10 85 11
REMARK SMILES IDX 14 12 84 13 11 14 7 15 8 16 92 17 9 18 10 19 91 20 93 21
REMARK SMILES IDX 86 22 90 23 87 24 89 25 88 26 6 27 1 28 2 29 3 30 94 31 4 32
REMARK SMILES IDX 5 33 23 34 24 35 25 36 26 37 27 38 28 39 29 40 30 41 31 42
REMARK SMILES IDX 83 43 32 44 82 45 33 46 34 47 35 48 76 49 36 50 81 51 75 52
REMARK SMILES IDX 77 53 37 54 80 55 74 56 73 57 38 59 64 60 47 61 63 62 48 63
REMARK SMILES IDX 51 64 62 65 78 66 49 67 50 68 61 70 79 71 52 72 39 73 40 74
REMARK SMILES IDX 45 75 41 76 42 77 44 78 46 79 43 80 65 81 66 82 71 83 67 84
REMARK SMILES IDX 68 85 70 86 72 87 69 88 53 89 54 90 59 91 55 92 56 93 58 94
REMARK SMILES IDX 60 95 57 96
REMARK H PARENT 77 58 51 69
REMARK Flexibility Score: inf
ROOT
ATOM      1  C   UNL A   1      33.288  34.245  28.809  1.00  0.00     0.188 C 
ENDROOT
BRANCH   1   2
ATOM      2  O   UNL A   1      33.393  33.338  27.698  1.00  0.00    -0.376 OA
BRANCH   2   3
ATOM      3  C   UNL A   1      33.433  31.923  27.774  1.00  0.00     0.202 C 
BRANCH   3   4
ATOM      4  C   UNL A   1      32.593  30.826  26.807  1.00  0.00     0.261 C 
BRANCH   4   5
ATOM      5  O   UNL A   1      31.361  30.893  25.616  1.00  0.00    -0.460 OA
BRANCH   5   6
ATOM      6  C   UNL A   1      30.779  30.131  24.591  1.00  0.00     0.338 C 
ATOM      7  O   UNL A   1      29.858  30.386  23.823  1.00  0.00    -0.246 OA
BRANCH   6   8
ATOM      8  C   UNL A   1      31.206  28.833  24.091  1.00  0.00     0.060 A 
ATOM      9  C   UNL A   1      31.550  26.638  22.410  1.00  0.00    -0.025 A 
ATOM     10  C   UNL A   1      32.427  27.706  22.298  1.00  0.00     0.009 A 
ATOM     11  C   UNL A   1      30.356  26.771  23.132  1.00  0.00     0.009 A 
ATOM     12  C   UNL A   1      32.235  28.806  23.123  1.00  0.00     0.016 A 
ATOM     13  C   UNL A   1      30.194  27.863  23.984  1.00  0.00     0.016 A 
BRANCH   9  14
ATOM     14  C   UNL A   1      32.091  25.318  22.114  1.00  0.00     0.022 C 
ATOM     15  N   UNL A   1      32.483  22.357  23.625  1.00  0.00    -0.242 N 
ATOM     16  C   UNL A   1      33.127  23.272  22.765  1.00  0.00     0.265 C 
ATOM     17  C   UNL A   1      31.825  22.813  24.807  1.00  0.00     0.265 C 
ATOM     18  O   UNL A   1      33.875  23.085  21.811  1.00  0.00    -0.268 OA
ATOM     19  C   UNL A   1      32.779  24.664  23.077  1.00  0.00     0.049 C 
ATOM     20  C   UNL A   1      32.210  24.157  25.335  1.00  0.00     0.048 A 
ATOM     21  O   UNL A   1      30.971  22.226  25.466  1.00  0.00    -0.268 OA
ATOM     22  C   UNL A   1      32.848  25.049  24.484  1.00  0.00    -0.000 A 
ATOM     23  C   UNL A   1      31.894  24.557  26.639  1.00  0.00     0.014 A 
ATOM     24  C   UNL A   1      33.319  26.276  24.967  1.00  0.00     0.010 A 
ATOM     25  C   UNL A   1      32.269  25.827  27.094  1.00  0.00     0.001 A 
ATOM     26  C   UNL A   1      33.004  26.675  26.267  1.00  0.00     0.001 A 
BRANCH  15  27
ATOM     27  C   UNL A   1      32.449  20.947  23.250  1.00  0.00     0.053 A 
ATOM     28  C   UNL A   1      33.347  17.552  24.791  1.00  0.00     0.044 C 
ATOM     29  C   UNL A   1      32.883  18.572  23.794  1.00  0.00    -0.049 A 
ATOM     30  C   UNL A   1      32.414  18.185  22.545  1.00  0.00     0.003 A 
ATOM     31  C   UNL A   1      32.876  19.935  24.132  1.00  0.00     0.030 A 
ATOM     32  C   UNL A   1      31.973  19.150  21.649  1.00  0.00     0.002 A 
ATOM     33  C   UNL A   1      31.994  20.508  21.997  1.00  0.00     0.027 A 
ENDBRANCH  15  27
ENDBRANCH   9  14
ENDBRANCH   6   8
ENDBRANCH   5   6
ENDBRANCH   4   5
ENDBRANCH   3   4
ENDBRANCH   2   3
ENDBRANCH   1   2
BRANCH   1  34
ATOM     34  C   UNL A   1      33.309  35.753  28.589  1.00  0.00     0.188 C 
BRANCH  34  35
ATOM     35  O   UNL A   1      32.468  36.367  29.546  1.00  0.00    -0.376 OA
BRANCH  35  36
ATOM     36  C   UNL A   1      33.106  36.772  30.742  1.00  0.00     0.202 C 
BRANCH  36  37
ATOM     37  C   UNL A   1      32.294  36.359  31.978  1.00  0.00     0.261 C 
BRANCH  37  38
ATOM     38  O   UNL A   1      32.823  35.130  32.535  1.00  0.00    -0.460 OA
BRANCH  38  39
ATOM     39  C   UNL A   1      33.915  35.228  33.363  1.00  0.00     0.338 C 
ATOM     40  O   UNL A   1      34.311  36.269  33.869  1.00  0.00    -0.246 OA
BRANCH  39  41
ATOM     41  C   UNL A   1      34.703  33.944  33.347  1.00  0.00     0.060 A 
ATOM     42  C   UNL A   1      35.791  33.643  34.180  1.00  0.00     0.016 A 
ATOM     43  C   UNL A   1      34.636  33.219  32.207  1.00  0.00     0.016 A 
ATOM     44  C   UNL A   1      36.893  32.779  33.744  1.00  0.00     0.010 A 
ATOM     45  C   UNL A   1      35.855  32.685  31.763  1.00  0.00     0.010 A 
ATOM     46  C   UNL A   1      37.054  32.329  32.423  1.00  0.00    -0.014 A 
BRANCH  46  47
ATOM     47  C   UNL A   1      38.514  31.804  31.730  1.00  0.00     0.031 A 
ATOM     48  C   UNL A   1      38.960  30.662  30.564  1.00  0.00     0.074 A 
ATOM     49  C   UNL A   1      39.652  32.281  32.288  1.00  0.00     0.049 A 
ATOM     50  N   UNL A   1      39.828  29.680  30.788  1.00  0.00    -0.248 NA
ATOM     51  C   UNL A   1      38.425  30.434  29.187  1.00  0.00     0.031 C 
ATOM     52  C   UNL A   1      41.024  32.056  31.838  1.00  0.00     0.029 A 
ATOM     53  N   UNL A   1      39.800  32.978  33.488  1.00  0.00    -0.354 N 
ATOM     54  C   UNL A   1      39.892  28.844  29.660  1.00  0.00     0.074 A 
ATOM     55  C   UNL A   1      38.895  29.271  28.771  1.00  0.00     0.031 C 
ATOM     56  C   UNL A   1      41.853  32.300  32.863  1.00  0.00     0.029 A 
ATOM     57  C   UNL A   1      41.040  32.612  34.022  1.00  0.00     0.049 A 
ATOM     58  H   UNL A   1      39.156  33.608  33.884  1.00  0.00     0.167 HD
ATOM     59  C   UNL A   1      40.847  27.925  29.356  1.00  0.00     0.037 A 
ATOM     60  C   UNL A   1      41.158  32.074  35.265  1.00  0.00     0.037 A 
ATOM     61  C   UNL A   1      41.943  28.080  30.252  1.00  0.00     0.049 A 
ATOM     62  C   UNL A   1      41.883  30.754  35.284  1.00  0.00     0.074 A 
ATOM     63  C   UNL A   1      43.011  28.956  30.205  1.00  0.00     0.029 A 
ATOM     64  N   UNL A   1      41.816  27.639  31.548  1.00  0.00    -0.354 N 
ATOM     65  N   UNL A   1      42.081  30.014  34.229  1.00  0.00    -0.248 NA
ATOM     66  C   UNL A   1      42.419  30.144  36.497  1.00  0.00     0.031 C 
ATOM     67  C   UNL A   1      43.516  29.076  31.514  1.00  0.00     0.029 A 
ATOM     68  C   UNL A   1      42.790  28.222  32.325  1.00  0.00     0.049 A 
ATOM     69  H   UNL A   1      41.136  27.004  31.869  1.00  0.00     0.167 HD
ATOM     70  C   UNL A   1      42.682  28.839  34.604  1.00  0.00     0.074 A 
ATOM     71  C   UNL A   1      42.904  28.983  36.025  1.00  0.00     0.031 C 
ATOM     72  C   UNL A   1      42.916  27.837  33.710  1.00  0.00     0.037 A 
BRANCH  59  73
ATOM     73  C   UNL A   1      40.893  27.268  27.985  1.00  0.00     0.057 A 
ATOM     74  C   UNL A   1      40.349  25.993  27.770  1.00  0.00     0.134 A 
ATOM     75  C   UNL A   1      41.591  27.807  26.882  1.00  0.00     0.134 A 
ATOM     76  F   UNL A   1      39.580  25.399  28.691  1.00  0.00    -0.206 F 
ATOM     77  C   UNL A   1      40.606  25.246  26.610  1.00  0.00     0.040 A 
ATOM     78  C   UNL A   1      41.893  27.052  25.734  1.00  0.00     0.040 A 
ATOM     79  F   UNL A   1      42.072  29.060  26.917  1.00  0.00    -0.206 F 
ATOM     80  C   UNL A   1      41.420  25.753  25.608  1.00  0.00     0.006 A 
ENDBRANCH  59  73
BRANCH  60  81
ATOM     81  C   UNL A   1      40.105  32.501  36.227  1.00  0.00     0.057 A 
ATOM     82  C   UNL A   1      40.103  33.838  36.672  1.00  0.00     0.134 A 
ATOM     83  C   UNL A   1      38.947  31.755  36.470  1.00  0.00     0.134 A 
ATOM     84  F   UNL A   1      41.177  34.618  36.465  1.00  0.00    -0.206 F 
ATOM     85  C   UNL A   1      38.976  34.433  37.245  1.00  0.00     0.040 A 
ATOM     86  C   UNL A   1      37.811  32.339  37.053  1.00  0.00     0.040 A 
ATOM     87  F   UNL A   1      38.848  30.490  36.043  1.00  0.00    -0.206 F 
ATOM     88  C   UNL A   1      37.816  33.687  37.417  1.00  0.00     0.006 A 
ENDBRANCH  60  81
BRANCH  72  89
ATOM     89  C   UNL A   1      43.306  26.408  33.996  1.00  0.00     0.057 A 
ATOM     90  C   UNL A   1      44.567  25.871  33.725  1.00  0.00     0.134 A 
ATOM     91  C   UNL A   1      42.449  25.576  34.761  1.00  0.00     0.134 A 
ATOM     92  F   UNL A   1      45.510  26.578  33.089  1.00  0.00    -0.206 F 
ATOM     93  C   UNL A   1      44.942  24.591  34.156  1.00  0.00     0.040 A 
ATOM     94  C   UNL A   1      42.835  24.326  35.250  1.00  0.00     0.040 A 
ATOM     95  F   UNL A   1      41.207  25.954  35.100  1.00  0.00    -0.206 F 
ATOM     96  C   UNL A   1      44.085  23.823  34.936  1.00  0.00     0.006 A 
ENDBRANCH  72  89
ENDBRANCH  46  47
ENDBRANCH  39  41
ENDBRANCH  38  39
ENDBRANCH  37  38
ENDBRANCH  36  37
ENDBRANCH  35  36
ENDBRANCH  34  35
ENDBRANCH   1  34
TORSDOF 19
ENDMDL
