MODEL 1
REMARK VINA RESULT:     -10.9      0.000      0.000
REMARK SMILES C[C@@H](C(=O)OCCOCCOCCOC(=O)c1ccc(-c2c3nc(c(-c4c(F)cccc4F)c4ccc([nH]4)c(-c4c(F)cccc4F)c4nc(c(-c5c(F)cccc5F)c5ccc2[nH]5)C=C4)C=C3)cc1)c1ccc(C[C@H]2CCCC2=O)c(-c2ccccc2)c1
REMARK SMILES IDX 9 1 8 2 7 3 6 4 5 5 3 6 4 7 2 8 1 9 71 10 72 11 89 12 73 13
REMARK SMILES IDX 82 14 74 15 83 16 84 17 88 18 85 19 87 20 86 21 75 22 76 23
REMARK SMILES IDX 77 24 80 25 78 26 79 27 81 28 10 29 11 30 12 31 13 32 14 33
REMARK SMILES IDX 15 34 16 35 17 36 18 37 70 38 19 39 69 40 20 41 21 42 22 43
REMARK SMILES IDX 63 44 23 45 68 46 62 47 64 48 24 49 67 50 61 51 60 52 25 54
REMARK SMILES IDX 51 55 34 56 50 57 35 58 38 59 49 60 65 61 36 62 37 63 48 65
REMARK SMILES IDX 66 66 39 67 26 68 27 69 32 70 28 71 29 72 31 73 33 74 30 75
REMARK SMILES IDX 52 76 53 77 58 78 54 79 55 80 57 81 59 82 56 83 40 84 41 85
REMARK SMILES IDX 46 86 42 87 43 88 45 89 47 90 44 91
REMARK H PARENT 64 53 38 64
REMARK Flexibility Score: inf
ROOT
ATOM      1  C   UNL A   1      32.711  19.252  24.092  1.00  0.00     0.188 C 
ENDROOT
BRANCH   1   2
ATOM      2  O   UNL A   1      32.627  20.073  25.246  1.00  0.00    -0.376 OA
BRANCH   2   3
ATOM      3  C   UNL A   1      31.892  21.283  25.150  1.00  0.00     0.202 C 
BRANCH   3   4
ATOM      4  C   UNL A   1      32.655  22.591  24.885  1.00  0.00     0.261 C 
BRANCH   4   5
ATOM      5  O   UNL A   1      34.015  22.463  24.413  1.00  0.00    -0.463 OA
BRANCH   5   6
ATOM      6  C   UNL A   1      34.328  23.123  23.262  1.00  0.00     0.313 C 
ATOM      7  O   UNL A   1      35.466  23.190  22.808  1.00  0.00    -0.252 OA
BRANCH   6   8
ATOM      8  C   UNL A   1      33.137  23.833  22.599  1.00  0.00     0.126 C 
ATOM      9  C   UNL A   1      32.960  23.745  21.080  1.00  0.00     0.025 C 
BRANCH   8  10
ATOM     10  C   UNL A   1      32.968  25.275  23.088  1.00  0.00    -0.033 A 
ATOM     11  C   UNL A   1      34.006  25.844  23.812  1.00  0.00     0.005 A 
ATOM     12  C   UNL A   1      31.828  26.076  22.825  1.00  0.00     0.013 A 
ATOM     13  C   UNL A   1      33.895  27.151  24.271  1.00  0.00     0.004 A 
ATOM     14  C   UNL A   1      31.665  27.414  23.294  1.00  0.00    -0.015 A 
ATOM     15  C   UNL A   1      32.731  27.936  24.070  1.00  0.00    -0.039 A 
BRANCH  14  16
ATOM     16  C   UNL A   1      30.411  28.168  22.876  1.00  0.00    -0.018 A 
ATOM     17  C   UNL A   1      28.806  27.629  23.558  1.00  0.00     0.009 A 
ATOM     18  C   UNL A   1      30.513  29.747  21.984  1.00  0.00     0.009 A 
ATOM     19  C   UNL A   1      27.270  28.510  23.207  1.00  0.00     0.001 A 
ATOM     20  C   UNL A   1      29.066  30.862  21.980  1.00  0.00     0.001 A 
ATOM     21  C   UNL A   1      27.394  30.208  22.536  1.00  0.00     0.000 A 
ENDBRANCH  14  16
BRANCH  15  22
ATOM     22  C   UNL A   1      32.782  29.324  24.681  1.00  0.00     0.047 C 
BRANCH  22  23
ATOM     23  C   UNL A   1      32.398  29.494  26.158  1.00  0.00     0.060 C 
ATOM     24  C   UNL A   1      33.446  28.998  27.152  1.00  0.00     0.012 C 
ATOM     25  C   UNL A   1      32.216  30.925  26.613  1.00  0.00     0.136 C 
ATOM     26  C   UNL A   1      34.286  30.214  27.510  1.00  0.00     0.009 C 
ATOM     27  C   UNL A   1      33.294  31.367  27.572  1.00  0.00     0.076 C 
ATOM     28  O   UNL A   1      31.292  31.648  26.256  1.00  0.00    -0.299 OA
ENDBRANCH  22  23
ENDBRANCH  15  22
ENDBRANCH   8  10
ENDBRANCH   6   8
ENDBRANCH   5   6
ENDBRANCH   4   5
ENDBRANCH   3   4
ENDBRANCH   2   3
ENDBRANCH   1   2
BRANCH   1  29
ATOM     29  C   UNL A   1      33.708  18.080  24.065  1.00  0.00     0.188 C 
BRANCH  29  30
ATOM     30  O   UNL A   1      34.743  18.146  25.027  1.00  0.00    -0.376 OA
BRANCH  30  31
ATOM     31  C   UNL A   1      35.972  18.709  24.583  1.00  0.00     0.202 C 
BRANCH  31  32
ATOM     32  C   UNL A   1      36.144  20.149  25.080  1.00  0.00     0.261 C 
BRANCH  32  33
ATOM     33  O   UNL A   1      37.348  20.769  24.605  1.00  0.00    -0.460 OA
BRANCH  33  34
ATOM     34  C   UNL A   1      38.462  20.638  25.371  1.00  0.00     0.338 C 
ATOM     35  O   UNL A   1      39.232  19.699  25.393  1.00  0.00    -0.246 OA
BRANCH  34  36
ATOM     36  C   UNL A   1      38.742  21.994  25.902  1.00  0.00     0.060 A 
ATOM     37  C   UNL A   1      37.800  22.999  25.778  1.00  0.00     0.016 A 
ATOM     38  C   UNL A   1      39.769  22.192  26.782  1.00  0.00     0.016 A 
ATOM     39  C   UNL A   1      37.917  24.239  26.493  1.00  0.00     0.010 A 
ATOM     40  C   UNL A   1      39.880  23.423  27.467  1.00  0.00     0.010 A 
ATOM     41  C   UNL A   1      39.065  24.786  27.373  1.00  0.00    -0.014 A 
BRANCH  41  42
ATOM     42  C   UNL A   1      39.636  26.782  27.963  1.00  0.00     0.031 A 
ATOM     43  C   UNL A   1      41.438  27.360  28.223  1.00  0.00     0.074 A 
ATOM     44  C   UNL A   1      39.010  28.050  28.415  1.00  0.00     0.049 A 
ATOM     45  N   UNL A   1      42.010  28.587  28.190  1.00  0.00    -0.248 NA
ATOM     46  C   UNL A   1      42.611  26.384  28.440  1.00  0.00     0.031 C 
ATOM     47  C   UNL A   1      37.555  28.381  28.580  1.00  0.00     0.029 A 
ATOM     48  N   UNL A   1      39.533  29.313  28.846  1.00  0.00    -0.354 N 
ATOM     49  C   UNL A   1      43.440  28.426  28.168  1.00  0.00     0.074 A 
ATOM     50  C   UNL A   1      43.703  27.032  28.135  1.00  0.00     0.031 C 
ATOM     51  C   UNL A   1      37.333  29.596  29.053  1.00  0.00     0.029 A 
ATOM     52  C   UNL A   1      38.588  30.241  29.309  1.00  0.00     0.049 A 
ATOM     53  H   UNL A   1      40.495  29.516  28.820  1.00  0.00     0.167 HD
ATOM     54  C   UNL A   1      44.557  29.203  28.313  1.00  0.00     0.037 A 
ATOM     55  C   UNL A   1      38.546  31.465  29.896  1.00  0.00     0.037 A 
ATOM     56  C   UNL A   1      44.606  30.531  28.824  1.00  0.00     0.049 A 
ATOM     57  C   UNL A   1      39.743  32.288  30.220  1.00  0.00     0.074 A 
ATOM     58  C   UNL A   1      45.723  31.312  29.090  1.00  0.00     0.029 A 
ATOM     59  N   UNL A   1      43.515  31.203  29.311  1.00  0.00    -0.354 N 
ATOM     60  N   UNL A   1      40.999  32.023  30.012  1.00  0.00    -0.248 NA
ATOM     61  C   UNL A   1      39.501  33.591  30.871  1.00  0.00     0.031 C 
ATOM     62  C   UNL A   1      45.311  32.424  29.826  1.00  0.00     0.029 A 
ATOM     63  C   UNL A   1      43.934  32.377  29.911  1.00  0.00     0.049 A 
ATOM     64  H   UNL A   1      42.582  30.899  29.244  1.00  0.00     0.167 HD
ATOM     65  C   UNL A   1      41.693  33.125  30.492  1.00  0.00     0.074 A 
ATOM     66  C   UNL A   1      40.728  34.065  31.002  1.00  0.00     0.031 C 
ATOM     67  C   UNL A   1      43.027  33.325  30.474  1.00  0.00     0.037 A 
BRANCH  54  68
ATOM     68  C   UNL A   1      45.924  28.542  28.080  1.00  0.00     0.057 A 
ATOM     69  C   UNL A   1      46.622  27.923  29.126  1.00  0.00     0.134 A 
ATOM     70  C   UNL A   1      46.557  28.570  26.824  1.00  0.00     0.134 A 
ATOM     71  F   UNL A   1      46.100  27.887  30.362  1.00  0.00    -0.206 F 
ATOM     72  C   UNL A   1      47.898  27.378  28.939  1.00  0.00     0.040 A 
ATOM     73  C   UNL A   1      47.822  28.008  26.620  1.00  0.00     0.040 A 
ATOM     74  F   UNL A   1      45.967  29.166  25.776  1.00  0.00    -0.206 F 
ATOM     75  C   UNL A   1      48.500  27.416  27.683  1.00  0.00     0.006 A 
ENDBRANCH  54  68
BRANCH  55  76
ATOM     76  C   UNL A   1      37.205  31.997  30.339  1.00  0.00     0.057 A 
ATOM     77  C   UNL A   1      36.692  31.774  31.623  1.00  0.00     0.134 A 
ATOM     78  C   UNL A   1      36.450  32.807  29.476  1.00  0.00     0.134 A 
ATOM     79  F   UNL A   1      37.342  30.978  32.484  1.00  0.00    -0.206 F 
ATOM     80  C   UNL A   1      35.490  32.356  32.040  1.00  0.00     0.040 A 
ATOM     81  C   UNL A   1      35.270  33.424  29.893  1.00  0.00     0.040 A 
ATOM     82  F   UNL A   1      36.890  33.060  28.234  1.00  0.00    -0.206 F 
ATOM     83  C   UNL A   1      34.787  33.200  31.179  1.00  0.00     0.006 A 
ENDBRANCH  55  76
BRANCH  67  84
ATOM     84  C   UNL A   1      43.557  34.627  30.967  1.00  0.00     0.057 A 
ATOM     85  C   UNL A   1      43.691  35.745  30.139  1.00  0.00     0.134 A 
ATOM     86  C   UNL A   1      43.920  34.759  32.313  1.00  0.00     0.134 A 
ATOM     87  F   UNL A   1      43.366  35.675  28.839  1.00  0.00    -0.206 F 
ATOM     88  C   UNL A   1      44.197  36.949  30.629  1.00  0.00     0.040 A 
ATOM     89  C   UNL A   1      44.401  35.963  32.820  1.00  0.00     0.040 A 
ATOM     90  F   UNL A   1      43.807  33.722  33.156  1.00  0.00    -0.206 F 
ATOM     91  C   UNL A   1      44.549  37.061  31.974  1.00  0.00     0.006 A 
ENDBRANCH  67  84
ENDBRANCH  41  42
ENDBRANCH  34  36
ENDBRANCH  33  34
ENDBRANCH  32  33
ENDBRANCH  31  32
ENDBRANCH  30  31
ENDBRANCH  29  30
ENDBRANCH   1  29
TORSDOF 21
ENDMDL
MODEL 2
REMARK VINA RESULT:     -10.9      1.735      3.474
REMARK SMILES C[C@@H](C(=O)OCCOCCOCCOC(=O)c1ccc(-c2c3nc(c(-c4c(F)cccc4F)c4ccc([nH]4)c(-c4c(F)cccc4F)c4nc(c(-c5c(F)cccc5F)c5ccc2[nH]5)C=C4)C=C3)cc1)c1ccc(C[C@H]2CCCC2=O)c(-c2ccccc2)c1
REMARK SMILES IDX 9 1 8 2 7 3 6 4 5 5 3 6 4 7 2 8 1 9 71 10 72 11 89 12 73 13
REMARK SMILES IDX 82 14 74 15 83 16 84 17 88 18 85 19 87 20 86 21 75 22 76 23
REMARK SMILES IDX 77 24 80 25 78 26 79 27 81 28 10 29 11 30 12 31 13 32 14 33
REMARK SMILES IDX 15 34 16 35 17 36 18 37 70 38 19 39 69 40 20 41 21 42 22 43
REMARK SMILES IDX 63 44 23 45 68 46 62 47 64 48 24 49 67 50 61 51 60 52 25 54
REMARK SMILES IDX 51 55 34 56 50 57 35 58 38 59 49 60 65 61 36 62 37 63 48 65
REMARK SMILES IDX 66 66 39 67 26 68 27 69 32 70 28 71 29 72 31 73 33 74 30 75
REMARK SMILES IDX 52 76 53 77 58 78 54 79 55 80 57 81 59 82 56 83 40 84 41 85
REMARK SMILES IDX 46 86 42 87 43 88 45 89 47 90 44 91
REMARK H PARENT 64 53 38 64
REMARK Flexibility Score: inf
ROOT
ATOM      1  C   UNL A   1      32.157  18.399  22.996  1.00  0.00     0.188 C 
ENDROOT
BRANCH   1   2
ATOM      2  O   UNL A   1      32.272  19.728  22.514  1.00  0.00    -0.376 OA
BRANCH   2   3
ATOM      3  C   UNL A   1      32.128  20.789  23.444  1.00  0.00     0.202 C 
BRANCH   3   4
ATOM      4  C   UNL A   1      32.388  22.229  22.969  1.00  0.00     0.261 C 
BRANCH   4   5
ATOM      5  O   UNL A   1      31.397  23.218  23.327  1.00  0.00    -0.463 OA
BRANCH   5   6
ATOM      6  C   UNL A   1      31.447  23.699  24.601  1.00  0.00     0.313 C 
ATOM      7  O   UNL A   1      30.654  23.373  25.479  1.00  0.00    -0.252 OA
BRANCH   6   8
ATOM      8  C   UNL A   1      32.553  24.739  24.840  1.00  0.00     0.126 C 
ATOM      9  C   UNL A   1      33.500  24.569  26.031  1.00  0.00     0.025 C 
BRANCH   8  10
ATOM     10  C   UNL A   1      32.033  26.177  24.753  1.00  0.00    -0.033 A 
ATOM     11  C   UNL A   1      30.856  26.405  24.054  1.00  0.00     0.005 A 
ATOM     12  C   UNL A   1      32.665  27.290  25.366  1.00  0.00     0.013 A 
ATOM     13  C   UNL A   1      30.348  27.694  23.955  1.00  0.00     0.004 A 
ATOM     14  C   UNL A   1      32.189  28.632  25.272  1.00  0.00    -0.015 A 
ATOM     15  C   UNL A   1      31.009  28.822  24.507  1.00  0.00    -0.039 A 
BRANCH  14  16
ATOM     16  C   UNL A   1      32.941  29.710  26.037  1.00  0.00    -0.018 A 
ATOM     17  C   UNL A   1      32.012  31.171  26.617  1.00  0.00     0.009 A 
ATOM     18  C   UNL A   1      34.631  29.432  26.643  1.00  0.00     0.009 A 
ATOM     19  C   UNL A   1      32.782  32.462  27.616  1.00  0.00     0.001 A 
ATOM     20  C   UNL A   1      35.282  30.492  27.982  1.00  0.00     0.001 A 
ATOM     21  C   UNL A   1      34.377  32.078  28.428  1.00  0.00     0.000 A 
ENDBRANCH  14  16
BRANCH  15  22
ATOM     22  C   UNL A   1      30.321  30.151  24.260  1.00  0.00     0.047 C 
BRANCH  22  23
ATOM     23  C   UNL A   1      29.047  30.174  23.403  1.00  0.00     0.060 C 
ATOM     24  C   UNL A   1      28.023  31.232  23.809  1.00  0.00     0.012 C 
ATOM     25  C   UNL A   1      29.260  30.514  21.946  1.00  0.00     0.136 C 
ATOM     26  C   UNL A   1      28.308  32.442  22.933  1.00  0.00     0.009 C 
ATOM     27  C   UNL A   1      28.685  31.860  21.577  1.00  0.00     0.076 C 
ATOM     28  O   UNL A   1      29.825  29.780  21.143  1.00  0.00    -0.299 OA
ENDBRANCH  22  23
ENDBRANCH  15  22
ENDBRANCH   8  10
ENDBRANCH   6   8
ENDBRANCH   5   6
ENDBRANCH   4   5
ENDBRANCH   3   4
ENDBRANCH   2   3
ENDBRANCH   1   2
BRANCH   1  29
ATOM     29  C   UNL A   1      33.419  17.642  23.445  1.00  0.00     0.188 C 
BRANCH  29  30
ATOM     30  O   UNL A   1      33.972  18.066  24.676  1.00  0.00    -0.376 OA
BRANCH  30  31
ATOM     31  C   UNL A   1      35.266  18.655  24.609  1.00  0.00     0.202 C 
BRANCH  31  32
ATOM     32  C   UNL A   1      35.237  20.127  25.035  1.00  0.00     0.261 C 
BRANCH  32  33
ATOM     33  O   UNL A   1      36.349  20.881  24.530  1.00  0.00    -0.460 OA
BRANCH  33  34
ATOM     34  C   UNL A   1      37.583  20.566  25.000  1.00  0.00     0.338 C 
ATOM     35  O   UNL A   1      38.213  19.549  24.786  1.00  0.00    -0.246 OA
BRANCH  34  36
ATOM     36  C   UNL A   1      38.146  21.833  25.525  1.00  0.00     0.060 A 
ATOM     37  C   UNL A   1      37.345  22.955  25.643  1.00  0.00     0.016 A 
ATOM     38  C   UNL A   1      39.344  21.836  26.183  1.00  0.00     0.016 A 
ATOM     39  C   UNL A   1      37.771  24.115  26.375  1.00  0.00     0.010 A 
ATOM     40  C   UNL A   1      39.755  22.991  26.887  1.00  0.00     0.010 A 
ATOM     41  C   UNL A   1      39.134  24.448  27.026  1.00  0.00    -0.014 A 
BRANCH  41  42
ATOM     42  C   UNL A   1      40.079  26.308  27.577  1.00  0.00     0.031 A 
ATOM     43  C   UNL A   1      41.955  26.646  27.460  1.00  0.00     0.074 A 
ATOM     44  C   UNL A   1      39.738  27.601  28.223  1.00  0.00     0.049 A 
ATOM     45  N   UNL A   1      42.665  27.795  27.365  1.00  0.00    -0.248 NA
ATOM     46  C   UNL A   1      43.007  25.523  27.359  1.00  0.00     0.031 C 
ATOM     47  C   UNL A   1      38.409  28.088  28.725  1.00  0.00     0.029 A 
ATOM     48  N   UNL A   1      40.505  28.754  28.592  1.00  0.00    -0.354 N 
ATOM     49  C   UNL A   1      44.023  27.467  27.018  1.00  0.00     0.074 A 
ATOM     50  C   UNL A   1      44.084  26.059  26.854  1.00  0.00     0.031 C 
ATOM     51  C   UNL A   1      38.458  29.279  29.297  1.00  0.00     0.029 A 
ATOM     52  C   UNL A   1      39.814  29.747  29.301  1.00  0.00     0.049 A 
ATOM     53  H   UNL A   1      41.458  28.843  28.364  1.00  0.00     0.167 HD
ATOM     54  C   UNL A   1      45.238  28.092  26.950  1.00  0.00     0.037 A 
ATOM     55  C   UNL A   1      40.062  30.917  29.946  1.00  0.00     0.037 A 
ATOM     56  C   UNL A   1      45.572  29.360  27.507  1.00  0.00     0.049 A 
ATOM     57  C   UNL A   1      41.399  31.563  30.039  1.00  0.00     0.074 A 
ATOM     58  C   UNL A   1      46.814  29.979  27.559  1.00  0.00     0.029 A 
ATOM     59  N   UNL A   1      44.710  30.116  28.258  1.00  0.00    -0.354 N 
ATOM     60  N   UNL A   1      42.534  31.169  29.543  1.00  0.00    -0.248 NA
ATOM     61  C   UNL A   1      41.477  32.829  30.795  1.00  0.00     0.031 C 
ATOM     62  C   UNL A   1      46.721  31.069  28.425  1.00  0.00     0.029 A 
ATOM     63  C   UNL A   1      45.400  31.179  28.811  1.00  0.00     0.049 A 
ATOM     64  H   UNL A   1      43.752  29.931  28.385  1.00  0.00     0.167 HD
ATOM     65  C   UNL A   1      43.456  32.139  29.914  1.00  0.00     0.074 A 
ATOM     66  C   UNL A   1      42.757  33.143  30.674  1.00  0.00     0.031 C 
ATOM     67  C   UNL A   1      44.769  32.180  29.610  1.00  0.00     0.037 A 
BRANCH  54  68
ATOM     68  C   UNL A   1      46.423  27.295  26.385  1.00  0.00     0.057 A 
ATOM     69  C   UNL A   1      46.735  27.324  25.018  1.00  0.00     0.134 A 
ATOM     70  C   UNL A   1      47.214  26.463  27.199  1.00  0.00     0.134 A 
ATOM     71  F   UNL A   1      46.004  28.065  24.172  1.00  0.00    -0.206 F 
ATOM     72  C   UNL A   1      47.770  26.548  24.482  1.00  0.00     0.040 A 
ATOM     73  C   UNL A   1      48.265  25.701  26.677  1.00  0.00     0.040 A 
ATOM     74  F   UNL A   1      46.965  26.359  28.513  1.00  0.00    -0.206 F 
ATOM     75  C   UNL A   1      48.540  25.737  25.312  1.00  0.00     0.006 A 
ENDBRANCH  54  68
BRANCH  55  76
ATOM     76  C   UNL A   1      38.930  31.567  30.704  1.00  0.00     0.057 A 
ATOM     77  C   UNL A   1      38.727  31.367  32.075  1.00  0.00     0.134 A 
ATOM     78  C   UNL A   1      38.071  32.465  30.050  1.00  0.00     0.134 A 
ATOM     79  F   UNL A   1      39.485  30.493  32.752  1.00  0.00    -0.206 F 
ATOM     80  C   UNL A   1      37.727  32.053  32.773  1.00  0.00     0.040 A 
ATOM     81  C   UNL A   1      37.096  33.185  30.742  1.00  0.00     0.040 A 
ATOM     82  F   UNL A   1      38.216  32.701  28.738  1.00  0.00    -0.206 F 
ATOM     83  C   UNL A   1      36.923  32.980  32.108  1.00  0.00     0.006 A 
ENDBRANCH  55  76
BRANCH  67  84
ATOM     84  C   UNL A   1      45.561  33.366  30.040  1.00  0.00     0.057 A 
ATOM     85  C   UNL A   1      46.275  33.397  31.241  1.00  0.00     0.134 A 
ATOM     86  C   UNL A   1      45.620  34.494  29.212  1.00  0.00     0.134 A 
ATOM     87  F   UNL A   1      46.249  32.348  32.079  1.00  0.00    -0.206 F 
ATOM     88  C   UNL A   1      47.002  34.525  31.620  1.00  0.00     0.040 A 
ATOM     89  C   UNL A   1      46.364  35.616  29.566  1.00  0.00     0.040 A 
ATOM     90  F   UNL A   1      44.960  34.519  28.044  1.00  0.00    -0.206 F 
ATOM     91  C   UNL A   1      47.051  35.636  30.779  1.00  0.00     0.006 A 
ENDBRANCH  67  84
ENDBRANCH  41  42
ENDBRANCH  34  36
ENDBRANCH  33  34
ENDBRANCH  32  33
ENDBRANCH  31  32
ENDBRANCH  30  31
ENDBRANCH  29  30
ENDBRANCH   1  29
TORSDOF 21
ENDMDL
MODEL 3
REMARK VINA RESULT:     -10.9      3.763      5.510
REMARK SMILES C[C@@H](C(=O)OCCOCCOCCOC(=O)c1ccc(-c2c3nc(c(-c4c(F)cccc4F)c4ccc([nH]4)c(-c4c(F)cccc4F)c4nc(c(-c5c(F)cccc5F)c5ccc2[nH]5)C=C4)C=C3)cc1)c1ccc(C[C@H]2CCCC2=O)c(-c2ccccc2)c1
REMARK SMILES IDX 9 1 8 2 7 3 6 4 5 5 3 6 4 7 2 8 1 9 71 10 72 11 89 12 73 13
REMARK SMILES IDX 82 14 74 15 83 16 84 17 88 18 85 19 87 20 86 21 75 22 76 23
REMARK SMILES IDX 77 24 80 25 78 26 79 27 81 28 10 29 11 30 12 31 13 32 14 33
REMARK SMILES IDX 15 34 16 35 17 36 18 37 70 38 19 39 69 40 20 41 21 42 22 43
REMARK SMILES IDX 63 44 23 45 68 46 62 47 64 48 24 49 67 50 61 51 60 52 25 54
REMARK SMILES IDX 51 55 34 56 50 57 35 58 38 59 49 60 65 61 36 62 37 63 48 65
REMARK SMILES IDX 66 66 39 67 26 68 27 69 32 70 28 71 29 72 31 73 33 74 30 75
REMARK SMILES IDX 52 76 53 77 58 78 54 79 55 80 57 81 59 82 56 83 40 84 41 85
REMARK SMILES IDX 46 86 42 87 43 88 45 89 47 90 44 91
REMARK H PARENT 64 53 38 64
REMARK Flexibility Score: inf
ROOT
ATOM      1  C   UNL A   1      37.812  21.800  24.925  1.00  0.00     0.188 C 
ENDROOT
BRANCH   1   2
ATOM      2  O   UNL A   1      36.483  21.348  25.129  1.00  0.00    -0.376 OA
BRANCH   2   3
ATOM      3  C   UNL A   1      35.496  22.310  25.467  1.00  0.00     0.202 C 
BRANCH   3   4
ATOM      4  C   UNL A   1      34.125  21.819  25.960  1.00  0.00     0.261 C 
BRANCH   4   5
ATOM      5  O   UNL A   1      33.074  22.809  26.042  1.00  0.00    -0.463 OA
BRANCH   5   6
ATOM      6  C   UNL A   1      32.420  22.909  27.232  1.00  0.00     0.313 C 
ATOM      7  O   UNL A   1      32.889  22.520  28.298  1.00  0.00    -0.252 OA
BRANCH   6   8
ATOM      8  C   UNL A   1      31.006  23.504  27.127  1.00  0.00     0.126 C 
ATOM      9  C   UNL A   1      29.831  22.592  26.767  1.00  0.00     0.025 C 
BRANCH   8  10
ATOM     10  C   UNL A   1      30.975  24.793  26.300  1.00  0.00    -0.033 A 
ATOM     11  C   UNL A   1      30.057  24.882  25.263  1.00  0.00     0.005 A 
ATOM     12  C   UNL A   1      31.807  25.916  26.544  1.00  0.00     0.013 A 
ATOM     13  C   UNL A   1      29.993  26.035  24.491  1.00  0.00     0.004 A 
ATOM     14  C   UNL A   1      31.788  27.111  25.764  1.00  0.00    -0.015 A 
ATOM     15  C   UNL A   1      30.868  27.135  24.685  1.00  0.00    -0.039 A 
BRANCH  14  16
ATOM     16  C   UNL A   1      32.698  28.253  26.189  1.00  0.00    -0.018 A 
ATOM     17  C   UNL A   1      31.931  29.826  26.708  1.00  0.00     0.009 A 
ATOM     18  C   UNL A   1      34.471  27.989  26.483  1.00  0.00     0.009 A 
ATOM     19  C   UNL A   1      32.909  31.214  27.323  1.00  0.00     0.001 A 
ATOM     20  C   UNL A   1      35.397  29.203  27.486  1.00  0.00     0.001 A 
ATOM     21  C   UNL A   1      34.628  30.878  27.852  1.00  0.00     0.000 A 
ENDBRANCH  14  16
BRANCH  15  22
ATOM     22  C   UNL A   1      30.672  28.287  23.717  1.00  0.00     0.047 C 
BRANCH  22  23
ATOM     23  C   UNL A   1      31.563  28.361  22.469  1.00  0.00     0.060 C 
ATOM     24  C   UNL A   1      32.948  28.956  22.707  1.00  0.00     0.012 C 
ATOM     25  C   UNL A   1      31.918  27.026  21.854  1.00  0.00     0.136 C 
ATOM     26  C   UNL A   1      33.870  27.773  22.963  1.00  0.00     0.009 C 
ATOM     27  C   UNL A   1      33.380  26.688  22.014  1.00  0.00     0.076 C 
ATOM     28  O   UNL A   1      31.117  26.298  21.278  1.00  0.00    -0.299 OA
ENDBRANCH  22  23
ENDBRANCH  15  22
ENDBRANCH   8  10
ENDBRANCH   6   8
ENDBRANCH   5   6
ENDBRANCH   4   5
ENDBRANCH   3   4
ENDBRANCH   2   3
ENDBRANCH   1   2
BRANCH   1  29
ATOM     29  C   UNL A   1      38.911  21.401  25.925  1.00  0.00     0.188 C 
BRANCH  29  30
ATOM     30  O   UNL A   1      39.538  20.159  25.669  1.00  0.00    -0.376 OA
BRANCH  30  31
ATOM     31  C   UNL A   1      40.708  19.882  26.431  1.00  0.00     0.202 C 
BRANCH  31  32
ATOM     32  C   UNL A   1      40.972  20.973  27.475  1.00  0.00     0.261 C 
BRANCH  32  33
ATOM     33  O   UNL A   1      42.254  21.599  27.324  1.00  0.00    -0.460 OA
BRANCH  33  34
ATOM     34  C   UNL A   1      42.348  22.627  26.440  1.00  0.00     0.338 C 
ATOM     35  O   UNL A   1      42.357  22.554  25.227  1.00  0.00    -0.246 OA
BRANCH  34  36
ATOM     36  C   UNL A   1      42.085  23.855  27.228  1.00  0.00     0.060 A 
ATOM     37  C   UNL A   1      43.134  24.660  27.635  1.00  0.00     0.016 A 
ATOM     38  C   UNL A   1      40.824  24.376  27.293  1.00  0.00     0.016 A 
ATOM     39  C   UNL A   1      42.916  25.975  28.169  1.00  0.00     0.010 A 
ATOM     40  C   UNL A   1      40.623  25.665  27.836  1.00  0.00     0.010 A 
ATOM     41  C   UNL A   1      41.602  26.705  28.534  1.00  0.00    -0.014 A 
BRANCH  41  42
ATOM     42  C   UNL A   1      41.158  28.343  29.867  1.00  0.00     0.031 A 
ATOM     43  C   UNL A   1      41.986  28.609  31.568  1.00  0.00     0.074 A 
ATOM     44  C   UNL A   1      40.199  29.469  29.994  1.00  0.00     0.049 A 
ATOM     45  N   UNL A   1      42.152  29.715  32.332  1.00  0.00    -0.248 NA
ATOM     46  C   UNL A   1      42.728  27.491  32.327  1.00  0.00     0.031 C 
ATOM     47  C   UNL A   1      39.104  29.891  29.057  1.00  0.00     0.029 A 
ATOM     48  N   UNL A   1      39.975  30.469  30.996  1.00  0.00    -0.354 N 
ATOM     49  C   UNL A   1      43.091  29.411  33.379  1.00  0.00     0.074 A 
ATOM     50  C   UNL A   1      43.527  28.077  33.175  1.00  0.00     0.031 C 
ATOM     51  C   UNL A   1      38.391  30.915  29.494  1.00  0.00     0.029 A 
ATOM     52  C   UNL A   1      38.868  31.306  30.789  1.00  0.00     0.049 A 
ATOM     53  H   UNL A   1      40.561  30.563  31.781  1.00  0.00     0.167 HD
ATOM     54  C   UNL A   1      43.543  29.977  34.541  1.00  0.00     0.037 A 
ATOM     55  C   UNL A   1      38.179  32.284  31.433  1.00  0.00     0.037 A 
ATOM     56  C   UNL A   1      42.950  31.067  35.241  1.00  0.00     0.049 A 
ATOM     57  C   UNL A   1      38.536  32.828  32.771  1.00  0.00     0.074 A 
ATOM     58  C   UNL A   1      43.309  31.598  36.472  1.00  0.00     0.029 A 
ATOM     59  N   UNL A   1      41.779  31.670  34.863  1.00  0.00    -0.354 N 
ATOM     60  N   UNL A   1      39.527  32.504  33.548  1.00  0.00    -0.248 NA
ATOM     61  C   UNL A   1      37.659  33.883  33.318  1.00  0.00     0.031 C 
ATOM     62  C   UNL A   1      42.295  32.465  36.884  1.00  0.00     0.029 A 
ATOM     63  C   UNL A   1      41.377  32.546  35.855  1.00  0.00     0.049 A 
ATOM     64  H   UNL A   1      41.299  31.507  34.019  1.00  0.00     0.167 HD
ATOM     65  C   UNL A   1      39.401  33.319  34.665  1.00  0.00     0.074 A 
ATOM     66  C   UNL A   1      38.244  34.154  34.473  1.00  0.00     0.031 C 
ATOM     67  C   UNL A   1      40.214  33.366  35.740  1.00  0.00     0.037 A 
BRANCH  54  68
ATOM     68  C   UNL A   1      44.692  29.275  35.279  1.00  0.00     0.057 A 
ATOM     69  C   UNL A   1      46.032  29.556  34.977  1.00  0.00     0.134 A 
ATOM     70  C   UNL A   1      44.455  28.286  36.251  1.00  0.00     0.134 A 
ATOM     71  F   UNL A   1      46.339  30.460  34.034  1.00  0.00    -0.206 F 
ATOM     72  C   UNL A   1      47.086  28.873  35.595  1.00  0.00     0.040 A 
ATOM     73  C   UNL A   1      45.501  27.613  36.892  1.00  0.00     0.040 A 
ATOM     74  F   UNL A   1      43.201  27.940  36.580  1.00  0.00    -0.206 F 
ATOM     75  C   UNL A   1      46.822  27.901  36.559  1.00  0.00     0.006 A 
ENDBRANCH  54  68
BRANCH  55  76
ATOM     76  C   UNL A   1      36.910  32.796  30.798  1.00  0.00     0.057 A 
ATOM     77  C   UNL A   1      35.638  32.393  31.223  1.00  0.00     0.134 A 
ATOM     78  C   UNL A   1      36.971  33.769  29.787  1.00  0.00     0.134 A 
ATOM     79  F   UNL A   1      35.506  31.439  32.157  1.00  0.00    -0.206 F 
ATOM     80  C   UNL A   1      34.475  32.952  30.681  1.00  0.00     0.040 A 
ATOM     81  C   UNL A   1      35.821  34.362  29.267  1.00  0.00     0.040 A 
ATOM     82  F   UNL A   1      38.160  34.199  29.339  1.00  0.00    -0.206 F 
ATOM     83  C   UNL A   1      34.567  33.954  29.715  1.00  0.00     0.006 A 
ENDBRANCH  55  76
BRANCH  67  84
ATOM     84  C   UNL A   1      39.941  34.384  36.793  1.00  0.00     0.057 A 
ATOM     85  C   UNL A   1      39.240  34.083  37.965  1.00  0.00     0.134 A 
ATOM     86  C   UNL A   1      40.415  35.691  36.630  1.00  0.00     0.134 A 
ATOM     87  F   UNL A   1      38.755  32.849  38.172  1.00  0.00    -0.206 F 
ATOM     88  C   UNL A   1      38.994  35.059  38.929  1.00  0.00     0.040 A 
ATOM     89  C   UNL A   1      40.200  36.668  37.598  1.00  0.00     0.040 A 
ATOM     90  F   UNL A   1      41.101  36.036  35.529  1.00  0.00    -0.206 F 
ATOM     91  C   UNL A   1      39.479  36.354  38.748  1.00  0.00     0.006 A 
ENDBRANCH  67  84
ENDBRANCH  41  42
ENDBRANCH  34  36
ENDBRANCH  33  34
ENDBRANCH  32  33
ENDBRANCH  31  32
ENDBRANCH  30  31
ENDBRANCH  29  30
ENDBRANCH   1  29
TORSDOF 21
ENDMDL
