MODEL 1
REMARK VINA RESULT:     -12.5      0.000      0.000
REMARK SMILES Cc1ccc(-c2cc3cccnc3n2CCC(=O)OCCOCCOCCOC(=O)c2ccc(-c3c4nc(c(-c5c(F)cccc5F)c5ccc([nH]5)c(-c5c(F)cccc5F)c5nc(c(-c6c(F)cccc6F)c6ccc3[nH]6)C=C5)C=C4)cc2)cn1
REMARK SMILES IDX 23 1 22 2 21 3 20 4 19 5 17 6 18 7 16 8 15 9 14 10 6 11 7 12
REMARK SMILES IDX 8 13 13 14 9 15 12 16 10 17 11 18 5 19 1 20 2 21 3 22 86 23
REMARK SMILES IDX 4 24 85 25 24 26 25 27 26 28 27 29 28 30 29 31 30 32 31 33
REMARK SMILES IDX 32 34 84 35 33 36 83 37 34 38 35 39 36 40 77 41 37 42 82 43
REMARK SMILES IDX 76 44 78 45 38 46 81 47 75 48 74 49 39 51 65 52 48 53 64 54
REMARK SMILES IDX 49 55 52 56 63 57 79 58 50 59 51 60 62 62 80 63 53 64 40 65
REMARK SMILES IDX 41 66 46 67 42 68 43 69 45 70 47 71 44 72 66 73 67 74 72 75
REMARK SMILES IDX 68 76 69 77 71 78 73 79 70 80 54 81 55 82 60 83 56 84 57 85
REMARK SMILES IDX 59 86 61 87 58 88
REMARK H PARENT 78 50 52 61
REMARK Flexibility Score: inf
ROOT
ATOM      1  C   UNL A   1      37.631  20.887  25.002  1.00  0.00     0.188 C 
ENDROOT
BRANCH   1   2
ATOM      2  O   UNL A   1      36.953  21.884  24.069  1.00  0.00    -0.376 OA
BRANCH   2   3
ATOM      3  C   UNL A   1      35.287  22.751  23.387  1.00  0.00     0.202 C 
BRANCH   3   4
ATOM      4  C   UNL A   1      34.701  24.393  23.435  1.00  0.00     0.261 C 
BRANCH   4   5
ATOM      5  O   UNL A   1      34.035  25.049  22.320  1.00  0.00    -0.463 OA
BRANCH   5   6
ATOM      6  C   UNL A   1      33.576  26.317  22.463  1.00  0.00     0.307 C 
ATOM      7  O   UNL A   1      33.271  27.040  21.521  1.00  0.00    -0.252 OA
BRANCH   6   8
ATOM      8  C   UNL A   1      33.366  26.745  23.919  1.00  0.00     0.144 C 
BRANCH   8   9
ATOM      9  C   UNL A   1      32.335  27.833  24.256  1.00  0.00     0.136 C 
BRANCH   9  10
ATOM     10  N   UNL A   1      30.965  27.487  23.952  1.00  0.00    -0.325 N 
ATOM     11  C   UNL A   1      30.353  26.278  24.212  1.00  0.00     0.052 A 
ATOM     12  C   UNL A   1      29.005  26.454  23.939  1.00  0.00     0.039 A 
ATOM     13  C   UNL A   1      28.816  27.741  23.401  1.00  0.00     0.020 A 
ATOM     14  C   UNL A   1      30.065  28.347  23.362  1.00  0.00     0.140 A 
ATOM     15  C   UNL A   1      27.707  28.461  22.943  1.00  0.00     0.013 A 
ATOM     16  N   UNL A   1      30.343  29.573  22.872  1.00  0.00    -0.238 NA
ATOM     17  C   UNL A   1      27.943  29.726  22.417  1.00  0.00     0.021 A 
ATOM     18  C   UNL A   1      29.247  30.207  22.390  1.00  0.00     0.113 A 
BRANCH  11  19
ATOM     19  C   UNL A   1      30.961  25.069  24.787  1.00  0.00     0.017 A 
ATOM     20  C   UNL A   1      33.320  20.808  25.975  1.00  0.00     0.066 C 
ATOM     21  C   UNL A   1      32.364  21.942  25.776  1.00  0.00     0.037 A 
ATOM     22  C   UNL A   1      32.286  23.248  27.000  1.00  0.00     0.024 A 
ATOM     23  N   UNL A   1      31.737  22.129  24.158  1.00  0.00    -0.261 NA
ATOM     24  C   UNL A   1      31.579  24.841  26.505  1.00  0.00     0.014 A 
ATOM     25  C   UNL A   1      31.067  23.675  23.672  1.00  0.00     0.121 A 
ENDBRANCH  11  19
ENDBRANCH   9  10
ENDBRANCH   8   9
ENDBRANCH   6   8
ENDBRANCH   5   6
ENDBRANCH   4   5
ENDBRANCH   3   4
ENDBRANCH   2   3
ENDBRANCH   1   2
BRANCH   1  26
ATOM     26  C   UNL A   1      38.852  21.467  25.747  1.00  0.00     0.188 C 
BRANCH  26  27
ATOM     27  O   UNL A   1      39.970  20.609  25.986  1.00  0.00    -0.376 OA
BRANCH  27  28
ATOM     28  C   UNL A   1      41.188  21.178  26.472  1.00  0.00     0.202 C 
BRANCH  28  29
ATOM     29  C   UNL A   1      42.414  20.321  26.224  1.00  0.00     0.261 C 
BRANCH  29  30
ATOM     30  O   UNL A   1      43.083  20.866  25.095  1.00  0.00    -0.460 OA
BRANCH  30  31
ATOM     31  C   UNL A   1      44.424  20.708  25.120  1.00  0.00     0.338 C 
ATOM     32  O   UNL A   1      45.055  19.867  25.748  1.00  0.00    -0.246 OA
BRANCH  31  33
ATOM     33  C   UNL A   1      45.039  21.733  24.193  1.00  0.00     0.060 A 
ATOM     34  C   UNL A   1      46.203  22.231  24.773  1.00  0.00     0.016 A 
ATOM     35  C   UNL A   1      44.068  22.612  23.735  1.00  0.00     0.016 A 
ATOM     36  C   UNL A   1      46.034  23.329  25.577  1.00  0.00     0.010 A 
ATOM     37  C   UNL A   1      43.823  23.645  24.592  1.00  0.00     0.010 A 
ATOM     38  C   UNL A   1      44.772  23.925  25.581  1.00  0.00    -0.014 A 
BRANCH  38  39
ATOM     39  C   UNL A   1      44.507  24.991  26.510  1.00  0.00     0.031 A 
ATOM     40  C   UNL A   1      45.602  25.975  26.456  1.00  0.00     0.074 A 
ATOM     41  C   UNL A   1      43.371  25.124  27.207  1.00  0.00     0.049 A 
ATOM     42  N   UNL A   1      46.690  25.944  27.155  1.00  0.00    -0.248 NA
ATOM     43  C   UNL A   1      45.672  26.832  25.261  1.00  0.00     0.031 C 
ATOM     44  C   UNL A   1      42.124  24.366  27.123  1.00  0.00     0.029 A 
ATOM     45  N   UNL A   1      43.091  26.086  28.124  1.00  0.00    -0.354 N 
ATOM     46  C   UNL A   1      47.456  26.963  26.609  1.00  0.00     0.074 A 
ATOM     47  C   UNL A   1      46.971  27.133  25.272  1.00  0.00     0.031 C 
ATOM     48  C   UNL A   1      41.155  25.033  27.796  1.00  0.00     0.029 A 
ATOM     49  C   UNL A   1      41.743  26.195  28.444  1.00  0.00     0.049 A 
ATOM     50  H   UNL A   1      43.783  26.658  28.527  1.00  0.00     0.167 HD
ATOM     51  C   UNL A   1      48.084  27.868  27.406  1.00  0.00     0.037 A 
ATOM     52  C   UNL A   1      41.204  27.247  29.113  1.00  0.00     0.037 A 
ATOM     53  C   UNL A   1      48.121  27.395  28.774  1.00  0.00     0.049 A 
ATOM     54  C   UNL A   1      42.330  27.957  29.792  1.00  0.00     0.074 A 
ATOM     55  C   UNL A   1      48.623  26.273  29.408  1.00  0.00     0.029 A 
ATOM     56  N   UNL A   1      47.207  27.941  29.646  1.00  0.00    -0.354 N 
ATOM     57  N   UNL A   1      43.001  27.450  30.789  1.00  0.00    -0.248 NA
ATOM     58  C   UNL A   1      43.031  28.991  29.040  1.00  0.00     0.031 C 
ATOM     59  C   UNL A   1      47.676  25.959  30.427  1.00  0.00     0.029 A 
ATOM     60  C   UNL A   1      46.678  26.934  30.411  1.00  0.00     0.049 A 
ATOM     61  H   UNL A   1      46.971  28.895  29.709  1.00  0.00     0.167 HD
ATOM     62  C   UNL A   1      44.329  27.770  30.529  1.00  0.00     0.074 A 
ATOM     63  C   UNL A   1      44.277  28.787  29.481  1.00  0.00     0.031 C 
ATOM     64  C   UNL A   1      45.343  26.964  30.966  1.00  0.00     0.037 A 
BRANCH  51  65
ATOM     65  C   UNL A   1      48.231  29.337  27.058  1.00  0.00     0.057 A 
ATOM     66  C   UNL A   1      47.184  30.275  26.895  1.00  0.00     0.134 A 
ATOM     67  C   UNL A   1      49.511  29.906  27.164  1.00  0.00     0.134 A 
ATOM     68  F   UNL A   1      45.895  29.947  26.782  1.00  0.00    -0.206 F 
ATOM     69  C   UNL A   1      47.383  31.654  26.919  1.00  0.00     0.040 A 
ATOM     70  C   UNL A   1      49.715  31.288  27.233  1.00  0.00     0.040 A 
ATOM     71  F   UNL A   1      50.598  29.131  27.288  1.00  0.00    -0.206 F 
ATOM     72  C   UNL A   1      48.646  32.168  27.131  1.00  0.00     0.006 A 
ENDBRANCH  51  65
BRANCH  52  73
ATOM     73  C   UNL A   1      39.865  27.857  28.957  1.00  0.00     0.057 A 
ATOM     74  C   UNL A   1      39.535  28.636  27.834  1.00  0.00     0.134 A 
ATOM     75  C   UNL A   1      38.961  27.915  30.029  1.00  0.00     0.134 A 
ATOM     76  F   UNL A   1      40.364  28.725  26.785  1.00  0.00    -0.206 F 
ATOM     77  C   UNL A   1      38.385  29.431  27.782  1.00  0.00     0.040 A 
ATOM     78  C   UNL A   1      37.808  28.712  29.992  1.00  0.00     0.040 A 
ATOM     79  F   UNL A   1      39.208  27.245  31.164  1.00  0.00    -0.206 F 
ATOM     80  C   UNL A   1      37.523  29.481  28.869  1.00  0.00     0.006 A 
ENDBRANCH  52  73
BRANCH  64  81
ATOM     81  C   UNL A   1      44.982  25.871  31.936  1.00  0.00     0.057 A 
ATOM     82  C   UNL A   1      44.646  24.609  31.438  1.00  0.00     0.134 A 
ATOM     83  C   UNL A   1      44.840  26.065  33.319  1.00  0.00     0.134 A 
ATOM     84  F   UNL A   1      44.698  24.368  30.118  1.00  0.00    -0.206 F 
ATOM     85  C   UNL A   1      44.207  23.580  32.275  1.00  0.00     0.040 A 
ATOM     86  C   UNL A   1      44.436  25.034  34.173  1.00  0.00     0.040 A 
ATOM     87  F   UNL A   1      45.038  27.269  33.871  1.00  0.00    -0.206 F 
ATOM     88  C   UNL A   1      44.115  23.787  33.649  1.00  0.00     0.006 A 
ENDBRANCH  64  81
ENDBRANCH  38  39
ENDBRANCH  31  33
ENDBRANCH  30  31
ENDBRANCH  29  30
ENDBRANCH  28  29
ENDBRANCH  27  28
ENDBRANCH  26  27
ENDBRANCH   1  26
TORSDOF 20
ENDMDL
MODEL 2
REMARK VINA RESULT:     -12.5      3.654      8.228
REMARK SMILES Cc1ccc(-c2cc3cccnc3n2CCC(=O)OCCOCCOCCOC(=O)c2ccc(-c3c4nc(c(-c5c(F)cccc5F)c5ccc([nH]5)c(-c5c(F)cccc5F)c5nc(c(-c6c(F)cccc6F)c6ccc3[nH]6)C=C5)C=C4)cc2)cn1
REMARK SMILES IDX 23 1 22 2 21 3 20 4 19 5 17 6 18 7 16 8 15 9 14 10 6 11 7 12
REMARK SMILES IDX 8 13 13 14 9 15 12 16 10 17 11 18 5 19 1 20 2 21 3 22 86 23
REMARK SMILES IDX 4 24 85 25 24 26 25 27 26 28 27 29 28 30 29 31 30 32 31 33
REMARK SMILES IDX 32 34 84 35 33 36 83 37 34 38 35 39 36 40 77 41 37 42 82 43
REMARK SMILES IDX 76 44 78 45 38 46 81 47 75 48 74 49 39 51 65 52 48 53 64 54
REMARK SMILES IDX 49 55 52 56 63 57 79 58 50 59 51 60 62 62 80 63 53 64 40 65
REMARK SMILES IDX 41 66 46 67 42 68 43 69 45 70 47 71 44 72 66 73 67 74 72 75
REMARK SMILES IDX 68 76 69 77 71 78 73 79 70 80 54 81 55 82 60 83 56 84 57 85
REMARK SMILES IDX 59 86 61 87 58 88
REMARK H PARENT 78 50 52 61
REMARK Flexibility Score: inf
ROOT
ATOM      1  C   UNL A   1      32.907  34.758  28.687  1.00  0.00     0.188 C 
ENDROOT
BRANCH   1   2
ATOM      2  O   UNL A   1      32.528  33.842  27.528  1.00  0.00    -0.376 OA
BRANCH   2   3
ATOM      3  C   UNL A   1      31.444  32.325  26.812  1.00  0.00     0.202 C 
BRANCH   3   4
ATOM      4  C   UNL A   1      31.812  30.649  26.501  1.00  0.00     0.261 C 
BRANCH   4   5
ATOM      5  O   UNL A   1      32.384  30.163  25.255  1.00  0.00    -0.463 OA
BRANCH   5   6
ATOM      6  C   UNL A   1      33.223  29.097  25.271  1.00  0.00     0.307 C 
ATOM      7  O   UNL A   1      33.526  28.486  26.289  1.00  0.00    -0.252 OA
BRANCH   6   8
ATOM      8  C   UNL A   1      33.687  28.646  23.882  1.00  0.00     0.144 C 
BRANCH   8   9
ATOM      9  C   UNL A   1      32.677  28.565  22.727  1.00  0.00     0.136 C 
BRANCH   9  10
ATOM     10  N   UNL A   1      31.481  27.808  23.017  1.00  0.00    -0.325 N 
ATOM     11  C   UNL A   1      31.431  26.500  23.455  1.00  0.00     0.052 A 
ATOM     12  C   UNL A   1      30.109  26.249  23.789  1.00  0.00     0.039 A 
ATOM     13  C   UNL A   1      29.334  27.371  23.444  1.00  0.00     0.020 A 
ATOM     14  C   UNL A   1      30.204  28.311  22.907  1.00  0.00     0.140 A 
ATOM     15  C   UNL A   1      27.974  27.692  23.534  1.00  0.00     0.013 A 
ATOM     16  N   UNL A   1      29.867  29.517  22.404  1.00  0.00    -0.238 NA
ATOM     17  C   UNL A   1      27.574  28.919  23.018  1.00  0.00     0.021 A 
ATOM     18  C   UNL A   1      28.534  29.758  22.464  1.00  0.00     0.113 A 
BRANCH  11  19
ATOM     19  C   UNL A   1      32.558  25.578  23.659  1.00  0.00     0.017 A 
ATOM     20  C   UNL A   1      36.601  22.614  23.565  1.00  0.00     0.066 C 
ATOM     21  C   UNL A   1      35.246  23.233  23.713  1.00  0.00     0.037 A 
ATOM     22  C   UNL A   1      34.819  24.052  25.249  1.00  0.00     0.024 A 
ATOM     23  N   UNL A   1      34.369  23.501  22.228  1.00  0.00    -0.261 NA
ATOM     24  C   UNL A   1      33.458  25.247  25.230  1.00  0.00     0.014 A 
ATOM     25  C   UNL A   1      33.062  24.670  22.203  1.00  0.00     0.121 A 
ENDBRANCH  11  19
ENDBRANCH   9  10
ENDBRANCH   8   9
ENDBRANCH   6   8
ENDBRANCH   5   6
ENDBRANCH   4   5
ENDBRANCH   3   4
ENDBRANCH   2   3
ENDBRANCH   1   2
BRANCH   1  26
ATOM     26  C   UNL A   1      33.986  34.166  29.618  1.00  0.00     0.188 C 
BRANCH  26  27
ATOM     27  O   UNL A   1      34.276  34.847  30.840  1.00  0.00    -0.376 OA
BRANCH  27  28
ATOM     28  C   UNL A   1      34.732  34.091  31.964  1.00  0.00     0.202 C 
BRANCH  28  29
ATOM     29  C   UNL A   1      34.732  32.590  31.741  1.00  0.00     0.261 C 
BRANCH  29  30
ATOM     30  O   UNL A   1      36.080  32.153  31.843  1.00  0.00    -0.460 OA
BRANCH  30  31
ATOM     31  C   UNL A   1      36.286  30.895  31.398  1.00  0.00     0.338 C 
ATOM     32  O   UNL A   1      36.321  29.871  32.071  1.00  0.00    -0.246 OA
BRANCH  31  33
ATOM     33  C   UNL A   1      36.429  30.943  29.893  1.00  0.00     0.060 A 
ATOM     34  C   UNL A   1      36.420  29.642  29.394  1.00  0.00     0.016 A 
ATOM     35  C   UNL A   1      37.449  31.811  29.533  1.00  0.00     0.016 A 
ATOM     36  C   UNL A   1      37.649  29.039  29.307  1.00  0.00     0.010 A 
ATOM     37  C   UNL A   1      38.686  31.236  29.556  1.00  0.00     0.010 A 
ATOM     38  C   UNL A   1      38.767  29.838  29.551  1.00  0.00    -0.014 A 
BRANCH  38  39
ATOM     39  C   UNL A   1      40.065  29.222  29.609  1.00  0.00     0.031 A 
ATOM     40  C   UNL A   1      40.545  29.213  31.000  1.00  0.00     0.074 A 
ATOM     41  C   UNL A   1      40.670  28.631  28.569  1.00  0.00     0.049 A 
ATOM     42  N   UNL A   1      41.217  30.152  31.583  1.00  0.00    -0.248 NA
ATOM     43  C   UNL A   1      39.892  28.271  31.926  1.00  0.00     0.031 C 
ATOM     44  C   UNL A   1      40.163  28.341  27.230  1.00  0.00     0.029 A 
ATOM     45  N   UNL A   1      41.909  28.073  28.563  1.00  0.00    -0.354 N 
ATOM     46  C   UNL A   1      41.258  29.750  32.909  1.00  0.00     0.074 A 
ATOM     47  C   UNL A   1      40.125  28.890  33.084  1.00  0.00     0.031 C 
ATOM     48  C   UNL A   1      41.006  27.473  26.617  1.00  0.00     0.029 A 
ATOM     49  C   UNL A   1      42.155  27.242  27.477  1.00  0.00     0.049 A 
ATOM     50  H   UNL A   1      42.575  28.243  29.268  1.00  0.00     0.167 HD
ATOM     51  C   UNL A   1      42.423  29.772  33.611  1.00  0.00     0.037 A 
ATOM     52  C   UNL A   1      43.200  26.378  27.405  1.00  0.00     0.037 A 
ATOM     53  C   UNL A   1      43.413  30.568  32.917  1.00  0.00     0.049 A 
ATOM     54  C   UNL A   1      44.202  26.815  28.423  1.00  0.00     0.074 A 
ATOM     55  C   UNL A   1      43.485  31.877  32.479  1.00  0.00     0.029 A 
ATOM     56  N   UNL A   1      44.379  29.884  32.213  1.00  0.00    -0.354 N 
ATOM     57  N   UNL A   1      44.890  27.919  28.325  1.00  0.00    -0.248 NA
ATOM     58  C   UNL A   1      44.063  26.295  29.779  1.00  0.00     0.031 C 
ATOM     59  C   UNL A   1      44.178  31.823  31.234  1.00  0.00     0.029 A 
ATOM     60  C   UNL A   1      44.553  30.499  31.000  1.00  0.00     0.049 A 
ATOM     61  H   UNL A   1      44.863  29.086  32.527  1.00  0.00     0.167 HD
ATOM     62  C   UNL A   1      44.895  28.456  29.607  1.00  0.00     0.074 A 
ATOM     63  C   UNL A   1      44.438  27.373  30.475  1.00  0.00     0.031 C 
ATOM     64  C   UNL A   1      44.971  29.808  29.802  1.00  0.00     0.037 A 
BRANCH  51  65
ATOM     65  C   UNL A   1      42.807  28.724  34.637  1.00  0.00     0.057 A 
ATOM     66  C   UNL A   1      43.105  27.364  34.385  1.00  0.00     0.134 A 
ATOM     67  C   UNL A   1      43.167  29.171  35.919  1.00  0.00     0.134 A 
ATOM     68  F   UNL A   1      42.852  26.743  33.231  1.00  0.00    -0.206 F 
ATOM     69  C   UNL A   1      43.776  26.547  35.294  1.00  0.00     0.040 A 
ATOM     70  C   UNL A   1      43.879  28.372  36.821  1.00  0.00     0.040 A 
ATOM     71  F   UNL A   1      42.911  30.429  36.304  1.00  0.00    -0.206 F 
ATOM     72  C   UNL A   1      44.204  27.060  36.501  1.00  0.00     0.006 A 
ENDBRANCH  51  65
BRANCH  52  73
ATOM     73  C   UNL A   1      43.260  25.047  26.759  1.00  0.00     0.057 A 
ATOM     74  C   UNL A   1      43.841  24.868  25.491  1.00  0.00     0.134 A 
ATOM     75  C   UNL A   1      42.514  23.964  27.249  1.00  0.00     0.134 A 
ATOM     76  F   UNL A   1      44.505  25.863  24.887  1.00  0.00    -0.206 F 
ATOM     77  C   UNL A   1      43.682  23.692  24.751  1.00  0.00     0.040 A 
ATOM     78  C   UNL A   1      42.342  22.783  26.515  1.00  0.00     0.040 A 
ATOM     79  F   UNL A   1      41.881  24.052  28.429  1.00  0.00    -0.206 F 
ATOM     80  C   UNL A   1      42.920  22.648  25.257  1.00  0.00     0.006 A 
ENDBRANCH  52  73
BRANCH  64  81
ATOM     81  C   UNL A   1      45.297  30.656  28.602  1.00  0.00     0.057 A 
ATOM     82  C   UNL A   1      46.618  31.065  28.402  1.00  0.00     0.134 A 
ATOM     83  C   UNL A   1      44.334  31.175  27.723  1.00  0.00     0.134 A 
ATOM     84  F   UNL A   1      47.585  30.660  29.241  1.00  0.00    -0.206 F 
ATOM     85  C   UNL A   1      46.972  31.933  27.366  1.00  0.00     0.040 A 
ATOM     86  C   UNL A   1      44.678  32.016  26.660  1.00  0.00     0.040 A 
ATOM     87  F   UNL A   1      43.030  30.923  27.900  1.00  0.00    -0.206 F 
ATOM     88  C   UNL A   1      46.002  32.400  26.482  1.00  0.00     0.006 A 
ENDBRANCH  64  81
ENDBRANCH  38  39
ENDBRANCH  31  33
ENDBRANCH  30  31
ENDBRANCH  29  30
ENDBRANCH  28  29
ENDBRANCH  27  28
ENDBRANCH  26  27
ENDBRANCH   1  26
TORSDOF 20
ENDMDL
MODEL 3
REMARK VINA RESULT:     -12.5      5.169      9.863
REMARK SMILES Cc1ccc(-c2cc3cccnc3n2CCC(=O)OCCOCCOCCOC(=O)c2ccc(-c3c4nc(c(-c5c(F)cccc5F)c5ccc([nH]5)c(-c5c(F)cccc5F)c5nc(c(-c6c(F)cccc6F)c6ccc3[nH]6)C=C5)C=C4)cc2)cn1
REMARK SMILES IDX 23 1 22 2 21 3 20 4 19 5 17 6 18 7 16 8 15 9 14 10 6 11 7 12
REMARK SMILES IDX 8 13 13 14 9 15 12 16 10 17 11 18 5 19 1 20 2 21 3 22 86 23
REMARK SMILES IDX 4 24 85 25 24 26 25 27 26 28 27 29 28 30 29 31 30 32 31 33
REMARK SMILES IDX 32 34 84 35 33 36 83 37 34 38 35 39 36 40 77 41 37 42 82 43
REMARK SMILES IDX 76 44 78 45 38 46 81 47 75 48 74 49 39 51 65 52 48 53 64 54
REMARK SMILES IDX 49 55 52 56 63 57 79 58 50 59 51 60 62 62 80 63 53 64 40 65
REMARK SMILES IDX 41 66 46 67 42 68 43 69 45 70 47 71 44 72 66 73 67 74 72 75
REMARK SMILES IDX 68 76 69 77 71 78 73 79 70 80 54 81 55 82 60 83 56 84 57 85
REMARK SMILES IDX 59 86 61 87 58 88
REMARK H PARENT 78 50 52 61
REMARK Flexibility Score: inf
ROOT
ATOM      1  C   UNL A   1      33.622  34.720  28.052  1.00  0.00     0.188 C 
ENDROOT
BRANCH   1   2
ATOM      2  O   UNL A   1      32.436  33.851  27.648  1.00  0.00    -0.376 OA
BRANCH   2   3
ATOM      3  C   UNL A   1      31.726  32.173  26.828  1.00  0.00     0.202 C 
BRANCH   3   4
ATOM      4  C   UNL A   1      32.162  30.494  27.000  1.00  0.00     0.261 C 
BRANCH   4   5
ATOM      5  O   UNL A   1      31.878  29.476  26.000  1.00  0.00    -0.463 OA
BRANCH   5   6
ATOM      6  C   UNL A   1      32.902  28.848  25.370  1.00  0.00     0.307 C 
ATOM      7  O   UNL A   1      33.720  28.138  25.943  1.00  0.00    -0.252 OA
BRANCH   6   8
ATOM      8  C   UNL A   1      32.895  29.015  23.847  1.00  0.00     0.144 C 
BRANCH   8   9
ATOM      9  C   UNL A   1      32.279  27.922  22.960  1.00  0.00     0.136 C 
BRANCH   9  10
ATOM     10  N   UNL A   1      30.850  27.760  23.099  1.00  0.00    -0.325 N 
ATOM     11  C   UNL A   1      30.207  26.727  23.751  1.00  0.00     0.052 A 
ATOM     12  C   UNL A   1      28.865  27.074  23.806  1.00  0.00     0.039 A 
ATOM     13  C   UNL A   1      28.676  28.266  23.083  1.00  0.00     0.020 A 
ATOM     14  C   UNL A   1      29.921  28.644  22.598  1.00  0.00     0.140 A 
ATOM     15  C   UNL A   1      27.569  29.072  22.790  1.00  0.00     0.013 A 
ATOM     16  N   UNL A   1      30.182  29.710  21.812  1.00  0.00    -0.238 NA
ATOM     17  C   UNL A   1      27.785  30.175  21.972  1.00  0.00     0.021 A 
ATOM     18  C   UNL A   1      29.072  30.426  21.511  1.00  0.00     0.113 A 
BRANCH  11  19
ATOM     19  C   UNL A   1      30.815  25.548  24.384  1.00  0.00     0.017 A 
ATOM     20  C   UNL A   1      33.140  21.328  25.773  1.00  0.00     0.066 C 
ATOM     21  C   UNL A   1      32.198  22.467  25.533  1.00  0.00     0.037 A 
ATOM     22  C   UNL A   1      32.196  23.856  26.665  1.00  0.00     0.024 A 
ATOM     23  N   UNL A   1      31.508  22.555  23.933  1.00  0.00    -0.261 NA
ATOM     24  C   UNL A   1      31.499  25.426  26.088  1.00  0.00     0.014 A 
ATOM     25  C   UNL A   1      30.849  24.078  23.366  1.00  0.00     0.121 A 
ENDBRANCH  11  19
ENDBRANCH   9  10
ENDBRANCH   8   9
ENDBRANCH   6   8
ENDBRANCH   5   6
ENDBRANCH   4   5
ENDBRANCH   3   4
ENDBRANCH   2   3
ENDBRANCH   1   2
BRANCH   1  26
ATOM     26  C   UNL A   1      33.219  36.110  28.586  1.00  0.00     0.188 C 
BRANCH  26  27
ATOM     27  O   UNL A   1      32.415  36.176  29.766  1.00  0.00    -0.376 OA
BRANCH  27  28
ATOM     28  C   UNL A   1      32.939  36.829  30.925  1.00  0.00     0.202 C 
BRANCH  28  29
ATOM     29  C   UNL A   1      32.821  36.016  32.200  1.00  0.00     0.261 C 
BRANCH  29  30
ATOM     30  O   UNL A   1      33.088  34.663  31.859  1.00  0.00    -0.460 OA
BRANCH  30  31
ATOM     31  C   UNL A   1      34.402  34.359  31.800  1.00  0.00     0.338 C 
ATOM     32  O   UNL A   1      35.076  34.193  30.789  1.00  0.00    -0.246 OA
BRANCH  31  33
ATOM     33  C   UNL A   1      34.938  34.297  33.213  1.00  0.00     0.060 A 
ATOM     34  C   UNL A   1      36.070  35.103  33.306  1.00  0.00     0.016 A 
ATOM     35  C   UNL A   1      34.992  32.982  33.650  1.00  0.00     0.016 A 
ATOM     36  C   UNL A   1      37.259  34.479  33.023  1.00  0.00     0.010 A 
ATOM     37  C   UNL A   1      36.129  32.329  33.271  1.00  0.00     0.010 A 
ATOM     38  C   UNL A   1      37.225  33.093  32.855  1.00  0.00    -0.014 A 
BRANCH  38  39
ATOM     39  C   UNL A   1      38.416  32.414  32.423  1.00  0.00     0.031 A 
ATOM     40  C   UNL A   1      39.329  32.243  33.565  1.00  0.00     0.074 A 
ATOM     41  C   UNL A   1      38.593  31.902  31.197  1.00  0.00     0.049 A 
ATOM     42  N   UNL A   1      40.227  33.086  33.957  1.00  0.00    -0.248 NA
ATOM     43  C   UNL A   1      38.948  31.245  34.580  1.00  0.00     0.031 C 
ATOM     44  C   UNL A   1      37.649  31.772  30.089  1.00  0.00     0.029 A 
ATOM     45  N   UNL A   1      39.712  31.290  30.729  1.00  0.00    -0.354 N 
ATOM     46  C   UNL A   1      40.674  32.552  35.156  1.00  0.00     0.074 A 
ATOM     47  C   UNL A   1      39.601  31.734  35.635  1.00  0.00     0.031 C 
ATOM     48  C   UNL A   1      38.169  30.931  29.162  1.00  0.00     0.029 A 
ATOM     49  C   UNL A   1      39.518  30.561  29.561  1.00  0.00     0.049 A 
ATOM     50  H   UNL A   1      40.585  31.357  31.177  1.00  0.00     0.167 HD
ATOM     51  C   UNL A   1      42.004  32.449  35.422  1.00  0.00     0.037 A 
ATOM     52  C   UNL A   1      40.409  29.660  29.073  1.00  0.00     0.037 A 
ATOM     53  C   UNL A   1      42.767  33.263  34.499  1.00  0.00     0.049 A 
ATOM     54  C   UNL A   1      41.722  29.946  29.724  1.00  0.00     0.074 A 
ATOM     55  C   UNL A   1      42.791  34.605  34.167  1.00  0.00     0.029 A 
ATOM     56  N   UNL A   1      43.387  32.608  33.459  1.00  0.00    -0.354 N 
ATOM     57  N   UNL A   1      42.423  31.020  29.486  1.00  0.00    -0.248 NA
ATOM     58  C   UNL A   1      42.002  29.299  31.001  1.00  0.00     0.031 C 
ATOM     59  C   UNL A   1      43.025  34.643  32.761  1.00  0.00     0.029 A 
ATOM     60  C   UNL A   1      43.196  33.333  32.311  1.00  0.00     0.049 A 
ATOM     61  H   UNL A   1      43.884  31.761  33.527  1.00  0.00     0.167 HD
ATOM     62  C   UNL A   1      42.896  31.425  30.729  1.00  0.00     0.074 A 
ATOM     63  C   UNL A   1      42.670  30.284  31.612  1.00  0.00     0.031 C 
ATOM     64  C   UNL A   1      43.137  32.745  30.992  1.00  0.00     0.037 A 
BRANCH  51  65
ATOM     65  C   UNL A   1      42.625  31.287  36.173  1.00  0.00     0.057 A 
ATOM     66  C   UNL A   1      42.647  29.932  35.763  1.00  0.00     0.134 A 
ATOM     67  C   UNL A   1      43.491  31.588  37.236  1.00  0.00     0.134 A 
ATOM     68  F   UNL A   1      41.907  29.438  34.769  1.00  0.00    -0.206 F 
ATOM     69  C   UNL A   1      43.513  28.984  36.307  1.00  0.00     0.040 A 
ATOM     70  C   UNL A   1      44.394  30.654  37.758  1.00  0.00     0.040 A 
ATOM     71  F   UNL A   1      43.546  32.826  37.747  1.00  0.00    -0.206 F 
ATOM     72  C   UNL A   1      44.421  29.351  37.278  1.00  0.00     0.006 A 
ENDBRANCH  51  65
BRANCH  52  73
ATOM     73  C   UNL A   1      40.147  28.399  28.343  1.00  0.00     0.057 A 
ATOM     74  C   UNL A   1      39.575  27.283  28.979  1.00  0.00     0.134 A 
ATOM     75  C   UNL A   1      40.694  28.166  27.072  1.00  0.00     0.134 A 
ATOM     76  F   UNL A   1      39.096  27.367  30.228  1.00  0.00    -0.206 F 
ATOM     77  C   UNL A   1      39.556  26.012  28.394  1.00  0.00     0.040 A 
ATOM     78  C   UNL A   1      40.687  26.896  26.478  1.00  0.00     0.040 A 
ATOM     79  F   UNL A   1      41.304  29.154  26.402  1.00  0.00    -0.206 F 
ATOM     80  C   UNL A   1      40.125  25.812  27.144  1.00  0.00     0.006 A 
ENDBRANCH  52  73
BRANCH  64  81
ATOM     81  C   UNL A   1      43.111  33.694  29.822  1.00  0.00     0.057 A 
ATOM     82  C   UNL A   1      44.305  33.975  29.154  1.00  0.00     0.134 A 
ATOM     83  C   UNL A   1      41.977  34.420  29.426  1.00  0.00     0.134 A 
ATOM     84  F   UNL A   1      45.444  33.365  29.519  1.00  0.00    -0.206 F 
ATOM     85  C   UNL A   1      44.369  34.919  28.125  1.00  0.00     0.040 A 
ATOM     86  C   UNL A   1      42.018  35.342  28.376  1.00  0.00     0.040 A 
ATOM     87  F   UNL A   1      40.814  34.294  30.079  1.00  0.00    -0.206 F 
ATOM     88  C   UNL A   1      43.220  35.595  27.724  1.00  0.00     0.006 A 
ENDBRANCH  64  81
ENDBRANCH  38  39
ENDBRANCH  31  33
ENDBRANCH  30  31
ENDBRANCH  29  30
ENDBRANCH  28  29
ENDBRANCH  27  28
ENDBRANCH  26  27
ENDBRANCH   1  26
TORSDOF 20
ENDMDL
