MODEL 1
REMARK VINA RESULT:     -10.8      0.000      0.000
REMARK SMILES O=C(C[NH+]1CCN(c2nccc(N3CCCCC3)n2)CC1)OCCOCCOCCOC(=O)c1ccc(-c2c3nc(c(-c4c(F)cccc4F)c4ccc([nH]4)c(-c4c(F)cccc4F)c4nc(c(-c5c(F)cccc5F)c5ccc2[nH]5)C=C4)C=C3)cc1
REMARK SMILES IDX 26 1 25 2 24 3 23 4 22 5 2 6 1 7 3 8 4 9 5 10 21 11 6 13
REMARK SMILES IDX 20 14 7 15 8 16 9 17 19 18 10 19 12 20 11 21 13 22 14 23
REMARK SMILES IDX 18 24 15 25 17 26 16 27 27 28 28 29 29 30 30 31 31 32 32 33
REMARK SMILES IDX 33 34 34 35 35 36 87 37 36 38 86 39 37 40 38 41 39 42 80 43
REMARK SMILES IDX 40 44 85 45 79 46 81 47 41 48 84 49 78 50 77 51 42 53 68 54
REMARK SMILES IDX 51 55 67 56 52 57 55 58 66 59 82 60 53 61 54 62 65 64 83 65
REMARK SMILES IDX 56 66 43 67 44 68 49 69 45 70 46 71 48 72 50 73 47 74 69 75
REMARK SMILES IDX 70 76 75 77 71 78 72 79 74 80 76 81 73 82 57 83 58 84 63 85
REMARK SMILES IDX 59 86 60 87 62 88 64 89 61 90
REMARK H PARENT 4 12 81 52 55 63
REMARK Flexibility Score: inf
ROOT
ATOM      1  C   UNL A   1      33.556  36.148  29.438  1.00  0.00     0.188 C 
ENDROOT
BRANCH   1   2
ATOM      2  O   UNL A   1      33.516  35.219  28.359  1.00  0.00    -0.376 OA
BRANCH   2   3
ATOM      3  C   UNL A   1      34.498  34.185  28.349  1.00  0.00     0.202 C 
BRANCH   3   4
ATOM      4  C   UNL A   1      33.952  32.815  28.754  1.00  0.00     0.261 C 
BRANCH   4   5
ATOM      5  O   UNL A   1      33.901  31.955  27.608  1.00  0.00    -0.459 OA
BRANCH   5   6
ATOM      6  C   UNL A   1      32.695  31.680  27.049  1.00  0.00     0.361 C 
ATOM      7  O   UNL A   1      31.740  32.431  27.245  1.00  0.00    -0.245 OA
BRANCH   6   8
ATOM      8  C   UNL A   1      32.509  30.273  26.470  1.00  0.00     0.386 C 
BRANCH   8   9
ATOM      9  N   UNL A   1      32.936  29.169  27.364  1.00  0.00    -0.323 N 
ATOM     10  C   UNL A   1      31.841  28.198  27.635  1.00  0.00     0.284 C 
ATOM     11  C   UNL A   1      34.026  28.366  26.739  1.00  0.00     0.284 C 
ATOM     12  H   UNL A   1      33.235  29.627  28.225  1.00  0.00     0.348 HD
ATOM     13  C   UNL A   1      31.275  27.468  26.400  1.00  0.00     0.181 C 
ATOM     14  C   UNL A   1      33.620  27.521  25.504  1.00  0.00     0.181 C 
ATOM     15  N   UNL A   1      32.353  26.819  25.672  1.00  0.00    -0.329 N 
BRANCH  15  16
ATOM     16  C   UNL A   1      32.330  25.450  25.790  1.00  0.00     0.227 A 
ATOM     17  N   UNL A   1      31.393  24.945  26.607  1.00  0.00    -0.221 NA
ATOM     18  N   UNL A   1      33.272  24.712  25.184  1.00  0.00    -0.196 NA
ATOM     19  C   UNL A   1      31.366  23.615  26.753  1.00  0.00     0.119 A 
ATOM     20  C   UNL A   1      33.240  23.381  25.377  1.00  0.00     0.134 A 
ATOM     21  C   UNL A   1      32.269  22.780  26.152  1.00  0.00     0.067 A 
BRANCH  20  22
ATOM     22  N   UNL A   1      34.223  22.605  24.806  1.00  0.00    -0.356 N 
ATOM     23  C   UNL A   1      34.675  21.401  25.480  1.00  0.00     0.118 C 
ATOM     24  C   UNL A   1      34.854  23.017  23.567  1.00  0.00     0.118 C 
ATOM     25  C   UNL A   1      36.189  21.434  25.665  1.00  0.00     0.022 C 
ATOM     26  C   UNL A   1      36.365  23.100  23.785  1.00  0.00     0.022 C 
ATOM     27  C   UNL A   1      36.911  21.796  24.367  1.00  0.00     0.004 C 
ENDBRANCH  20  22
ENDBRANCH  15  16
ENDBRANCH   8   9
ENDBRANCH   6   8
ENDBRANCH   5   6
ENDBRANCH   4   5
ENDBRANCH   3   4
ENDBRANCH   2   3
ENDBRANCH   1   2
BRANCH   1  28
ATOM     28  C   UNL A   1      32.651  35.860  30.640  1.00  0.00     0.188 C 
BRANCH  28  29
ATOM     29  O   UNL A   1      33.051  34.964  31.671  1.00  0.00    -0.376 OA
BRANCH  29  30
ATOM     30  C   UNL A   1      34.145  35.280  32.515  1.00  0.00     0.202 C 
BRANCH  30  31
ATOM     31  C   UNL A   1      35.411  34.505  32.140  1.00  0.00     0.261 C 
BRANCH  31  32
ATOM     32  O   UNL A   1      35.238  33.076  32.157  1.00  0.00    -0.460 OA
BRANCH  32  33
ATOM     33  C   UNL A   1      36.093  32.408  32.969  1.00  0.00     0.338 C 
ATOM     34  O   UNL A   1      36.148  32.451  34.185  1.00  0.00    -0.246 OA
BRANCH  33  35
ATOM     35  C   UNL A   1      36.979  31.528  32.178  1.00  0.00     0.060 A 
ATOM     36  C   UNL A   1      37.992  30.837  32.852  1.00  0.00     0.016 A 
ATOM     37  C   UNL A   1      36.904  31.486  30.782  1.00  0.00     0.016 A 
ATOM     38  C   UNL A   1      38.976  30.160  32.131  1.00  0.00     0.010 A 
ATOM     39  C   UNL A   1      37.896  30.812  30.060  1.00  0.00     0.010 A 
ATOM     40  C   UNL A   1      38.962  30.188  30.729  1.00  0.00    -0.014 A 
BRANCH  40  41
ATOM     41  C   UNL A   1      40.153  29.719  29.977  1.00  0.00     0.031 A 
ATOM     42  C   UNL A   1      41.296  30.673  29.748  1.00  0.00     0.074 A 
ATOM     43  C   UNL A   1      40.240  28.453  29.533  1.00  0.00     0.049 A 
ATOM     44  N   UNL A   1      42.430  30.479  29.124  1.00  0.00    -0.248 NA
ATOM     45  C   UNL A   1      41.136  32.029  30.297  1.00  0.00     0.031 C 
ATOM     46  C   UNL A   1      39.216  27.427  29.698  1.00  0.00     0.029 A 
ATOM     47  N   UNL A   1      41.250  27.822  28.848  1.00  0.00    -0.354 N 
ATOM     48  C   UNL A   1      43.117  31.685  29.200  1.00  0.00     0.074 A 
ATOM     49  C   UNL A   1      42.262  32.612  29.910  1.00  0.00     0.031 C 
ATOM     50  C   UNL A   1      39.652  26.287  29.132  1.00  0.00     0.029 A 
ATOM     51  C   UNL A   1      40.970  26.514  28.543  1.00  0.00     0.049 A 
ATOM     52  H   UNL A   1      42.093  28.266  28.601  1.00  0.00     0.167 HD
ATOM     53  C   UNL A   1      44.349  31.992  28.730  1.00  0.00     0.037 A 
ATOM     54  C   UNL A   1      41.690  25.610  27.850  1.00  0.00     0.037 A 
ATOM     55  C   UNL A   1      45.206  31.077  28.025  1.00  0.00     0.049 A 
ATOM     56  C   UNL A   1      43.036  25.991  27.292  1.00  0.00     0.074 A 
ATOM     57  C   UNL A   1      46.479  31.298  27.526  1.00  0.00     0.029 A 
ATOM     58  N   UNL A   1      44.875  29.768  27.714  1.00  0.00    -0.354 N 
ATOM     59  N   UNL A   1      43.684  27.126  27.392  1.00  0.00    -0.248 NA
ATOM     60  C   UNL A   1      43.749  24.961  26.520  1.00  0.00     0.031 C 
ATOM     61  C   UNL A   1      46.903  30.132  26.879  1.00  0.00     0.029 A 
ATOM     62  C   UNL A   1      45.911  29.174  27.010  1.00  0.00     0.049 A 
ATOM     63  H   UNL A   1      44.030  29.327  27.956  1.00  0.00     0.167 HD
ATOM     64  C   UNL A   1      44.886  26.939  26.719  1.00  0.00     0.074 A 
ATOM     65  C   UNL A   1      44.884  25.579  26.225  1.00  0.00     0.031 C 
ATOM     66  C   UNL A   1      45.901  27.818  26.529  1.00  0.00     0.037 A 
BRANCH  53  67
ATOM     67  C   UNL A   1      44.839  33.392  28.950  1.00  0.00     0.057 A 
ATOM     68  C   UNL A   1      45.521  33.759  30.118  1.00  0.00     0.134 A 
ATOM     69  C   UNL A   1      44.655  34.375  27.971  1.00  0.00     0.134 A 
ATOM     70  F   UNL A   1      45.718  32.866  31.098  1.00  0.00    -0.206 F 
ATOM     71  C   UNL A   1      45.987  35.061  30.309  1.00  0.00     0.040 A 
ATOM     72  C   UNL A   1      45.135  35.675  28.142  1.00  0.00     0.040 A 
ATOM     73  F   UNL A   1      44.013  34.087  26.828  1.00  0.00    -0.206 F 
ATOM     74  C   UNL A   1      45.799  36.022  29.317  1.00  0.00     0.006 A 
ENDBRANCH  53  67
BRANCH  54  75
ATOM     75  C   UNL A   1      41.151  24.246  27.631  1.00  0.00     0.057 A 
ATOM     76  C   UNL A   1      41.655  23.147  28.335  1.00  0.00     0.134 A 
ATOM     77  C   UNL A   1      40.141  24.005  26.692  1.00  0.00     0.134 A 
ATOM     78  F   UNL A   1      42.644  23.312  29.226  1.00  0.00    -0.206 F 
ATOM     79  C   UNL A   1      41.184  21.854  28.105  1.00  0.00     0.040 A 
ATOM     80  C   UNL A   1      39.644  22.721  26.469  1.00  0.00     0.040 A 
ATOM     81  F   UNL A   1      39.624  25.016  25.978  1.00  0.00    -0.206 F 
ATOM     82  C   UNL A   1      40.170  21.639  27.172  1.00  0.00     0.006 A 
ENDBRANCH  54  75
BRANCH  66  83
ATOM     83  C   UNL A   1      47.106  27.329  25.781  1.00  0.00     0.057 A 
ATOM     84  C   UNL A   1      48.132  26.620  26.418  1.00  0.00     0.134 A 
ATOM     85  C   UNL A   1      47.222  27.536  24.400  1.00  0.00     0.134 A 
ATOM     86  F   UNL A   1      48.088  26.399  27.740  1.00  0.00    -0.206 F 
ATOM     87  C   UNL A   1      49.241  26.151  25.711  1.00  0.00     0.040 A 
ATOM     88  C   UNL A   1      48.314  27.052  23.679  1.00  0.00     0.040 A 
ATOM     89  F   UNL A   1      46.269  28.199  23.729  1.00  0.00    -0.206 F 
ATOM     90  C   UNL A   1      49.331  26.361  24.335  1.00  0.00     0.006 A 
ENDBRANCH  66  83
ENDBRANCH  40  41
ENDBRANCH  33  35
ENDBRANCH  32  33
ENDBRANCH  31  32
ENDBRANCH  30  31
ENDBRANCH  29  30
ENDBRANCH  28  29
ENDBRANCH   1  28
TORSDOF 20
ENDMDL
MODEL 2
REMARK VINA RESULT:     -10.7      5.111     10.332
REMARK SMILES O=C(C[NH+]1CCN(c2nccc(N3CCCCC3)n2)CC1)OCCOCCOCCOC(=O)c1ccc(-c2c3nc(c(-c4c(F)cccc4F)c4ccc([nH]4)c(-c4c(F)cccc4F)c4nc(c(-c5c(F)cccc5F)c5ccc2[nH]5)C=C4)C=C3)cc1
REMARK SMILES IDX 26 1 25 2 24 3 23 4 22 5 2 6 1 7 3 8 4 9 5 10 21 11 6 13
REMARK SMILES IDX 20 14 7 15 8 16 9 17 19 18 10 19 12 20 11 21 13 22 14 23
REMARK SMILES IDX 18 24 15 25 17 26 16 27 27 28 28 29 29 30 30 31 31 32 32 33
REMARK SMILES IDX 33 34 34 35 35 36 87 37 36 38 86 39 37 40 38 41 39 42 80 43
REMARK SMILES IDX 40 44 85 45 79 46 81 47 41 48 84 49 78 50 77 51 42 53 68 54
REMARK SMILES IDX 51 55 67 56 52 57 55 58 66 59 82 60 53 61 54 62 65 64 83 65
REMARK SMILES IDX 56 66 43 67 44 68 49 69 45 70 46 71 48 72 50 73 47 74 69 75
REMARK SMILES IDX 70 76 75 77 71 78 72 79 74 80 76 81 73 82 57 83 58 84 63 85
REMARK SMILES IDX 59 86 60 87 62 88 64 89 61 90
REMARK H PARENT 4 12 81 52 55 63
REMARK Flexibility Score: inf
ROOT
ATOM      1  C   UNL A   1      38.930  22.237  26.136  1.00  0.00     0.188 C 
ENDROOT
BRANCH   1   2
ATOM      2  O   UNL A   1      37.948  21.429  25.494  1.00  0.00    -0.376 OA
BRANCH   2   3
ATOM      3  C   UNL A   1      36.579  21.736  25.751  1.00  0.00     0.202 C 
BRANCH   3   4
ATOM      4  C   UNL A   1      35.640  21.365  24.602  1.00  0.00     0.261 C 
BRANCH   4   5
ATOM      5  O   UNL A   1      34.418  20.831  25.128  1.00  0.00    -0.459 OA
BRANCH   5   6
ATOM      6  C   UNL A   1      33.328  21.637  25.200  1.00  0.00     0.361 C 
ATOM      7  O   UNL A   1      32.265  21.196  25.635  1.00  0.00    -0.245 OA
BRANCH   6   8
ATOM      8  C   UNL A   1      33.399  22.961  24.432  1.00  0.00     0.386 C 
BRANCH   8   9
ATOM      9  N   UNL A   1      32.117  23.701  24.344  1.00  0.00    -0.323 N 
ATOM     10  C   UNL A   1      31.842  24.515  25.560  1.00  0.00     0.284 C 
ATOM     11  C   UNL A   1      32.138  24.676  23.217  1.00  0.00     0.284 C 
ATOM     12  H   UNL A   1      31.405  22.981  24.222  1.00  0.00     0.348 HD
ATOM     13  C   UNL A   1      32.876  25.615  25.874  1.00  0.00     0.181 C 
ATOM     14  C   UNL A   1      33.092  25.886  23.387  1.00  0.00     0.181 C 
ATOM     15  N   UNL A   1      33.044  26.480  24.718  1.00  0.00    -0.329 N 
BRANCH  15  16
ATOM     16  C   UNL A   1      32.498  27.729  24.899  1.00  0.00     0.227 A 
ATOM     17  N   UNL A   1      32.901  28.394  25.992  1.00  0.00    -0.221 NA
ATOM     18  N   UNL A   1      31.550  28.170  24.061  1.00  0.00    -0.196 NA
ATOM     19  C   UNL A   1      32.367  29.603  26.200  1.00  0.00     0.119 A 
ATOM     20  C   UNL A   1      31.007  29.375  24.314  1.00  0.00     0.134 A 
ATOM     21  C   UNL A   1      31.414  30.147  25.383  1.00  0.00     0.067 A 
BRANCH  20  22
ATOM     22  N   UNL A   1      29.997  29.831  23.498  1.00  0.00    -0.356 N 
ATOM     23  C   UNL A   1      29.490  31.182  23.662  1.00  0.00     0.118 C 
ATOM     24  C   UNL A   1      29.392  28.950  22.518  1.00  0.00     0.118 C 
ATOM     25  C   UNL A   1      27.977  31.161  23.859  1.00  0.00     0.022 C 
ATOM     26  C   UNL A   1      27.885  28.895  22.764  1.00  0.00     0.022 C 
ATOM     27  C   UNL A   1      27.281  30.299  22.805  1.00  0.00     0.004 C 
ENDBRANCH  20  22
ENDBRANCH  15  16
ENDBRANCH   8   9
ENDBRANCH   6   8
ENDBRANCH   5   6
ENDBRANCH   4   5
ENDBRANCH   3   4
ENDBRANCH   2   3
ENDBRANCH   1   2
BRANCH   1  28
ATOM     28  C   UNL A   1      40.225  21.544  26.573  1.00  0.00     0.188 C 
BRANCH  28  29
ATOM     29  O   UNL A   1      41.294  21.327  25.660  1.00  0.00    -0.376 OA
BRANCH  29  30
ATOM     30  C   UNL A   1      42.603  21.060  26.134  1.00  0.00     0.202 C 
BRANCH  30  31
ATOM     31  C   UNL A   1      43.665  21.894  25.412  1.00  0.00     0.261 C 
BRANCH  31  32
ATOM     32  O   UNL A   1      43.140  23.085  24.797  1.00  0.00    -0.460 OA
BRANCH  32  33
ATOM     33  C   UNL A   1      43.860  24.210  25.028  1.00  0.00     0.338 C 
ATOM     34  O   UNL A   1      44.978  24.473  24.621  1.00  0.00    -0.246 OA
BRANCH  33  35
ATOM     35  C   UNL A   1      43.080  25.169  25.838  1.00  0.00     0.060 A 
ATOM     36  C   UNL A   1      43.619  26.443  26.050  1.00  0.00     0.016 A 
ATOM     37  C   UNL A   1      41.906  24.781  26.493  1.00  0.00     0.016 A 
ATOM     38  C   UNL A   1      43.026  27.309  26.969  1.00  0.00     0.010 A 
ATOM     39  C   UNL A   1      41.317  25.649  27.420  1.00  0.00     0.010 A 
ATOM     40  C   UNL A   1      41.901  26.896  27.698  1.00  0.00    -0.014 A 
BRANCH  40  41
ATOM     41  C   UNL A   1      41.453  27.695  28.865  1.00  0.00     0.031 A 
ATOM     42  C   UNL A   1      42.199  27.568  30.168  1.00  0.00     0.074 A 
ATOM     43  C   UNL A   1      40.422  28.552  28.767  1.00  0.00     0.049 A 
ATOM     44  N   UNL A   1      41.986  28.169  31.311  1.00  0.00    -0.248 NA
ATOM     45  C   UNL A   1      43.337  26.635  30.182  1.00  0.00     0.031 C 
ATOM     46  C   UNL A   1      39.626  28.781  27.566  1.00  0.00     0.029 A 
ATOM     47  N   UNL A   1      39.873  29.389  29.706  1.00  0.00    -0.354 N 
ATOM     48  C   UNL A   1      42.957  27.687  32.180  1.00  0.00     0.074 A 
ATOM     49  C   UNL A   1      43.745  26.725  31.440  1.00  0.00     0.031 C 
ATOM     50  C   UNL A   1      38.688  29.707  27.839  1.00  0.00     0.029 A 
ATOM     51  C   UNL A   1      38.803  30.110  29.239  1.00  0.00     0.049 A 
ATOM     52  H   UNL A   1      40.215  29.466  30.627  1.00  0.00     0.167 HD
ATOM     53  C   UNL A   1      43.179  28.019  33.474  1.00  0.00     0.037 A 
ATOM     54  C   UNL A   1      37.997  30.982  29.877  1.00  0.00     0.037 A 
ATOM     55  C   UNL A   1      42.402  28.975  34.218  1.00  0.00     0.049 A 
ATOM     56  C   UNL A   1      38.232  31.296  31.331  1.00  0.00     0.074 A 
ATOM     57  C   UNL A   1      42.566  29.385  35.530  1.00  0.00     0.029 A 
ATOM     58  N   UNL A   1      41.311  29.664  33.715  1.00  0.00    -0.354 N 
ATOM     59  N   UNL A   1      39.168  30.852  32.134  1.00  0.00    -0.248 NA
ATOM     60  C   UNL A   1      37.293  32.233  31.967  1.00  0.00     0.031 C 
ATOM     61  C   UNL A   1      41.549  30.297  35.833  1.00  0.00     0.029 A 
ATOM     62  C   UNL A   1      40.777  30.483  34.698  1.00  0.00     0.049 A 
ATOM     63  H   UNL A   1      40.966  29.584  32.798  1.00  0.00     0.167 HD
ATOM     64  C   UNL A   1      38.945  31.472  33.359  1.00  0.00     0.074 A 
ATOM     65  C   UNL A   1      37.793  32.331  33.190  1.00  0.00     0.031 C 
ATOM     66  C   UNL A   1      39.635  31.339  34.518  1.00  0.00     0.037 A 
BRANCH  53  67
ATOM     67  C   UNL A   1      44.306  27.324  34.178  1.00  0.00     0.057 A 
ATOM     68  C   UNL A   1      45.587  27.886  34.254  1.00  0.00     0.134 A 
ATOM     69  C   UNL A   1      44.100  26.094  34.815  1.00  0.00     0.134 A 
ATOM     70  F   UNL A   1      45.851  29.056  33.654  1.00  0.00    -0.206 F 
ATOM     71  C   UNL A   1      46.628  27.240  34.923  1.00  0.00     0.040 A 
ATOM     72  C   UNL A   1      45.127  25.448  35.505  1.00  0.00     0.040 A 
ATOM     73  F   UNL A   1      42.895  25.504  34.783  1.00  0.00    -0.206 F 
ATOM     74  C   UNL A   1      46.397  26.020  35.556  1.00  0.00     0.006 A 
ENDBRANCH  53  67
BRANCH  54  75
ATOM     75  C   UNL A   1      36.875  31.622  29.147  1.00  0.00     0.057 A 
ATOM     76  C   UNL A   1      36.964  32.945  28.701  1.00  0.00     0.134 A 
ATOM     77  C   UNL A   1      35.680  30.937  28.906  1.00  0.00     0.134 A 
ATOM     78  F   UNL A   1      38.075  33.662  28.931  1.00  0.00    -0.206 F 
ATOM     79  C   UNL A   1      35.899  33.570  28.052  1.00  0.00     0.040 A 
ATOM     80  C   UNL A   1      34.615  31.541  28.237  1.00  0.00     0.040 A 
ATOM     81  F   UNL A   1      35.530  29.669  29.318  1.00  0.00    -0.206 F 
ATOM     82  C   UNL A   1      34.720  32.864  27.814  1.00  0.00     0.006 A 
ENDBRANCH  54  75
BRANCH  66  83
ATOM     83  C   UNL A   1      39.183  32.164  35.688  1.00  0.00     0.057 A 
ATOM     84  C   UNL A   1      38.294  31.660  36.646  1.00  0.00     0.134 A 
ATOM     85  C   UNL A   1      39.674  33.462  35.879  1.00  0.00     0.134 A 
ATOM     86  F   UNL A   1      37.778  30.429  36.515  1.00  0.00    -0.206 F 
ATOM     87  C   UNL A   1      37.895  32.426  37.743  1.00  0.00     0.040 A 
ATOM     88  C   UNL A   1      39.299  34.228  36.982  1.00  0.00     0.040 A 
ATOM     89  F   UNL A   1      40.536  33.999  35.002  1.00  0.00    -0.206 F 
ATOM     90  C   UNL A   1      38.403  33.713  37.916  1.00  0.00     0.006 A 
ENDBRANCH  66  83
ENDBRANCH  40  41
ENDBRANCH  33  35
ENDBRANCH  32  33
ENDBRANCH  31  32
ENDBRANCH  30  31
ENDBRANCH  29  30
ENDBRANCH  28  29
ENDBRANCH   1  28
TORSDOF 20
ENDMDL
MODEL 3
REMARK VINA RESULT:     -10.7      5.220     10.315
REMARK SMILES O=C(C[NH+]1CCN(c2nccc(N3CCCCC3)n2)CC1)OCCOCCOCCOC(=O)c1ccc(-c2c3nc(c(-c4c(F)cccc4F)c4ccc([nH]4)c(-c4c(F)cccc4F)c4nc(c(-c5c(F)cccc5F)c5ccc2[nH]5)C=C4)C=C3)cc1
REMARK SMILES IDX 26 1 25 2 24 3 23 4 22 5 2 6 1 7 3 8 4 9 5 10 21 11 6 13
REMARK SMILES IDX 20 14 7 15 8 16 9 17 19 18 10 19 12 20 11 21 13 22 14 23
REMARK SMILES IDX 18 24 15 25 17 26 16 27 27 28 28 29 29 30 30 31 31 32 32 33
REMARK SMILES IDX 33 34 34 35 35 36 87 37 36 38 86 39 37 40 38 41 39 42 80 43
REMARK SMILES IDX 40 44 85 45 79 46 81 47 41 48 84 49 78 50 77 51 42 53 68 54
REMARK SMILES IDX 51 55 67 56 52 57 55 58 66 59 82 60 53 61 54 62 65 64 83 65
REMARK SMILES IDX 56 66 43 67 44 68 49 69 45 70 46 71 48 72 50 73 47 74 69 75
REMARK SMILES IDX 70 76 75 77 71 78 72 79 74 80 76 81 73 82 57 83 58 84 63 85
REMARK SMILES IDX 59 86 60 87 62 88 64 89 61 90
REMARK H PARENT 4 12 81 52 55 63
REMARK Flexibility Score: inf
ROOT
ATOM      1  C   UNL A   1      38.906  22.255  26.097  1.00  0.00     0.188 C 
ENDROOT
BRANCH   1   2
ATOM      2  O   UNL A   1      37.964  21.405  25.447  1.00  0.00    -0.376 OA
BRANCH   2   3
ATOM      3  C   UNL A   1      36.582  21.642  25.707  1.00  0.00     0.202 C 
BRANCH   3   4
ATOM      4  C   UNL A   1      35.652  20.608  25.070  1.00  0.00     0.261 C 
BRANCH   4   5
ATOM      5  O   UNL A   1      34.491  20.429  25.893  1.00  0.00    -0.459 OA
BRANCH   5   6
ATOM      6  C   UNL A   1      33.343  19.989  25.318  1.00  0.00     0.361 C 
ATOM      7  O   UNL A   1      32.722  19.053  25.821  1.00  0.00    -0.245 OA
BRANCH   6   8
ATOM      8  C   UNL A   1      33.058  20.472  23.891  1.00  0.00     0.386 C 
BRANCH   8   9
ATOM      9  N   UNL A   1      31.965  21.467  23.775  1.00  0.00    -0.323 N 
ATOM     10  C   UNL A   1      32.111  22.591  24.740  1.00  0.00     0.284 C 
ATOM     11  C   UNL A   1      31.964  22.106  22.428  1.00  0.00     0.284 C 
ATOM     12  H   UNL A   1      31.110  20.942  23.957  1.00  0.00     0.348 HD
ATOM     13  C   UNL A   1      33.392  23.437  24.591  1.00  0.00     0.181 C 
ATOM     14  C   UNL A   1      33.163  23.041  22.122  1.00  0.00     0.181 C 
ATOM     15  N   UNL A   1      33.503  23.929  23.227  1.00  0.00    -0.329 N 
BRANCH  15  16
ATOM     16  C   UNL A   1      33.274  25.280  23.125  1.00  0.00     0.227 A 
ATOM     17  N   UNL A   1      33.835  25.894  22.071  1.00  0.00    -0.221 NA
ATOM     18  N   UNL A   1      32.610  25.921  24.098  1.00  0.00    -0.196 NA
ATOM     19  C   UNL A   1      33.643  27.213  21.962  1.00  0.00     0.119 A 
ATOM     20  C   UNL A   1      32.462  27.253  23.978  1.00  0.00     0.134 A 
ATOM     21  C   UNL A   1      32.954  27.946  22.891  1.00  0.00     0.067 A 
BRANCH  20  22
ATOM     22  N   UNL A   1      31.826  27.941  24.986  1.00  0.00    -0.356 N 
ATOM     23  C   UNL A   1      31.279  29.261  24.725  1.00  0.00     0.118 C 
ATOM     24  C   UNL A   1      31.756  27.385  26.323  1.00  0.00     0.118 C 
ATOM     25  C   UNL A   1      31.828  30.271  25.728  1.00  0.00     0.022 C 
ATOM     26  C   UNL A   1      32.362  28.383  27.308  1.00  0.00     0.022 C 
ATOM     27  C   UNL A   1      31.714  29.761  27.165  1.00  0.00     0.004 C 
ENDBRANCH  20  22
ENDBRANCH  15  16
ENDBRANCH   8   9
ENDBRANCH   6   8
ENDBRANCH   5   6
ENDBRANCH   4   5
ENDBRANCH   3   4
ENDBRANCH   2   3
ENDBRANCH   1   2
BRANCH   1  28
ATOM     28  C   UNL A   1      40.234  21.623  26.527  1.00  0.00     0.188 C 
BRANCH  28  29
ATOM     29  O   UNL A   1      41.292  21.418  25.598  1.00  0.00    -0.376 OA
BRANCH  29  30
ATOM     30  C   UNL A   1      42.608  21.152  26.054  1.00  0.00     0.202 C 
BRANCH  30  31
ATOM     31  C   UNL A   1      43.642  22.091  25.427  1.00  0.00     0.261 C 
BRANCH  31  32
ATOM     32  O   UNL A   1      43.070  23.291  24.874  1.00  0.00    -0.460 OA
BRANCH  32  33
ATOM     33  C   UNL A   1      43.786  24.419  25.099  1.00  0.00     0.338 C 
ATOM     34  O   UNL A   1      44.868  24.718  24.626  1.00  0.00    -0.246 OA
BRANCH  33  35
ATOM     35  C   UNL A   1      43.048  25.332  25.997  1.00  0.00     0.060 A 
ATOM     36  C   UNL A   1      43.553  26.625  26.179  1.00  0.00     0.016 A 
ATOM     37  C   UNL A   1      41.960  24.886  26.753  1.00  0.00     0.016 A 
ATOM     38  C   UNL A   1      43.016  27.452  27.166  1.00  0.00     0.010 A 
ATOM     39  C   UNL A   1      41.427  25.714  27.748  1.00  0.00     0.010 A 
ATOM     40  C   UNL A   1      41.984  26.981  27.992  1.00  0.00    -0.014 A 
BRANCH  40  41
ATOM     41  C   UNL A   1      41.618  27.744  29.211  1.00  0.00     0.031 A 
ATOM     42  C   UNL A   1      40.426  28.663  29.167  1.00  0.00     0.074 A 
ATOM     43  C   UNL A   1      42.309  27.600  30.355  1.00  0.00     0.049 A 
ATOM     44  N   UNL A   1      39.924  29.422  30.109  1.00  0.00    -0.248 NA
ATOM     45  C   UNL A   1      39.703  28.738  27.887  1.00  0.00     0.031 C 
ATOM     46  C   UNL A   1      43.470  26.736  30.538  1.00  0.00     0.029 A 
ATOM     47  N   UNL A   1      42.122  28.186  31.583  1.00  0.00    -0.354 N 
ATOM     48  C   UNL A   1      38.833  30.065  29.538  1.00  0.00     0.074 A 
ATOM     49  C   UNL A   1      38.759  29.627  28.160  1.00  0.00     0.031 C 
ATOM     50  C   UNL A   1      43.893  26.844  31.810  1.00  0.00     0.029 A 
ATOM     51  C   UNL A   1      43.050  27.805  32.519  1.00  0.00     0.049 A 
ATOM     52  H   UNL A   1      41.392  28.819  31.773  1.00  0.00     0.167 HD
ATOM     53  C   UNL A   1      37.966  30.935  30.107  1.00  0.00     0.037 A 
ATOM     54  C   UNL A   1      43.209  28.202  33.796  1.00  0.00     0.037 A 
ATOM     55  C   UNL A   1      38.030  31.375  31.476  1.00  0.00     0.049 A 
ATOM     56  C   UNL A   1      42.263  29.210  34.392  1.00  0.00     0.074 A 
ATOM     57  C   UNL A   1      37.183  32.244  32.143  1.00  0.00     0.029 A 
ATOM     58  N   UNL A   1      39.000  30.984  32.384  1.00  0.00    -0.354 N 
ATOM     59  N   UNL A   1      41.222  29.792  33.850  1.00  0.00    -0.248 NA
ATOM     60  C   UNL A   1      42.519  29.619  35.783  1.00  0.00     0.031 C 
ATOM     61  C   UNL A   1      37.663  32.407  33.447  1.00  0.00     0.029 A 
ATOM     62  C   UNL A   1      38.786  31.611  33.601  1.00  0.00     0.049 A 
ATOM     63  H   UNL A   1      39.733  30.356  32.192  1.00  0.00     0.167 HD
ATOM     64  C   UNL A   1      40.687  30.614  34.836  1.00  0.00     0.074 A 
ATOM     65  C   UNL A   1      41.511  30.447  36.014  1.00  0.00     0.031 C 
ATOM     66  C   UNL A   1      39.609  31.433  34.769  1.00  0.00     0.037 A 
BRANCH  53  67
ATOM     67  C   UNL A   1      36.875  31.486  29.239  1.00  0.00     0.057 A 
ATOM     68  C   UNL A   1      35.732  30.738  28.926  1.00  0.00     0.134 A 
ATOM     69  C   UNL A   1      36.952  32.791  28.737  1.00  0.00     0.134 A 
ATOM     70  F   UNL A   1      35.605  29.478  29.366  1.00  0.00    -0.206 F 
ATOM     71  C   UNL A   1      34.715  31.263  28.128  1.00  0.00     0.040 A 
ATOM     72  C   UNL A   1      35.931  33.334  27.956  1.00  0.00     0.040 A 
ATOM     73  F   UNL A   1      38.018  33.562  29.004  1.00  0.00    -0.206 F 
ATOM     74  C   UNL A   1      34.810  32.567  27.646  1.00  0.00     0.006 A 
ENDBRANCH  53  67
BRANCH  54  75
ATOM     75  C   UNL A   1      44.323  27.652  34.608  1.00  0.00     0.057 A 
ATOM     76  C   UNL A   1      44.162  26.482  35.358  1.00  0.00     0.134 A 
ATOM     77  C   UNL A   1      45.561  28.300  34.677  1.00  0.00     0.134 A 
ATOM     78  F   UNL A   1      42.987  25.834  35.354  1.00  0.00    -0.206 F 
ATOM     79  C   UNL A   1      45.188  25.980  36.158  1.00  0.00     0.040 A 
ATOM     80  C   UNL A   1      46.605  27.796  35.455  1.00  0.00     0.040 A 
ATOM     81  F   UNL A   1      45.774  29.432  33.990  1.00  0.00    -0.206 F 
ATOM     82  C   UNL A   1      46.417  26.636  36.204  1.00  0.00     0.006 A 
ENDBRANCH  54  75
BRANCH  66  83
ATOM     83  C   UNL A   1      39.238  32.188  36.012  1.00  0.00     0.057 A 
ATOM     84  C   UNL A   1      39.750  33.464  36.280  1.00  0.00     0.134 A 
ATOM     85  C   UNL A   1      38.328  31.649  36.931  1.00  0.00     0.134 A 
ATOM     86  F   UNL A   1      40.634  34.031  35.446  1.00  0.00    -0.206 F 
ATOM     87  C   UNL A   1      39.384  34.169  37.428  1.00  0.00     0.040 A 
ATOM     88  C   UNL A   1      37.938  32.353  38.070  1.00  0.00     0.040 A 
ATOM     89  F   UNL A   1      37.795  30.435  36.727  1.00  0.00    -0.206 F 
ATOM     90  C   UNL A   1      38.470  33.615  38.324  1.00  0.00     0.006 A 
ENDBRANCH  66  83
ENDBRANCH  40  41
ENDBRANCH  33  35
ENDBRANCH  32  33
ENDBRANCH  31  32
ENDBRANCH  30  31
ENDBRANCH  29  30
ENDBRANCH  28  29
ENDBRANCH   1  28
TORSDOF 20
ENDMDL
