MODEL 1
REMARK VINA RESULT:     -12.2      0.000      0.000
REMARK SMILES Cc1cc(C(=O)OCCOCCOCCOC(=O)c2ccc(-c3c4nc(c(-c5c(F)cccc5F)c5ccc([nH]5)c(-c5c(F)cccc5F)c5nc(c(-c6c(F)cccc6F)c6ccc3[nH]6)C=C5)C=C4)cc2)ccc1NS(=O)(=O)c1c(F)cccc1F
REMARK SMILES IDX 11 1 10 2 9 3 8 4 7 5 5 6 6 7 4 8 1 9 2 10 3 11 75 12 74 13
REMARK SMILES IDX 73 14 76 15 77 17 78 18 79 19 80 20 81 21 86 22 82 23 83 24
REMARK SMILES IDX 85 25 87 26 84 27 12 28 13 29 14 30 15 31 16 32 17 33 18 34
REMARK SMILES IDX 19 35 20 36 72 37 21 38 71 39 22 40 23 41 24 42 65 43 25 44
REMARK SMILES IDX 70 45 64 46 66 47 26 48 69 49 63 50 62 51 27 53 53 54 36 55
REMARK SMILES IDX 52 56 37 57 40 58 51 59 67 60 38 61 39 62 50 64 68 65 41 66
REMARK SMILES IDX 28 67 29 68 34 69 30 70 31 71 33 72 35 73 32 74 54 75 55 76
REMARK SMILES IDX 60 77 56 78 57 79 59 80 61 81 58 82 42 83 43 84 48 85 44 86
REMARK SMILES IDX 45 87 47 88 49 89 46 90
REMARK H PARENT 76 16 66 52 40 63
REMARK Flexibility Score: inf
ROOT
ATOM      1  C   UNL A   1      32.905  36.081  29.717  1.00  0.00     0.188 C 
ENDROOT
BRANCH   1   2
ATOM      2  O   UNL A   1      32.557  35.040  28.817  1.00  0.00    -0.376 OA
BRANCH   2   3
ATOM      3  C   UNL A   1      33.405  34.214  28.032  1.00  0.00     0.202 C 
BRANCH   3   4
ATOM      4  C   UNL A   1      34.007  32.651  28.322  1.00  0.00     0.261 C 
BRANCH   4   5
ATOM      5  O   UNL A   1      33.682  31.039  27.898  1.00  0.00    -0.460 OA
BRANCH   5   6
ATOM      6  C   UNL A   1      34.134  29.978  27.090  1.00  0.00     0.338 C 
ATOM      7  O   UNL A   1      35.249  29.496  26.937  1.00  0.00    -0.246 OA
BRANCH   6   8
ATOM      8  C   UNL A   1      33.277  28.934  26.506  1.00  0.00     0.060 A 
ATOM      9  C   UNL A   1      30.988  28.956  23.418  1.00  0.00     0.046 C 
ATOM     10  C   UNL A   1      31.668  28.470  24.673  1.00  0.00    -0.026 A 
ATOM     11  C   UNL A   1      32.737  29.194  25.208  1.00  0.00     0.021 A 
ATOM     12  C   UNL A   1      31.195  27.421  25.447  1.00  0.00     0.052 A 
ATOM     13  C   UNL A   1      31.432  27.422  26.826  1.00  0.00     0.028 A 
ATOM     14  C   UNL A   1      32.491  28.168  27.356  1.00  0.00     0.018 A 
BRANCH  12  15
ATOM     15  N   UNL A   1      30.590  26.306  24.790  1.00  0.00    -0.279 N 
ATOM     16  H   UNL A   1      29.610  26.233  24.734  1.00  0.00     0.180 HD
BRANCH  15  17
ATOM     17  S   UNL A   1      31.590  25.098  24.104  1.00  0.00     0.267 S 
ATOM     18  O   UNL A   1      30.667  24.139  23.534  1.00  0.00    -0.201 OA
ATOM     19  O   UNL A   1      32.532  25.800  23.258  1.00  0.00    -0.201 OA
BRANCH  17  20
ATOM     20  C   UNL A   1      32.521  24.312  25.378  1.00  0.00     0.158 A 
ATOM     21  C   UNL A   1      33.865  24.025  25.162  1.00  0.00     0.146 A 
ATOM     22  C   UNL A   1      31.902  23.812  26.519  1.00  0.00     0.146 A 
ATOM     23  F   UNL A   1      34.536  24.525  24.118  1.00  0.00    -0.205 F 
ATOM     24  C   UNL A   1      34.557  23.159  26.011  1.00  0.00     0.041 A 
ATOM     25  C   UNL A   1      32.584  22.931  27.369  1.00  0.00     0.041 A 
ATOM     26  F   UNL A   1      30.607  24.053  26.769  1.00  0.00    -0.205 F 
ATOM     27  C   UNL A   1      33.907  22.583  27.099  1.00  0.00     0.006 A 
ENDBRANCH  17  20
ENDBRANCH  15  17
ENDBRANCH  12  15
ENDBRANCH   6   8
ENDBRANCH   5   6
ENDBRANCH   4   5
ENDBRANCH   3   4
ENDBRANCH   2   3
ENDBRANCH   1   2
BRANCH   1  28
ATOM     28  C   UNL A   1      32.948  35.874  31.213  1.00  0.00     0.188 C 
BRANCH  28  29
ATOM     29  O   UNL A   1      34.262  35.532  31.609  1.00  0.00    -0.376 OA
BRANCH  29  30
ATOM     30  C   UNL A   1      34.475  34.133  31.721  1.00  0.00     0.202 C 
BRANCH  30  31
ATOM     31  C   UNL A   1      35.967  33.769  31.736  1.00  0.00     0.261 C 
BRANCH  31  32
ATOM     32  O   UNL A   1      36.176  32.574  30.952  1.00  0.00    -0.460 OA
BRANCH  32  33
ATOM     33  C   UNL A   1      36.324  31.415  31.659  1.00  0.00     0.338 C 
ATOM     34  O   UNL A   1      36.284  31.315  32.878  1.00  0.00    -0.246 OA
BRANCH  33  35
ATOM     35  C   UNL A   1      36.851  30.359  30.753  1.00  0.00     0.060 A 
ATOM     36  C   UNL A   1      37.234  29.095  31.174  1.00  0.00     0.016 A 
ATOM     37  C   UNL A   1      37.231  30.689  29.494  1.00  0.00     0.016 A 
ATOM     38  C   UNL A   1      38.260  28.356  30.475  1.00  0.00     0.010 A 
ATOM     39  C   UNL A   1      38.265  29.943  28.893  1.00  0.00     0.010 A 
ATOM     40  C   UNL A   1      39.020  28.861  29.406  1.00  0.00    -0.014 A 
BRANCH  40  41
ATOM     41  C   UNL A   1      40.590  28.279  29.055  1.00  0.00     0.031 A 
ATOM     42  C   UNL A   1      41.213  26.889  28.404  1.00  0.00     0.074 A 
ATOM     43  C   UNL A   1      41.650  29.045  29.414  1.00  0.00     0.049 A 
ATOM     44  N   UNL A   1      41.922  26.002  29.089  1.00  0.00    -0.248 NA
ATOM     45  C   UNL A   1      41.068  26.354  27.023  1.00  0.00     0.031 C 
ATOM     46  C   UNL A   1      43.074  28.751  29.245  1.00  0.00     0.029 A 
ATOM     47  N   UNL A   1      41.650  30.218  30.169  1.00  0.00    -0.354 N 
ATOM     48  C   UNL A   1      42.126  24.867  28.296  1.00  0.00     0.074 A 
ATOM     49  C   UNL A   1      41.426  25.076  27.081  1.00  0.00     0.031 C 
ATOM     50  C   UNL A   1      43.756  29.460  30.159  1.00  0.00     0.029 A 
ATOM     51  C   UNL A   1      42.785  30.163  30.979  1.00  0.00     0.049 A 
ATOM     52  H   UNL A   1      40.982  30.941  30.138  1.00  0.00     0.167 HD
ATOM     53  C   UNL A   1      43.055  23.892  28.498  1.00  0.00     0.037 A 
ATOM     54  C   UNL A   1      42.665  30.119  32.334  1.00  0.00     0.037 A 
ATOM     55  C   UNL A   1      44.051  24.389  29.401  1.00  0.00     0.049 A 
ATOM     56  C   UNL A   1      43.338  28.912  32.935  1.00  0.00     0.074 A 
ATOM     57  C   UNL A   1      45.132  25.212  29.134  1.00  0.00     0.029 A 
ATOM     58  N   UNL A   1      43.779  24.480  30.747  1.00  0.00    -0.354 N 
ATOM     59  N   UNL A   1      43.654  27.835  32.269  1.00  0.00    -0.248 NA
ATOM     60  C   UNL A   1      43.700  28.826  34.346  1.00  0.00     0.031 C 
ATOM     61  C   UNL A   1      45.440  25.903  30.325  1.00  0.00     0.029 A 
ATOM     62  C   UNL A   1      44.612  25.419  31.322  1.00  0.00     0.049 A 
ATOM     63  H   UNL A   1      43.096  23.957  31.227  1.00  0.00     0.167 HD
ATOM     64  C   UNL A   1      44.193  26.917  33.131  1.00  0.00     0.074 A 
ATOM     65  C   UNL A   1      44.234  27.596  34.409  1.00  0.00     0.031 C 
ATOM     66  C   UNL A   1      44.544  25.659  32.744  1.00  0.00     0.037 A 
BRANCH  53  67
ATOM     67  C   UNL A   1      43.249  22.767  27.499  1.00  0.00     0.057 A 
ATOM     68  C   UNL A   1      44.257  22.792  26.521  1.00  0.00     0.134 A 
ATOM     69  C   UNL A   1      42.385  21.652  27.432  1.00  0.00     0.134 A 
ATOM     70  F   UNL A   1      45.197  23.746  26.514  1.00  0.00    -0.206 F 
ATOM     71  C   UNL A   1      44.325  21.853  25.479  1.00  0.00     0.040 A 
ATOM     72  C   UNL A   1      42.426  20.719  26.381  1.00  0.00     0.040 A 
ATOM     73  F   UNL A   1      41.431  21.469  28.360  1.00  0.00    -0.206 F 
ATOM     74  C   UNL A   1      43.387  20.833  25.384  1.00  0.00     0.006 A 
ENDBRANCH  53  67
BRANCH  54  75
ATOM     75  C   UNL A   1      41.471  30.829  32.892  1.00  0.00     0.057 A 
ATOM     76  C   UNL A   1      40.348  30.066  33.281  1.00  0.00     0.134 A 
ATOM     77  C   UNL A   1      41.485  32.165  33.312  1.00  0.00     0.134 A 
ATOM     78  F   UNL A   1      40.262  28.770  32.937  1.00  0.00    -0.206 F 
ATOM     79  C   UNL A   1      39.344  30.569  34.115  1.00  0.00     0.040 A 
ATOM     80  C   UNL A   1      40.473  32.687  34.139  1.00  0.00     0.040 A 
ATOM     81  F   UNL A   1      42.522  32.964  33.026  1.00  0.00    -0.206 F 
ATOM     82  C   UNL A   1      39.412  31.885  34.559  1.00  0.00     0.006 A 
ENDBRANCH  54  75
BRANCH  66  83
ATOM     83  C   UNL A   1      44.895  24.523  33.661  1.00  0.00     0.057 A 
ATOM     84  C   UNL A   1      46.211  24.129  33.928  1.00  0.00     0.134 A 
ATOM     85  C   UNL A   1      43.901  23.921  34.466  1.00  0.00     0.134 A 
ATOM     86  F   UNL A   1      47.252  24.695  33.304  1.00  0.00    -0.206 F 
ATOM     87  C   UNL A   1      46.517  23.171  34.901  1.00  0.00     0.040 A 
ATOM     88  C   UNL A   1      44.201  23.010  35.479  1.00  0.00     0.040 A 
ATOM     89  F   UNL A   1      42.600  24.222  34.323  1.00  0.00    -0.206 F 
ATOM     90  C   UNL A   1      45.514  22.622  35.692  1.00  0.00     0.006 A 
ENDBRANCH  66  83
ENDBRANCH  40  41
ENDBRANCH  33  35
ENDBRANCH  32  33
ENDBRANCH  31  32
ENDBRANCH  30  31
ENDBRANCH  29  30
ENDBRANCH  28  29
ENDBRANCH   1  28
TORSDOF 20
ENDMDL
MODEL 2
REMARK VINA RESULT:     -12.2      1.778      2.797
REMARK SMILES Cc1cc(C(=O)OCCOCCOCCOC(=O)c2ccc(-c3c4nc(c(-c5c(F)cccc5F)c5ccc([nH]5)c(-c5c(F)cccc5F)c5nc(c(-c6c(F)cccc6F)c6ccc3[nH]6)C=C5)C=C4)cc2)ccc1NS(=O)(=O)c1c(F)cccc1F
REMARK SMILES IDX 11 1 10 2 9 3 8 4 7 5 5 6 6 7 4 8 1 9 2 10 3 11 75 12 74 13
REMARK SMILES IDX 73 14 76 15 77 17 78 18 79 19 80 20 81 21 86 22 82 23 83 24
REMARK SMILES IDX 85 25 87 26 84 27 12 28 13 29 14 30 15 31 16 32 17 33 18 34
REMARK SMILES IDX 19 35 20 36 72 37 21 38 71 39 22 40 23 41 24 42 65 43 25 44
REMARK SMILES IDX 70 45 64 46 66 47 26 48 69 49 63 50 62 51 27 53 53 54 36 55
REMARK SMILES IDX 52 56 37 57 40 58 51 59 67 60 38 61 39 62 50 64 68 65 41 66
REMARK SMILES IDX 28 67 29 68 34 69 30 70 31 71 33 72 35 73 32 74 54 75 55 76
REMARK SMILES IDX 60 77 56 78 57 79 59 80 61 81 58 82 42 83 43 84 48 85 44 86
REMARK SMILES IDX 45 87 47 88 49 89 46 90
REMARK H PARENT 76 16 66 52 40 63
REMARK Flexibility Score: inf
ROOT
ATOM      1  C   UNL A   1      33.499  32.451  28.080  1.00  0.00     0.188 C 
ENDROOT
BRANCH   1   2
ATOM      2  O   UNL A   1      33.261  31.411  27.145  1.00  0.00    -0.376 OA
BRANCH   2   3
ATOM      3  C   UNL A   1      32.078  30.655  26.926  1.00  0.00     0.202 C 
BRANCH   3   4
ATOM      4  C   UNL A   1      31.825  28.974  26.903  1.00  0.00     0.261 C 
BRANCH   4   5
ATOM      5  O   UNL A   1      32.372  27.594  26.078  1.00  0.00    -0.460 OA
BRANCH   5   6
ATOM      6  C   UNL A   1      33.041  27.174  24.912  1.00  0.00     0.338 C 
ATOM      7  O   UNL A   1      33.649  27.805  24.057  1.00  0.00    -0.246 OA
BRANCH   6   8
ATOM      8  C   UNL A   1      33.491  25.800  24.643  1.00  0.00     0.060 A 
ATOM      9  C   UNL A   1      36.387  23.739  26.107  1.00  0.00     0.046 C 
ATOM     10  C   UNL A   1      35.214  24.114  25.237  1.00  0.00    -0.026 A 
ATOM     11  C   UNL A   1      34.461  25.251  25.539  1.00  0.00     0.021 A 
ATOM     12  C   UNL A   1      34.919  23.490  24.034  1.00  0.00     0.052 A 
ATOM     13  C   UNL A   1      34.296  24.219  23.015  1.00  0.00     0.028 A 
ATOM     14  C   UNL A   1      33.561  25.370  23.324  1.00  0.00     0.018 A 
BRANCH  12  15
ATOM     15  N   UNL A   1      35.148  22.084  23.919  1.00  0.00    -0.279 N 
ATOM     16  H   UNL A   1      35.914  21.745  23.401  1.00  0.00     0.180 HD
BRANCH  15  17
ATOM     17  S   UNL A   1      34.073  20.999  24.690  1.00  0.00     0.267 S 
ATOM     18  O   UNL A   1      33.504  20.219  23.611  1.00  0.00    -0.201 OA
ATOM     19  O   UNL A   1      34.844  20.354  25.733  1.00  0.00    -0.201 OA
BRANCH  17  20
ATOM     20  C   UNL A   1      32.787  21.908  25.482  1.00  0.00     0.158 A 
ATOM     21  C   UNL A   1      31.759  22.446  24.714  1.00  0.00     0.146 A 
ATOM     22  C   UNL A   1      32.870  22.250  26.828  1.00  0.00     0.146 A 
ATOM     23  F   UNL A   1      31.586  22.110  23.430  1.00  0.00    -0.205 F 
ATOM     24  C   UNL A   1      30.892  23.401  25.247  1.00  0.00     0.041 A 
ATOM     25  C   UNL A   1      32.013  23.218  27.368  1.00  0.00     0.041 A 
ATOM     26  F   UNL A   1      33.845  21.765  27.610  1.00  0.00    -0.205 F 
ATOM     27  C   UNL A   1      31.038  23.814  26.569  1.00  0.00     0.006 A 
ENDBRANCH  17  20
ENDBRANCH  15  17
ENDBRANCH  12  15
ENDBRANCH   6   8
ENDBRANCH   5   6
ENDBRANCH   4   5
ENDBRANCH   3   4
ENDBRANCH   2   3
ENDBRANCH   1   2
BRANCH   1  28
ATOM     28  C   UNL A   1      34.267  33.702  27.718  1.00  0.00     0.188 C 
BRANCH  28  29
ATOM     29  O   UNL A   1      34.508  34.468  28.883  1.00  0.00    -0.376 OA
BRANCH  29  30
ATOM     30  C   UNL A   1      35.824  34.323  29.394  1.00  0.00     0.202 C 
BRANCH  30  31
ATOM     31  C   UNL A   1      35.872  33.421  30.636  1.00  0.00     0.261 C 
BRANCH  31  32
ATOM     32  O   UNL A   1      36.555  32.191  30.307  1.00  0.00    -0.460 OA
BRANCH  32  33
ATOM     33  C   UNL A   1      36.393  31.164  31.194  1.00  0.00     0.338 C 
ATOM     34  O   UNL A   1      36.173  31.286  32.391  1.00  0.00    -0.246 OA
BRANCH  33  35
ATOM     35  C   UNL A   1      36.835  29.897  30.551  1.00  0.00     0.060 A 
ATOM     36  C   UNL A   1      37.402  28.834  31.240  1.00  0.00     0.016 A 
ATOM     37  C   UNL A   1      36.943  29.834  29.201  1.00  0.00     0.016 A 
ATOM     38  C   UNL A   1      38.343  27.947  30.596  1.00  0.00     0.010 A 
ATOM     39  C   UNL A   1      37.911  28.970  28.650  1.00  0.00     0.010 A 
ATOM     40  C   UNL A   1      38.842  28.121  29.294  1.00  0.00    -0.014 A 
BRANCH  40  41
ATOM     41  C   UNL A   1      40.366  27.505  28.817  1.00  0.00     0.031 A 
ATOM     42  C   UNL A   1      40.910  26.083  28.164  1.00  0.00     0.074 A 
ATOM     43  C   UNL A   1      41.463  28.270  29.044  1.00  0.00     0.049 A 
ATOM     44  N   UNL A   1      41.671  25.213  28.812  1.00  0.00    -0.248 NA
ATOM     45  C   UNL A   1      40.627  25.499  26.825  1.00  0.00     0.031 C 
ATOM     46  C   UNL A   1      42.861  27.950  28.751  1.00  0.00     0.029 A 
ATOM     47  N   UNL A   1      41.546  29.470  29.750  1.00  0.00    -0.354 N 
ATOM     48  C   UNL A   1      41.787  24.046  28.047  1.00  0.00     0.074 A 
ATOM     49  C   UNL A   1      40.977  24.219  26.898  1.00  0.00     0.031 C 
ATOM     50  C   UNL A   1      43.634  28.683  29.567  1.00  0.00     0.029 A 
ATOM     51  C   UNL A   1      42.753  29.429  30.449  1.00  0.00     0.049 A 
ATOM     52  H   UNL A   1      40.886  30.200  29.754  1.00  0.00     0.167 HD
ATOM     53  C   UNL A   1      42.722  23.067  28.197  1.00  0.00     0.037 A 
ATOM     54  C   UNL A   1      42.764  29.438  31.809  1.00  0.00     0.037 A 
ATOM     55  C   UNL A   1      43.805  23.584  28.982  1.00  0.00     0.049 A 
ATOM     56  C   UNL A   1      43.479  28.246  32.389  1.00  0.00     0.074 A 
ATOM     57  C   UNL A   1      44.863  24.381  28.580  1.00  0.00     0.029 A 
ATOM     58  N   UNL A   1      43.664  23.729  30.343  1.00  0.00    -0.354 N 
ATOM     59  N   UNL A   1      43.719  27.141  31.738  1.00  0.00    -0.248 NA
ATOM     60  C   UNL A   1      43.974  28.208  33.762  1.00  0.00     0.031 C 
ATOM     61  C   UNL A   1      45.291  25.112  29.710  1.00  0.00     0.029 A 
ATOM     62  C   UNL A   1      44.558  24.677  30.799  1.00  0.00     0.049 A 
ATOM     63  H   UNL A   1      43.025  23.234  30.905  1.00  0.00     0.167 HD
ATOM     64  C   UNL A   1      44.329  26.248  32.580  1.00  0.00     0.074 A 
ATOM     65  C   UNL A   1      44.500  26.974  33.821  1.00  0.00     0.031 C 
ATOM     66  C   UNL A   1      44.629  24.972  32.210  1.00  0.00     0.037 A 
BRANCH  53  67
ATOM     67  C   UNL A   1      42.808  21.902  27.228  1.00  0.00     0.057 A 
ATOM     68  C   UNL A   1      42.021  20.747  27.365  1.00  0.00     0.134 A 
ATOM     69  C   UNL A   1      43.739  21.864  26.166  1.00  0.00     0.134 A 
ATOM     70  F   UNL A   1      41.043  20.676  28.277  1.00  0.00    -0.206 F 
ATOM     71  C   UNL A   1      42.227  19.594  26.591  1.00  0.00     0.040 A 
ATOM     72  C   UNL A   1      43.972  20.709  25.401  1.00  0.00     0.040 A 
ATOM     73  F   UNL A   1      44.493  22.938  25.879  1.00  0.00    -0.206 F 
ATOM     74  C   UNL A   1      43.229  19.558  25.629  1.00  0.00     0.006 A 
ENDBRANCH  53  67
BRANCH  54  75
ATOM     75  C   UNL A   1      41.636  30.185  32.451  1.00  0.00     0.057 A 
ATOM     76  C   UNL A   1      40.604  29.450  33.076  1.00  0.00     0.134 A 
ATOM     77  C   UNL A   1      41.663  31.559  32.717  1.00  0.00     0.134 A 
ATOM     78  F   UNL A   1      40.514  28.123  32.891  1.00  0.00    -0.206 F 
ATOM     79  C   UNL A   1      39.710  30.026  33.985  1.00  0.00     0.040 A 
ATOM     80  C   UNL A   1      40.759  32.153  33.618  1.00  0.00     0.040 A 
ATOM     81  F   UNL A   1      42.623  32.340  32.202  1.00  0.00    -0.206 F 
ATOM     82  C   UNL A   1      39.794  31.384  34.269  1.00  0.00     0.006 A 
ENDBRANCH  54  75
BRANCH  66  83
ATOM     83  C   UNL A   1      45.055  23.866  33.133  1.00  0.00     0.057 A 
ATOM     84  C   UNL A   1      46.343  23.768  33.672  1.00  0.00     0.134 A 
ATOM     85  C   UNL A   1      44.099  22.973  33.667  1.00  0.00     0.134 A 
ATOM     86  F   UNL A   1      47.315  24.620  33.322  1.00  0.00    -0.206 F 
ATOM     87  C   UNL A   1      46.670  22.819  34.646  1.00  0.00     0.040 A 
ATOM     88  C   UNL A   1      44.400  22.064  34.681  1.00  0.00     0.040 A 
ATOM     89  F   UNL A   1      42.822  22.973  33.249  1.00  0.00    -0.206 F 
ATOM     90  C   UNL A   1      45.695  21.975  35.167  1.00  0.00     0.006 A 
ENDBRANCH  66  83
ENDBRANCH  40  41
ENDBRANCH  33  35
ENDBRANCH  32  33
ENDBRANCH  31  32
ENDBRANCH  30  31
ENDBRANCH  29  30
ENDBRANCH  28  29
ENDBRANCH   1  28
TORSDOF 20
ENDMDL
MODEL 3
REMARK VINA RESULT:     -12.1      2.364      3.353
REMARK SMILES Cc1cc(C(=O)OCCOCCOCCOC(=O)c2ccc(-c3c4nc(c(-c5c(F)cccc5F)c5ccc([nH]5)c(-c5c(F)cccc5F)c5nc(c(-c6c(F)cccc6F)c6ccc3[nH]6)C=C5)C=C4)cc2)ccc1NS(=O)(=O)c1c(F)cccc1F
REMARK SMILES IDX 11 1 10 2 9 3 8 4 7 5 5 6 6 7 4 8 1 9 2 10 3 11 75 12 74 13
REMARK SMILES IDX 73 14 76 15 77 17 78 18 79 19 80 20 81 21 86 22 82 23 83 24
REMARK SMILES IDX 85 25 87 26 84 27 12 28 13 29 14 30 15 31 16 32 17 33 18 34
REMARK SMILES IDX 19 35 20 36 72 37 21 38 71 39 22 40 23 41 24 42 65 43 25 44
REMARK SMILES IDX 70 45 64 46 66 47 26 48 69 49 63 50 62 51 27 53 53 54 36 55
REMARK SMILES IDX 52 56 37 57 40 58 51 59 67 60 38 61 39 62 50 64 68 65 41 66
REMARK SMILES IDX 28 67 29 68 34 69 30 70 31 71 33 72 35 73 32 74 54 75 55 76
REMARK SMILES IDX 60 77 56 78 57 79 59 80 61 81 58 82 42 83 43 84 48 85 44 86
REMARK SMILES IDX 45 87 47 88 49 89 46 90
REMARK H PARENT 76 16 66 52 40 63
REMARK Flexibility Score: inf
ROOT
ATOM      1  C   UNL A   1      34.877  32.106  27.963  1.00  0.00     0.188 C 
ENDROOT
BRANCH   1   2
ATOM      2  O   UNL A   1      34.318  31.077  27.162  1.00  0.00    -0.376 OA
BRANCH   2   3
ATOM      3  C   UNL A   1      33.881  29.780  27.545  1.00  0.00     0.202 C 
BRANCH   3   4
ATOM      4  C   UNL A   1      33.493  28.419  26.604  1.00  0.00     0.261 C 
BRANCH   4   5
ATOM      5  O   UNL A   1      32.174  27.399  26.284  1.00  0.00    -0.460 OA
BRANCH   5   6
ATOM      6  C   UNL A   1      31.730  26.068  26.400  1.00  0.00     0.338 C 
ATOM      7  O   UNL A   1      30.638  25.603  26.701  1.00  0.00    -0.246 OA
BRANCH   6   8
ATOM      8  C   UNL A   1      32.398  24.898  25.809  1.00  0.00     0.060 A 
ATOM      9  C   UNL A   1      36.109  24.161  25.128  1.00  0.00     0.046 C 
ATOM     10  C   UNL A   1      34.611  23.990  25.144  1.00  0.00    -0.026 A 
ATOM     11  C   UNL A   1      33.822  24.843  25.920  1.00  0.00     0.021 A 
ATOM     12  C   UNL A   1      33.927  23.132  24.295  1.00  0.00     0.052 A 
ATOM     13  C   UNL A   1      32.623  23.452  23.897  1.00  0.00     0.028 A 
ATOM     14  C   UNL A   1      31.848  24.325  24.669  1.00  0.00     0.018 A 
BRANCH  12  15
ATOM     15  N   UNL A   1      34.529  21.882  23.955  1.00  0.00    -0.279 N 
ATOM     16  H   UNL A   1      34.833  21.710  23.034  1.00  0.00     0.180 HD
BRANCH  15  17
ATOM     17  S   UNL A   1      34.716  20.689  25.167  1.00  0.00     0.267 S 
ATOM     18  O   UNL A   1      36.143  20.635  25.411  1.00  0.00    -0.201 OA
ATOM     19  O   UNL A   1      33.805  21.058  26.229  1.00  0.00    -0.201 OA
BRANCH  17  20
ATOM     20  C   UNL A   1      34.181  19.128  24.544  1.00  0.00     0.158 A 
ATOM     21  C   UNL A   1      32.836  18.939  24.242  1.00  0.00     0.146 A 
ATOM     22  C   UNL A   1      35.037  18.032  24.516  1.00  0.00     0.146 A 
ATOM     23  F   UNL A   1      31.973  19.960  24.190  1.00  0.00    -0.205 F 
ATOM     24  C   UNL A   1      32.325  17.658  24.027  1.00  0.00     0.041 A 
ATOM     25  C   UNL A   1      34.531  16.741  24.314  1.00  0.00     0.041 A 
ATOM     26  F   UNL A   1      36.340  18.160  24.806  1.00  0.00    -0.205 F 
ATOM     27  C   UNL A   1      33.166  16.551  24.095  1.00  0.00     0.006 A 
ENDBRANCH  17  20
ENDBRANCH  15  17
ENDBRANCH  12  15
ENDBRANCH   6   8
ENDBRANCH   5   6
ENDBRANCH   4   5
ENDBRANCH   3   4
ENDBRANCH   2   3
ENDBRANCH   1   2
BRANCH   1  28
ATOM     28  C   UNL A   1      34.295  32.493  29.303  1.00  0.00     0.188 C 
BRANCH  28  29
ATOM     29  O   UNL A   1      35.215  33.305  30.007  1.00  0.00    -0.376 OA
BRANCH  29  30
ATOM     30  C   UNL A   1      34.702  33.815  31.228  1.00  0.00     0.202 C 
BRANCH  30  31
ATOM     31  C   UNL A   1      35.171  33.000  32.443  1.00  0.00     0.261 C 
BRANCH  31  32
ATOM     32  O   UNL A   1      35.513  31.663  32.018  1.00  0.00    -0.460 OA
BRANCH  32  33
ATOM     33  C   UNL A   1      36.769  31.237  32.343  1.00  0.00     0.338 C 
ATOM     34  O   UNL A   1      37.563  31.839  33.053  1.00  0.00    -0.246 OA
BRANCH  33  35
ATOM     35  C   UNL A   1      37.139  30.100  31.456  1.00  0.00     0.060 A 
ATOM     36  C   UNL A   1      37.576  28.867  31.917  1.00  0.00     0.016 A 
ATOM     37  C   UNL A   1      37.315  30.317  30.130  1.00  0.00     0.016 A 
ATOM     38  C   UNL A   1      38.473  28.054  31.130  1.00  0.00     0.010 A 
ATOM     39  C   UNL A   1      38.235  29.504  29.439  1.00  0.00     0.010 A 
ATOM     40  C   UNL A   1      39.056  28.453  29.916  1.00  0.00    -0.014 A 
BRANCH  40  41
ATOM     41  C   UNL A   1      40.547  27.814  29.370  1.00  0.00     0.031 A 
ATOM     42  C   UNL A   1      41.026  26.415  28.625  1.00  0.00     0.074 A 
ATOM     43  C   UNL A   1      41.674  28.526  29.616  1.00  0.00     0.049 A 
ATOM     44  N   UNL A   1      41.769  25.483  29.205  1.00  0.00    -0.248 NA
ATOM     45  C   UNL A   1      40.696  25.920  27.262  1.00  0.00     0.031 C 
ATOM     46  C   UNL A   1      43.055  28.176  29.274  1.00  0.00     0.029 A 
ATOM     47  N   UNL A   1      41.815  29.680  30.388  1.00  0.00    -0.354 N 
ATOM     48  C   UNL A   1      41.828  24.359  28.373  1.00  0.00     0.074 A 
ATOM     49  C   UNL A   1      41.001  24.627  27.253  1.00  0.00     0.031 C 
ATOM     50  C   UNL A   1      43.870  28.834  30.115  1.00  0.00     0.029 A 
ATOM     51  C   UNL A   1      43.034  29.557  31.056  1.00  0.00     0.049 A 
ATOM     52  H   UNL A   1      41.181  30.431  30.449  1.00  0.00     0.167 HD
ATOM     53  C   UNL A   1      42.730  23.341  28.445  1.00  0.00     0.037 A 
ATOM     54  C   UNL A   1      43.072  29.487  32.415  1.00  0.00     0.037 A 
ATOM     55  C   UNL A   1      43.846  23.774  29.234  1.00  0.00     0.049 A 
ATOM     56  C   UNL A   1      43.756  28.239  32.910  1.00  0.00     0.074 A 
ATOM     57  C   UNL A   1      44.924  24.557  28.856  1.00  0.00     0.029 A 
ATOM     58  N   UNL A   1      43.738  23.845  30.604  1.00  0.00    -0.354 N 
ATOM     59  N   UNL A   1      43.943  27.166  32.191  1.00  0.00    -0.248 NA
ATOM     60  C   UNL A   1      44.276  28.105  34.266  1.00  0.00     0.031 C 
ATOM     61  C   UNL A   1      45.401  25.205  30.015  1.00  0.00     0.029 A 
ATOM     62  C   UNL A   1      44.674  24.734  31.094  1.00  0.00     0.049 A 
ATOM     63  H   UNL A   1      43.094  23.340  31.151  1.00  0.00     0.167 HD
ATOM     64  C   UNL A   1      44.538  26.205  32.967  1.00  0.00     0.074 A 
ATOM     65  C   UNL A   1      44.759  26.852  34.243  1.00  0.00     0.031 C 
ATOM     66  C   UNL A   1      44.784  24.943  32.518  1.00  0.00     0.037 A 
BRANCH  53  67
ATOM     67  C   UNL A   1      42.755  22.232  27.410  1.00  0.00     0.057 A 
ATOM     68  C   UNL A   1      41.943  21.091  27.507  1.00  0.00     0.134 A 
ATOM     69  C   UNL A   1      43.650  22.233  26.317  1.00  0.00     0.134 A 
ATOM     70  F   UNL A   1      40.992  20.991  28.445  1.00  0.00    -0.206 F 
ATOM     71  C   UNL A   1      42.094  19.980  26.662  1.00  0.00     0.040 A 
ATOM     72  C   UNL A   1      43.830  21.119  25.480  1.00  0.00     0.040 A 
ATOM     73  F   UNL A   1      44.423  23.303  26.066  1.00  0.00    -0.206 F 
ATOM     74  C   UNL A   1      43.064  19.974  25.668  1.00  0.00     0.006 A 
ENDBRANCH  53  67
BRANCH  54  75
ATOM     75  C   UNL A   1      41.984  30.234  33.123  1.00  0.00     0.057 A 
ATOM     76  C   UNL A   1      40.909  29.504  33.677  1.00  0.00     0.134 A 
ATOM     77  C   UNL A   1      42.088  31.573  33.516  1.00  0.00     0.134 A 
ATOM     78  F   UNL A   1      40.745  28.207  33.368  1.00  0.00    -0.206 F 
ATOM     79  C   UNL A   1      40.044  30.043  34.635  1.00  0.00     0.040 A 
ATOM     80  C   UNL A   1      41.214  32.131  34.469  1.00  0.00     0.040 A 
ATOM     81  F   UNL A   1      43.093  32.343  33.077  1.00  0.00    -0.206 F 
ATOM     82  C   UNL A   1      40.203  31.361  35.044  1.00  0.00     0.006 A 
ENDBRANCH  54  75
BRANCH  66  83
ATOM     83  C   UNL A   1      45.189  23.772  33.366  1.00  0.00     0.057 A 
ATOM     84  C   UNL A   1      46.474  23.615  33.899  1.00  0.00     0.134 A 
ATOM     85  C   UNL A   1      44.216  22.862  33.839  1.00  0.00     0.134 A 
ATOM     86  F   UNL A   1      47.462  24.472  33.607  1.00  0.00    -0.206 F 
ATOM     87  C   UNL A   1      46.783  22.599  34.808  1.00  0.00     0.040 A 
ATOM     88  C   UNL A   1      44.499  21.883  34.792  1.00  0.00     0.040 A 
ATOM     89  F   UNL A   1      42.941  22.912  33.421  1.00  0.00    -0.206 F 
ATOM     90  C   UNL A   1      45.791  21.740  35.272  1.00  0.00     0.006 A 
ENDBRANCH  66  83
ENDBRANCH  40  41
ENDBRANCH  33  35
ENDBRANCH  32  33
ENDBRANCH  31  32
ENDBRANCH  30  31
ENDBRANCH  29  30
ENDBRANCH  28  29
ENDBRANCH   1  28
TORSDOF 20
ENDMDL
