MODEL 1
REMARK VINA RESULT:     -10.4      0.000      0.000
REMARK SMILES COc1ccc(S(=O)(=O)N[C@H]2C=C[C@@H](C(=O)OCCOCCOCCOC(=O)c3ccc(-c4c5nc(c(-c6c(F)cccc6F)c6ccc([nH]6)c(-c6c(F)cccc6F)c6nc(c(-c7c(F)cccc7F)c7ccc4[nH]7)C=C6)C=C5)cc3)C2)cc1
REMARK SMILES IDX 21 1 20 2 19 3 18 4 17 5 15 6 16 7 14 8 11 9 12 10 83 11
REMARK SMILES IDX 13 12 10 13 7 15 8 16 9 17 6 18 3 19 4 20 85 21 5 22 84 23
REMARK SMILES IDX 2 24 1 25 22 26 23 27 24 28 25 29 26 30 27 31 28 32 29 33
REMARK SMILES IDX 30 34 82 35 31 36 81 37 32 38 33 39 34 40 75 41 35 42 80 43
REMARK SMILES IDX 74 44 76 45 36 46 79 47 73 48 72 49 37 51 63 52 46 53 62 54
REMARK SMILES IDX 47 55 50 56 61 57 77 58 48 59 49 60 60 62 78 63 51 64 38 65
REMARK SMILES IDX 39 66 44 67 40 68 41 69 43 70 45 71 42 72 64 73 65 74 70 75
REMARK SMILES IDX 66 76 67 77 69 78 71 79 68 80 52 81 53 82 58 83 54 84 55 85
REMARK SMILES IDX 57 86 59 87 56 88
REMARK H PARENT 10 14 76 50 50 61
REMARK Flexibility Score: inf
ROOT
ATOM      1  C   UNL A   1      39.396  22.687  26.570  1.00  0.00     0.188 C 
ENDROOT
BRANCH   1   2
ATOM      2  O   UNL A   1      38.025  22.626  26.192  1.00  0.00    -0.376 OA
BRANCH   2   3
ATOM      3  C   UNL A   1      37.539  23.584  25.249  1.00  0.00     0.202 C 
BRANCH   3   4
ATOM      4  C   UNL A   1      36.029  23.854  25.247  1.00  0.00     0.261 C 
BRANCH   4   5
ATOM      5  O   UNL A   1      35.263  22.719  24.801  1.00  0.00    -0.463 OA
BRANCH   5   6
ATOM      6  C   UNL A   1      34.334  22.250  25.677  1.00  0.00     0.312 C 
ATOM      7  O   UNL A   1      34.435  22.342  26.895  1.00  0.00    -0.252 OA
BRANCH   6   8
ATOM      8  C   UNL A   1      33.050  21.803  24.963  1.00  0.00     0.123 C 
ATOM      9  C   UNL A   1      31.057  23.109  24.287  1.00  0.00     0.093 C 
ATOM     10  C   UNL A   1      31.998  22.901  23.158  1.00  0.00    -0.011 C 
ATOM     11  C   UNL A   1      31.709  22.377  25.452  1.00  0.00     0.043 C 
ATOM     12  C   UNL A   1      33.073  22.194  23.517  1.00  0.00    -0.015 C 
BRANCH   9  13
ATOM     13  N   UNL A   1      30.740  24.514  24.469  1.00  0.00    -0.204 NA
ATOM     14  H   UNL A   1      30.460  24.828  23.540  1.00  0.00     0.142 HD
BRANCH  13  15
ATOM     15  S   UNL A   1      31.687  25.756  25.050  1.00  0.00     0.241 S 
ATOM     16  O   UNL A   1      33.033  25.618  24.524  1.00  0.00    -0.207 OA
ATOM     17  O   UNL A   1      31.448  25.786  26.469  1.00  0.00    -0.207 OA
BRANCH  15  18
ATOM     18  C   UNL A   1      30.981  27.233  24.382  1.00  0.00     0.082 A 
ATOM     19  C   UNL A   1      29.803  29.562  23.397  1.00  0.00     0.118 A 
ATOM     20  C   UNL A   1      29.481  28.318  22.844  1.00  0.00     0.048 A 
ATOM     21  C   UNL A   1      30.728  29.633  24.441  1.00  0.00     0.048 A 
ATOM     22  C   UNL A   1      30.060  27.148  23.338  1.00  0.00     0.025 A 
ATOM     23  C   UNL A   1      31.339  28.471  24.916  1.00  0.00     0.025 A 
BRANCH  19  24
ATOM     24  O   UNL A   1      29.152  30.627  22.837  1.00  0.00    -0.497 OA
ATOM     25  C   UNL A   1      28.790  30.501  21.468  1.00  0.00     0.278 C 
ENDBRANCH  19  24
ENDBRANCH  15  18
ENDBRANCH  13  15
ENDBRANCH   9  13
ENDBRANCH   6   8
ENDBRANCH   5   6
ENDBRANCH   4   5
ENDBRANCH   3   4
ENDBRANCH   2   3
ENDBRANCH   1   2
BRANCH   1  26
ATOM     26  C   UNL A   1      40.228  21.397  26.537  1.00  0.00     0.188 C 
BRANCH  26  27
ATOM     27  O   UNL A   1      41.220  21.376  25.535  1.00  0.00    -0.376 OA
BRANCH  27  28
ATOM     28  C   UNL A   1      42.505  20.915  25.919  1.00  0.00     0.202 C 
BRANCH  28  29
ATOM     29  C   UNL A   1      43.625  21.819  25.384  1.00  0.00     0.261 C 
BRANCH  29  30
ATOM     30  O   UNL A   1      43.178  23.094  24.882  1.00  0.00    -0.460 OA
BRANCH  30  31
ATOM     31  C   UNL A   1      44.007  24.147  25.074  1.00  0.00     0.338 C 
ATOM     32  O   UNL A   1      45.016  24.414  24.445  1.00  0.00    -0.246 OA
BRANCH  31  33
ATOM     33  C   UNL A   1      43.339  25.083  26.013  1.00  0.00     0.060 A 
ATOM     34  C   UNL A   1      43.738  26.428  26.020  1.00  0.00     0.016 A 
ATOM     35  C   UNL A   1      42.303  24.653  26.843  1.00  0.00     0.016 A 
ATOM     36  C   UNL A   1      43.121  27.339  26.879  1.00  0.00     0.010 A 
ATOM     37  C   UNL A   1      41.702  25.561  27.720  1.00  0.00     0.010 A 
ATOM     38  C   UNL A   1      42.127  26.901  27.763  1.00  0.00    -0.014 A 
BRANCH  38  39
ATOM     39  C   UNL A   1      41.677  27.776  28.875  1.00  0.00     0.031 A 
ATOM     40  C   UNL A   1      42.417  27.693  30.182  1.00  0.00     0.074 A 
ATOM     41  C   UNL A   1      40.638  28.618  28.743  1.00  0.00     0.049 A 
ATOM     42  N   UNL A   1      42.166  28.285  31.321  1.00  0.00    -0.248 NA
ATOM     43  C   UNL A   1      43.602  26.820  30.204  1.00  0.00     0.031 C 
ATOM     44  C   UNL A   1      39.861  28.827  27.524  1.00  0.00     0.029 A 
ATOM     45  N   UNL A   1      40.048  29.449  29.665  1.00  0.00    -0.354 N 
ATOM     46  C   UNL A   1      43.153  27.849  32.195  1.00  0.00     0.074 A 
ATOM     47  C   UNL A   1      43.993  26.926  31.465  1.00  0.00     0.031 C 
ATOM     48  C   UNL A   1      38.882  29.715  27.778  1.00  0.00     0.029 A 
ATOM     49  C   UNL A   1      38.943  30.110  29.185  1.00  0.00     0.049 A 
ATOM     50  H   UNL A   1      40.385  29.560  30.584  1.00  0.00     0.167 HD
ATOM     51  C   UNL A   1      43.347  28.189  33.491  1.00  0.00     0.037 A 
ATOM     52  C   UNL A   1      38.068  30.917  29.819  1.00  0.00     0.037 A 
ATOM     53  C   UNL A   1      42.510  29.099  34.225  1.00  0.00     0.049 A 
ATOM     54  C   UNL A   1      38.258  31.217  31.285  1.00  0.00     0.074 A 
ATOM     55  C   UNL A   1      42.634  29.515  35.539  1.00  0.00     0.029 A 
ATOM     56  N   UNL A   1      41.387  29.728  33.710  1.00  0.00    -0.354 N 
ATOM     57  N   UNL A   1      39.207  30.820  32.097  1.00  0.00    -0.248 NA
ATOM     58  C   UNL A   1      37.249  32.079  31.921  1.00  0.00     0.031 C 
ATOM     59  C   UNL A   1      41.559  30.359  35.832  1.00  0.00     0.029 A 
ATOM     60  C   UNL A   1      40.794  30.510  34.687  1.00  0.00     0.049 A 
ATOM     61  H   UNL A   1      41.059  29.632  32.786  1.00  0.00     0.167 HD
ATOM     62  C   UNL A   1      38.928  31.406  33.327  1.00  0.00     0.074 A 
ATOM     63  C   UNL A   1      37.728  32.195  33.152  1.00  0.00     0.031 C 
ATOM     64  C   UNL A   1      39.606  31.301  34.496  1.00  0.00     0.037 A 
BRANCH  51  65
ATOM     65  C   UNL A   1      44.498  27.546  34.205  1.00  0.00     0.057 A 
ATOM     66  C   UNL A   1      44.359  26.328  34.883  1.00  0.00     0.134 A 
ATOM     67  C   UNL A   1      45.765  28.140  34.192  1.00  0.00     0.134 A 
ATOM     68  F   UNL A   1      43.165  25.718  34.948  1.00  0.00    -0.206 F 
ATOM     69  C   UNL A   1      45.437  25.733  35.539  1.00  0.00     0.040 A 
ATOM     70  C   UNL A   1      46.857  27.542  34.824  1.00  0.00     0.040 A 
ATOM     71  F   UNL A   1      45.965  29.307  33.561  1.00  0.00    -0.206 F 
ATOM     72  C   UNL A   1      46.692  26.337  35.504  1.00  0.00     0.006 A 
ENDBRANCH  51  65
BRANCH  52  73
ATOM     73  C   UNL A   1      36.909  31.489  29.084  1.00  0.00     0.057 A 
ATOM     74  C   UNL A   1      36.896  32.828  28.679  1.00  0.00     0.134 A 
ATOM     75  C   UNL A   1      35.769  30.723  28.813  1.00  0.00     0.134 A 
ATOM     76  F   UNL A   1      37.946  33.622  28.938  1.00  0.00    -0.206 F 
ATOM     77  C   UNL A   1      35.786  33.391  28.047  1.00  0.00     0.040 A 
ATOM     78  C   UNL A   1      34.662  31.265  28.158  1.00  0.00     0.040 A 
ATOM     79  F   UNL A   1      35.716  29.434  29.180  1.00  0.00    -0.206 F 
ATOM     80  C   UNL A   1      34.665  32.607  27.781  1.00  0.00     0.006 A 
ENDBRANCH  52  73
BRANCH  64  81
ATOM     81  C   UNL A   1      39.098  32.091  35.667  1.00  0.00     0.057 A 
ATOM     82  C   UNL A   1      38.248  31.530  36.629  1.00  0.00     0.134 A 
ATOM     83  C   UNL A   1      39.506  33.418  35.862  1.00  0.00     0.134 A 
ATOM     84  F   UNL A   1      37.812  30.269  36.497  1.00  0.00    -0.206 F 
ATOM     85  C   UNL A   1      37.805  32.267  37.730  1.00  0.00     0.040 A 
ATOM     86  C   UNL A   1      39.092  34.156  36.971  1.00  0.00     0.040 A 
ATOM     87  F   UNL A   1      40.330  34.012  34.984  1.00  0.00    -0.206 F 
ATOM     88  C   UNL A   1      38.234  33.581  37.906  1.00  0.00     0.006 A 
ENDBRANCH  64  81
ENDBRANCH  38  39
ENDBRANCH  31  33
ENDBRANCH  30  31
ENDBRANCH  29  30
ENDBRANCH  28  29
ENDBRANCH  27  28
ENDBRANCH  26  27
ENDBRANCH   1  26
TORSDOF 21
ENDMDL
MODEL 2
REMARK VINA RESULT:     -10.2      5.398     12.069
REMARK SMILES COc1ccc(S(=O)(=O)N[C@H]2C=C[C@@H](C(=O)OCCOCCOCCOC(=O)c3ccc(-c4c5nc(c(-c6c(F)cccc6F)c6ccc([nH]6)c(-c6c(F)cccc6F)c6nc(c(-c7c(F)cccc7F)c7ccc4[nH]7)C=C6)C=C5)cc3)C2)cc1
REMARK SMILES IDX 21 1 20 2 19 3 18 4 17 5 15 6 16 7 14 8 11 9 12 10 83 11
REMARK SMILES IDX 13 12 10 13 7 15 8 16 9 17 6 18 3 19 4 20 85 21 5 22 84 23
REMARK SMILES IDX 2 24 1 25 22 26 23 27 24 28 25 29 26 30 27 31 28 32 29 33
REMARK SMILES IDX 30 34 82 35 31 36 81 37 32 38 33 39 34 40 75 41 35 42 80 43
REMARK SMILES IDX 74 44 76 45 36 46 79 47 73 48 72 49 37 51 63 52 46 53 62 54
REMARK SMILES IDX 47 55 50 56 61 57 77 58 48 59 49 60 60 62 78 63 51 64 38 65
REMARK SMILES IDX 39 66 44 67 40 68 41 69 43 70 45 71 42 72 64 73 65 74 70 75
REMARK SMILES IDX 66 76 67 77 69 78 71 79 68 80 52 81 53 82 58 83 54 84 55 85
REMARK SMILES IDX 57 86 59 87 56 88
REMARK H PARENT 10 14 76 50 50 61
REMARK Flexibility Score: inf
ROOT
ATOM      1  C   UNL A   1      34.253  33.469  33.305  1.00  0.00     0.188 C 
ENDROOT
BRANCH   1   2
ATOM      2  O   UNL A   1      35.106  33.260  34.426  1.00  0.00    -0.376 OA
BRANCH   2   3
ATOM      3  C   UNL A   1      36.517  33.219  34.205  1.00  0.00     0.202 C 
BRANCH   3   4
ATOM      4  C   UNL A   1      37.158  31.833  34.058  1.00  0.00     0.261 C 
BRANCH   4   5
ATOM      5  O   UNL A   1      38.579  31.853  34.286  1.00  0.00    -0.463 OA
BRANCH   5   6
ATOM      6  C   UNL A   1      39.052  30.928  35.165  1.00  0.00     0.312 C 
ATOM      7  O   UNL A   1      38.359  30.374  36.011  1.00  0.00    -0.252 OA
BRANCH   6   8
ATOM      8  C   UNL A   1      40.485  30.496  34.826  1.00  0.00     0.123 C 
ATOM      9  C   UNL A   1      41.851  28.635  35.726  1.00  0.00     0.093 C 
ATOM     10  C   UNL A   1      41.223  28.290  34.425  1.00  0.00    -0.011 C 
ATOM     11  C   UNL A   1      41.408  30.069  35.981  1.00  0.00     0.043 C 
ATOM     12  C   UNL A   1      40.488  29.291  33.934  1.00  0.00    -0.015 C 
BRANCH   9  13
ATOM     13  N   UNL A   1      41.548  27.647  36.745  1.00  0.00    -0.204 NA
ATOM     14  H   UNL A   1      42.285  27.773  37.440  1.00  0.00     0.142 HD
BRANCH  13  15
ATOM     15  S   UNL A   1      41.388  25.993  36.617  1.00  0.00     0.241 S 
ATOM     16  O   UNL A   1      40.638  25.678  35.414  1.00  0.00    -0.207 OA
ATOM     17  O   UNL A   1      40.932  25.553  37.908  1.00  0.00    -0.207 OA
BRANCH  15  18
ATOM     18  C   UNL A   1      43.034  25.379  36.419  1.00  0.00     0.082 A 
ATOM     19  C   UNL A   1      45.657  24.494  36.075  1.00  0.00     0.118 A 
ATOM     20  C   UNL A   1      44.688  24.228  35.102  1.00  0.00     0.048 A 
ATOM     21  C   UNL A   1      45.301  25.196  37.228  1.00  0.00     0.048 A 
ATOM     22  C   UNL A   1      43.376  24.676  35.263  1.00  0.00     0.025 A 
ATOM     23  C   UNL A   1      43.983  25.615  37.414  1.00  0.00     0.025 A 
BRANCH  19  24
ATOM     24  O   UNL A   1      46.907  24.019  35.787  1.00  0.00    -0.497 OA
ATOM     25  C   UNL A   1      46.978  22.922  34.885  1.00  0.00     0.278 C 
ENDBRANCH  19  24
ENDBRANCH  15  18
ENDBRANCH  13  15
ENDBRANCH   9  13
ENDBRANCH   6   8
ENDBRANCH   5   6
ENDBRANCH   4   5
ENDBRANCH   3   4
ENDBRANCH   2   3
ENDBRANCH   1   2
BRANCH   1  26
ATOM     26  C   UNL A   1      34.244  34.849  32.632  1.00  0.00     0.188 C 
BRANCH  26  27
ATOM     27  O   UNL A   1      33.067  35.128  31.906  1.00  0.00    -0.376 OA
BRANCH  27  28
ATOM     28  C   UNL A   1      33.107  36.245  31.033  1.00  0.00     0.202 C 
BRANCH  28  29
ATOM     29  C   UNL A   1      32.950  35.831  29.563  1.00  0.00     0.261 C 
BRANCH  29  30
ATOM     30  O   UNL A   1      32.665  34.433  29.359  1.00  0.00    -0.460 OA
BRANCH  30  31
ATOM     31  C   UNL A   1      33.391  33.796  28.410  1.00  0.00     0.338 C 
ATOM     32  O   UNL A   1      33.128  33.703  27.224  1.00  0.00    -0.246 OA
BRANCH  31  33
ATOM     33  C   UNL A   1      34.707  33.451  29.002  1.00  0.00     0.060 A 
ATOM     34  C   UNL A   1      35.852  34.107  28.525  1.00  0.00     0.016 A 
ATOM     35  C   UNL A   1      34.809  32.528  30.044  1.00  0.00     0.016 A 
ATOM     36  C   UNL A   1      37.105  33.818  29.069  1.00  0.00     0.010 A 
ATOM     37  C   UNL A   1      36.066  32.222  30.571  1.00  0.00     0.010 A 
ATOM     38  C   UNL A   1      37.223  32.843  30.068  1.00  0.00    -0.014 A 
BRANCH  38  39
ATOM     39  C   UNL A   1      38.559  32.316  30.443  1.00  0.00     0.031 A 
ATOM     40  C   UNL A   1      38.980  30.990  29.870  1.00  0.00     0.074 A 
ATOM     41  C   UNL A   1      39.382  32.981  31.272  1.00  0.00     0.049 A 
ATOM     42  N   UNL A   1      40.052  30.280  30.110  1.00  0.00    -0.248 NA
ATOM     43  C   UNL A   1      38.061  30.382  28.894  1.00  0.00     0.031 C 
ATOM     44  C   UNL A   1      39.117  34.290  31.863  1.00  0.00     0.029 A 
ATOM     45  N   UNL A   1      40.612  32.627  31.772  1.00  0.00    -0.354 N 
ATOM     46  C   UNL A   1      39.932  29.141  29.325  1.00  0.00     0.074 A 
ATOM     47  C   UNL A   1      38.674  29.241  28.618  1.00  0.00     0.031 C 
ATOM     48  C   UNL A   1      40.146  34.622  32.664  1.00  0.00     0.029 A 
ATOM     49  C   UNL A   1      41.125  33.535  32.667  1.00  0.00     0.049 A 
ATOM     50  H   UNL A   1      41.081  31.801  31.514  1.00  0.00     0.167 HD
ATOM     51  C   UNL A   1      40.794  28.105  29.198  1.00  0.00     0.037 A 
ATOM     52  C   UNL A   1      42.241  33.477  33.421  1.00  0.00     0.037 A 
ATOM     53  C   UNL A   1      42.041  27.997  29.904  1.00  0.00     0.049 A 
ATOM     54  C   UNL A   1      43.146  32.274  33.324  1.00  0.00     0.074 A 
ATOM     55  C   UNL A   1      42.987  26.989  29.832  1.00  0.00     0.029 A 
ATOM     56  N   UNL A   1      42.513  28.925  30.820  1.00  0.00    -0.354 N 
ATOM     57  N   UNL A   1      43.036  31.213  32.561  1.00  0.00    -0.248 NA
ATOM     58  C   UNL A   1      44.330  32.262  34.197  1.00  0.00     0.031 C 
ATOM     59  C   UNL A   1      44.009  27.285  30.740  1.00  0.00     0.029 A 
ATOM     60  C   UNL A   1      43.725  28.501  31.338  1.00  0.00     0.049 A 
ATOM     61  H   UNL A   1      42.053  29.760  31.066  1.00  0.00     0.167 HD
ATOM     62  C   UNL A   1      44.149  30.426  32.839  1.00  0.00     0.074 A 
ATOM     63  C   UNL A   1      44.926  31.135  33.832  1.00  0.00     0.031 C 
ATOM     64  C   UNL A   1      44.496  29.223  32.317  1.00  0.00     0.037 A 
BRANCH  51  65
ATOM     65  C   UNL A   1      40.396  26.990  28.278  1.00  0.00     0.057 A 
ATOM     66  C   UNL A   1      40.922  26.875  26.985  1.00  0.00     0.134 A 
ATOM     67  C   UNL A   1      39.495  26.005  28.702  1.00  0.00     0.134 A 
ATOM     68  F   UNL A   1      41.775  27.797  26.514  1.00  0.00    -0.206 F 
ATOM     69  C   UNL A   1      40.550  25.830  26.139  1.00  0.00     0.040 A 
ATOM     70  C   UNL A   1      39.135  24.941  27.873  1.00  0.00     0.040 A 
ATOM     71  F   UNL A   1      38.955  26.057  29.929  1.00  0.00    -0.206 F 
ATOM     72  C   UNL A   1      39.660  24.855  26.585  1.00  0.00     0.006 A 
ENDBRANCH  51  65
BRANCH  52  73
ATOM     73  C   UNL A   1      42.568  34.582  34.361  1.00  0.00     0.057 A 
ATOM     74  C   UNL A   1      42.131  34.557  35.690  1.00  0.00     0.134 A 
ATOM     75  C   UNL A   1      43.284  35.709  33.940  1.00  0.00     0.134 A 
ATOM     76  F   UNL A   1      41.414  33.518  36.146  1.00  0.00    -0.206 F 
ATOM     77  C   UNL A   1      42.377  35.619  36.562  1.00  0.00     0.040 A 
ATOM     78  C   UNL A   1      43.560  36.766  34.807  1.00  0.00     0.040 A 
ATOM     79  F   UNL A   1      43.725  35.797  32.676  1.00  0.00    -0.206 F 
ATOM     80  C   UNL A   1      43.098  36.727  36.121  1.00  0.00     0.006 A 
ENDBRANCH  52  73
BRANCH  64  81
ATOM     81  C   UNL A   1      45.792  28.617  32.771  1.00  0.00     0.057 A 
ATOM     82  C   UNL A   1      46.998  28.857  32.102  1.00  0.00     0.134 A 
ATOM     83  C   UNL A   1      45.840  27.823  33.925  1.00  0.00     0.134 A 
ATOM     84  F   UNL A   1      47.021  29.600  30.986  1.00  0.00    -0.206 F 
ATOM     85  C   UNL A   1      48.202  28.310  32.552  1.00  0.00     0.040 A 
ATOM     86  C   UNL A   1      47.041  27.293  34.399  1.00  0.00     0.040 A 
ATOM     87  F   UNL A   1      44.722  27.563  34.621  1.00  0.00    -0.206 F 
ATOM     88  C   UNL A   1      48.226  27.532  33.707  1.00  0.00     0.006 A 
ENDBRANCH  64  81
ENDBRANCH  38  39
ENDBRANCH  31  33
ENDBRANCH  30  31
ENDBRANCH  29  30
ENDBRANCH  28  29
ENDBRANCH  27  28
ENDBRANCH  26  27
ENDBRANCH   1  26
TORSDOF 21
ENDMDL
MODEL 3
REMARK VINA RESULT:     -10.0      4.572     10.220
REMARK SMILES COc1ccc(S(=O)(=O)N[C@H]2C=C[C@@H](C(=O)OCCOCCOCCOC(=O)c3ccc(-c4c5nc(c(-c6c(F)cccc6F)c6ccc([nH]6)c(-c6c(F)cccc6F)c6nc(c(-c7c(F)cccc7F)c7ccc4[nH]7)C=C6)C=C5)cc3)C2)cc1
REMARK SMILES IDX 21 1 20 2 19 3 18 4 17 5 15 6 16 7 14 8 11 9 12 10 83 11
REMARK SMILES IDX 13 12 10 13 7 15 8 16 9 17 6 18 3 19 4 20 85 21 5 22 84 23
REMARK SMILES IDX 2 24 1 25 22 26 23 27 24 28 25 29 26 30 27 31 28 32 29 33
REMARK SMILES IDX 30 34 82 35 31 36 81 37 32 38 33 39 34 40 75 41 35 42 80 43
REMARK SMILES IDX 74 44 76 45 36 46 79 47 73 48 72 49 37 51 63 52 46 53 62 54
REMARK SMILES IDX 47 55 50 56 61 57 77 58 48 59 49 60 60 62 78 63 51 64 38 65
REMARK SMILES IDX 39 66 44 67 40 68 41 69 43 70 45 71 42 72 64 73 65 74 70 75
REMARK SMILES IDX 66 76 67 77 69 78 71 79 68 80 52 81 53 82 58 83 54 84 55 85
REMARK SMILES IDX 57 86 59 87 56 88
REMARK H PARENT 10 14 76 50 50 61
REMARK Flexibility Score: inf
ROOT
ATOM      1  C   UNL A   1      33.506  35.214  29.811  1.00  0.00     0.188 C 
ENDROOT
BRANCH   1   2
ATOM      2  O   UNL A   1      33.592  33.825  29.509  1.00  0.00    -0.376 OA
BRANCH   2   3
ATOM      3  C   UNL A   1      33.992  33.443  28.191  1.00  0.00     0.202 C 
BRANCH   3   4
ATOM      4  C   UNL A   1      34.284  31.955  27.957  1.00  0.00     0.261 C 
BRANCH   4   5
ATOM      5  O   UNL A   1      33.248  31.298  27.203  1.00  0.00    -0.463 OA
BRANCH   5   6
ATOM      6  C   UNL A   1      33.291  29.939  27.194  1.00  0.00     0.312 C 
ATOM      7  O   UNL A   1      34.241  29.283  27.608  1.00  0.00    -0.252 OA
BRANCH   6   8
ATOM      8  C   UNL A   1      31.934  29.325  26.822  1.00  0.00     0.123 C 
ATOM      9  C   UNL A   1      31.378  27.530  25.208  1.00  0.00     0.093 C 
ATOM     10  C   UNL A   1      31.453  27.025  26.602  1.00  0.00    -0.011 C 
ATOM     11  C   UNL A   1      31.655  29.021  25.340  1.00  0.00     0.043 C 
ATOM     12  C   UNL A   1      31.749  27.990  27.477  1.00  0.00    -0.015 C 
BRANCH   9  13
ATOM     13  N   UNL A   1      32.228  26.765  24.315  1.00  0.00    -0.204 NA
ATOM     14  H   UNL A   1      32.800  27.471  23.850  1.00  0.00     0.142 HD
BRANCH  13  15
ATOM     15  S   UNL A   1      31.818  25.706  23.095  1.00  0.00     0.241 S 
ATOM     16  O   UNL A   1      32.514  26.085  21.878  1.00  0.00    -0.207 OA
ATOM     17  O   UNL A   1      30.382  25.623  23.128  1.00  0.00    -0.207 OA
BRANCH  15  18
ATOM     18  C   UNL A   1      32.433  24.133  23.616  1.00  0.00     0.082 A 
ATOM     19  C   UNL A   1      33.424  21.688  24.522  1.00  0.00     0.118 A 
ATOM     20  C   UNL A   1      34.222  22.528  23.738  1.00  0.00     0.048 A 
ATOM     21  C   UNL A   1      32.121  22.076  24.841  1.00  0.00     0.048 A 
ATOM     22  C   UNL A   1      33.735  23.756  23.289  1.00  0.00     0.025 A 
ATOM     23  C   UNL A   1      31.615  23.286  24.365  1.00  0.00     0.025 A 
BRANCH  19  24
ATOM     24  O   UNL A   1      34.026  20.524  24.915  1.00  0.00    -0.497 OA
ATOM     25  C   UNL A   1      35.446  20.532  24.975  1.00  0.00     0.278 C 
ENDBRANCH  19  24
ENDBRANCH  15  18
ENDBRANCH  13  15
ENDBRANCH   9  13
ENDBRANCH   6   8
ENDBRANCH   5   6
ENDBRANCH   4   5
ENDBRANCH   3   4
ENDBRANCH   2   3
ENDBRANCH   1   2
BRANCH   1  26
ATOM     26  C   UNL A   1      33.030  35.636  31.209  1.00  0.00     0.188 C 
BRANCH  26  27
ATOM     27  O   UNL A   1      33.206  34.648  32.200  1.00  0.00    -0.376 OA
BRANCH  27  28
ATOM     28  C   UNL A   1      34.347  34.776  33.033  1.00  0.00     0.202 C 
BRANCH  28  29
ATOM     29  C   UNL A   1      35.628  34.306  32.329  1.00  0.00     0.261 C 
BRANCH  29  30
ATOM     30  O   UNL A   1      35.713  32.881  32.124  1.00  0.00    -0.460 OA
BRANCH  30  31
ATOM     31  C   UNL A   1      36.554  32.198  32.935  1.00  0.00     0.338 C 
ATOM     32  O   UNL A   1      36.387  31.934  34.112  1.00  0.00    -0.246 OA
BRANCH  31  33
ATOM     33  C   UNL A   1      37.606  31.588  32.085  1.00  0.00     0.060 A 
ATOM     34  C   UNL A   1      38.705  30.978  32.708  1.00  0.00     0.016 A 
ATOM     35  C   UNL A   1      37.491  31.575  30.694  1.00  0.00     0.016 A 
ATOM     36  C   UNL A   1      39.706  30.380  31.939  1.00  0.00     0.010 A 
ATOM     37  C   UNL A   1      38.506  30.998  29.925  1.00  0.00     0.010 A 
ATOM     38  C   UNL A   1      39.632  30.424  30.542  1.00  0.00    -0.014 A 
BRANCH  38  39
ATOM     39  C   UNL A   1      40.813  30.064  29.718  1.00  0.00     0.031 A 
ATOM     40  C   UNL A   1      40.890  28.666  29.168  1.00  0.00     0.074 A 
ATOM     41  C   UNL A   1      41.800  30.941  29.466  1.00  0.00     0.049 A 
ATOM     42  N   UNL A   1      41.852  28.086  28.498  1.00  0.00    -0.248 NA
ATOM     43  C   UNL A   1      39.720  27.807  29.409  1.00  0.00     0.031 C 
ATOM     44  C   UNL A   1      41.832  32.335  29.902  1.00  0.00     0.029 A 
ATOM     45  N   UNL A   1      42.982  30.773  28.785  1.00  0.00    -0.354 N 
ATOM     46  C   UNL A   1      41.408  26.794  28.248  1.00  0.00     0.074 A 
ATOM     47  C   UNL A   1      40.102  26.666  28.856  1.00  0.00     0.031 C 
ATOM     48  C   UNL A   1      42.987  32.892  29.495  1.00  0.00     0.029 A 
ATOM     49  C   UNL A   1      43.789  31.885  28.799  1.00  0.00     0.049 A 
ATOM     50  H   UNL A   1      43.227  29.935  28.330  1.00  0.00     0.167 HD
ATOM     51  C   UNL A   1      42.029  25.801  27.568  1.00  0.00     0.037 A 
ATOM     52  C   UNL A   1      45.041  32.057  28.329  1.00  0.00     0.037 A 
ATOM     53  C   UNL A   1      43.330  25.920  26.969  1.00  0.00     0.049 A 
ATOM     54  C   UNL A   1      45.746  30.912  27.647  1.00  0.00     0.074 A 
ATOM     55  C   UNL A   1      44.037  24.972  26.250  1.00  0.00     0.029 A 
ATOM     56  N   UNL A   1      44.125  27.054  27.027  1.00  0.00    -0.354 N 
ATOM     57  N   UNL A   1      45.309  29.702  27.394  1.00  0.00    -0.248 NA
ATOM     58  C   UNL A   1      47.121  31.158  27.186  1.00  0.00     0.031 C 
ATOM     59  C   UNL A   1      45.280  25.518  25.913  1.00  0.00     0.029 A 
ATOM     60  C   UNL A   1      45.326  26.822  26.378  1.00  0.00     0.049 A 
ATOM     61  H   UNL A   1      43.874  27.899  27.467  1.00  0.00     0.167 HD
ATOM     62  C   UNL A   1      46.341  29.055  26.720  1.00  0.00     0.074 A 
ATOM     63  C   UNL A   1      47.420  30.011  26.594  1.00  0.00     0.031 C 
ATOM     64  C   UNL A   1      46.388  27.786  26.248  1.00  0.00     0.037 A 
BRANCH  51  65
ATOM     65  C   UNL A   1      41.314  24.488  27.465  1.00  0.00     0.057 A 
ATOM     66  C   UNL A   1      40.247  24.295  26.577  1.00  0.00     0.134 A 
ATOM     67  C   UNL A   1      41.714  23.396  28.245  1.00  0.00     0.134 A 
ATOM     68  F   UNL A   1      39.804  25.307  25.816  1.00  0.00    -0.206 F 
ATOM     69  C   UNL A   1      39.591  23.067  26.484  1.00  0.00     0.040 A 
ATOM     70  C   UNL A   1      41.082  22.156  28.142  1.00  0.00     0.040 A 
ATOM     71  F   UNL A   1      42.728  23.515  29.114  1.00  0.00    -0.206 F 
ATOM     72  C   UNL A   1      40.014  21.991  27.262  1.00  0.00     0.006 A 
ENDBRANCH  51  65
BRANCH  52  73
ATOM     73  C   UNL A   1      45.734  33.361  28.503  1.00  0.00     0.057 A 
ATOM     74  C   UNL A   1      46.580  33.594  29.593  1.00  0.00     0.134 A 
ATOM     75  C   UNL A   1      45.528  34.420  27.610  1.00  0.00     0.134 A 
ATOM     76  F   UNL A   1      46.793  32.629  30.500  1.00  0.00    -0.206 F 
ATOM     77  C   UNL A   1      47.183  34.836  29.800  1.00  0.00     0.040 A 
ATOM     78  C   UNL A   1      46.145  35.659  27.790  1.00  0.00     0.040 A 
ATOM     79  F   UNL A   1      44.724  34.264  26.548  1.00  0.00    -0.206 F 
ATOM     80  C   UNL A   1      46.969  35.872  28.893  1.00  0.00     0.006 A 
ENDBRANCH  52  73
BRANCH  64  81
ATOM     81  C   UNL A   1      47.626  27.366  25.509  1.00  0.00     0.057 A 
ATOM     82  C   UNL A   1      47.754  27.524  24.124  1.00  0.00     0.134 A 
ATOM     83  C   UNL A   1      48.725  26.842  26.203  1.00  0.00     0.134 A 
ATOM     84  F   UNL A   1      46.736  28.010  23.398  1.00  0.00    -0.206 F 
ATOM     85  C   UNL A   1      48.922  27.156  23.452  1.00  0.00     0.040 A 
ATOM     86  C   UNL A   1      49.907  26.495  25.548  1.00  0.00     0.040 A 
ATOM     87  F   UNL A   1      48.674  26.675  27.534  1.00  0.00    -0.206 F 
ATOM     88  C   UNL A   1      50.005  26.646  24.166  1.00  0.00     0.006 A 
ENDBRANCH  64  81
ENDBRANCH  38  39
ENDBRANCH  31  33
ENDBRANCH  30  31
ENDBRANCH  29  30
ENDBRANCH  28  29
ENDBRANCH  27  28
ENDBRANCH  26  27
ENDBRANCH   1  26
TORSDOF 21
ENDMDL
