MODEL 1
REMARK VINA RESULT:      -9.1      0.000      0.000
REMARK SMILES NS(=O)(=O)c1ccc(C#Cc2cc(Cl)cc3c2O[C@H](C(F)(F)F)C(C(=O)OCCOCCOCCOC(=O)c2ccc(-c4c5nc(c(-c6c(F)cccc6F)c6ccc([nH]6)c(-c6c(F)cccc6F)c6nc(c(-c7c(F)cccc7F)c7ccc4[nH]7)C=C6)C=C5)cc2)=C3)cc1
REMARK SMILES IDX 31 1 30 2 29 3 28 4 27 5 25 6 26 7 24 8 11 9 12 10 17 11
REMARK SMILES IDX 13 12 16 13 18 14 14 15 15 16 93 17 19 18 10 19 9 20 8 21
REMARK SMILES IDX 5 22 6 23 95 24 7 25 94 26 2 27 3 28 4 29 1 30 20 33 21 34
REMARK SMILES IDX 22 35 23 36 32 37 33 38 34 39 35 40 36 41 37 42 38 43 39 44
REMARK SMILES IDX 40 45 92 46 41 47 91 48 42 49 43 50 44 51 85 52 45 53 90 54
REMARK SMILES IDX 84 55 86 56 46 57 89 58 83 59 82 60 47 62 73 63 56 64 72 65
REMARK SMILES IDX 57 66 60 67 71 68 87 69 58 70 59 71 70 73 88 74 61 75 48 76
REMARK SMILES IDX 49 77 54 78 50 79 51 80 53 81 55 82 52 83 74 84 75 85 80 86
REMARK SMILES IDX 76 87 77 88 79 89 81 90 78 91 62 92 63 93 68 94 64 95 65 96
REMARK SMILES IDX 67 97 69 98 66 99
REMARK H PARENT 1 31 1 32 86 61 60 72
REMARK Flexibility Score: inf
ROOT
ATOM      1  C   UNL A   1      45.718  30.101  26.919  1.00  0.00     0.188 C 
ENDROOT
BRANCH   1   2
ATOM      2  O   UNL A   1      44.442  30.398  27.437  1.00  0.00    -0.376 OA
BRANCH   2   3
ATOM      3  C   UNL A   1      43.977  29.781  28.625  1.00  0.00     0.202 C 
BRANCH   3   4
ATOM      4  C   UNL A   1      42.818  30.293  29.504  1.00  0.00     0.261 C 
BRANCH   4   5
ATOM      5  O   UNL A   1      41.481  30.071  29.039  1.00  0.00    -0.460 OA
BRANCH   5   6
ATOM      6  C   UNL A   1      40.495  30.425  29.897  1.00  0.00     0.338 C 
ATOM      7  O   UNL A   1      40.635  30.835  31.037  1.00  0.00    -0.246 OA
BRANCH   6   8
ATOM      8  C   UNL A   1      39.193  30.413  29.194  1.00  0.00     0.087 C 
ATOM      9  C   UNL A   1      35.327  30.375  27.588  1.00  0.00     0.069 A 
ATOM     10  C   UNL A   1      34.557  31.543  27.646  1.00  0.00     0.041 A 
ATOM     11  C   UNL A   1      36.660  30.391  28.034  1.00  0.00     0.143 A 
ATOM     12  C   UNL A   1      35.118  32.723  28.122  1.00  0.00     0.043 A 
ATOM     13  C   UNL A   1      37.202  31.576  28.550  1.00  0.00     0.020 A 
ATOM     14  O   UNL A   1      37.380  29.229  27.948  1.00  0.00    -0.474 OA
ATOM     15  Cl  UNL A   1      34.164  34.152  28.202  1.00  0.00    -0.084 Cl
ATOM     16  C   UNL A   1      36.436  32.748  28.568  1.00  0.00     0.032 A 
ATOM     17  C   UNL A   1      38.528  31.575  29.146  1.00  0.00     0.027 C 
ATOM     18  C   UNL A   1      38.686  29.137  28.582  1.00  0.00     0.316 C 
BRANCH   9  19
ATOM     19  C   UNL A   1      34.688  29.177  27.128  1.00  0.00    -0.058 C 
ATOM     20  C   UNL A   1      34.130  28.208  26.677  1.00  0.00    -0.062 C 
BRANCH  20  21
ATOM     21  C   UNL A   1      33.429  27.088  26.131  1.00  0.00     0.025 A 
ATOM     22  C   UNL A   1      32.052  24.952  24.976  1.00  0.00     0.082 A 
ATOM     23  C   UNL A   1      31.355  26.098  25.366  1.00  0.00     0.023 A 
ATOM     24  C   UNL A   1      33.430  24.850  25.189  1.00  0.00     0.023 A 
ATOM     25  C   UNL A   1      32.047  27.167  25.938  1.00  0.00     0.018 A 
ATOM     26  C   UNL A   1      34.118  25.926  25.763  1.00  0.00     0.018 A 
BRANCH  22  27
ATOM     27  S   UNL A   1      31.169  23.609  24.237  1.00  0.00     0.238 S 
ATOM     28  O   UNL A   1      32.105  22.587  23.830  1.00  0.00    -0.207 OA
ATOM     29  O   UNL A   1      30.160  24.135  23.348  1.00  0.00    -0.207 OA
BRANCH  27  30
ATOM     30  N   UNL A   1      30.346  22.971  25.554  1.00  0.00    -0.225 NA
ATOM     31  H   UNL A   1      30.916  23.072  26.393  1.00  0.00     0.137 HD
ATOM     32  H   UNL A   1      30.154  21.983  25.389  1.00  0.00     0.137 HD
ENDBRANCH  27  30
ENDBRANCH  22  27
ENDBRANCH  20  21
ENDBRANCH   9  19
BRANCH  18  33
ATOM     33  C   UNL A   1      38.647  27.996  29.608  1.00  0.00     0.430 C 
ATOM     34  F   UNL A   1      39.761  27.982  30.377  1.00  0.00    -0.167 F 
ATOM     35  F   UNL A   1      37.593  28.114  30.449  1.00  0.00    -0.167 F 
ATOM     36  F   UNL A   1      38.551  26.787  29.006  1.00  0.00    -0.167 F 
ENDBRANCH  18  33
ENDBRANCH   6   8
ENDBRANCH   5   6
ENDBRANCH   4   5
ENDBRANCH   3   4
ENDBRANCH   2   3
ENDBRANCH   1   2
BRANCH   1  37
ATOM     37  C   UNL A   1      46.861  31.110  27.148  1.00  0.00     0.188 C 
BRANCH  37  38
ATOM     38  O   UNL A   1      47.133  32.067  26.151  1.00  0.00    -0.376 OA
BRANCH  38  39
ATOM     39  C   UNL A   1      47.695  33.319  26.510  1.00  0.00     0.202 C 
BRANCH  39  40
ATOM     40  C   UNL A   1      47.502  34.645  25.740  1.00  0.00     0.261 C 
BRANCH  40  41
ATOM     41  O   UNL A   1      46.416  35.500  26.115  1.00  0.00    -0.460 OA
BRANCH  41  42
ATOM     42  C   UNL A   1      45.168  34.973  26.000  1.00  0.00     0.338 C 
ATOM     43  O   UNL A   1      44.692  34.405  25.035  1.00  0.00    -0.246 OA
BRANCH  42  44
ATOM     44  C   UNL A   1      44.534  35.011  27.335  1.00  0.00     0.060 A 
ATOM     45  C   UNL A   1      44.490  33.859  28.117  1.00  0.00     0.016 A 
ATOM     46  C   UNL A   1      43.940  36.200  27.786  1.00  0.00     0.016 A 
ATOM     47  C   UNL A   1      43.848  33.899  29.358  1.00  0.00     0.010 A 
ATOM     48  C   UNL A   1      43.279  36.230  29.018  1.00  0.00     0.010 A 
ATOM     49  C   UNL A   1      43.243  35.082  29.822  1.00  0.00    -0.014 A 
BRANCH  49  50
ATOM     50  C   UNL A   1      42.692  35.135  31.200  1.00  0.00     0.031 A 
ATOM     51  C   UNL A   1      41.287  34.712  31.512  1.00  0.00     0.074 A 
ATOM     52  C   UNL A   1      43.496  35.568  32.189  1.00  0.00     0.049 A 
ATOM     53  N   UNL A   1      40.691  34.637  32.676  1.00  0.00    -0.248 NA
ATOM     54  C   UNL A   1      40.442  34.327  30.374  1.00  0.00     0.031 C 
ATOM     55  C   UNL A   1      44.876  36.023  32.008  1.00  0.00     0.029 A 
ATOM     56  N   UNL A   1      43.280  35.685  33.538  1.00  0.00    -0.354 N 
ATOM     57  C   UNL A   1      39.407  34.173  32.419  1.00  0.00     0.074 A 
ATOM     58  C   UNL A   1      39.297  34.039  30.980  1.00  0.00     0.031 C 
ATOM     59  C   UNL A   1      45.393  36.338  33.205  1.00  0.00     0.029 A 
ATOM     60  C   UNL A   1      44.371  36.148  34.230  1.00  0.00     0.049 A 
ATOM     61  H   UNL A   1      42.424  35.458  33.968  1.00  0.00     0.167 HD
ATOM     62  C   UNL A   1      38.421  33.872  33.302  1.00  0.00     0.037 A 
ATOM     63  C   UNL A   1      44.531  36.399  35.543  1.00  0.00     0.037 A 
ATOM     64  C   UNL A   1      38.525  34.040  34.732  1.00  0.00     0.049 A 
ATOM     65  C   UNL A   1      43.389  36.140  36.487  1.00  0.00     0.074 A 
ATOM     66  C   UNL A   1      37.585  33.747  35.707  1.00  0.00     0.029 A 
ATOM     67  N   UNL A   1      39.625  34.568  35.393  1.00  0.00    -0.354 N 
ATOM     68  N   UNL A   1      42.203  35.641  36.238  1.00  0.00    -0.248 NA
ATOM     69  C   UNL A   1      43.613  36.477  37.900  1.00  0.00     0.031 C 
ATOM     70  C   UNL A   1      38.087  34.162  36.945  1.00  0.00     0.029 A 
ATOM     71  C   UNL A   1      39.373  34.641  36.756  1.00  0.00     0.049 A 
ATOM     72  H   UNL A   1      40.463  34.850  34.958  1.00  0.00     0.167 HD
ATOM     73  C   UNL A   1      41.555  35.567  37.466  1.00  0.00     0.074 A 
ATOM     74  C   UNL A   1      42.487  36.060  38.458  1.00  0.00     0.031 C 
ATOM     75  C   UNL A   1      40.304  35.127  37.744  1.00  0.00     0.037 A 
BRANCH  62  76
ATOM     76  C   UNL A   1      37.129  33.345  32.742  1.00  0.00     0.057 A 
ATOM     77  C   UNL A   1      36.975  31.984  32.442  1.00  0.00     0.134 A 
ATOM     78  C   UNL A   1      36.044  34.189  32.464  1.00  0.00     0.134 A 
ATOM     79  F   UNL A   1      37.977  31.120  32.662  1.00  0.00    -0.206 F 
ATOM     80  C   UNL A   1      35.791  31.483  31.898  1.00  0.00     0.040 A 
ATOM     81  C   UNL A   1      34.843  33.694  31.952  1.00  0.00     0.040 A 
ATOM     82  F   UNL A   1      36.122  35.504  32.722  1.00  0.00    -0.206 F 
ATOM     83  C   UNL A   1      34.715  32.337  31.664  1.00  0.00     0.006 A 
ENDBRANCH  62  76
BRANCH  63  84
ATOM     84  C   UNL A   1      45.822  36.929  36.052  1.00  0.00     0.057 A 
ATOM     85  C   UNL A   1      46.064  38.306  36.130  1.00  0.00     0.134 A 
ATOM     86  C   UNL A   1      46.825  36.072  36.521  1.00  0.00     0.134 A 
ATOM     87  F   UNL A   1      45.149  39.181  35.689  1.00  0.00    -0.206 F 
ATOM     88  C   UNL A   1      47.250  38.812  36.660  1.00  0.00     0.040 A 
ATOM     89  C   UNL A   1      48.002  36.565  37.086  1.00  0.00     0.040 A 
ATOM     90  F   UNL A   1      46.647  34.742  36.488  1.00  0.00    -0.206 F 
ATOM     91  C   UNL A   1      48.218  37.939  37.155  1.00  0.00     0.006 A 
ENDBRANCH  63  84
BRANCH  75  92
ATOM     92  C   UNL A   1      39.886  35.104  39.189  1.00  0.00     0.057 A 
ATOM     93  C   UNL A   1      40.163  33.986  39.989  1.00  0.00     0.134 A 
ATOM     94  C   UNL A   1      39.200  36.168  39.790  1.00  0.00     0.134 A 
ATOM     95  F   UNL A   1      40.808  32.925  39.479  1.00  0.00    -0.206 F 
ATOM     96  C   UNL A   1      39.774  33.928  41.328  1.00  0.00     0.040 A 
ATOM     97  C   UNL A   1      38.838  36.136  41.139  1.00  0.00     0.040 A 
ATOM     98  F   UNL A   1      38.914  37.275  39.090  1.00  0.00    -0.206 F 
ATOM     99  C   UNL A   1      39.119  35.009  41.910  1.00  0.00     0.006 A 
ENDBRANCH  75  92
ENDBRANCH  49  50
ENDBRANCH  42  44
ENDBRANCH  41  42
ENDBRANCH  40  41
ENDBRANCH  39  40
ENDBRANCH  38  39
ENDBRANCH  37  38
ENDBRANCH   1  37
TORSDOF 22
ENDMDL
MODEL 2
REMARK VINA RESULT:      -9.1      4.969     11.320
REMARK SMILES NS(=O)(=O)c1ccc(C#Cc2cc(Cl)cc3c2O[C@H](C(F)(F)F)C(C(=O)OCCOCCOCCOC(=O)c2ccc(-c4c5nc(c(-c6c(F)cccc6F)c6ccc([nH]6)c(-c6c(F)cccc6F)c6nc(c(-c7c(F)cccc7F)c7ccc4[nH]7)C=C6)C=C5)cc2)=C3)cc1
REMARK SMILES IDX 31 1 30 2 29 3 28 4 27 5 25 6 26 7 24 8 11 9 12 10 17 11
REMARK SMILES IDX 13 12 16 13 18 14 14 15 15 16 93 17 19 18 10 19 9 20 8 21
REMARK SMILES IDX 5 22 6 23 95 24 7 25 94 26 2 27 3 28 4 29 1 30 20 33 21 34
REMARK SMILES IDX 22 35 23 36 32 37 33 38 34 39 35 40 36 41 37 42 38 43 39 44
REMARK SMILES IDX 40 45 92 46 41 47 91 48 42 49 43 50 44 51 85 52 45 53 90 54
REMARK SMILES IDX 84 55 86 56 46 57 89 58 83 59 82 60 47 62 73 63 56 64 72 65
REMARK SMILES IDX 57 66 60 67 71 68 87 69 58 70 59 71 70 73 88 74 61 75 48 76
REMARK SMILES IDX 49 77 54 78 50 79 51 80 53 81 55 82 52 83 74 84 75 85 80 86
REMARK SMILES IDX 76 87 77 88 79 89 81 90 78 91 62 92 63 93 68 94 64 95 65 96
REMARK SMILES IDX 67 97 69 98 66 99
REMARK H PARENT 1 31 1 32 86 61 60 72
REMARK Flexibility Score: inf
ROOT
ATOM      1  C   UNL A   1      41.172  36.283  35.612  1.00  0.00     0.188 C 
ENDROOT
BRANCH   1   2
ATOM      2  O   UNL A   1      40.027  36.280  36.432  1.00  0.00    -0.376 OA
BRANCH   2   3
ATOM      3  C   UNL A   1      39.301  35.085  36.664  1.00  0.00     0.202 C 
BRANCH   3   4
ATOM      4  C   UNL A   1      38.181  34.530  35.762  1.00  0.00     0.261 C 
BRANCH   4   5
ATOM      5  O   UNL A   1      37.710  33.203  36.026  1.00  0.00    -0.460 OA
BRANCH   5   6
ATOM      6  C   UNL A   1      38.073  32.261  35.122  1.00  0.00     0.338 C 
ATOM      7  O   UNL A   1      38.095  31.054  35.298  1.00  0.00    -0.246 OA
BRANCH   6   8
ATOM      8  C   UNL A   1      38.280  32.891  33.800  1.00  0.00     0.087 C 
ATOM      9  C   UNL A   1      38.943  34.284  29.907  1.00  0.00     0.069 A 
ATOM     10  C   UNL A   1      37.962  34.065  28.933  1.00  0.00     0.041 A 
ATOM     11  C   UNL A   1      38.702  33.910  31.242  1.00  0.00     0.143 A 
ATOM     12  C   UNL A   1      36.741  33.501  29.288  1.00  0.00     0.043 A 
ATOM     13  C   UNL A   1      37.484  33.305  31.581  1.00  0.00     0.020 A 
ATOM     14  O   UNL A   1      39.685  34.153  32.164  1.00  0.00    -0.474 OA
ATOM     15  Cl  UNL A   1      35.544  33.225  28.085  1.00  0.00    -0.084 Cl
ATOM     16  C   UNL A   1      36.495  33.126  30.606  1.00  0.00     0.032 A 
ATOM     17  C   UNL A   1      37.275  32.784  32.921  1.00  0.00     0.027 C 
ATOM     18  C   UNL A   1      39.572  33.602  33.506  1.00  0.00     0.316 C 
BRANCH   9  19
ATOM     19  C   UNL A   1      40.198  34.829  29.480  1.00  0.00    -0.058 C 
ATOM     20  C   UNL A   1      41.216  35.324  29.064  1.00  0.00    -0.062 C 
BRANCH  20  21
ATOM     21  C   UNL A   1      42.409  35.896  28.522  1.00  0.00     0.025 A 
ATOM     22  C   UNL A   1      44.682  37.058  27.393  1.00  0.00     0.082 A 
ATOM     23  C   UNL A   1      44.088  35.953  26.778  1.00  0.00     0.023 A 
ATOM     24  C   UNL A   1      44.167  37.569  28.589  1.00  0.00     0.023 A 
ATOM     25  C   UNL A   1      42.949  35.377  27.342  1.00  0.00     0.018 A 
ATOM     26  C   UNL A   1      43.023  36.987  29.149  1.00  0.00     0.018 A 
BRANCH  22  27
ATOM     27  S   UNL A   1      46.117  37.791  26.663  1.00  0.00     0.238 S 
ATOM     28  O   UNL A   1      47.240  37.638  27.557  1.00  0.00    -0.207 OA
ATOM     29  O   UNL A   1      45.756  39.063  26.080  1.00  0.00    -0.207 OA
BRANCH  27  30
ATOM     30  N   UNL A   1      46.417  36.755  25.376  1.00  0.00    -0.225 NA
ATOM     31  H   UNL A   1      47.418  36.573  25.312  1.00  0.00     0.137 HD
ATOM     32  H   UNL A   1      46.093  37.186  24.510  1.00  0.00     0.137 HD
ENDBRANCH  27  30
ENDBRANCH  22  27
ENDBRANCH  20  21
ENDBRANCH   9  19
BRANCH  18  33
ATOM     33  C   UNL A   1      40.786  32.699  33.762  1.00  0.00     0.430 C 
ATOM     34  F   UNL A   1      41.874  33.124  33.079  1.00  0.00    -0.167 F 
ATOM     35  F   UNL A   1      41.129  32.682  35.072  1.00  0.00    -0.167 F 
ATOM     36  F   UNL A   1      40.543  31.420  33.391  1.00  0.00    -0.167 F 
ENDBRANCH  18  33
ENDBRANCH   6   8
ENDBRANCH   5   6
ENDBRANCH   4   5
ENDBRANCH   3   4
ENDBRANCH   2   3
ENDBRANCH   1   2
BRANCH   1  37
ATOM     37  C   UNL A   1      42.514  36.741  36.219  1.00  0.00     0.188 C 
BRANCH  37  38
ATOM     38  O   UNL A   1      43.380  37.530  35.437  1.00  0.00    -0.376 OA
BRANCH  38  39
ATOM     39  C   UNL A   1      44.396  36.909  34.665  1.00  0.00     0.202 C 
BRANCH  39  40
ATOM     40  C   UNL A   1      45.156  37.560  33.488  1.00  0.00     0.261 C 
BRANCH  40  41
ATOM     41  O   UNL A   1      44.992  37.003  32.179  1.00  0.00    -0.460 OA
BRANCH  41  42
ATOM     42  C   UNL A   1      46.070  36.358  31.661  1.00  0.00     0.338 C 
ATOM     43  O   UNL A   1      47.230  36.725  31.677  1.00  0.00    -0.246 OA
BRANCH  42  44
ATOM     44  C   UNL A   1      45.636  35.006  31.247  1.00  0.00     0.060 A 
ATOM     45  C   UNL A   1      45.669  34.646  29.902  1.00  0.00     0.016 A 
ATOM     46  C   UNL A   1      45.150  34.109  32.211  1.00  0.00     0.016 A 
ATOM     47  C   UNL A   1      45.214  33.381  29.521  1.00  0.00     0.010 A 
ATOM     48  C   UNL A   1      44.675  32.853  31.824  1.00  0.00     0.010 A 
ATOM     49  C   UNL A   1      44.718  32.473  30.475  1.00  0.00    -0.014 A 
BRANCH  49  50
ATOM     50  C   UNL A   1      44.373  31.088  30.064  1.00  0.00     0.031 A 
ATOM     51  C   UNL A   1      42.953  30.644  29.877  1.00  0.00     0.074 A 
ATOM     52  C   UNL A   1      45.380  30.221  29.844  1.00  0.00     0.049 A 
ATOM     53  N   UNL A   1      42.501  29.490  29.453  1.00  0.00    -0.248 NA
ATOM     54  C   UNL A   1      41.905  31.618  30.211  1.00  0.00     0.031 C 
ATOM     55  C   UNL A   1      46.802  30.530  30.009  1.00  0.00     0.029 A 
ATOM     56  N   UNL A   1      45.367  28.916  29.425  1.00  0.00    -0.354 N 
ATOM     57  C   UNL A   1      41.117  29.601  29.443  1.00  0.00     0.074 A 
ATOM     58  C   UNL A   1      40.805  30.920  29.959  1.00  0.00     0.031 C 
ATOM     59  C   UNL A   1      47.525  29.454  29.664  1.00  0.00     0.029 A 
ATOM     60  C   UNL A   1      46.620  28.370  29.293  1.00  0.00     0.049 A 
ATOM     61  H   UNL A   1      44.539  28.418  29.237  1.00  0.00     0.167 HD
ATOM     62  C   UNL A   1      40.196  28.695  29.028  1.00  0.00     0.037 A 
ATOM     63  C   UNL A   1      47.000  27.133  28.923  1.00  0.00     0.037 A 
ATOM     64  C   UNL A   1      40.512  27.370  28.548  1.00  0.00     0.049 A 
ATOM     65  C   UNL A   1      45.950  26.120  28.554  1.00  0.00     0.074 A 
ATOM     66  C   UNL A   1      39.647  26.389  28.090  1.00  0.00     0.029 A 
ATOM     67  N   UNL A   1      41.788  26.830  28.484  1.00  0.00    -0.354 N 
ATOM     68  N   UNL A   1      44.649  26.259  28.488  1.00  0.00    -0.248 NA
ATOM     69  C   UNL A   1      46.428  24.775  28.202  1.00  0.00     0.031 C 
ATOM     70  C   UNL A   1      40.391  25.235  27.819  1.00  0.00     0.029 A 
ATOM     71  C   UNL A   1      41.730  25.520  28.029  1.00  0.00     0.049 A 
ATOM     72  H   UNL A   1      42.615  27.307  28.727  1.00  0.00     0.167 HD
ATOM     73  C   UNL A   1      44.156  25.035  28.050  1.00  0.00     0.074 A 
ATOM     74  C   UNL A   1      45.302  24.172  27.853  1.00  0.00     0.031 C 
ATOM     75  C   UNL A   1      42.872  24.664  27.829  1.00  0.00     0.037 A 
BRANCH  62  76
ATOM     76  C   UNL A   1      38.749  29.099  29.094  1.00  0.00     0.057 A 
ATOM     77  C   UNL A   1      38.022  28.982  30.286  1.00  0.00     0.134 A 
ATOM     78  C   UNL A   1      38.061  29.571  27.967  1.00  0.00     0.134 A 
ATOM     79  F   UNL A   1      38.609  28.518  31.400  1.00  0.00    -0.206 F 
ATOM     80  C   UNL A   1      36.671  29.328  30.358  1.00  0.00     0.040 A 
ATOM     81  C   UNL A   1      36.719  29.953  28.035  1.00  0.00     0.040 A 
ATOM     82  F   UNL A   1      38.693  29.705  26.791  1.00  0.00    -0.206 F 
ATOM     83  C   UNL A   1      36.019  29.828  29.233  1.00  0.00     0.006 A 
ENDBRANCH  62  76
BRANCH  63  84
ATOM     84  C   UNL A   1      48.440  26.772  28.882  1.00  0.00     0.057 A 
ATOM     85  C   UNL A   1      49.198  26.929  27.716  1.00  0.00     0.134 A 
ATOM     86  C   UNL A   1      49.105  26.312  30.025  1.00  0.00     0.134 A 
ATOM     87  F   UNL A   1      48.619  27.357  26.583  1.00  0.00    -0.206 F 
ATOM     88  C   UNL A   1      50.563  26.647  27.685  1.00  0.00     0.040 A 
ATOM     89  C   UNL A   1      50.478  26.059  30.019  1.00  0.00     0.040 A 
ATOM     90  F   UNL A   1      48.439  26.155  31.179  1.00  0.00    -0.206 F 
ATOM     91  C   UNL A   1      51.210  26.225  28.846  1.00  0.00     0.006 A 
ENDBRANCH  63  84
BRANCH  75  92
ATOM     92  C   UNL A   1      42.638  23.278  27.292  1.00  0.00     0.057 A 
ATOM     93  C   UNL A   1      42.724  23.028  25.914  1.00  0.00     0.134 A 
ATOM     94  C   UNL A   1      42.313  22.195  28.120  1.00  0.00     0.134 A 
ATOM     95  F   UNL A   1      43.021  24.017  25.058  1.00  0.00    -0.206 F 
ATOM     96  C   UNL A   1      42.496  21.757  25.384  1.00  0.00     0.040 A 
ATOM     97  C   UNL A   1      42.119  20.912  27.605  1.00  0.00     0.040 A 
ATOM     98  F   UNL A   1      42.227  22.358  29.449  1.00  0.00    -0.206 F 
ATOM     99  C   UNL A   1      42.203  20.692  26.231  1.00  0.00     0.006 A 
ENDBRANCH  75  92
ENDBRANCH  49  50
ENDBRANCH  42  44
ENDBRANCH  41  42
ENDBRANCH  40  41
ENDBRANCH  39  40
ENDBRANCH  38  39
ENDBRANCH  37  38
ENDBRANCH   1  37
TORSDOF 22
ENDMDL
MODEL 3
REMARK VINA RESULT:      -9.0      7.489     11.438
REMARK SMILES NS(=O)(=O)c1ccc(C#Cc2cc(Cl)cc3c2O[C@H](C(F)(F)F)C(C(=O)OCCOCCOCCOC(=O)c2ccc(-c4c5nc(c(-c6c(F)cccc6F)c6ccc([nH]6)c(-c6c(F)cccc6F)c6nc(c(-c7c(F)cccc7F)c7ccc4[nH]7)C=C6)C=C5)cc2)=C3)cc1
REMARK SMILES IDX 31 1 30 2 29 3 28 4 27 5 25 6 26 7 24 8 11 9 12 10 17 11
REMARK SMILES IDX 13 12 16 13 18 14 14 15 15 16 93 17 19 18 10 19 9 20 8 21
REMARK SMILES IDX 5 22 6 23 95 24 7 25 94 26 2 27 3 28 4 29 1 30 20 33 21 34
REMARK SMILES IDX 22 35 23 36 32 37 33 38 34 39 35 40 36 41 37 42 38 43 39 44
REMARK SMILES IDX 40 45 92 46 41 47 91 48 42 49 43 50 44 51 85 52 45 53 90 54
REMARK SMILES IDX 84 55 86 56 46 57 89 58 83 59 82 60 47 62 73 63 56 64 72 65
REMARK SMILES IDX 57 66 60 67 71 68 87 69 58 70 59 71 70 73 88 74 61 75 48 76
REMARK SMILES IDX 49 77 54 78 50 79 51 80 53 81 55 82 52 83 74 84 75 85 80 86
REMARK SMILES IDX 76 87 77 88 79 89 81 90 78 91 62 92 63 93 68 94 64 95 65 96
REMARK SMILES IDX 67 97 69 98 66 99
REMARK H PARENT 1 31 1 32 86 61 60 72
REMARK Flexibility Score: inf
ROOT
ATOM      1  C   UNL A   1      52.574  23.188  38.329  1.00  0.00     0.188 C 
ENDROOT
BRANCH   1   2
ATOM      2  O   UNL A   1      51.790  22.359  39.155  1.00  0.00    -0.376 OA
BRANCH   2   3
ATOM      3  C   UNL A   1      50.954  21.359  38.600  1.00  0.00     0.202 C 
BRANCH   3   4
ATOM      4  C   UNL A   1      49.426  21.267  38.785  1.00  0.00     0.261 C 
BRANCH   4   5
ATOM      5  O   UNL A   1      48.596  21.823  37.759  1.00  0.00    -0.460 OA
BRANCH   5   6
ATOM      6  C   UNL A   1      47.331  21.341  37.701  1.00  0.00     0.338 C 
ATOM      7  O   UNL A   1      46.840  20.497  38.433  1.00  0.00    -0.246 OA
BRANCH   6   8
ATOM      8  C   UNL A   1      46.546  22.118  36.717  1.00  0.00     0.087 C 
ATOM      9  C   UNL A   1      44.011  24.030  33.987  1.00  0.00     0.069 A 
ATOM     10  C   UNL A   1      42.921  24.761  34.473  1.00  0.00     0.041 A 
ATOM     11  C   UNL A   1      44.930  23.459  34.887  1.00  0.00     0.143 A 
ATOM     12  C   UNL A   1      42.759  24.943  35.842  1.00  0.00     0.043 A 
ATOM     13  C   UNL A   1      44.733  23.615  36.266  1.00  0.00     0.020 A 
ATOM     14  O   UNL A   1      45.988  22.762  34.369  1.00  0.00    -0.474 OA
ATOM     15  Cl  UNL A   1      41.411  25.833  36.433  1.00  0.00    -0.084 Cl
ATOM     16  C   UNL A   1      43.661  24.380  36.740  1.00  0.00     0.032 A 
ATOM     17  C   UNL A   1      45.589  22.915  37.209  1.00  0.00     0.027 C 
ATOM     18  C   UNL A   1      46.844  21.982  35.250  1.00  0.00     0.316 C 
BRANCH   9  19
ATOM     19  C   UNL A   1      44.108  23.837  32.570  1.00  0.00    -0.058 C 
ATOM     20  C   UNL A   1      44.121  23.710  31.372  1.00  0.00    -0.062 C 
BRANCH  20  21
ATOM     21  C   UNL A   1      44.087  23.540  29.952  1.00  0.00     0.025 A 
ATOM     22  C   UNL A   1      43.959  23.290  27.175  1.00  0.00     0.082 A 
ATOM     23  C   UNL A   1      42.887  22.860  27.961  1.00  0.00     0.023 A 
ATOM     24  C   UNL A   1      45.110  23.816  27.768  1.00  0.00     0.023 A 
ATOM     25  C   UNL A   1      42.952  22.991  29.350  1.00  0.00     0.018 A 
ATOM     26  C   UNL A   1      45.169  23.946  29.161  1.00  0.00     0.018 A 
BRANCH  22  27
ATOM     27  S   UNL A   1      43.861  23.134  25.416  1.00  0.00     0.238 S 
ATOM     28  O   UNL A   1      44.837  22.169  24.966  1.00  0.00    -0.207 OA
ATOM     29  O   UNL A   1      43.742  24.449  24.828  1.00  0.00    -0.207 OA
BRANCH  27  30
ATOM     30  N   UNL A   1      42.366  22.396  25.217  1.00  0.00    -0.225 NA
ATOM     31  H   UNL A   1      41.683  23.088  24.909  1.00  0.00     0.137 HD
ATOM     32  H   UNL A   1      42.066  21.991  26.103  1.00  0.00     0.137 HD
ENDBRANCH  27  30
ENDBRANCH  22  27
ENDBRANCH  20  21
ENDBRANCH   9  19
BRANCH  18  33
ATOM     33  C   UNL A   1      46.800  20.517  34.796  1.00  0.00     0.430 C 
ATOM     34  F   UNL A   1      46.774  20.416  33.447  1.00  0.00    -0.167 F 
ATOM     35  F   UNL A   1      47.887  19.830  35.219  1.00  0.00    -0.167 F 
ATOM     36  F   UNL A   1      45.707  19.880  35.275  1.00  0.00    -0.167 F 
ENDBRANCH  18  33
ENDBRANCH   6   8
ENDBRANCH   5   6
ENDBRANCH   4   5
ENDBRANCH   3   4
ENDBRANCH   2   3
ENDBRANCH   1   2
BRANCH   1  37
ATOM     37  C   UNL A   1      52.001  24.554  37.899  1.00  0.00     0.188 C 
BRANCH  37  38
ATOM     38  O   UNL A   1      50.970  24.589  36.941  1.00  0.00    -0.376 OA
BRANCH  38  39
ATOM     39  C   UNL A   1      49.657  24.956  37.331  1.00  0.00     0.202 C 
BRANCH  39  40
ATOM     40  C   UNL A   1      48.480  25.243  36.371  1.00  0.00     0.261 C 
BRANCH  40  41
ATOM     41  O   UNL A   1      47.490  26.197  36.771  1.00  0.00    -0.460 OA
BRANCH  41  42
ATOM     42  C   UNL A   1      47.717  27.488  36.411  1.00  0.00     0.338 C 
ATOM     43  O   UNL A   1      48.772  28.094  36.458  1.00  0.00    -0.246 OA
BRANCH  42  44
ATOM     44  C   UNL A   1      46.501  27.993  35.738  1.00  0.00     0.060 A 
ATOM     45  C   UNL A   1      45.243  27.651  36.228  1.00  0.00     0.016 A 
ATOM     46  C   UNL A   1      46.624  28.778  34.581  1.00  0.00     0.016 A 
ATOM     47  C   UNL A   1      44.102  28.099  35.556  1.00  0.00     0.010 A 
ATOM     48  C   UNL A   1      45.482  29.206  33.899  1.00  0.00     0.010 A 
ATOM     49  C   UNL A   1      44.210  28.882  34.392  1.00  0.00    -0.014 A 
BRANCH  49  50
ATOM     50  C   UNL A   1      42.987  29.461  33.779  1.00  0.00     0.031 A 
ATOM     51  C   UNL A   1      42.284  30.646  34.372  1.00  0.00     0.074 A 
ATOM     52  C   UNL A   1      42.516  28.900  32.649  1.00  0.00     0.049 A 
ATOM     53  N   UNL A   1      41.249  31.304  33.911  1.00  0.00    -0.248 NA
ATOM     54  C   UNL A   1      42.805  31.156  35.647  1.00  0.00     0.031 C 
ATOM     55  C   UNL A   1      43.103  27.734  31.986  1.00  0.00     0.029 A 
ATOM     56  N   UNL A   1      41.452  29.237  31.853  1.00  0.00    -0.354 N 
ATOM     57  C   UNL A   1      41.006  32.323  34.822  1.00  0.00     0.074 A 
ATOM     58  C   UNL A   1      41.970  32.158  35.892  1.00  0.00     0.031 C 
ATOM     59  C   UNL A   1      42.411  27.473  30.867  1.00  0.00     0.029 A 
ATOM     60  C   UNL A   1      41.309  28.425  30.755  1.00  0.00     0.049 A 
ATOM     61  H   UNL A   1      40.849  29.990  32.050  1.00  0.00     0.167 HD
ATOM     62  C   UNL A   1      40.078  33.311  34.762  1.00  0.00     0.037 A 
ATOM     63  C   UNL A   1      40.391  28.440  29.771  1.00  0.00     0.037 A 
ATOM     64  C   UNL A   1      39.098  33.450  33.711  1.00  0.00     0.049 A 
ATOM     65  C   UNL A   1      39.317  29.494  29.780  1.00  0.00     0.074 A 
ATOM     66  C   UNL A   1      38.129  34.427  33.557  1.00  0.00     0.029 A 
ATOM     67  N   UNL A   1      38.944  32.573  32.646  1.00  0.00    -0.354 N 
ATOM     68  N   UNL A   1      39.139  30.490  30.614  1.00  0.00    -0.248 NA
ATOM     69  C   UNL A   1      38.319  29.427  28.704  1.00  0.00     0.031 C 
ATOM     70  C   UNL A   1      37.346  34.104  32.443  1.00  0.00     0.029 A 
ATOM     71  C   UNL A   1      37.876  32.969  31.853  1.00  0.00     0.049 A 
ATOM     72  H   UNL A   1      39.511  31.786  32.477  1.00  0.00     0.167 HD
ATOM     73  C   UNL A   1      38.035  31.189  30.141  1.00  0.00     0.074 A 
ATOM     74  C   UNL A   1      37.595  30.511  28.940  1.00  0.00     0.031 C 
ATOM     75  C   UNL A   1      37.443  32.295  30.654  1.00  0.00     0.037 A 
BRANCH  62  76
ATOM     76  C   UNL A   1      40.064  34.315  35.881  1.00  0.00     0.057 A 
ATOM     77  C   UNL A   1      40.812  35.498  35.797  1.00  0.00     0.134 A 
ATOM     78  C   UNL A   1      39.338  34.098  37.061  1.00  0.00     0.134 A 
ATOM     79  F   UNL A   1      41.547  35.764  34.707  1.00  0.00    -0.206 F 
ATOM     80  C   UNL A   1      40.830  36.429  36.838  1.00  0.00     0.040 A 
ATOM     81  C   UNL A   1      39.322  35.038  38.095  1.00  0.00     0.040 A 
ATOM     82  F   UNL A   1      38.603  32.986  37.213  1.00  0.00    -0.206 F 
ATOM     83  C   UNL A   1      40.073  36.206  37.986  1.00  0.00     0.006 A 
ENDBRANCH  62  76
BRANCH  63  84
ATOM     84  C   UNL A   1      40.435  27.421  28.690  1.00  0.00     0.057 A 
ATOM     85  C   UNL A   1      41.281  27.570  27.585  1.00  0.00     0.134 A 
ATOM     86  C   UNL A   1      39.671  26.250  28.765  1.00  0.00     0.134 A 
ATOM     87  F   UNL A   1      42.032  28.673  27.448  1.00  0.00    -0.206 F 
ATOM     88  C   UNL A   1      41.370  26.591  26.595  1.00  0.00     0.040 A 
ATOM     89  C   UNL A   1      39.777  25.247  27.800  1.00  0.00     0.040 A 
ATOM     90  F   UNL A   1      38.853  26.041  29.807  1.00  0.00    -0.206 F 
ATOM     91  C   UNL A   1      40.627  25.418  26.710  1.00  0.00     0.006 A 
ENDBRANCH  63  84
BRANCH  75  92
ATOM     92  C   UNL A   1      36.287  32.877  29.888  1.00  0.00     0.057 A 
ATOM     93  C   UNL A   1      36.515  33.627  28.724  1.00  0.00     0.134 A 
ATOM     94  C   UNL A   1      34.957  32.719  30.297  1.00  0.00     0.134 A 
ATOM     95  F   UNL A   1      37.763  33.829  28.276  1.00  0.00    -0.206 F 
ATOM     96  C   UNL A   1      35.465  34.193  28.000  1.00  0.00     0.040 A 
ATOM     97  C   UNL A   1      33.896  33.250  29.561  1.00  0.00     0.040 A 
ATOM     98  F   UNL A   1      34.664  32.003  31.393  1.00  0.00    -0.206 F 
ATOM     99  C   UNL A   1      34.150  33.997  28.412  1.00  0.00     0.006 A 
ENDBRANCH  75  92
ENDBRANCH  49  50
ENDBRANCH  42  44
ENDBRANCH  41  42
ENDBRANCH  40  41
ENDBRANCH  39  40
ENDBRANCH  38  39
ENDBRANCH  37  38
ENDBRANCH   1  37
TORSDOF 22
ENDMDL
