MODEL 1
REMARK VINA RESULT:     -11.2      0.000      0.000
REMARK SMILES CC[NH+]1CC[NH+]([C@@H]2CC(=O)N(c3ccc(C(=O)OCCOCCOCCOC(=O)c4ccc(-c5c6nc(c(-c7c(F)cccc7F)c7ccc([nH]7)c(-c7c(F)cccc7F)c7nc(c(-c8c(F)cccc8F)c8ccc5[nH]8)C=C7)C=C6)cc4)cc3)C2=O)CC1
REMARK SMILES IDX 22 1 21 2 20 3 19 4 18 5 16 6 17 7 15 8 12 9 13 10 85 11
REMARK SMILES IDX 14 12 84 13 11 14 7 15 8 16 86 17 9 18 87 19 10 20 6 21 3 22
REMARK SMILES IDX 4 23 89 24 5 26 88 27 2 29 1 30 23 31 24 32 25 33 26 34
REMARK SMILES IDX 27 35 28 36 29 37 30 38 31 39 83 40 32 41 82 42 33 43 34 44
REMARK SMILES IDX 35 45 76 46 36 47 81 48 75 49 77 50 37 51 80 52 74 53 73 54
REMARK SMILES IDX 38 56 64 57 47 58 63 59 48 60 51 61 62 62 78 63 49 64 50 65
REMARK SMILES IDX 61 67 79 68 52 69 39 70 40 71 45 72 41 73 42 74 44 75 46 76
REMARK SMILES IDX 43 77 65 78 66 79 71 80 67 81 68 82 70 83 72 84 69 85 53 86
REMARK SMILES IDX 54 87 59 88 55 89 56 90 58 91 60 92 57 93
REMARK H PARENT 3 25 6 28 77 55 51 66
REMARK Flexibility Score: inf
ROOT
ATOM      1  C   UNL A   1      33.654  35.283  29.188  1.00  0.00     0.188 C 
ENDROOT
BRANCH   1   2
ATOM      2  O   UNL A   1      33.599  33.914  28.826  1.00  0.00    -0.376 OA
BRANCH   2   3
ATOM      3  C   UNL A   1      34.788  33.167  28.607  1.00  0.00     0.202 C 
BRANCH   3   4
ATOM      4  C   UNL A   1      34.849  31.918  27.709  1.00  0.00     0.261 C 
BRANCH   4   5
ATOM      5  O   UNL A   1      34.014  30.825  28.093  1.00  0.00    -0.460 OA
BRANCH   5   6
ATOM      6  C   UNL A   1      32.899  30.647  27.336  1.00  0.00     0.338 C 
ATOM      7  O   UNL A   1      32.169  31.500  26.884  1.00  0.00    -0.246 OA
BRANCH   6   8
ATOM      8  C   UNL A   1      32.814  29.217  26.966  1.00  0.00     0.060 A 
ATOM      9  C   UNL A   1      32.720  26.519  26.200  1.00  0.00     0.052 A 
ATOM     10  C   UNL A   1      33.942  27.202  26.218  1.00  0.00     0.028 A 
ATOM     11  C   UNL A   1      31.571  27.184  26.665  1.00  0.00     0.028 A 
ATOM     12  C   UNL A   1      33.984  28.556  26.568  1.00  0.00     0.018 A 
ATOM     13  C   UNL A   1      31.614  28.520  27.057  1.00  0.00     0.018 A 
BRANCH   9  14
ATOM     14  N   UNL A   1      32.607  25.216  25.649  1.00  0.00    -0.245 N 
ATOM     15  C   UNL A   1      32.142  22.938  25.323  1.00  0.00     0.285 C 
ATOM     16  C   UNL A   1      32.959  23.449  24.155  1.00  0.00     0.176 C 
ATOM     17  C   UNL A   1      32.131  24.103  26.313  1.00  0.00     0.292 C 
ATOM     18  C   UNL A   1      33.070  24.914  24.389  1.00  0.00     0.240 C 
ATOM     19  O   UNL A   1      31.683  24.048  27.452  1.00  0.00    -0.267 OA
ATOM     20  O   UNL A   1      33.618  25.650  23.578  1.00  0.00    -0.274 OA
BRANCH  15  21
ATOM     21  N   UNL A   1      32.494  21.632  25.909  1.00  0.00    -0.315 N 
ATOM     22  N   UNL A   1      34.145  19.727  24.244  1.00  0.00    -0.326 N 
ATOM     23  C   UNL A   1      32.711  19.929  24.005  1.00  0.00     0.324 C 
ATOM     24  C   UNL A   1      34.758  20.799  25.037  1.00  0.00     0.324 C 
ATOM     25  H   UNL A   1      34.572  19.805  23.322  1.00  0.00     0.348 HD
ATOM     26  C   UNL A   1      31.897  20.488  25.200  1.00  0.00     0.325 C 
ATOM     27  C   UNL A   1      33.913  21.376  26.193  1.00  0.00     0.325 C 
ATOM     28  H   UNL A   1      32.063  21.722  26.829  1.00  0.00     0.349 HD
BRANCH  22  29
ATOM     29  C   UNL A   1      34.513  18.373  24.662  1.00  0.00     0.259 C 
ATOM     30  C   UNL A   1      34.256  17.238  23.680  1.00  0.00     0.071 C 
ENDBRANCH  22  29
ENDBRANCH  15  21
ENDBRANCH   9  14
ENDBRANCH   6   8
ENDBRANCH   5   6
ENDBRANCH   4   5
ENDBRANCH   3   4
ENDBRANCH   2   3
ENDBRANCH   1   2
BRANCH   1  31
ATOM     31  C   UNL A   1      33.103  35.749  30.551  1.00  0.00     0.188 C 
BRANCH  31  32
ATOM     32  O   UNL A   1      34.042  35.752  31.598  1.00  0.00    -0.376 OA
BRANCH  32  33
ATOM     33  C   UNL A   1      33.892  34.846  32.678  1.00  0.00     0.202 C 
BRANCH  33  34
ATOM     34  C   UNL A   1      33.923  33.303  32.576  1.00  0.00     0.261 C 
BRANCH  34  35
ATOM     35  O   UNL A   1      35.078  32.667  32.022  1.00  0.00    -0.460 OA
BRANCH  35  36
ATOM     36  C   UNL A   1      36.029  32.266  32.898  1.00  0.00     0.338 C 
ATOM     37  O   UNL A   1      35.997  32.344  34.113  1.00  0.00    -0.246 OA
BRANCH  36  38
ATOM     38  C   UNL A   1      37.077  31.543  32.149  1.00  0.00     0.060 A 
ATOM     39  C   UNL A   1      38.081  30.878  32.864  1.00  0.00     0.016 A 
ATOM     40  C   UNL A   1      37.081  31.545  30.754  1.00  0.00     0.016 A 
ATOM     41  C   UNL A   1      39.110  30.228  32.181  1.00  0.00     0.010 A 
ATOM     42  C   UNL A   1      38.123  30.909  30.072  1.00  0.00     0.010 A 
ATOM     43  C   UNL A   1      39.157  30.271  30.781  1.00  0.00    -0.014 A 
BRANCH  43  44
ATOM     44  C   UNL A   1      40.363  29.785  30.067  1.00  0.00     0.031 A 
ATOM     45  C   UNL A   1      41.497  30.741  29.823  1.00  0.00     0.074 A 
ATOM     46  C   UNL A   1      40.455  28.512  29.642  1.00  0.00     0.049 A 
ATOM     47  N   UNL A   1      42.622  30.553  29.181  1.00  0.00    -0.248 NA
ATOM     48  C   UNL A   1      41.333  32.096  30.371  1.00  0.00     0.031 C 
ATOM     49  C   UNL A   1      39.438  27.482  29.837  1.00  0.00     0.029 A 
ATOM     50  N   UNL A   1      41.452  27.879  28.942  1.00  0.00    -0.354 N 
ATOM     51  C   UNL A   1      43.294  31.767  29.237  1.00  0.00     0.074 A 
ATOM     52  C   UNL A   1      42.437  32.692  29.947  1.00  0.00     0.031 C 
ATOM     53  C   UNL A   1      39.857  26.345  29.254  1.00  0.00     0.029 A 
ATOM     54  C   UNL A   1      41.153  26.579  28.618  1.00  0.00     0.049 A 
ATOM     55  H   UNL A   1      42.299  28.316  28.696  1.00  0.00     0.167 HD
ATOM     56  C   UNL A   1      44.518  32.082  28.747  1.00  0.00     0.037 A 
ATOM     57  C   UNL A   1      41.835  25.688  27.871  1.00  0.00     0.037 A 
ATOM     58  C   UNL A   1      45.367  31.160  28.037  1.00  0.00     0.049 A 
ATOM     59  C   UNL A   1      43.166  26.074  27.284  1.00  0.00     0.074 A 
ATOM     60  C   UNL A   1      46.639  31.371  27.535  1.00  0.00     0.029 A 
ATOM     61  N   UNL A   1      45.021  29.857  27.710  1.00  0.00    -0.354 N 
ATOM     62  N   UNL A   1      43.816  27.210  27.379  1.00  0.00    -0.248 NA
ATOM     63  C   UNL A   1      43.862  25.053  26.489  1.00  0.00     0.031 C 
ATOM     64  C   UNL A   1      47.035  30.220  26.848  1.00  0.00     0.029 A 
ATOM     65  C   UNL A   1      46.040  29.265  26.979  1.00  0.00     0.049 A 
ATOM     66  H   UNL A   1      44.176  29.417  27.960  1.00  0.00     0.167 HD
ATOM     67  C   UNL A   1      45.004  27.032  26.680  1.00  0.00     0.074 A 
ATOM     68  C   UNL A   1      44.992  25.674  26.177  1.00  0.00     0.031 C 
ATOM     69  C   UNL A   1      46.015  27.914  26.475  1.00  0.00     0.037 A 
BRANCH  56  70
ATOM     70  C   UNL A   1      44.986  33.499  28.926  1.00  0.00     0.057 A 
ATOM     71  C   UNL A   1      44.659  34.515  28.017  1.00  0.00     0.134 A 
ATOM     72  C   UNL A   1      45.776  33.851  30.028  1.00  0.00     0.134 A 
ATOM     73  F   UNL A   1      43.916  34.245  26.933  1.00  0.00    -0.206 F 
ATOM     74  C   UNL A   1      45.132  35.819  28.177  1.00  0.00     0.040 A 
ATOM     75  C   UNL A   1      46.228  35.158  30.215  1.00  0.00     0.040 A 
ATOM     76  F   UNL A   1      46.121  32.931  30.940  1.00  0.00    -0.206 F 
ATOM     77  C   UNL A   1      45.916  36.144  29.282  1.00  0.00     0.006 A 
ENDBRANCH  56  70
BRANCH  57  78
ATOM     78  C   UNL A   1      41.257  24.342  27.629  1.00  0.00     0.057 A 
ATOM     79  C   UNL A   1      41.693  23.221  28.344  1.00  0.00     0.134 A 
ATOM     80  C   UNL A   1      40.249  24.146  26.677  1.00  0.00     0.134 A 
ATOM     81  F   UNL A   1      42.675  23.339  29.250  1.00  0.00    -0.206 F 
ATOM     82  C   UNL A   1      41.152  21.954  28.119  1.00  0.00     0.040 A 
ATOM     83  C   UNL A   1      39.679  22.891  26.460  1.00  0.00     0.040 A 
ATOM     84  F   UNL A   1      39.789  25.180  25.956  1.00  0.00    -0.206 F 
ATOM     85  C   UNL A   1      40.134  21.789  27.181  1.00  0.00     0.006 A 
ENDBRANCH  57  78
BRANCH  69  86
ATOM     86  C   UNL A   1      47.209  27.431  25.698  1.00  0.00     0.057 A 
ATOM     87  C   UNL A   1      48.271  26.752  26.311  1.00  0.00     0.134 A 
ATOM     88  C   UNL A   1      47.279  27.614  24.311  1.00  0.00     0.134 A 
ATOM     89  F   UNL A   1      48.275  26.550  27.637  1.00  0.00    -0.206 F 
ATOM     90  C   UNL A   1      49.369  26.298  25.576  1.00  0.00     0.040 A 
ATOM     91  C   UNL A   1      48.356  27.138  23.562  1.00  0.00     0.040 A 
ATOM     92  F   UNL A   1      46.292  28.246  23.656  1.00  0.00    -0.206 F 
ATOM     93  C   UNL A   1      49.409  26.484  24.196  1.00  0.00     0.006 A 
ENDBRANCH  69  86
ENDBRANCH  43  44
ENDBRANCH  36  38
ENDBRANCH  35  36
ENDBRANCH  34  35
ENDBRANCH  33  34
ENDBRANCH  32  33
ENDBRANCH  31  32
ENDBRANCH   1  31
TORSDOF 20
ENDMDL
MODEL 2
REMARK VINA RESULT:     -10.6      1.240      6.142
REMARK SMILES CC[NH+]1CC[NH+]([C@@H]2CC(=O)N(c3ccc(C(=O)OCCOCCOCCOC(=O)c4ccc(-c5c6nc(c(-c7c(F)cccc7F)c7ccc([nH]7)c(-c7c(F)cccc7F)c7nc(c(-c8c(F)cccc8F)c8ccc5[nH]8)C=C7)C=C6)cc4)cc3)C2=O)CC1
REMARK SMILES IDX 22 1 21 2 20 3 19 4 18 5 16 6 17 7 15 8 12 9 13 10 85 11
REMARK SMILES IDX 14 12 84 13 11 14 7 15 8 16 86 17 9 18 87 19 10 20 6 21 3 22
REMARK SMILES IDX 4 23 89 24 5 26 88 27 2 29 1 30 23 31 24 32 25 33 26 34
REMARK SMILES IDX 27 35 28 36 29 37 30 38 31 39 83 40 32 41 82 42 33 43 34 44
REMARK SMILES IDX 35 45 76 46 36 47 81 48 75 49 77 50 37 51 80 52 74 53 73 54
REMARK SMILES IDX 38 56 64 57 47 58 63 59 48 60 51 61 62 62 78 63 49 64 50 65
REMARK SMILES IDX 61 67 79 68 52 69 39 70 40 71 45 72 41 73 42 74 44 75 46 76
REMARK SMILES IDX 43 77 65 78 66 79 71 80 67 81 68 82 70 83 72 84 69 85 53 86
REMARK SMILES IDX 54 87 59 88 55 89 56 90 58 91 60 92 57 93
REMARK H PARENT 3 25 6 28 77 55 51 66
REMARK Flexibility Score: inf
ROOT
ATOM      1  C   UNL A   1      34.748  33.289  28.156  1.00  0.00     0.188 C 
ENDROOT
BRANCH   1   2
ATOM      2  O   UNL A   1      34.289  31.962  28.347  1.00  0.00    -0.376 OA
BRANCH   2   3
ATOM      3  C   UNL A   1      34.868  30.878  27.633  1.00  0.00     0.202 C 
BRANCH   3   4
ATOM      4  C   UNL A   1      34.162  29.525  27.432  1.00  0.00     0.261 C 
BRANCH   4   5
ATOM      5  O   UNL A   1      34.025  29.080  26.082  1.00  0.00    -0.460 OA
BRANCH   5   6
ATOM      6  C   UNL A   1      32.802  28.589  25.750  1.00  0.00     0.338 C 
ATOM      7  O   UNL A   1      31.788  29.213  25.536  1.00  0.00    -0.246 OA
BRANCH   6   8
ATOM      8  C   UNL A   1      32.942  27.139  25.486  1.00  0.00     0.060 A 
ATOM      9  C   UNL A   1      33.196  24.374  25.077  1.00  0.00     0.052 A 
ATOM     10  C   UNL A   1      32.294  24.864  26.029  1.00  0.00     0.028 A 
ATOM     11  C   UNL A   1      33.890  25.296  24.273  1.00  0.00     0.028 A 
ATOM     12  C   UNL A   1      32.192  26.241  26.256  1.00  0.00     0.018 A 
ATOM     13  C   UNL A   1      33.760  26.670  24.463  1.00  0.00     0.018 A 
BRANCH   9  14
ATOM     14  N   UNL A   1      33.482  22.989  24.970  1.00  0.00    -0.245 N 
ATOM     15  C   UNL A   1      33.427  20.712  24.399  1.00  0.00     0.285 C 
ATOM     16  C   UNL A   1      34.481  20.930  25.464  1.00  0.00     0.176 C 
ATOM     17  C   UNL A   1      32.718  22.062  24.290  1.00  0.00     0.292 C 
ATOM     18  C   UNL A   1      34.532  22.406  25.643  1.00  0.00     0.240 C 
ATOM     19  O   UNL A   1      31.707  22.269  23.628  1.00  0.00    -0.267 OA
ATOM     20  O   UNL A   1      35.346  22.930  26.392  1.00  0.00    -0.274 OA
BRANCH  15  21
ATOM     21  N   UNL A   1      32.528  19.551  24.529  1.00  0.00    -0.315 N 
ATOM     22  N   UNL A   1      33.762  16.793  24.537  1.00  0.00    -0.326 N 
ATOM     23  C   UNL A   1      33.595  17.568  23.302  1.00  0.00     0.324 C 
ATOM     24  C   UNL A   1      33.679  17.612  25.752  1.00  0.00     0.324 C 
ATOM     25  H   UNL A   1      34.727  16.467  24.506  1.00  0.00     0.348 HD
ATOM     26  C   UNL A   1      32.515  18.680  23.341  1.00  0.00     0.325 C 
ATOM     27  C   UNL A   1      32.630  18.746  25.754  1.00  0.00     0.325 C 
ATOM     28  H   UNL A   1      31.628  20.023  24.610  1.00  0.00     0.349 HD
BRANCH  22  29
ATOM     29  C   UNL A   1      32.996  15.547  24.588  1.00  0.00     0.259 C 
ATOM     30  C   UNL A   1      32.156  15.287  25.832  1.00  0.00     0.071 C 
ENDBRANCH  22  29
ENDBRANCH  15  21
ENDBRANCH   9  14
ENDBRANCH   6   8
ENDBRANCH   5   6
ENDBRANCH   4   5
ENDBRANCH   3   4
ENDBRANCH   2   3
ENDBRANCH   1   2
BRANCH   1  31
ATOM     31  C   UNL A   1      33.953  34.477  28.734  1.00  0.00     0.188 C 
BRANCH  31  32
ATOM     32  O   UNL A   1      33.364  34.239  29.989  1.00  0.00    -0.376 OA
BRANCH  32  33
ATOM     33  C   UNL A   1      33.993  34.721  31.163  1.00  0.00     0.202 C 
BRANCH  33  34
ATOM     34  C   UNL A   1      35.251  34.117  31.830  1.00  0.00     0.261 C 
BRANCH  34  35
ATOM     35  O   UNL A   1      35.493  32.712  31.710  1.00  0.00    -0.460 OA
BRANCH  35  36
ATOM     36  C   UNL A   1      36.381  32.174  32.577  1.00  0.00     0.338 C 
ATOM     37  O   UNL A   1      36.279  32.094  33.788  1.00  0.00    -0.246 OA
BRANCH  36  38
ATOM     38  C   UNL A   1      37.456  31.525  31.799  1.00  0.00     0.060 A 
ATOM     39  C   UNL A   1      38.547  30.974  32.483  1.00  0.00     0.016 A 
ATOM     40  C   UNL A   1      37.399  31.485  30.405  1.00  0.00     0.016 A 
ATOM     41  C   UNL A   1      39.599  30.398  31.771  1.00  0.00     0.010 A 
ATOM     42  C   UNL A   1      38.463  30.924  29.692  1.00  0.00     0.010 A 
ATOM     43  C   UNL A   1      39.581  30.403  30.369  1.00  0.00    -0.014 A 
BRANCH  43  44
ATOM     44  C   UNL A   1      40.793  30.005  29.612  1.00  0.00     0.031 A 
ATOM     45  C   UNL A   1      40.878  28.610  29.060  1.00  0.00     0.074 A 
ATOM     46  C   UNL A   1      41.805  30.868  29.415  1.00  0.00     0.049 A 
ATOM     47  N   UNL A   1      41.856  28.029  28.412  1.00  0.00    -0.248 NA
ATOM     48  C   UNL A   1      39.703  27.753  29.276  1.00  0.00     0.031 C 
ATOM     49  C   UNL A   1      41.835  32.254  29.876  1.00  0.00     0.029 A 
ATOM     50  N   UNL A   1      43.011  30.694  28.783  1.00  0.00    -0.354 N 
ATOM     51  C   UNL A   1      41.420  26.736  28.154  1.00  0.00     0.074 A 
ATOM     52  C   UNL A   1      40.104  26.608  28.743  1.00  0.00     0.031 C 
ATOM     53  C   UNL A   1      43.012  32.801  29.526  1.00  0.00     0.029 A 
ATOM     54  C   UNL A   1      43.828  31.795  28.847  1.00  0.00     0.049 A 
ATOM     55  H   UNL A   1      43.266  29.859  28.328  1.00  0.00     0.167 HD
ATOM     56  C   UNL A   1      42.054  25.744  27.481  1.00  0.00     0.037 A 
ATOM     57  C   UNL A   1      45.098  31.964  28.429  1.00  0.00     0.037 A 
ATOM     58  C   UNL A   1      43.366  25.873  26.900  1.00  0.00     0.049 A 
ATOM     59  C   UNL A   1      45.810  30.833  27.736  1.00  0.00     0.074 A 
ATOM     60  C   UNL A   1      44.078  24.941  26.166  1.00  0.00     0.029 A 
ATOM     61  N   UNL A   1      44.170  26.998  27.003  1.00  0.00    -0.354 N 
ATOM     62  N   UNL A   1      45.374  29.627  27.457  1.00  0.00    -0.248 NA
ATOM     63  C   UNL A   1      47.189  31.087  27.297  1.00  0.00     0.031 C 
ATOM     64  C   UNL A   1      45.338  25.477  25.884  1.00  0.00     0.029 A 
ATOM     65  C   UNL A   1      45.388  26.769  26.380  1.00  0.00     0.049 A 
ATOM     66  H   UNL A   1      43.915  27.836  27.453  1.00  0.00     0.167 HD
ATOM     67  C   UNL A   1      46.413  28.989  26.789  1.00  0.00     0.074 A 
ATOM     68  C   UNL A   1      47.496  29.947  26.693  1.00  0.00     0.031 C 
ATOM     69  C   UNL A   1      46.464  27.725  26.297  1.00  0.00     0.037 A 
BRANCH  56  70
ATOM     70  C   UNL A   1      41.350  24.421  27.383  1.00  0.00     0.057 A 
ATOM     71  C   UNL A   1      40.256  24.216  26.531  1.00  0.00     0.134 A 
ATOM     72  C   UNL A   1      41.777  23.332  28.155  1.00  0.00     0.134 A 
ATOM     73  F   UNL A   1      39.787  25.218  25.773  1.00  0.00    -0.206 F 
ATOM     74  C   UNL A   1      39.590  22.990  26.479  1.00  0.00     0.040 A 
ATOM     75  C   UNL A   1      41.139  22.093  28.088  1.00  0.00     0.040 A 
ATOM     76  F   UNL A   1      42.822  23.454  28.988  1.00  0.00    -0.206 F 
ATOM     77  C   UNL A   1      40.034  21.922  27.256  1.00  0.00     0.006 A 
ENDBRANCH  56  70
BRANCH  57  78
ATOM     78  C   UNL A   1      45.781  33.261  28.668  1.00  0.00     0.057 A 
ATOM     79  C   UNL A   1      45.678  34.318  27.758  1.00  0.00     0.134 A 
ATOM     80  C   UNL A   1      46.549  33.474  29.820  1.00  0.00     0.134 A 
ATOM     81  F   UNL A   1      44.979  34.167  26.623  1.00  0.00    -0.206 F 
ATOM     82  C   UNL A   1      46.318  35.539  27.980  1.00  0.00     0.040 A 
ATOM     83  C   UNL A   1      47.172  34.698  30.069  1.00  0.00     0.040 A 
ATOM     84  F   UNL A   1      46.688  32.499  30.730  1.00  0.00    -0.206 F 
ATOM     85  C   UNL A   1      47.060  35.734  29.144  1.00  0.00     0.006 A 
ENDBRANCH  57  78
BRANCH  69  86
ATOM     86  C   UNL A   1      47.720  27.310  25.582  1.00  0.00     0.057 A 
ATOM     87  C   UNL A   1      48.807  26.738  26.258  1.00  0.00     0.134 A 
ATOM     88  C   UNL A   1      47.830  27.451  24.192  1.00  0.00     0.134 A 
ATOM     89  F   UNL A   1      48.774  26.582  27.589  1.00  0.00    -0.206 F 
ATOM     90  C   UNL A   1      49.963  26.346  25.580  1.00  0.00     0.040 A 
ATOM     91  C   UNL A   1      48.969  27.035  23.501  1.00  0.00     0.040 A 
ATOM     92  F   UNL A   1      46.824  27.982  23.479  1.00  0.00    -0.206 F 
ATOM     93  C   UNL A   1      50.044  26.487  24.197  1.00  0.00     0.006 A 
ENDBRANCH  69  86
ENDBRANCH  43  44
ENDBRANCH  36  38
ENDBRANCH  35  36
ENDBRANCH  34  35
ENDBRANCH  33  34
ENDBRANCH  32  33
ENDBRANCH  31  32
ENDBRANCH   1  31
TORSDOF 20
ENDMDL
MODEL 3
REMARK VINA RESULT:     -10.5      3.476      9.503
REMARK SMILES CC[NH+]1CC[NH+]([C@@H]2CC(=O)N(c3ccc(C(=O)OCCOCCOCCOC(=O)c4ccc(-c5c6nc(c(-c7c(F)cccc7F)c7ccc([nH]7)c(-c7c(F)cccc7F)c7nc(c(-c8c(F)cccc8F)c8ccc5[nH]8)C=C7)C=C6)cc4)cc3)C2=O)CC1
REMARK SMILES IDX 22 1 21 2 20 3 19 4 18 5 16 6 17 7 15 8 12 9 13 10 85 11
REMARK SMILES IDX 14 12 84 13 11 14 7 15 8 16 86 17 9 18 87 19 10 20 6 21 3 22
REMARK SMILES IDX 4 23 89 24 5 26 88 27 2 29 1 30 23 31 24 32 25 33 26 34
REMARK SMILES IDX 27 35 28 36 29 37 30 38 31 39 83 40 32 41 82 42 33 43 34 44
REMARK SMILES IDX 35 45 76 46 36 47 81 48 75 49 77 50 37 51 80 52 74 53 73 54
REMARK SMILES IDX 38 56 64 57 47 58 63 59 48 60 51 61 62 62 78 63 49 64 50 65
REMARK SMILES IDX 61 67 79 68 52 69 39 70 40 71 45 72 41 73 42 74 44 75 46 76
REMARK SMILES IDX 43 77 65 78 66 79 71 80 67 81 68 82 70 83 72 84 69 85 53 86
REMARK SMILES IDX 54 87 59 88 55 89 56 90 58 91 60 92 57 93
REMARK H PARENT 3 25 6 28 77 55 51 66
REMARK Flexibility Score: inf
ROOT
ATOM      1  C   UNL A   1      38.507  21.764  25.768  1.00  0.00     0.188 C 
ENDROOT
BRANCH   1   2
ATOM      2  O   UNL A   1      37.857  20.794  24.965  1.00  0.00    -0.376 OA
BRANCH   2   3
ATOM      3  C   UNL A   1      36.439  20.751  24.874  1.00  0.00     0.202 C 
BRANCH   3   4
ATOM      4  C   UNL A   1      35.618  19.466  25.083  1.00  0.00     0.261 C 
BRANCH   4   5
ATOM      5  O   UNL A   1      34.375  19.391  24.383  1.00  0.00    -0.460 OA
BRANCH   5   6
ATOM      6  C   UNL A   1      33.262  19.479  25.157  1.00  0.00     0.338 C 
ATOM      7  O   UNL A   1      32.754  18.606  25.823  1.00  0.00    -0.246 OA
BRANCH   6   8
ATOM      8  C   UNL A   1      32.857  20.901  25.226  1.00  0.00     0.060 A 
ATOM      9  C   UNL A   1      32.104  23.604  25.264  1.00  0.00     0.052 A 
ATOM     10  C   UNL A   1      31.762  22.795  24.174  1.00  0.00     0.028 A 
ATOM     11  C   UNL A   1      32.740  23.010  26.369  1.00  0.00     0.028 A 
ATOM     12  C   UNL A   1      32.166  21.455  24.140  1.00  0.00     0.018 A 
ATOM     13  C   UNL A   1      33.107  21.666  26.361  1.00  0.00     0.018 A 
BRANCH   9  14
ATOM     14  N   UNL A   1      31.901  25.008  25.238  1.00  0.00    -0.245 N 
ATOM     15  C   UNL A   1      32.068  27.303  24.772  1.00  0.00     0.285 C 
ATOM     16  C   UNL A   1      31.062  27.096  25.883  1.00  0.00     0.176 C 
ATOM     17  C   UNL A   1      32.684  25.920  24.559  1.00  0.00     0.292 C 
ATOM     18  C   UNL A   1      30.927  25.618  25.995  1.00  0.00     0.240 C 
ATOM     19  O   UNL A   1      33.642  25.685  23.832  1.00  0.00    -0.267 OA
ATOM     20  O   UNL A   1      30.123  25.108  26.765  1.00  0.00    -0.274 OA
BRANCH  15  21
ATOM     21  N   UNL A   1      33.044  28.400  24.904  1.00  0.00    -0.315 N 
ATOM     22  N   UNL A   1      33.039  30.006  27.462  1.00  0.00    -0.326 N 
ATOM     23  C   UNL A   1      32.028  30.202  26.417  1.00  0.00     0.324 C 
ATOM     24  C   UNL A   1      33.753  28.729  27.347  1.00  0.00     0.324 C 
ATOM     25  H   UNL A   1      32.502  29.930  28.326  1.00  0.00     0.348 HD
ATOM     26  C   UNL A   1      32.425  29.732  24.994  1.00  0.00     0.325 C 
ATOM     27  C   UNL A   1      34.097  28.254  25.919  1.00  0.00     0.325 C 
ATOM     28  H   UNL A   1      33.536  28.316  24.015  1.00  0.00     0.349 HD
BRANCH  22  29
ATOM     29  C   UNL A   1      33.898  31.164  27.711  1.00  0.00     0.259 C 
ATOM     30  C   UNL A   1      35.352  30.897  28.079  1.00  0.00     0.071 C 
ENDBRANCH  22  29
ENDBRANCH  15  21
ENDBRANCH   9  14
ENDBRANCH   6   8
ENDBRANCH   5   6
ENDBRANCH   4   5
ENDBRANCH   3   4
ENDBRANCH   2   3
ENDBRANCH   1   2
BRANCH   1  31
ATOM     31  C   UNL A   1      39.907  21.481  26.348  1.00  0.00     0.188 C 
BRANCH  31  32
ATOM     32  O   UNL A   1      40.399  20.188  26.099  1.00  0.00    -0.376 OA
BRANCH  32  33
ATOM     33  C   UNL A   1      41.756  19.887  26.375  1.00  0.00     0.202 C 
BRANCH  33  34
ATOM     34  C   UNL A   1      42.632  18.868  25.611  1.00  0.00     0.261 C 
BRANCH  34  35
ATOM     35  O   UNL A   1      44.045  19.082  25.539  1.00  0.00    -0.460 OA
BRANCH  35  36
ATOM     36  C   UNL A   1      44.508  19.707  24.431  1.00  0.00     0.338 C 
ATOM     37  O   UNL A   1      44.523  19.279  23.291  1.00  0.00    -0.246 OA
BRANCH  36  38
ATOM     38  C   UNL A   1      44.853  21.097  24.791  1.00  0.00     0.060 A 
ATOM     39  C   UNL A   1      45.304  21.367  26.089  1.00  0.00     0.016 A 
ATOM     40  C   UNL A   1      44.707  22.128  23.862  1.00  0.00     0.016 A 
ATOM     41  C   UNL A   1      45.592  22.677  26.470  1.00  0.00     0.010 A 
ATOM     42  C   UNL A   1      44.978  23.444  24.251  1.00  0.00     0.010 A 
ATOM     43  C   UNL A   1      45.395  23.729  25.565  1.00  0.00    -0.014 A 
BRANCH  43  44
ATOM     44  C   UNL A   1      45.475  25.134  26.034  1.00  0.00     0.031 A 
ATOM     45  C   UNL A   1      46.809  25.827  26.025  1.00  0.00     0.074 A 
ATOM     46  C   UNL A   1      44.381  25.790  26.461  1.00  0.00     0.049 A 
ATOM     47  N   UNL A   1      47.126  27.029  26.433  1.00  0.00    -0.248 NA
ATOM     48  C   UNL A   1      47.939  25.052  25.491  1.00  0.00     0.031 C 
ATOM     49  C   UNL A   1      43.028  25.240  26.495  1.00  0.00     0.029 A 
ATOM     50  N   UNL A   1      44.246  27.061  26.961  1.00  0.00    -0.354 N 
ATOM     51  C   UNL A   1      48.492  27.152  26.217  1.00  0.00     0.074 A 
ATOM     52  C   UNL A   1      48.949  25.891  25.673  1.00  0.00     0.031 C 
ATOM     53  C   UNL A   1      42.199  26.166  27.008  1.00  0.00     0.029 A 
ATOM     54  C   UNL A   1      42.968  27.357  27.366  1.00  0.00     0.049 A 
ATOM     55  H   UNL A   1      44.993  27.699  27.022  1.00  0.00     0.167 HD
ATOM     56  C   UNL A   1      49.295  28.220  26.445  1.00  0.00     0.037 A 
ATOM     57  C   UNL A   1      42.481  28.453  27.981  1.00  0.00     0.037 A 
ATOM     58  C   UNL A   1      48.839  29.472  26.992  1.00  0.00     0.049 A 
ATOM     59  C   UNL A   1      43.399  29.607  28.282  1.00  0.00     0.074 A 
ATOM     60  C   UNL A   1      49.565  30.627  27.224  1.00  0.00     0.029 A 
ATOM     61  N   UNL A   1      47.541  29.727  27.410  1.00  0.00    -0.354 N 
ATOM     62  N   UNL A   1      44.681  29.733  28.034  1.00  0.00    -0.248 NA
ATOM     63  C   UNL A   1      42.801  30.775  28.944  1.00  0.00     0.031 C 
ATOM     64  C   UNL A   1      48.724  31.556  27.843  1.00  0.00     0.029 A 
ATOM     65  C   UNL A   1      47.455  31.007  27.935  1.00  0.00     0.049 A 
ATOM     66  H   UNL A   1      46.791  29.093  27.343  1.00  0.00     0.167 HD
ATOM     67  C   UNL A   1      45.037  30.999  28.485  1.00  0.00     0.074 A 
ATOM     68  C   UNL A   1      43.832  31.607  29.009  1.00  0.00     0.031 C 
ATOM     69  C   UNL A   1      46.252  31.603  28.463  1.00  0.00     0.037 A 
BRANCH  56  70
ATOM     70  C   UNL A   1      50.758  28.057  26.145  1.00  0.00     0.057 A 
ATOM     71  C   UNL A   1      51.277  28.194  24.850  1.00  0.00     0.134 A 
ATOM     72  C   UNL A   1      51.663  27.758  27.172  1.00  0.00     0.134 A 
ATOM     73  F   UNL A   1      50.465  28.468  23.817  1.00  0.00    -0.206 F 
ATOM     74  C   UNL A   1      52.634  28.003  24.582  1.00  0.00     0.040 A 
ATOM     75  C   UNL A   1      53.026  27.596  26.921  1.00  0.00     0.040 A 
ATOM     76  F   UNL A   1      51.238  27.619  28.436  1.00  0.00    -0.206 F 
ATOM     77  C   UNL A   1      53.514  27.707  25.621  1.00  0.00     0.006 A 
ENDBRANCH  56  70
BRANCH  57  78
ATOM     78  C   UNL A   1      41.047  28.500  28.364  1.00  0.00     0.057 A 
ATOM     79  C   UNL A   1      40.618  28.097  29.634  1.00  0.00     0.134 A 
ATOM     80  C   UNL A   1      40.072  28.957  27.470  1.00  0.00     0.134 A 
ATOM     81  F   UNL A   1      41.501  27.625  30.526  1.00  0.00    -0.206 F 
ATOM     82  C   UNL A   1      39.271  28.141  29.998  1.00  0.00     0.040 A 
ATOM     83  C   UNL A   1      38.725  29.032  27.829  1.00  0.00     0.040 A 
ATOM     84  F   UNL A   1      40.418  29.356  26.236  1.00  0.00    -0.206 F 
ATOM     85  C   UNL A   1      38.321  28.620  29.096  1.00  0.00     0.006 A 
ENDBRANCH  57  78
BRANCH  69  86
ATOM     86  C   UNL A   1      46.337  33.007  28.996  1.00  0.00     0.057 A 
ATOM     87  C   UNL A   1      46.137  34.127  28.178  1.00  0.00     0.134 A 
ATOM     88  C   UNL A   1      46.586  33.240  30.355  1.00  0.00     0.134 A 
ATOM     89  F   UNL A   1      45.904  33.978  26.866  1.00  0.00    -0.206 F 
ATOM     90  C   UNL A   1      46.207  35.425  28.688  1.00  0.00     0.040 A 
ATOM     91  C   UNL A   1      46.627  34.532  30.882  1.00  0.00     0.040 A 
ATOM     92  F   UNL A   1      46.776  32.214  31.199  1.00  0.00    -0.206 F 
ATOM     93  C   UNL A   1      46.445  35.630  30.045  1.00  0.00     0.006 A 
ENDBRANCH  69  86
ENDBRANCH  43  44
ENDBRANCH  36  38
ENDBRANCH  35  36
ENDBRANCH  34  35
ENDBRANCH  33  34
ENDBRANCH  32  33
ENDBRANCH  31  32
ENDBRANCH   1  31
TORSDOF 20
ENDMDL
